MODEL 1
REMARK VINA RESULT:     -10.9      0.000      0.000
REMARK SMILES CC(C)N(CC1CC1)C(=O)NC1(CC(=O)NCCCNC(=O)c2ccc(-c3c4nc(c(-c5cc(S(=O)(=O)[O-])ccc5F)c5ccc([nH]5)c(-c5cc(S(=O)(=O)[O-])ccc5F)c5nc(c(-c6cc(S(=O)(=O)[O-])ccc6F)c6ccc3[nH]6)C=C5)C=C4)cc2)CCC1
REMARK SMILES IDX 17 1 16 2 14 3 15 4 13 6 12 7 86 8 88 9 87 10 11 11 9 12
REMARK SMILES IDX 10 13 4 15 2 16 1 17 3 18 5 19 6 20 7 21 8 22 18 23 19 24
REMARK SMILES IDX 20 25 21 26 22 28 23 29 24 30 85 31 25 32 84 33 26 34 27 35
REMARK SMILES IDX 28 36 78 37 29 38 83 39 77 40 79 41 30 42 82 43 76 44 75 45
REMARK SMILES IDX 31 47 63 48 43 49 62 50 44 51 47 52 61 53 80 54 45 55 46 56
REMARK SMILES IDX 60 58 81 59 48 60 32 61 33 62 41 63 34 64 40 65 42 66 39 67
REMARK SMILES IDX 35 68 36 69 37 70 38 71 64 72 65 73 73 74 66 75 72 76 74 77
REMARK SMILES IDX 71 78 67 79 68 80 69 81 70 82 49 83 50 84 58 85 51 86 57 87
REMARK SMILES IDX 59 88 56 89 52 90 53 91 54 92 55 93
REMARK H PARENT 16 5 11 14 20 27 79 46 47 57
REMARK Flexibility Score: inf
ROOT
ATOM      1  C   UNL A   1      32.274  28.351  23.282  1.00  0.00     0.117 C 
ENDROOT
BRANCH   1   2
ATOM      2  N   UNL A   1      32.404  27.666  22.011  1.00  0.00    -0.356 N 
ATOM      3  C   UNL A   1      32.548  26.326  21.817  1.00  0.00     0.222 C 
ATOM      4  O   UNL A   1      33.278  25.981  20.893  1.00  0.00    -0.275 OA
ATOM      5  H   UNL A   1      32.386  28.230  21.204  1.00  0.00     0.163 HD
BRANCH   3   6
ATOM      6  C   UNL A   1      31.702  25.379  22.629  1.00  0.00     0.128 C 
BRANCH   6   7
ATOM      7  C   UNL A   1      32.387  24.349  23.529  1.00  0.00     0.051 C 
ATOM      8  C   UNL A   1      31.466  23.160  24.015  1.00  0.00     0.029 C 
ATOM      9  C   UNL A   1      32.348  24.791  25.048  1.00  0.00     0.029 C 
ATOM     10  C   UNL A   1      31.022  24.028  25.199  1.00  0.00     0.005 C 
BRANCH   7  11
ATOM     11  N   UNL A   1      33.741  23.860  23.182  1.00  0.00    -0.332 N 
ATOM     12  C   UNL A   1      34.732  23.040  23.571  1.00  0.00     0.318 C 
ATOM     13  O   UNL A   1      35.629  22.951  22.718  1.00  0.00    -0.249 OA
ATOM     14  H   UNL A   1      34.021  24.304  22.350  1.00  0.00     0.165 HD
BRANCH  12  15
ATOM     15  N   UNL A   1      34.807  22.340  24.733  1.00  0.00    -0.322 N 
BRANCH  15  16
ATOM     16  C   UNL A   1      35.096  23.113  25.972  1.00  0.00     0.080 C 
ATOM     17  C   UNL A   1      34.515  22.522  27.267  1.00  0.00     0.031 C 
ATOM     18  C   UNL A   1      36.587  23.414  26.128  1.00  0.00     0.031 C 
ENDBRANCH  15  16
BRANCH  15  19
ATOM     19  C   UNL A   1      34.659  20.905  24.954  1.00  0.00     0.125 C 
BRANCH  19  20
ATOM     20  C   UNL A   1      33.257  20.400  25.041  1.00  0.00     0.009 C 
ATOM     21  C   UNL A   1      32.680  19.612  23.893  1.00  0.00     0.006 C 
ATOM     22  C   UNL A   1      32.888  18.957  25.232  1.00  0.00     0.006 C 
ENDBRANCH  19  20
ENDBRANCH  15  19
ENDBRANCH  12  15
ENDBRANCH   7  11
ENDBRANCH   6   7
ENDBRANCH   3   6
ENDBRANCH   1   2
BRANCH   1  23
ATOM     23  C   UNL A   1      33.652  28.691  23.845  1.00  0.00     0.042 C 
BRANCH  23  24
ATOM     24  C   UNL A   1      33.653  28.851  25.363  1.00  0.00     0.118 C 
BRANCH  24  25
ATOM     25  N   UNL A   1      33.210  30.183  25.747  1.00  0.00    -0.352 N 
ATOM     26  C   UNL A   1      33.533  30.890  26.875  1.00  0.00     0.251 C 
ATOM     27  H   UNL A   1      32.603  30.633  25.117  1.00  0.00     0.163 HD
ATOM     28  O   UNL A   1      32.778  31.776  27.273  1.00  0.00    -0.269 OA
BRANCH  26  29
ATOM     29  C   UNL A   1      34.776  30.569  27.602  1.00  0.00     0.039 A 
ATOM     30  C   UNL A   1      35.817  31.497  27.629  1.00  0.00     0.014 A 
ATOM     31  C   UNL A   1      34.922  29.326  28.226  1.00  0.00     0.014 A 
ATOM     32  C   UNL A   1      36.997  31.182  28.304  1.00  0.00     0.010 A 
ATOM     33  C   UNL A   1      36.050  29.059  28.989  1.00  0.00     0.010 A 
ATOM     34  C   UNL A   1      37.116  29.966  29.000  1.00  0.00    -0.014 A 
BRANCH  34  35
ATOM     35  C   UNL A   1      38.382  29.602  29.682  1.00  0.00     0.031 A 
ATOM     36  C   UNL A   1      38.682  30.163  31.048  1.00  0.00     0.074 A 
ATOM     37  C   UNL A   1      39.260  28.794  29.060  1.00  0.00     0.049 A 
ATOM     38  N   UNL A   1      39.718  29.957  31.819  1.00  0.00    -0.248 NA
ATOM     39  C   UNL A   1      37.706  31.113  31.605  1.00  0.00     0.031 C 
ATOM     40  C   UNL A   1      39.102  28.258  27.705  1.00  0.00     0.029 A 
ATOM     41  N   UNL A   1      40.454  28.273  29.485  1.00  0.00    -0.354 N 
ATOM     42  C   UNL A   1      39.525  30.762  32.937  1.00  0.00     0.074 A 
ATOM     43  C   UNL A   1      38.317  31.521  32.706  1.00  0.00     0.031 C 
ATOM     44  C   UNL A   1      40.135  27.447  27.430  1.00  0.00     0.029 A 
ATOM     45  C   UNL A   1      41.041  27.428  28.573  1.00  0.00     0.049 A 
ATOM     46  H   UNL A   1      40.853  28.485  30.359  1.00  0.00     0.167 HD
ATOM     47  C   UNL A   1      40.269  30.836  34.070  1.00  0.00     0.034 A 
ATOM     48  C   UNL A   1      42.175  26.708  28.662  1.00  0.00     0.034 A 
ATOM     49  C   UNL A   1      41.458  30.049  34.285  1.00  0.00     0.049 A 
ATOM     50  C   UNL A   1      42.961  26.767  29.947  1.00  0.00     0.074 A 
ATOM     51  C   UNL A   1      42.266  29.989  35.406  1.00  0.00     0.029 A 
ATOM     52  N   UNL A   1      42.010  29.178  33.352  1.00  0.00    -0.354 N 
ATOM     53  N   UNL A   1      42.728  27.480  31.027  1.00  0.00    -0.248 NA
ATOM     54  C   UNL A   1      44.145  25.907  30.033  1.00  0.00     0.031 C 
ATOM     55  C   UNL A   1      43.334  29.128  35.131  1.00  0.00     0.029 A 
ATOM     56  C   UNL A   1      43.158  28.594  33.864  1.00  0.00     0.049 A 
ATOM     57  H   UNL A   1      41.639  29.002  32.458  1.00  0.00     0.167 HD
ATOM     58  C   UNL A   1      43.729  27.136  31.929  1.00  0.00     0.074 A 
ATOM     59  C   UNL A   1      44.543  26.129  31.276  1.00  0.00     0.031 C 
ATOM     60  C   UNL A   1      43.965  27.610  33.181  1.00  0.00     0.034 A 
BRANCH  47  61
ATOM     61  C   UNL A   1      39.816  31.809  35.135  1.00  0.00     0.023 A 
ATOM     62  C   UNL A   1      39.095  31.385  36.267  1.00  0.00     0.031 A 
ATOM     63  C   UNL A   1      40.062  33.186  34.995  1.00  0.00     0.131 A 
ATOM     64  C   UNL A   1      38.572  32.329  37.163  1.00  0.00     0.055 A 
ATOM     65  C   UNL A   1      39.612  34.115  35.937  1.00  0.00     0.041 A 
ATOM     66  F   UNL A   1      40.726  33.657  33.928  1.00  0.00    -0.206 F 
ATOM     67  C   UNL A   1      38.847  33.691  37.019  1.00  0.00     0.022 A 
BRANCH  64  68
ATOM     68  S   UNL A   1      37.399  31.768  38.428  1.00  0.00     0.124 S 
ATOM     69  O   UNL A   1      36.293  32.703  38.239  1.00  0.00    -0.237 OA
ATOM     70  O   UNL A   1      37.144  30.388  38.033  1.00  0.00    -0.237 OA
ATOM     71  O   UNL A   1      38.138  31.934  39.678  1.00  0.00    -0.744 OA
ENDBRANCH  64  68
ENDBRANCH  47  61
BRANCH  48  72
ATOM     72  C   UNL A   1      42.619  25.852  27.526  1.00  0.00     0.023 A 
ATOM     73  C   UNL A   1      42.190  24.520  27.410  1.00  0.00     0.031 A 
ATOM     74  C   UNL A   1      43.501  26.347  26.548  1.00  0.00     0.131 A 
ATOM     75  C   UNL A   1      42.679  23.714  26.371  1.00  0.00     0.055 A 
ATOM     76  C   UNL A   1      43.946  25.556  25.488  1.00  0.00     0.041 A 
ATOM     77  F   UNL A   1      43.929  27.618  26.603  1.00  0.00    -0.206 F 
ATOM     78  C   UNL A   1      43.545  24.226  25.403  1.00  0.00     0.022 A 
BRANCH  75  79
ATOM     79  S   UNL A   1      42.221  21.959  26.343  1.00  0.00     0.124 S 
ATOM     80  O   UNL A   1      40.783  22.028  26.120  1.00  0.00    -0.237 OA
ATOM     81  O   UNL A   1      43.020  21.456  25.231  1.00  0.00    -0.237 OA
ATOM     82  O   UNL A   1      42.627  21.481  27.663  1.00  0.00    -0.744 OA
ENDBRANCH  75  79
ENDBRANCH  48  72
BRANCH  60  83
ATOM     83  C   UNL A   1      45.142  27.015  33.913  1.00  0.00     0.023 A 
ATOM     84  C   UNL A   1      44.985  25.926  34.788  1.00  0.00     0.031 A 
ATOM     85  C   UNL A   1      46.424  27.573  33.775  1.00  0.00     0.131 A 
ATOM     86  C   UNL A   1      46.072  25.483  35.554  1.00  0.00     0.055 A 
ATOM     87  C   UNL A   1      47.519  27.082  34.486  1.00  0.00     0.041 A 
ATOM     88  F   UNL A   1      46.631  28.615  32.953  1.00  0.00    -0.206 F 
ATOM     89  C   UNL A   1      47.342  26.045  35.398  1.00  0.00     0.022 A 
BRANCH  86  90
ATOM     90  S   UNL A   1      45.771  24.258  36.858  1.00  0.00     0.124 S 
ATOM     91  O   UNL A   1      46.884  24.505  37.769  1.00  0.00    -0.237 OA
ATOM     92  O   UNL A   1      44.450  24.643  37.344  1.00  0.00    -0.237 OA
ATOM     93  O   UNL A   1      45.823  22.983  36.146  1.00  0.00    -0.744 OA
ENDBRANCH  86  90
ENDBRANCH  60  83
ENDBRANCH  34  35
ENDBRANCH  26  29
ENDBRANCH  24  25
ENDBRANCH  23  24
ENDBRANCH   1  23
TORSDOF 19
ENDMDL
MODEL 2
REMARK VINA RESULT:     -10.6      2.705      8.365
REMARK SMILES CC(C)N(CC1CC1)C(=O)NC1(CC(=O)NCCCNC(=O)c2ccc(-c3c4nc(c(-c5cc(S(=O)(=O)[O-])ccc5F)c5ccc([nH]5)c(-c5cc(S(=O)(=O)[O-])ccc5F)c5nc(c(-c6cc(S(=O)(=O)[O-])ccc6F)c6ccc3[nH]6)C=C5)C=C4)cc2)CCC1
REMARK SMILES IDX 17 1 16 2 14 3 15 4 13 6 12 7 86 8 88 9 87 10 11 11 9 12
REMARK SMILES IDX 10 13 4 15 2 16 1 17 3 18 5 19 6 20 7 21 8 22 18 23 19 24
REMARK SMILES IDX 20 25 21 26 22 28 23 29 24 30 85 31 25 32 84 33 26 34 27 35
REMARK SMILES IDX 28 36 78 37 29 38 83 39 77 40 79 41 30 42 82 43 76 44 75 45
REMARK SMILES IDX 31 47 63 48 43 49 62 50 44 51 47 52 61 53 80 54 45 55 46 56
REMARK SMILES IDX 60 58 81 59 48 60 32 61 33 62 41 63 34 64 40 65 42 66 39 67
REMARK SMILES IDX 35 68 36 69 37 70 38 71 64 72 65 73 73 74 66 75 72 76 74 77
REMARK SMILES IDX 71 78 67 79 68 80 69 81 70 82 49 83 50 84 58 85 51 86 57 87
REMARK SMILES IDX 59 88 56 89 52 90 53 91 54 92 55 93
REMARK H PARENT 16 5 11 14 20 27 79 46 47 57
REMARK Flexibility Score: inf
ROOT
ATOM      1  C   UNL A   1      31.638  30.582  25.936  1.00  0.00     0.117 C 
ENDROOT
BRANCH   1   2
ATOM      2  N   UNL A   1      31.934  29.529  26.888  1.00  0.00    -0.356 N 
ATOM      3  C   UNL A   1      31.709  28.196  26.726  1.00  0.00     0.222 C 
ATOM      4  O   UNL A   1      31.365  27.572  27.725  1.00  0.00    -0.275 OA
ATOM      5  H   UNL A   1      32.339  29.809  27.740  1.00  0.00     0.163 HD
BRANCH   3   6
ATOM      6  C   UNL A   1      32.039  27.560  25.400  1.00  0.00     0.128 C 
BRANCH   6   7
ATOM      7  C   UNL A   1      31.117  26.474  24.841  1.00  0.00     0.051 C 
ATOM      8  C   UNL A   1      31.453  25.994  23.374  1.00  0.00     0.029 C 
ATOM      9  C   UNL A   1      29.827  27.099  24.172  1.00  0.00     0.029 C 
ATOM     10  C   UNL A   1      30.581  27.134  22.833  1.00  0.00     0.005 C 
BRANCH   7  11
ATOM     11  N   UNL A   1      30.735  25.328  25.697  1.00  0.00    -0.332 N 
ATOM     12  C   UNL A   1      31.217  24.291  26.403  1.00  0.00     0.318 C 
ATOM     13  O   UNL A   1      30.337  23.729  27.074  1.00  0.00    -0.249 OA
ATOM     14  H   UNL A   1      29.754  25.325  25.781  1.00  0.00     0.165 HD
BRANCH  12  15
ATOM     15  N   UNL A   1      32.505  23.859  26.447  1.00  0.00    -0.322 N 
BRANCH  15  16
ATOM     16  C   UNL A   1      32.729  22.428  26.788  1.00  0.00     0.080 C 
ATOM     17  C   UNL A   1      32.496  21.432  25.640  1.00  0.00     0.031 C 
ATOM     18  C   UNL A   1      34.091  22.200  27.444  1.00  0.00     0.031 C 
ENDBRANCH  15  16
BRANCH  15  19
ATOM     19  C   UNL A   1      33.735  24.611  26.218  1.00  0.00     0.125 C 
BRANCH  19  20
ATOM     20  C   UNL A   1      34.205  24.679  24.803  1.00  0.00     0.009 C 
ATOM     21  C   UNL A   1      35.324  23.776  24.349  1.00  0.00     0.006 C 
ATOM     22  C   UNL A   1      33.941  23.617  23.774  1.00  0.00     0.006 C 
ENDBRANCH  19  20
ENDBRANCH  15  19
ENDBRANCH  12  15
ENDBRANCH   7  11
ENDBRANCH   6   7
ENDBRANCH   3   6
ENDBRANCH   1   2
BRANCH   1  23
ATOM     23  C   UNL A   1      31.495  31.922  26.654  1.00  0.00     0.042 C 
BRANCH  23  24
ATOM     24  C   UNL A   1      32.790  32.383  27.319  1.00  0.00     0.118 C 
BRANCH  24  25
ATOM     25  N   UNL A   1      32.773  33.819  27.552  1.00  0.00    -0.352 N 
ATOM     26  C   UNL A   1      33.320  34.514  28.599  1.00  0.00     0.251 C 
ATOM     27  H   UNL A   1      32.312  34.361  26.871  1.00  0.00     0.163 HD
ATOM     28  O   UNL A   1      32.874  35.622  28.892  1.00  0.00    -0.269 OA
BRANCH  26  29
ATOM     29  C   UNL A   1      34.429  33.915  29.366  1.00  0.00     0.039 A 
ATOM     30  C   UNL A   1      35.743  34.287  29.082  1.00  0.00     0.014 A 
ATOM     31  C   UNL A   1      34.165  32.952  30.345  1.00  0.00     0.014 A 
ATOM     32  C   UNL A   1      36.788  33.706  29.800  1.00  0.00     0.010 A 
ATOM     33  C   UNL A   1      35.195  32.459  31.132  1.00  0.00     0.010 A 
ATOM     34  C   UNL A   1      36.521  32.798  30.839  1.00  0.00    -0.014 A 
BRANCH  34  35
ATOM     35  C   UNL A   1      37.627  32.141  31.577  1.00  0.00     0.031 A 
ATOM     36  C   UNL A   1      38.431  31.056  30.910  1.00  0.00     0.074 A 
ATOM     37  C   UNL A   1      37.880  32.506  32.848  1.00  0.00     0.049 A 
ATOM     38  N   UNL A   1      39.444  30.371  31.373  1.00  0.00    -0.248 NA
ATOM     39  C   UNL A   1      38.016  30.661  29.554  1.00  0.00     0.031 C 
ATOM     40  C   UNL A   1      37.113  33.490  33.614  1.00  0.00     0.029 A 
ATOM     41  N   UNL A   1      38.859  32.099  33.717  1.00  0.00    -0.354 N 
ATOM     42  C   UNL A   1      39.772  29.458  30.376  1.00  0.00     0.074 A 
ATOM     43  C   UNL A   1      38.799  29.620  29.320  1.00  0.00     0.031 C 
ATOM     44  C   UNL A   1      37.679  33.647  34.822  1.00  0.00     0.029 A 
ATOM     45  C   UNL A   1      38.828  32.755  34.926  1.00  0.00     0.049 A 
ATOM     46  H   UNL A   1      39.521  31.405  33.497  1.00  0.00     0.167 HD
ATOM     47  C   UNL A   1      40.812  28.587  30.330  1.00  0.00     0.034 A 
ATOM     48  C   UNL A   1      39.648  32.655  35.989  1.00  0.00     0.034 A 
ATOM     49  C   UNL A   1      41.784  28.463  31.388  1.00  0.00     0.049 A 
ATOM     50  C   UNL A   1      40.825  31.717  35.898  1.00  0.00     0.074 A 
ATOM     51  C   UNL A   1      42.911  27.663  31.439  1.00  0.00     0.029 A 
ATOM     52  N   UNL A   1      41.740  29.164  32.588  1.00  0.00    -0.354 N 
ATOM     53  N   UNL A   1      41.166  30.910  34.919  1.00  0.00    -0.248 NA
ATOM     54  C   UNL A   1      41.738  31.697  37.044  1.00  0.00     0.031 C 
ATOM     55  C   UNL A   1      43.516  27.838  32.690  1.00  0.00     0.029 A 
ATOM     56  C   UNL A   1      42.808  28.799  33.394  1.00  0.00     0.049 A 
ATOM     57  H   UNL A   1      41.051  29.823  32.831  1.00  0.00     0.167 HD
ATOM     58  C   UNL A   1      42.347  30.300  35.326  1.00  0.00     0.074 A 
ATOM     59  C   UNL A   1      42.674  30.861  36.623  1.00  0.00     0.031 C 
ATOM     60  C   UNL A   1      43.096  29.357  34.694  1.00  0.00     0.034 A 
BRANCH  47  61
ATOM     61  C   UNL A   1      40.926  27.707  29.106  1.00  0.00     0.023 A 
ATOM     62  C   UNL A   1      41.910  27.928  28.124  1.00  0.00     0.031 A 
ATOM     63  C   UNL A   1      40.009  26.663  28.890  1.00  0.00     0.131 A 
ATOM     64  C   UNL A   1      41.899  27.180  26.937  1.00  0.00     0.055 A 
ATOM     65  C   UNL A   1      40.058  25.864  27.744  1.00  0.00     0.041 A 
ATOM     66  F   UNL A   1      39.035  26.413  29.778  1.00  0.00    -0.206 F 
ATOM     67  C   UNL A   1      40.995  26.133  26.751  1.00  0.00     0.022 A 
BRANCH  64  68
ATOM     68  S   UNL A   1      42.982  27.699  25.576  1.00  0.00     0.124 S 
ATOM     69  O   UNL A   1      43.456  26.412  25.071  1.00  0.00    -0.237 OA
ATOM     70  O   UNL A   1      42.069  28.431  24.706  1.00  0.00    -0.237 OA
ATOM     71  O   UNL A   1      44.000  28.512  26.239  1.00  0.00    -0.744 OA
ENDBRANCH  64  68
ENDBRANCH  47  61
BRANCH  48  72
ATOM     72  C   UNL A   1      39.410  33.477  37.208  1.00  0.00     0.023 A 
ATOM     73  C   UNL A   1      38.690  32.963  38.300  1.00  0.00     0.031 A 
ATOM     74  C   UNL A   1      39.878  34.800  37.294  1.00  0.00     0.131 A 
ATOM     75  C   UNL A   1      38.418  33.780  39.407  1.00  0.00     0.055 A 
ATOM     76  C   UNL A   1      39.646  35.594  38.419  1.00  0.00     0.041 A 
ATOM     77  F   UNL A   1      40.584  35.335  36.285  1.00  0.00    -0.206 F 
ATOM     78  C   UNL A   1      38.900  35.088  39.478  1.00  0.00     0.022 A 
BRANCH  75  79
ATOM     79  S   UNL A   1      37.357  33.129  40.727  1.00  0.00     0.124 S 
ATOM     80  O   UNL A   1      37.250  34.277  41.618  1.00  0.00    -0.237 OA
ATOM     81  O   UNL A   1      36.147  32.771  39.993  1.00  0.00    -0.237 OA
ATOM     82  O   UNL A   1      38.121  31.999  41.251  1.00  0.00    -0.744 OA
ENDBRANCH  75  79
ENDBRANCH  48  72
BRANCH  60  83
ATOM     83  C   UNL A   1      44.346  28.905  35.407  1.00  0.00     0.023 A 
ATOM     84  C   UNL A   1      44.307  27.897  36.386  1.00  0.00     0.031 A 
ATOM     85  C   UNL A   1      45.581  29.523  35.142  1.00  0.00     0.131 A 
ATOM     86  C   UNL A   1      45.461  27.595  37.124  1.00  0.00     0.055 A 
ATOM     87  C   UNL A   1      46.741  29.168  35.829  1.00  0.00     0.041 A 
ATOM     88  F   UNL A   1      45.676  30.492  34.217  1.00  0.00    -0.206 F 
ATOM     89  C   UNL A   1      46.681  28.213  36.842  1.00  0.00     0.022 A 
BRANCH  86  90
ATOM     90  S   UNL A   1      45.309  26.484  38.550  1.00  0.00     0.124 S 
ATOM     91  O   UNL A   1      46.243  27.080  39.500  1.00  0.00    -0.237 OA
ATOM     92  O   UNL A   1      43.894  26.603  38.886  1.00  0.00    -0.237 OA
ATOM     93  O   UNL A   1      45.712  25.185  38.015  1.00  0.00    -0.744 OA
ENDBRANCH  86  90
ENDBRANCH  60  83
ENDBRANCH  34  35
ENDBRANCH  26  29
ENDBRANCH  24  25
ENDBRANCH  23  24
ENDBRANCH   1  23
TORSDOF 19
ENDMDL
MODEL 3
REMARK VINA RESULT:     -10.6      1.585      2.213
REMARK SMILES CC(C)N(CC1CC1)C(=O)NC1(CC(=O)NCCCNC(=O)c2ccc(-c3c4nc(c(-c5cc(S(=O)(=O)[O-])ccc5F)c5ccc([nH]5)c(-c5cc(S(=O)(=O)[O-])ccc5F)c5nc(c(-c6cc(S(=O)(=O)[O-])ccc6F)c6ccc3[nH]6)C=C5)C=C4)cc2)CCC1
REMARK SMILES IDX 17 1 16 2 14 3 15 4 13 6 12 7 86 8 88 9 87 10 11 11 9 12
REMARK SMILES IDX 10 13 4 15 2 16 1 17 3 18 5 19 6 20 7 21 8 22 18 23 19 24
REMARK SMILES IDX 20 25 21 26 22 28 23 29 24 30 85 31 25 32 84 33 26 34 27 35
REMARK SMILES IDX 28 36 78 37 29 38 83 39 77 40 79 41 30 42 82 43 76 44 75 45
REMARK SMILES IDX 31 47 63 48 43 49 62 50 44 51 47 52 61 53 80 54 45 55 46 56
REMARK SMILES IDX 60 58 81 59 48 60 32 61 33 62 41 63 34 64 40 65 42 66 39 67
REMARK SMILES IDX 35 68 36 69 37 70 38 71 64 72 65 73 73 74 66 75 72 76 74 77
REMARK SMILES IDX 71 78 67 79 68 80 69 81 70 82 49 83 50 84 58 85 51 86 57 87
REMARK SMILES IDX 59 88 56 89 52 90 53 91 54 92 55 93
REMARK H PARENT 16 5 11 14 20 27 79 46 47 57
REMARK Flexibility Score: inf
ROOT
ATOM      1  C   UNL A   1      31.354  29.542  25.121  1.00  0.00     0.117 C 
ENDROOT
BRANCH   1   2
ATOM      2  N   UNL A   1      30.712  29.729  23.835  1.00  0.00    -0.356 N 
ATOM      3  C   UNL A   1      30.514  28.782  22.877  1.00  0.00     0.222 C 
ATOM      4  O   UNL A   1      30.612  29.152  21.711  1.00  0.00    -0.275 OA
ATOM      5  H   UNL A   1      30.384  30.635  23.635  1.00  0.00     0.163 HD
BRANCH   3   6
ATOM      6  C   UNL A   1      30.048  27.411  23.295  1.00  0.00     0.128 C 
BRANCH   6   7
ATOM      7  C   UNL A   1      31.081  26.371  23.735  1.00  0.00     0.051 C 
ATOM      8  C   UNL A   1      32.475  26.451  22.996  1.00  0.00     0.029 C 
ATOM      9  C   UNL A   1      30.914  25.016  22.935  1.00  0.00     0.029 C 
ATOM     10  C   UNL A   1      31.909  25.550  21.892  1.00  0.00     0.005 C 
BRANCH   7  11
ATOM     11  N   UNL A   1      31.263  26.086  25.176  1.00  0.00    -0.332 N 
ATOM     12  C   UNL A   1      31.965  25.356  26.058  1.00  0.00     0.318 C 
ATOM     13  O   UNL A   1      31.741  25.693  27.232  1.00  0.00    -0.249 OA
ATOM     14  H   UNL A   1      30.629  26.646  25.679  1.00  0.00     0.165 HD
BRANCH  12  15
ATOM     15  N   UNL A   1      32.850  24.363  25.778  1.00  0.00    -0.322 N 
BRANCH  15  16
ATOM     16  C   UNL A   1      32.448  22.975  26.134  1.00  0.00     0.080 C 
ATOM     17  C   UNL A   1      32.815  22.528  27.559  1.00  0.00     0.031 C 
ATOM     18  C   UNL A   1      30.971  22.710  25.840  1.00  0.00     0.031 C 
ENDBRANCH  15  16
BRANCH  15  19
ATOM     19  C   UNL A   1      34.178  24.457  25.179  1.00  0.00     0.125 C 
BRANCH  19  20
ATOM     20  C   UNL A   1      34.662  23.236  24.471  1.00  0.00     0.009 C 
ATOM     21  C   UNL A   1      34.371  23.066  23.001  1.00  0.00     0.006 C 
ATOM     22  C   UNL A   1      35.790  23.224  23.479  1.00  0.00     0.006 C 
ENDBRANCH  19  20
ENDBRANCH  15  19
ENDBRANCH  12  15
ENDBRANCH   7  11
ENDBRANCH   6   7
ENDBRANCH   3   6
ENDBRANCH   1   2
BRANCH   1  23
ATOM     23  C   UNL A   1      32.860  29.373  24.943  1.00  0.00     0.042 C 
BRANCH  23  24
ATOM     24  C   UNL A   1      33.648  29.659  26.219  1.00  0.00     0.118 C 
BRANCH  24  25
ATOM     25  N   UNL A   1      33.522  31.055  26.608  1.00  0.00    -0.352 N 
ATOM     26  C   UNL A   1      34.133  31.702  27.649  1.00  0.00     0.251 C 
ATOM     27  H   UNL A   1      32.923  31.605  26.053  1.00  0.00     0.163 HD
ATOM     28  O   UNL A   1      33.624  32.721  28.114  1.00  0.00    -0.269 OA
BRANCH  26  29
ATOM     29  C   UNL A   1      35.388  31.160  28.204  1.00  0.00     0.039 A 
ATOM     30  C   UNL A   1      35.406  29.870  28.735  1.00  0.00     0.014 A 
ATOM     31  C   UNL A   1      36.542  31.950  28.233  1.00  0.00     0.014 A 
ATOM     32  C   UNL A   1      36.591  29.369  29.273  1.00  0.00     0.010 A 
ATOM     33  C   UNL A   1      37.744  31.411  28.666  1.00  0.00     0.010 A 
ATOM     34  C   UNL A   1      37.771  30.131  29.231  1.00  0.00    -0.014 A 
BRANCH  34  35
ATOM     35  C   UNL A   1      39.025  29.625  29.840  1.00  0.00     0.031 A 
ATOM     36  C   UNL A   1      39.445  30.114  31.202  1.00  0.00     0.074 A 
ATOM     37  C   UNL A   1      39.788  28.752  29.154  1.00  0.00     0.049 A 
ATOM     38  N   UNL A   1      40.491  29.784  31.914  1.00  0.00    -0.248 NA
ATOM     39  C   UNL A   1      38.596  31.138  31.830  1.00  0.00     0.031 C 
ATOM     40  C   UNL A   1      39.513  28.275  27.797  1.00  0.00     0.029 A 
ATOM     41  N   UNL A   1      40.944  28.105  29.506  1.00  0.00    -0.354 N 
ATOM     42  C   UNL A   1      40.432  30.572  33.060  1.00  0.00     0.074 A 
ATOM     43  C   UNL A   1      39.296  31.451  32.908  1.00  0.00     0.031 C 
ATOM     44  C   UNL A   1      40.447  27.374  27.451  1.00  0.00     0.029 A 
ATOM     45  C   UNL A   1      41.400  27.233  28.546  1.00  0.00     0.049 A 
ATOM     46  H   UNL A   1      41.403  28.251  30.364  1.00  0.00     0.167 HD
ATOM     47  C   UNL A   1      41.233  30.539  34.155  1.00  0.00     0.034 A 
ATOM     48  C   UNL A   1      42.460  26.404  28.560  1.00  0.00     0.034 A 
ATOM     49  C   UNL A   1      42.346  29.633  34.292  1.00  0.00     0.049 A 
ATOM     50  C   UNL A   1      43.308  26.349  29.804  1.00  0.00     0.074 A 
ATOM     51  C   UNL A   1      43.197  29.462  35.369  1.00  0.00     0.029 A 
ATOM     52  N   UNL A   1      42.764  28.741  33.311  1.00  0.00    -0.354 N 
ATOM     53  N   UNL A   1      43.199  27.048  30.912  1.00  0.00    -0.248 NA
ATOM     54  C   UNL A   1      44.404  25.375  29.810  1.00  0.00     0.031 C 
ATOM     55  C   UNL A   1      44.160  28.509  35.019  1.00  0.00     0.029 A 
ATOM     56  C   UNL A   1      43.872  28.032  33.750  1.00  0.00     0.049 A 
ATOM     57  H   UNL A   1      42.336  28.628  32.432  1.00  0.00     0.167 HD
ATOM     58  C   UNL A   1      44.203  26.583  31.754  1.00  0.00     0.074 A 
ATOM     59  C   UNL A   1      44.881  25.520  31.036  1.00  0.00     0.031 C 
ATOM     60  C   UNL A   1      44.544  26.995  33.003  1.00  0.00     0.034 A 
BRANCH  47  61
ATOM     61  C   UNL A   1      40.930  31.521  35.265  1.00  0.00     0.023 A 
ATOM     62  C   UNL A   1      39.773  31.406  36.059  1.00  0.00     0.031 A 
ATOM     63  C   UNL A   1      41.780  32.615  35.502  1.00  0.00     0.131 A 
ATOM     64  C   UNL A   1      39.454  32.410  36.986  1.00  0.00     0.055 A 
ATOM     65  C   UNL A   1      41.500  33.566  36.487  1.00  0.00     0.041 A 
ATOM     66  F   UNL A   1      42.887  32.792  34.766  1.00  0.00    -0.206 F 
ATOM     67  C   UNL A   1      40.322  33.478  37.223  1.00  0.00     0.022 A 
BRANCH  64  68
ATOM     68  S   UNL A   1      37.814  32.383  37.762  1.00  0.00     0.124 S 
ATOM     69  O   UNL A   1      38.081  33.046  39.037  1.00  0.00    -0.237 OA
ATOM     70  O   UNL A   1      37.001  33.130  36.811  1.00  0.00    -0.237 OA
ATOM     71  O   UNL A   1      37.506  30.958  37.864  1.00  0.00    -0.744 OA
ENDBRANCH  64  68
ENDBRANCH  47  61
BRANCH  48  72
ATOM     72  C   UNL A   1      42.763  25.542  27.382  1.00  0.00     0.023 A 
ATOM     73  C   UNL A   1      42.290  24.221  27.309  1.00  0.00     0.031 A 
ATOM     74  C   UNL A   1      43.550  26.019  26.320  1.00  0.00     0.131 A 
ATOM     75  C   UNL A   1      42.648  23.409  26.223  1.00  0.00     0.055 A 
ATOM     76  C   UNL A   1      43.864  25.221  25.218  1.00  0.00     0.041 A 
ATOM     77  F   UNL A   1      44.015  27.279  26.333  1.00  0.00    -0.206 F 
ATOM     78  C   UNL A   1      43.423  23.903  25.172  1.00  0.00     0.022 A 
BRANCH  75  79
ATOM     79  S   UNL A   1      42.145  21.665  26.241  1.00  0.00     0.124 S 
ATOM     80  O   UNL A   1      42.372  21.302  27.634  1.00  0.00    -0.237 OA
ATOM     81  O   UNL A   1      40.751  21.749  25.818  1.00  0.00    -0.237 OA
ATOM     82  O   UNL A   1      43.049  21.042  25.276  1.00  0.00    -0.744 OA
ENDBRANCH  75  79
ENDBRANCH  48  72
BRANCH  60  83
ATOM     83  C   UNL A   1      45.689  26.266  33.661  1.00  0.00     0.023 A 
ATOM     84  C   UNL A   1      45.475  25.113  34.437  1.00  0.00     0.031 A 
ATOM     85  C   UNL A   1      47.002  26.756  33.554  1.00  0.00     0.131 A 
ATOM     86  C   UNL A   1      46.541  24.538  35.143  1.00  0.00     0.055 A 
ATOM     87  C   UNL A   1      48.071  26.138  34.201  1.00  0.00     0.041 A 
ATOM     88  F   UNL A   1      47.264  27.854  32.826  1.00  0.00    -0.206 F 
ATOM     89  C   UNL A   1      47.841  25.034  35.018  1.00  0.00     0.022 A 
BRANCH  86  90
ATOM     90  S   UNL A   1      46.178  23.220  36.336  1.00  0.00     0.124 S 
ATOM     91  O   UNL A   1      45.881  22.092  35.459  1.00  0.00    -0.237 OA
ATOM     92  O   UNL A   1      47.424  23.133  37.089  1.00  0.00    -0.237 OA
ATOM     93  O   UNL A   1      45.036  23.742  37.083  1.00  0.00    -0.744 OA
ENDBRANCH  86  90
ENDBRANCH  60  83
ENDBRANCH  34  35
ENDBRANCH  26  29
ENDBRANCH  24  25
ENDBRANCH  23  24
ENDBRANCH   1  23
TORSDOF 19
ENDMDL
