MODEL 1
REMARK VINA RESULT:     -13.0      0.000      0.000
REMARK SMILES CCc1ccc(S(=O)(=O)N2CCC3(CC2)NC(=O)C[C@H]3C(=O)NCCCNC(=O)c2ccc(-c3c4nc(c(-c5cc(S(=O)(=O)[O-])ccc5F)c5ccc([nH]5)c(-c5cc(S(=O)(=O)[O-])ccc5F)c5nc(c(-c6cc(S(=O)(=O)[O-])ccc6F)c6ccc3[nH]6)C=C5)C=C4)cc2)s1
REMARK SMILES IDX 25 1 24 2 23 3 21 4 22 5 20 7 10 8 11 9 15 10 12 11 14 12
REMARK SMILES IDX 13 13 16 14 17 15 19 17 18 18 7 19 8 20 9 21 6 22 3 23 4 24
REMARK SMILES IDX 93 25 5 26 2 27 1 28 26 29 27 30 28 31 29 33 30 34 31 35
REMARK SMILES IDX 92 36 32 37 91 38 33 39 34 40 35 41 85 42 36 43 90 44 84 45
REMARK SMILES IDX 86 46 37 47 89 48 83 49 82 50 38 52 70 53 50 54 69 55 51 56
REMARK SMILES IDX 54 57 68 58 87 59 52 60 53 61 67 63 88 64 55 65 39 66 40 67
REMARK SMILES IDX 48 68 41 69 47 70 49 71 46 72 42 73 43 74 44 75 45 76 71 77
REMARK SMILES IDX 72 78 80 79 73 80 79 81 81 82 78 83 74 84 75 85 76 86 77 87
REMARK SMILES IDX 56 88 57 89 65 90 58 91 64 92 66 93 63 94 59 95 60 96 61 97
REMARK SMILES IDX 62 98
REMARK H PARENT 23 6 16 16 27 32 86 51 54 62
REMARK Flexibility Score: inf
ROOT
ATOM      1  C   UNL A   1      31.981  29.041  26.266  1.00  0.00     0.042 C 
ENDROOT
BRANCH   1   2
ATOM      2  C   UNL A   1      31.726  29.987  25.090  1.00  0.00     0.117 C 
BRANCH   2   3
ATOM      3  N   UNL A   1      31.085  29.357  23.940  1.00  0.00    -0.356 N 
ATOM      4  C   UNL A   1      31.319  28.252  23.188  1.00  0.00     0.226 C 
ATOM      5  O   UNL A   1      30.486  28.017  22.303  1.00  0.00    -0.275 OA
ATOM      6  H   UNL A   1      30.289  29.851  23.639  1.00  0.00     0.163 HD
BRANCH   4   7
ATOM      7  C   UNL A   1      32.512  27.302  23.318  1.00  0.00     0.113 C 
ATOM      8  N   UNL A   1      32.187  24.654  26.445  1.00  0.00    -0.197 NA
ATOM      9  C   UNL A   1      33.504  25.061  25.973  1.00  0.00     0.105 C 
ATOM     10  C   UNL A   1      31.133  25.610  26.117  1.00  0.00     0.105 C 
ATOM     11  C   UNL A   1      33.522  25.236  24.458  1.00  0.00     0.046 C 
ATOM     12  C   UNL A   1      30.948  25.658  24.611  1.00  0.00     0.046 C 
ATOM     13  C   UNL A   1      32.242  25.851  23.776  1.00  0.00     0.055 C 
ATOM     14  N   UNL A   1      32.137  25.210  22.465  1.00  0.00    -0.350 N 
ATOM     15  C   UNL A   1      32.879  25.833  21.486  1.00  0.00     0.221 C 
ATOM     16  H   UNL A   1      31.588  24.410  22.297  1.00  0.00     0.164 HD
ATOM     17  C   UNL A   1      33.296  27.178  22.001  1.00  0.00     0.116 C 
ATOM     18  O   UNL A   1      33.114  25.365  20.388  1.00  0.00    -0.275 OA
BRANCH   8  19
ATOM     19  S   UNL A   1      31.834  23.077  26.965  1.00  0.00     0.252 S 
ATOM     20  O   UNL A   1      30.405  22.971  27.106  1.00  0.00    -0.206 OA
ATOM     21  O   UNL A   1      32.745  22.766  28.055  1.00  0.00    -0.206 OA
BRANCH  19  22
ATOM     22  C   UNL A   1      32.269  21.914  25.679  1.00  0.00     0.135 A 
ATOM     23  C   UNL A   1      33.149  19.914  24.498  1.00  0.00     0.006 A 
ATOM     24  C   UNL A   1      32.535  20.794  23.636  1.00  0.00     0.017 A 
ATOM     25  S   UNL A   1      33.092  20.476  26.124  1.00  0.00    -0.127 S 
ATOM     26  C   UNL A   1      32.097  21.948  24.315  1.00  0.00     0.034 A 
BRANCH  23  27
ATOM     27  C   UNL A   1      33.826  18.636  24.105  1.00  0.00     0.043 C 
ATOM     28  C   UNL A   1      32.933  17.727  23.283  1.00  0.00     0.010 C 
ENDBRANCH  23  27
ENDBRANCH  19  22
ENDBRANCH   8  19
ENDBRANCH   4   7
ENDBRANCH   2   3
ENDBRANCH   1   2
BRANCH   1  29
ATOM     29  C   UNL A   1      33.183  29.415  27.129  1.00  0.00     0.118 C 
BRANCH  29  30
ATOM     30  N   UNL A   1      33.293  30.854  27.294  1.00  0.00    -0.352 N 
ATOM     31  C   UNL A   1      34.220  31.611  27.964  1.00  0.00     0.251 C 
ATOM     32  H   UNL A   1      32.584  31.373  26.851  1.00  0.00     0.163 HD
ATOM     33  O   UNL A   1      33.937  32.781  28.214  1.00  0.00    -0.269 OA
BRANCH  31  34
ATOM     34  C   UNL A   1      35.532  31.059  28.382  1.00  0.00     0.039 A 
ATOM     35  C   UNL A   1      35.543  29.869  29.118  1.00  0.00     0.014 A 
ATOM     36  C   UNL A   1      36.733  31.737  28.152  1.00  0.00     0.014 A 
ATOM     37  C   UNL A   1      36.748  29.354  29.601  1.00  0.00     0.010 A 
ATOM     38  C   UNL A   1      37.945  31.182  28.570  1.00  0.00     0.010 A 
ATOM     39  C   UNL A   1      37.965  29.996  29.319  1.00  0.00    -0.014 A 
BRANCH  39  40
ATOM     40  C   UNL A   1      39.246  29.436  29.828  1.00  0.00     0.031 A 
ATOM     41  C   UNL A   1      39.891  30.001  31.066  1.00  0.00     0.074 A 
ATOM     42  C   UNL A   1      39.833  28.420  29.163  1.00  0.00     0.049 A 
ATOM     43  N   UNL A   1      40.990  29.626  31.674  1.00  0.00    -0.248 NA
ATOM     44  C   UNL A   1      39.231  31.158  31.688  1.00  0.00     0.031 C 
ATOM     45  C   UNL A   1      39.333  27.826  27.921  1.00  0.00     0.029 A 
ATOM     46  N   UNL A   1      40.969  27.703  29.439  1.00  0.00    -0.354 N 
ATOM     47  C   UNL A   1      41.156  30.504  32.742  1.00  0.00     0.074 A 
ATOM     48  C   UNL A   1      40.081  31.470  32.655  1.00  0.00     0.031 C 
ATOM     49  C   UNL A   1      40.134  26.809  27.567  1.00  0.00     0.029 A 
ATOM     50  C   UNL A   1      41.222  26.699  28.534  1.00  0.00     0.049 A 
ATOM     51  H   UNL A   1      41.549  27.889  30.213  1.00  0.00     0.167 HD
ATOM     52  C   UNL A   1      42.101  30.491  33.716  1.00  0.00     0.034 A 
ATOM     53  C   UNL A   1      42.213  25.788  28.490  1.00  0.00     0.034 A 
ATOM     54  C   UNL A   1      43.160  29.513  33.793  1.00  0.00     0.049 A 
ATOM     55  C   UNL A   1      43.238  25.779  29.595  1.00  0.00     0.074 A 
ATOM     56  C   UNL A   1      44.144  29.376  34.758  1.00  0.00     0.029 A 
ATOM     57  N   UNL A   1      43.378  28.502  32.864  1.00  0.00    -0.354 N 
ATOM     58  N   UNL A   1      43.346  26.581  30.631  1.00  0.00    -0.248 NA
ATOM     59  C   UNL A   1      44.259  24.727  29.536  1.00  0.00     0.031 C 
ATOM     60  C   UNL A   1      44.989  28.324  34.381  1.00  0.00     0.029 A 
ATOM     61  C   UNL A   1      44.491  27.753  33.221  1.00  0.00     0.049 A 
ATOM     62  H   UNL A   1      42.822  28.340  32.067  1.00  0.00     0.167 HD
ATOM     63  C   UNL A   1      44.434  26.110  31.360  1.00  0.00     0.074 A 
ATOM     64  C   UNL A   1      44.924  24.939  30.661  1.00  0.00     0.031 C 
ATOM     65  C   UNL A   1      44.982  26.600  32.503  1.00  0.00     0.034 A 
BRANCH  52  66
ATOM     66  C   UNL A   1      42.036  31.583  34.761  1.00  0.00     0.023 A 
ATOM     67  C   UNL A   1      41.074  31.568  35.787  1.00  0.00     0.031 A 
ATOM     68  C   UNL A   1      42.928  32.669  34.717  1.00  0.00     0.131 A 
ATOM     69  C   UNL A   1      40.973  32.653  36.673  1.00  0.00     0.055 A 
ATOM     70  C   UNL A   1      42.877  33.705  35.653  1.00  0.00     0.041 A 
ATOM     71  F   UNL A   1      43.858  32.752  33.752  1.00  0.00    -0.206 F 
ATOM     72  C   UNL A   1      41.885  33.709  36.630  1.00  0.00     0.022 A 
BRANCH  69  73
ATOM     73  S   UNL A   1      39.542  32.733  37.786  1.00  0.00     0.124 S 
ATOM     74  O   UNL A   1      39.023  34.069  37.501  1.00  0.00    -0.237 OA
ATOM     75  O   UNL A   1      38.722  31.618  37.327  1.00  0.00    -0.237 OA
ATOM     76  O   UNL A   1      40.131  32.571  39.114  1.00  0.00    -0.744 OA
ENDBRANCH  69  73
ENDBRANCH  52  66
BRANCH  53  77
ATOM     77  C   UNL A   1      42.281  24.797  27.378  1.00  0.00     0.023 A 
ATOM     78  C   UNL A   1      41.511  23.623  27.406  1.00  0.00     0.031 A 
ATOM     79  C   UNL A   1      43.148  24.991  26.289  1.00  0.00     0.131 A 
ATOM     80  C   UNL A   1      41.659  22.664  26.393  1.00  0.00     0.055 A 
ATOM     81  C   UNL A   1      43.253  24.058  25.255  1.00  0.00     0.041 A 
ATOM     82  F   UNL A   1      43.898  26.102  26.206  1.00  0.00    -0.206 F 
ATOM     83  C   UNL A   1      42.517  22.880  25.311  1.00  0.00     0.022 A 
BRANCH  80  84
ATOM     84  S   UNL A   1      40.773  21.089  26.551  1.00  0.00     0.124 S 
ATOM     85  O   UNL A   1      41.614  20.194  25.766  1.00  0.00    -0.237 OA
ATOM     86  O   UNL A   1      40.785  20.881  27.995  1.00  0.00    -0.237 OA
ATOM     87  O   UNL A   1      39.461  21.379  25.977  1.00  0.00    -0.744 OA
ENDBRANCH  80  84
ENDBRANCH  53  77
BRANCH  65  88
ATOM     88  C   UNL A   1      46.154  25.837  33.072  1.00  0.00     0.023 A 
ATOM     89  C   UNL A   1      47.447  25.962  32.533  1.00  0.00     0.031 A 
ATOM     90  C   UNL A   1      45.965  24.930  34.130  1.00  0.00     0.131 A 
ATOM     91  C   UNL A   1      48.480  25.134  32.995  1.00  0.00     0.055 A 
ATOM     92  C   UNL A   1      47.014  24.160  34.634  1.00  0.00     0.041 A 
ATOM     93  F   UNL A   1      44.752  24.767  34.684  1.00  0.00    -0.206 F 
ATOM     94  C   UNL A   1      48.276  24.244  34.052  1.00  0.00     0.022 A 
BRANCH  91  95
ATOM     95  S   UNL A   1      50.059  25.137  32.102  1.00  0.00     0.124 S 
ATOM     96  O   UNL A   1      50.498  23.754  32.256  1.00  0.00    -0.237 OA
ATOM     97  O   UNL A   1      49.655  25.532  30.757  1.00  0.00    -0.237 OA
ATOM     98  O   UNL A   1      50.860  26.125  32.823  1.00  0.00    -0.744 OA
ENDBRANCH  91  95
ENDBRANCH  65  88
ENDBRANCH  39  40
ENDBRANCH  31  34
ENDBRANCH  29  30
ENDBRANCH   1  29
TORSDOF 16
ENDMDL
MODEL 2
REMARK VINA RESULT:     -13.0      1.630      1.836
REMARK SMILES CCc1ccc(S(=O)(=O)N2CCC3(CC2)NC(=O)C[C@H]3C(=O)NCCCNC(=O)c2ccc(-c3c4nc(c(-c5cc(S(=O)(=O)[O-])ccc5F)c5ccc([nH]5)c(-c5cc(S(=O)(=O)[O-])ccc5F)c5nc(c(-c6cc(S(=O)(=O)[O-])ccc6F)c6ccc3[nH]6)C=C5)C=C4)cc2)s1
REMARK SMILES IDX 25 1 24 2 23 3 21 4 22 5 20 7 10 8 11 9 15 10 12 11 14 12
REMARK SMILES IDX 13 13 16 14 17 15 19 17 18 18 7 19 8 20 9 21 6 22 3 23 4 24
REMARK SMILES IDX 93 25 5 26 2 27 1 28 26 29 27 30 28 31 29 33 30 34 31 35
REMARK SMILES IDX 92 36 32 37 91 38 33 39 34 40 35 41 85 42 36 43 90 44 84 45
REMARK SMILES IDX 86 46 37 47 89 48 83 49 82 50 38 52 70 53 50 54 69 55 51 56
REMARK SMILES IDX 54 57 68 58 87 59 52 60 53 61 67 63 88 64 55 65 39 66 40 67
REMARK SMILES IDX 48 68 41 69 47 70 49 71 46 72 42 73 43 74 44 75 45 76 71 77
REMARK SMILES IDX 72 78 80 79 73 80 79 81 81 82 78 83 74 84 75 85 76 86 77 87
REMARK SMILES IDX 56 88 57 89 65 90 58 91 64 92 66 93 63 94 59 95 60 96 61 97
REMARK SMILES IDX 62 98
REMARK H PARENT 23 6 16 16 27 32 86 51 54 62
REMARK Flexibility Score: inf
ROOT
ATOM      1  C   UNL A   1      32.127  28.800  25.763  1.00  0.00     0.042 C 
ENDROOT
BRANCH   1   2
ATOM      2  C   UNL A   1      31.209  29.699  24.930  1.00  0.00     0.117 C 
BRANCH   2   3
ATOM      3  N   UNL A   1      30.717  29.081  23.703  1.00  0.00    -0.356 N 
ATOM      4  C   UNL A   1      31.089  28.026  22.935  1.00  0.00     0.226 C 
ATOM      5  O   UNL A   1      30.358  27.780  21.967  1.00  0.00    -0.275 OA
ATOM      6  H   UNL A   1      29.922  29.539  23.347  1.00  0.00     0.163 HD
BRANCH   4   7
ATOM      7  C   UNL A   1      32.324  27.146  23.140  1.00  0.00     0.113 C 
ATOM      8  N   UNL A   1      32.033  24.615  26.367  1.00  0.00    -0.197 NA
ATOM      9  C   UNL A   1      33.342  25.070  25.917  1.00  0.00     0.105 C 
ATOM     10  C   UNL A   1      30.943  25.501  25.967  1.00  0.00     0.105 C 
ATOM     11  C   UNL A   1      33.399  25.182  24.398  1.00  0.00     0.046 C 
ATOM     12  C   UNL A   1      30.804  25.477  24.455  1.00  0.00     0.046 C 
ATOM     13  C   UNL A   1      32.113  25.702  23.652  1.00  0.00     0.055 C 
ATOM     14  N   UNL A   1      32.082  25.003  22.367  1.00  0.00    -0.350 N 
ATOM     15  C   UNL A   1      32.822  25.623  21.385  1.00  0.00     0.221 C 
ATOM     16  H   UNL A   1      31.580  24.170  22.217  1.00  0.00     0.164 HD
ATOM     17  C   UNL A   1      33.155  27.007  21.855  1.00  0.00     0.116 C 
ATOM     18  O   UNL A   1      33.115  25.123  20.316  1.00  0.00    -0.275 OA
BRANCH   8  19
ATOM     19  S   UNL A   1      31.743  23.045  26.944  1.00  0.00     0.252 S 
ATOM     20  O   UNL A   1      30.322  22.897  27.120  1.00  0.00    -0.206 OA
ATOM     21  O   UNL A   1      32.688  22.797  28.021  1.00  0.00    -0.206 OA
BRANCH  19  22
ATOM     22  C   UNL A   1      32.187  21.856  25.684  1.00  0.00     0.135 A 
ATOM     23  C   UNL A   1      33.128  19.862  24.540  1.00  0.00     0.006 A 
ATOM     24  C   UNL A   1      32.426  20.670  23.675  1.00  0.00     0.017 A 
ATOM     25  S   UNL A   1      33.110  20.486  26.144  1.00  0.00    -0.127 S 
ATOM     26  C   UNL A   1      31.953  21.825  24.329  1.00  0.00     0.034 A 
BRANCH  23  27
ATOM     27  C   UNL A   1      33.859  18.609  24.166  1.00  0.00     0.043 C 
ATOM     28  C   UNL A   1      33.057  17.715  23.239  1.00  0.00     0.010 C 
ENDBRANCH  23  27
ENDBRANCH  19  22
ENDBRANCH   8  19
ENDBRANCH   4   7
ENDBRANCH   2   3
ENDBRANCH   1   2
BRANCH   1  29
ATOM     29  C   UNL A   1      33.482  29.419  26.098  1.00  0.00     0.118 C 
BRANCH  29  30
ATOM     30  N   UNL A   1      33.345  30.800  26.526  1.00  0.00    -0.352 N 
ATOM     31  C   UNL A   1      34.030  31.516  27.475  1.00  0.00     0.251 C 
ATOM     32  H   UNL A   1      32.644  31.307  26.058  1.00  0.00     0.163 HD
ATOM     33  O   UNL A   1      33.538  32.571  27.868  1.00  0.00    -0.269 OA
BRANCH  31  34
ATOM     34  C   UNL A   1      35.329  31.054  28.022  1.00  0.00     0.039 A 
ATOM     35  C   UNL A   1      35.391  29.773  28.583  1.00  0.00     0.014 A 
ATOM     36  C   UNL A   1      36.450  31.887  28.085  1.00  0.00     0.014 A 
ATOM     37  C   UNL A   1      36.570  29.326  29.182  1.00  0.00     0.010 A 
ATOM     38  C   UNL A   1      37.651  31.411  28.616  1.00  0.00     0.010 A 
ATOM     39  C   UNL A   1      37.719  30.133  29.191  1.00  0.00    -0.014 A 
BRANCH  39  40
ATOM     40  C   UNL A   1      38.976  29.646  29.821  1.00  0.00     0.031 A 
ATOM     41  C   UNL A   1      39.386  30.131  31.187  1.00  0.00     0.074 A 
ATOM     42  C   UNL A   1      39.753  28.769  29.154  1.00  0.00     0.049 A 
ATOM     43  N   UNL A   1      40.430  29.799  31.907  1.00  0.00    -0.248 NA
ATOM     44  C   UNL A   1      38.527  31.145  31.816  1.00  0.00     0.031 C 
ATOM     45  C   UNL A   1      39.489  28.269  27.803  1.00  0.00     0.029 A 
ATOM     46  N   UNL A   1      40.914  28.138  29.520  1.00  0.00    -0.354 N 
ATOM     47  C   UNL A   1      40.356  30.567  33.066  1.00  0.00     0.074 A 
ATOM     48  C   UNL A   1      39.203  31.429  32.919  1.00  0.00     0.031 C 
ATOM     49  C   UNL A   1      40.436  27.378  27.472  1.00  0.00     0.029 A 
ATOM     50  C   UNL A   1      41.393  27.268  28.568  1.00  0.00     0.049 A 
ATOM     51  H   UNL A   1      41.363  28.293  30.383  1.00  0.00     0.167 HD
ATOM     52  C   UNL A   1      41.160  30.538  34.159  1.00  0.00     0.034 A 
ATOM     53  C   UNL A   1      42.475  26.465  28.580  1.00  0.00     0.034 A 
ATOM     54  C   UNL A   1      42.301  29.663  34.293  1.00  0.00     0.049 A 
ATOM     55  C   UNL A   1      43.340  26.434  29.813  1.00  0.00     0.074 A 
ATOM     56  C   UNL A   1      43.158  29.516  35.370  1.00  0.00     0.029 A 
ATOM     57  N   UNL A   1      42.749  28.785  33.312  1.00  0.00    -0.354 N 
ATOM     58  N   UNL A   1      43.222  27.125  30.925  1.00  0.00    -0.248 NA
ATOM     59  C   UNL A   1      44.469  25.497  29.801  1.00  0.00     0.031 C 
ATOM     60  C   UNL A   1      44.156  28.597  35.020  1.00  0.00     0.029 A 
ATOM     61  C   UNL A   1      43.880  28.111  33.752  1.00  0.00     0.049 A 
ATOM     62  H   UNL A   1      42.324  28.659  32.433  1.00  0.00     0.167 HD
ATOM     63  C   UNL A   1      44.249  26.683  31.754  1.00  0.00     0.074 A 
ATOM     64  C   UNL A   1      44.953  25.648  31.024  1.00  0.00     0.031 C 
ATOM     65  C   UNL A   1      44.585  27.095  33.005  1.00  0.00     0.034 A 
BRANCH  52  66
ATOM     66  C   UNL A   1      40.840  31.499  35.283  1.00  0.00     0.023 A 
ATOM     67  C   UNL A   1      39.739  31.297  36.136  1.00  0.00     0.031 A 
ATOM     68  C   UNL A   1      41.624  32.647  35.489  1.00  0.00     0.131 A 
ATOM     69  C   UNL A   1      39.407  32.265  37.097  1.00  0.00     0.055 A 
ATOM     70  C   UNL A   1      41.339  33.565  36.503  1.00  0.00     0.041 A 
ATOM     71  F   UNL A   1      42.677  32.907  34.698  1.00  0.00    -0.206 F 
ATOM     72  C   UNL A   1      40.215  33.385  37.304  1.00  0.00     0.022 A 
BRANCH  69  73
ATOM     73  S   UNL A   1      37.824  32.113  37.970  1.00  0.00     0.124 S 
ATOM     74  O   UNL A   1      38.209  32.453  39.338  1.00  0.00    -0.237 OA
ATOM     75  O   UNL A   1      36.988  33.089  37.281  1.00  0.00    -0.237 OA
ATOM     76  O   UNL A   1      37.452  30.714  37.764  1.00  0.00    -0.744 OA
ENDBRANCH  69  73
ENDBRANCH  52  66
BRANCH  53  77
ATOM     77  C   UNL A   1      42.797  25.612  27.400  1.00  0.00     0.023 A 
ATOM     78  C   UNL A   1      42.297  24.304  27.294  1.00  0.00     0.031 A 
ATOM     79  C   UNL A   1      43.642  26.080  26.379  1.00  0.00     0.131 A 
ATOM     80  C   UNL A   1      42.686  23.491  26.219  1.00  0.00     0.055 A 
ATOM     81  C   UNL A   1      43.985  25.285  25.284  1.00  0.00     0.041 A 
ATOM     82  F   UNL A   1      44.138  27.327  26.425  1.00  0.00    -0.206 F 
ATOM     83  C   UNL A   1      43.518  23.977  25.207  1.00  0.00     0.022 A 
BRANCH  80  84
ATOM     84  S   UNL A   1      42.155  21.757  26.205  1.00  0.00     0.124 S 
ATOM     85  O   UNL A   1      43.001  21.194  25.160  1.00  0.00    -0.237 OA
ATOM     86  O   UNL A   1      42.457  21.339  27.570  1.00  0.00    -0.237 OA
ATOM     87  O   UNL A   1      40.733  21.840  25.882  1.00  0.00    -0.744 OA
ENDBRANCH  80  84
ENDBRANCH  53  77
BRANCH  65  88
ATOM     88  C   UNL A   1      45.748  26.390  33.659  1.00  0.00     0.023 A 
ATOM     89  C   UNL A   1      45.558  25.276  34.497  1.00  0.00     0.031 A 
ATOM     90  C   UNL A   1      47.058  26.870  33.488  1.00  0.00     0.131 A 
ATOM     91  C   UNL A   1      46.645  24.735  35.198  1.00  0.00     0.055 A 
ATOM     92  C   UNL A   1      48.147  26.282  34.133  1.00  0.00     0.041 A 
ATOM     93  F   UNL A   1      47.301  27.931  32.701  1.00  0.00    -0.206 F 
ATOM     94  C   UNL A   1      47.941  25.220  35.010  1.00  0.00     0.022 A 
BRANCH  91  95
ATOM     95  S   UNL A   1      46.321  23.476  36.464  1.00  0.00     0.124 S 
ATOM     96  O   UNL A   1      46.257  22.254  35.668  1.00  0.00    -0.237 OA
ATOM     97  O   UNL A   1      47.482  23.608  37.337  1.00  0.00    -0.237 OA
ATOM     98  O   UNL A   1      45.052  23.900  37.052  1.00  0.00    -0.744 OA
ENDBRANCH  91  95
ENDBRANCH  65  88
ENDBRANCH  39  40
ENDBRANCH  31  34
ENDBRANCH  29  30
ENDBRANCH   1  29
TORSDOF 16
ENDMDL
MODEL 3
REMARK VINA RESULT:     -12.6      1.824      2.090
REMARK SMILES CCc1ccc(S(=O)(=O)N2CCC3(CC2)NC(=O)C[C@H]3C(=O)NCCCNC(=O)c2ccc(-c3c4nc(c(-c5cc(S(=O)(=O)[O-])ccc5F)c5ccc([nH]5)c(-c5cc(S(=O)(=O)[O-])ccc5F)c5nc(c(-c6cc(S(=O)(=O)[O-])ccc6F)c6ccc3[nH]6)C=C5)C=C4)cc2)s1
REMARK SMILES IDX 25 1 24 2 23 3 21 4 22 5 20 7 10 8 11 9 15 10 12 11 14 12
REMARK SMILES IDX 13 13 16 14 17 15 19 17 18 18 7 19 8 20 9 21 6 22 3 23 4 24
REMARK SMILES IDX 93 25 5 26 2 27 1 28 26 29 27 30 28 31 29 33 30 34 31 35
REMARK SMILES IDX 92 36 32 37 91 38 33 39 34 40 35 41 85 42 36 43 90 44 84 45
REMARK SMILES IDX 86 46 37 47 89 48 83 49 82 50 38 52 70 53 50 54 69 55 51 56
REMARK SMILES IDX 54 57 68 58 87 59 52 60 53 61 67 63 88 64 55 65 39 66 40 67
REMARK SMILES IDX 48 68 41 69 47 70 49 71 46 72 42 73 43 74 44 75 45 76 71 77
REMARK SMILES IDX 72 78 80 79 73 80 79 81 81 82 78 83 74 84 75 85 76 86 77 87
REMARK SMILES IDX 56 88 57 89 65 90 58 91 64 92 66 93 63 94 59 95 60 96 61 97
REMARK SMILES IDX 62 98
REMARK H PARENT 23 6 16 16 27 32 86 51 54 62
REMARK Flexibility Score: inf
ROOT
ATOM      1  C   UNL A   1      32.134  28.956  26.291  1.00  0.00     0.042 C 
ENDROOT
BRANCH   1   2
ATOM      2  C   UNL A   1      32.093  29.854  25.052  1.00  0.00     0.117 C 
BRANCH   2   3
ATOM      3  N   UNL A   1      31.396  29.272  23.911  1.00  0.00    -0.356 N 
ATOM      4  C   UNL A   1      31.580  28.189  23.115  1.00  0.00     0.226 C 
ATOM      5  O   UNL A   1      30.709  27.995  22.257  1.00  0.00    -0.275 OA
ATOM      6  H   UNL A   1      30.598  29.788  23.657  1.00  0.00     0.163 HD
BRANCH   4   7
ATOM      7  C   UNL A   1      32.762  27.216  23.166  1.00  0.00     0.113 C 
ATOM      8  N   UNL A   1      32.609  24.594  26.329  1.00  0.00    -0.197 NA
ATOM      9  C   UNL A   1      33.897  24.972  25.760  1.00  0.00     0.105 C 
ATOM     10  C   UNL A   1      31.554  25.569  26.070  1.00  0.00     0.105 C 
ATOM     11  C   UNL A   1      33.809  25.136  24.247  1.00  0.00     0.046 C 
ATOM     12  C   UNL A   1      31.262  25.611  24.580  1.00  0.00     0.046 C 
ATOM     13  C   UNL A   1      32.497  25.773  23.654  1.00  0.00     0.055 C 
ATOM     14  N   UNL A   1      32.285  25.126  22.358  1.00  0.00    -0.350 N 
ATOM     15  C   UNL A   1      32.967  25.728  21.324  1.00  0.00     0.221 C 
ATOM     16  H   UNL A   1      31.710  24.336  22.236  1.00  0.00     0.164 HD
ATOM     17  C   UNL A   1      33.446  27.067  21.798  1.00  0.00     0.116 C 
ATOM     18  O   UNL A   1      33.113  25.249  20.216  1.00  0.00    -0.275 OA
BRANCH   8  19
ATOM     19  S   UNL A   1      32.264  23.028  26.885  1.00  0.00     0.252 S 
ATOM     20  O   UNL A   1      30.890  23.008  27.315  1.00  0.00    -0.206 OA
ATOM     21  O   UNL A   1      33.355  22.628  27.759  1.00  0.00    -0.206 OA
BRANCH  19  22
ATOM     22  C   UNL A   1      32.347  21.878  25.518  1.00  0.00     0.135 A 
ATOM     23  C   UNL A   1      32.717  19.820  24.178  1.00  0.00     0.006 A 
ATOM     24  C   UNL A   1      32.199  20.844  23.419  1.00  0.00     0.017 A 
ATOM     25  S   UNL A   1      32.922  20.291  25.821  1.00  0.00    -0.127 S 
ATOM     26  C   UNL A   1      32.053  22.020  24.182  1.00  0.00     0.034 A 
BRANCH  23  27
ATOM     27  C   UNL A   1      33.099  18.464  23.670  1.00  0.00     0.043 C 
ATOM     28  C   UNL A   1      32.464  18.136  22.333  1.00  0.00     0.010 C 
ENDBRANCH  23  27
ENDBRANCH  19  22
ENDBRANCH   8  19
ENDBRANCH   4   7
ENDBRANCH   2   3
ENDBRANCH   1   2
BRANCH   1  29
ATOM     29  C   UNL A   1      33.221  29.318  27.300  1.00  0.00     0.118 C 
BRANCH  29  30
ATOM     30  N   UNL A   1      33.376  30.758  27.421  1.00  0.00    -0.352 N 
ATOM     31  C   UNL A   1      34.340  31.505  28.047  1.00  0.00     0.251 C 
ATOM     32  H   UNL A   1      32.671  31.284  26.980  1.00  0.00     0.163 HD
ATOM     33  O   UNL A   1      34.097  32.689  28.270  1.00  0.00    -0.269 OA
BRANCH  31  34
ATOM     34  C   UNL A   1      35.645  30.927  28.449  1.00  0.00     0.039 A 
ATOM     35  C   UNL A   1      35.642  29.831  29.319  1.00  0.00     0.014 A 
ATOM     36  C   UNL A   1      36.863  31.500  28.071  1.00  0.00     0.014 A 
ATOM     37  C   UNL A   1      36.847  29.303  29.788  1.00  0.00     0.010 A 
ATOM     38  C   UNL A   1      38.068  30.925  28.479  1.00  0.00     0.010 A 
ATOM     39  C   UNL A   1      38.074  29.834  29.361  1.00  0.00    -0.014 A 
BRANCH  39  40
ATOM     40  C   UNL A   1      39.355  29.260  29.856  1.00  0.00     0.031 A 
ATOM     41  C   UNL A   1      40.013  29.809  31.096  1.00  0.00     0.074 A 
ATOM     42  C   UNL A   1      39.930  28.246  29.179  1.00  0.00     0.049 A 
ATOM     43  N   UNL A   1      41.112  29.420  31.692  1.00  0.00    -0.248 NA
ATOM     44  C   UNL A   1      39.365  30.965  31.732  1.00  0.00     0.031 C 
ATOM     45  C   UNL A   1      39.417  27.667  27.935  1.00  0.00     0.029 A 
ATOM     46  N   UNL A   1      41.062  27.518  29.441  1.00  0.00    -0.354 N 
ATOM     47  C   UNL A   1      41.292  30.287  32.767  1.00  0.00     0.074 A 
ATOM     48  C   UNL A   1      40.224  31.262  32.696  1.00  0.00     0.031 C 
ATOM     49  C   UNL A   1      40.209  26.647  27.566  1.00  0.00     0.029 A 
ATOM     50  C   UNL A   1      41.302  26.520  28.525  1.00  0.00     0.049 A 
ATOM     51  H   UNL A   1      41.649  27.693  30.213  1.00  0.00     0.167 HD
ATOM     52  C   UNL A   1      42.243  30.259  33.735  1.00  0.00     0.034 A 
ATOM     53  C   UNL A   1      42.286  25.602  28.466  1.00  0.00     0.034 A 
ATOM     54  C   UNL A   1      43.296  29.273  33.796  1.00  0.00     0.049 A 
ATOM     55  C   UNL A   1      43.318  25.576  29.564  1.00  0.00     0.074 A 
ATOM     56  C   UNL A   1      44.285  29.119  34.753  1.00  0.00     0.029 A 
ATOM     57  N   UNL A   1      43.500  28.268  32.856  1.00  0.00    -0.354 N 
ATOM     58  N   UNL A   1      43.438  26.368  30.606  1.00  0.00    -0.248 NA
ATOM     59  C   UNL A   1      44.331  24.517  29.489  1.00  0.00     0.031 C 
ATOM     60  C   UNL A   1      45.119  28.065  34.361  1.00  0.00     0.029 A 
ATOM     61  C   UNL A   1      44.609  27.508  33.200  1.00  0.00     0.049 A 
ATOM     62  H   UNL A   1      42.938  28.118  32.062  1.00  0.00     0.167 HD
ATOM     63  C   UNL A   1      44.528  25.882  31.324  1.00  0.00     0.074 A 
ATOM     64  C   UNL A   1      45.005  24.714  30.611  1.00  0.00     0.031 C 
ATOM     65  C   UNL A   1      45.087  26.358  32.468  1.00  0.00     0.034 A 
BRANCH  52  66
ATOM     66  C   UNL A   1      42.193  31.342  34.790  1.00  0.00     0.023 A 
ATOM     67  C   UNL A   1      42.913  32.543  34.650  1.00  0.00     0.031 A 
ATOM     68  C   UNL A   1      41.441  31.164  35.964  1.00  0.00     0.131 A 
ATOM     69  C   UNL A   1      42.932  33.477  35.698  1.00  0.00     0.055 A 
ATOM     70  C   UNL A   1      41.396  32.135  36.967  1.00  0.00     0.041 A 
ATOM     71  F   UNL A   1      40.747  30.033  36.166  1.00  0.00    -0.206 F 
ATOM     72  C   UNL A   1      42.157  33.294  36.845  1.00  0.00     0.022 A 
BRANCH  69  73
ATOM     73  S   UNL A   1      44.099  34.864  35.602  1.00  0.00     0.124 S 
ATOM     74  O   UNL A   1      45.207  34.372  36.418  1.00  0.00    -0.237 OA
ATOM     75  O   UNL A   1      44.355  34.962  34.170  1.00  0.00    -0.237 OA
ATOM     76  O   UNL A   1      43.354  35.979  36.182  1.00  0.00    -0.744 OA
ENDBRANCH  69  73
ENDBRANCH  52  66
BRANCH  53  77
ATOM     77  C   UNL A   1      42.340  24.621  27.345  1.00  0.00     0.023 A 
ATOM     78  C   UNL A   1      41.571  23.446  27.374  1.00  0.00     0.031 A 
ATOM     79  C   UNL A   1      43.191  24.825  26.246  1.00  0.00     0.131 A 
ATOM     80  C   UNL A   1      41.705  22.496  26.350  1.00  0.00     0.055 A 
ATOM     81  C   UNL A   1      43.282  23.901  25.203  1.00  0.00     0.041 A 
ATOM     82  F   UNL A   1      43.939  25.937  26.162  1.00  0.00    -0.206 F 
ATOM     83  C   UNL A   1      42.547  22.721  25.259  1.00  0.00     0.022 A 
BRANCH  80  84
ATOM     84  S   UNL A   1      40.823  20.919  26.507  1.00  0.00     0.124 S 
ATOM     85  O   UNL A   1      41.674  20.022  25.736  1.00  0.00    -0.237 OA
ATOM     86  O   UNL A   1      40.819  20.719  27.952  1.00  0.00    -0.237 OA
ATOM     87  O   UNL A   1      39.515  21.202  25.917  1.00  0.00    -0.744 OA
ENDBRANCH  80  84
ENDBRANCH  53  77
BRANCH  65  88
ATOM     88  C   UNL A   1      46.257  25.581  33.022  1.00  0.00     0.023 A 
ATOM     89  C   UNL A   1      46.072  24.491  33.893  1.00  0.00     0.031 A 
ATOM     90  C   UNL A   1      47.574  25.967  32.720  1.00  0.00     0.131 A 
ATOM     91  C   UNL A   1      47.182  23.884  34.497  1.00  0.00     0.055 A 
ATOM     92  C   UNL A   1      48.677  25.312  33.269  1.00  0.00     0.041 A 
ATOM     93  F   UNL A   1      47.812  27.001  31.895  1.00  0.00    -0.206 F 
ATOM     94  C   UNL A   1      48.484  24.276  34.179  1.00  0.00     0.022 A 
BRANCH  91  95
ATOM     95  S   UNL A   1      46.896  22.664  35.810  1.00  0.00     0.124 S 
ATOM     96  O   UNL A   1      48.249  22.194  36.088  1.00  0.00    -0.237 OA
ATOM     97  O   UNL A   1      46.274  23.472  36.853  1.00  0.00    -0.237 OA
ATOM     98  O   UNL A   1      46.016  21.682  35.179  1.00  0.00    -0.744 OA
ENDBRANCH  91  95
ENDBRANCH  65  88
ENDBRANCH  39  40
ENDBRANCH  31  34
ENDBRANCH  29  30
ENDBRANCH   1  29
TORSDOF 16
ENDMDL
