MODEL 1
REMARK VINA RESULT:     -11.6      0.000      0.000
REMARK SMILES CC(=O)O[C@@H](C)c1nc2ccc(C(=O)NCCCNC(=O)c3ccc(-c4c5nc(c(-c6cc(S(=O)(=O)[O-])ccc6F)c6ccc([nH]6)c(-c6cc(S(=O)(=O)[O-])ccc6F)c6nc(c(-c7cc(S(=O)(=O)[O-])ccc7F)c7ccc4[nH]7)C=C6)C=C5)cc3)cc2[nH]1
REMARK SMILES IDX 17 1 16 2 15 3 13 4 14 5 12 7 7 8 8 9 87 10 9 11 86 12 10 14
REMARK SMILES IDX 85 15 11 16 5 17 6 18 4 19 2 20 1 21 3 22 18 23 19 24 20 25
REMARK SMILES IDX 21 27 22 28 23 29 84 30 24 31 83 32 25 33 26 34 27 35 77 36
REMARK SMILES IDX 28 37 82 38 76 39 78 40 29 41 81 42 75 43 74 44 30 46 62 47
REMARK SMILES IDX 42 48 61 49 43 50 46 51 60 52 79 53 44 54 45 55 59 57 80 58
REMARK SMILES IDX 47 59 31 60 32 61 40 62 33 63 39 64 41 65 38 66 34 67 35 68
REMARK SMILES IDX 36 69 37 70 63 71 64 72 72 73 65 74 71 75 73 76 70 77 66 78
REMARK SMILES IDX 67 79 68 80 69 81 48 82 49 83 57 84 50 85 56 86 58 87 55 88
REMARK SMILES IDX 51 89 52 90 53 91 54 92
REMARK H PARENT 15 6 87 13 19 26 78 45 46 56
REMARK Flexibility Score: inf
ROOT
ATOM      1  C   UNL A   1      32.957  28.108  26.918  1.00  0.00     0.042 C 
ENDROOT
BRANCH   1   2
ATOM      2  C   UNL A   1      32.310  27.040  26.037  1.00  0.00     0.118 C 
BRANCH   2   3
ATOM      3  N   UNL A   1      32.863  27.071  24.698  1.00  0.00    -0.352 N 
ATOM      4  C   UNL A   1      33.535  26.144  23.947  1.00  0.00     0.251 C 
ATOM      5  O   UNL A   1      33.844  26.471  22.800  1.00  0.00    -0.269 OA
ATOM      6  H   UNL A   1      32.727  27.929  24.235  1.00  0.00     0.163 HD
BRANCH   4   7
ATOM      7  C   UNL A   1      33.861  24.764  24.417  1.00  0.00     0.042 A 
ATOM      8  C   UNL A   1      33.514  20.230  24.576  1.00  0.00     0.148 A 
ATOM      9  N   UNL A   1      34.386  20.757  25.415  1.00  0.00    -0.229 NA
ATOM     10  N   UNL A   1      32.787  21.218  23.953  1.00  0.00    -0.339 N 
ATOM     11  C   UNL A   1      34.331  22.106  25.202  1.00  0.00     0.089 A 
ATOM     12  C   UNL A   1      33.322  22.427  24.307  1.00  0.00     0.066 A 
ATOM     13  H   UNL A   1      32.017  21.079  23.356  1.00  0.00     0.168 HD
ATOM     14  C   UNL A   1      35.142  23.122  25.709  1.00  0.00     0.031 A 
ATOM     15  C   UNL A   1      33.043  23.735  23.906  1.00  0.00     0.042 A 
ATOM     16  C   UNL A   1      34.925  24.436  25.268  1.00  0.00     0.016 A 
BRANCH   8  17
ATOM     17  C   UNL A   1      33.319  18.772  24.305  1.00  0.00     0.239 C 
ATOM     18  C   UNL A   1      32.253  18.137  25.194  1.00  0.00     0.062 C 
BRANCH  17  19
ATOM     19  O   UNL A   1      34.583  18.062  24.355  1.00  0.00    -0.455 OA
BRANCH  19  20
ATOM     20  C   UNL A   1      34.617  16.732  24.067  1.00  0.00     0.303 C 
ATOM     21  C   UNL A   1      35.240  15.985  25.208  1.00  0.00     0.139 C 
ATOM     22  O   UNL A   1      34.186  16.198  23.061  1.00  0.00    -0.253 OA
ENDBRANCH  19  20
ENDBRANCH  17  19
ENDBRANCH   8  17
ENDBRANCH   4   7
ENDBRANCH   2   3
ENDBRANCH   1   2
BRANCH   1  23
ATOM     23  C   UNL A   1      33.840  29.071  26.125  1.00  0.00     0.118 C 
BRANCH  23  24
ATOM     24  N   UNL A   1      33.716  30.433  26.623  1.00  0.00    -0.352 N 
ATOM     25  C   UNL A   1      34.384  31.069  27.638  1.00  0.00     0.251 C 
ATOM     26  H   UNL A   1      33.047  30.987  26.158  1.00  0.00     0.163 HD
ATOM     27  O   UNL A   1      33.916  32.109  28.095  1.00  0.00    -0.269 OA
BRANCH  25  28
ATOM     28  C   UNL A   1      35.647  30.519  28.171  1.00  0.00     0.039 A 
ATOM     29  C   UNL A   1      36.841  30.809  27.506  1.00  0.00     0.014 A 
ATOM     30  C   UNL A   1      35.654  29.667  29.280  1.00  0.00     0.014 A 
ATOM     31  C   UNL A   1      38.042  30.272  27.974  1.00  0.00     0.010 A 
ATOM     32  C   UNL A   1      36.862  29.205  29.795  1.00  0.00     0.010 A 
ATOM     33  C   UNL A   1      38.067  29.486  29.137  1.00  0.00    -0.014 A 
BRANCH  33  34
ATOM     34  C   UNL A   1      39.342  28.930  29.658  1.00  0.00     0.031 A 
ATOM     35  C   UNL A   1      40.008  29.559  30.852  1.00  0.00     0.074 A 
ATOM     36  C   UNL A   1      39.913  27.885  29.029  1.00  0.00     0.049 A 
ATOM     37  N   UNL A   1      41.141  29.249  31.426  1.00  0.00    -0.248 NA
ATOM     38  C   UNL A   1      39.323  30.710  31.462  1.00  0.00     0.031 C 
ATOM     39  C   UNL A   1      39.375  27.220  27.839  1.00  0.00     0.029 A 
ATOM     40  N   UNL A   1      41.069  27.196  29.298  1.00  0.00    -0.354 N 
ATOM     41  C   UNL A   1      41.310  30.169  32.456  1.00  0.00     0.074 A 
ATOM     42  C   UNL A   1      40.199  31.092  32.379  1.00  0.00     0.031 C 
ATOM     43  C   UNL A   1      40.180  26.199  27.504  1.00  0.00     0.029 A 
ATOM     44  C   UNL A   1      41.316  26.167  28.418  1.00  0.00     0.049 A 
ATOM     45  H   UNL A   1      41.665  27.418  30.049  1.00  0.00     0.167 HD
ATOM     46  C   UNL A   1      42.289  30.224  33.393  1.00  0.00     0.034 A 
ATOM     47  C   UNL A   1      42.348  25.304  28.352  1.00  0.00     0.034 A 
ATOM     48  C   UNL A   1      43.387  29.289  33.453  1.00  0.00     0.049 A 
ATOM     49  C   UNL A   1      43.439  25.402  29.387  1.00  0.00     0.074 A 
ATOM     50  C   UNL A   1      44.411  29.219  34.382  1.00  0.00     0.029 A 
ATOM     51  N   UNL A   1      43.611  28.263  32.542  1.00  0.00    -0.354 N 
ATOM     52  N   UNL A   1      43.560  26.248  30.385  1.00  0.00    -0.248 NA
ATOM     53  C   UNL A   1      44.524  24.417  29.298  1.00  0.00     0.031 C 
ATOM     54  C   UNL A   1      45.293  28.207  33.989  1.00  0.00     0.029 A 
ATOM     55  C   UNL A   1      44.773  27.579  32.868  1.00  0.00     0.049 A 
ATOM     56  H   UNL A   1      43.029  28.053  31.775  1.00  0.00     0.167 HD
ATOM     57  C   UNL A   1      44.717  25.873  31.063  1.00  0.00     0.074 A 
ATOM     58  C   UNL A   1      45.243  24.714  30.370  1.00  0.00     0.031 C 
ATOM     59  C   UNL A   1      45.291  26.430  32.161  1.00  0.00     0.034 A 
BRANCH  46  60
ATOM     60  C   UNL A   1      42.228  31.347  34.403  1.00  0.00     0.023 A 
ATOM     61  C   UNL A   1      41.280  31.357  35.443  1.00  0.00     0.031 A 
ATOM     62  C   UNL A   1      43.110  32.438  34.313  1.00  0.00     0.131 A 
ATOM     63  C   UNL A   1      41.184  32.467  36.296  1.00  0.00     0.055 A 
ATOM     64  C   UNL A   1      43.069  33.498  35.222  1.00  0.00     0.041 A 
ATOM     65  F   UNL A   1      44.022  32.501  33.329  1.00  0.00    -0.206 F 
ATOM     66  C   UNL A   1      42.091  33.525  36.211  1.00  0.00     0.022 A 
BRANCH  63  67
ATOM     67  S   UNL A   1      39.761  32.579  37.416  1.00  0.00     0.124 S 
ATOM     68  O   UNL A   1      38.987  31.402  37.027  1.00  0.00    -0.237 OA
ATOM     69  O   UNL A   1      40.389  32.525  38.731  1.00  0.00    -0.237 OA
ATOM     70  O   UNL A   1      39.150  33.860  37.068  1.00  0.00    -0.744 OA
ENDBRANCH  63  67
ENDBRANCH  46  60
BRANCH  47  71
ATOM     71  C   UNL A   1      42.407  24.277  27.271  1.00  0.00     0.023 A 
ATOM     72  C   UNL A   1      41.607  23.125  27.320  1.00  0.00     0.031 A 
ATOM     73  C   UNL A   1      43.300  24.411  26.192  1.00  0.00     0.131 A 
ATOM     74  C   UNL A   1      41.752  22.128  26.343  1.00  0.00     0.055 A 
ATOM     75  C   UNL A   1      43.396  23.446  25.188  1.00  0.00     0.041 A 
ATOM     76  F   UNL A   1      44.087  25.494  26.092  1.00  0.00    -0.206 F 
ATOM     77  C   UNL A   1      42.630  22.287  25.269  1.00  0.00     0.022 A 
BRANCH  74  78
ATOM     78  S   UNL A   1      40.848  20.569  26.552  1.00  0.00     0.124 S 
ATOM     79  O   UNL A   1      39.515  20.935  26.089  1.00  0.00    -0.237 OA
ATOM     80  O   UNL A   1      41.601  19.665  25.690  1.00  0.00    -0.237 OA
ATOM     81  O   UNL A   1      40.960  20.300  27.984  1.00  0.00    -0.744 OA
ENDBRANCH  74  78
ENDBRANCH  47  71
BRANCH  59  82
ATOM     82  C   UNL A   1      46.526  25.752  32.707  1.00  0.00     0.023 A 
ATOM     83  C   UNL A   1      47.781  25.884  32.089  1.00  0.00     0.031 A 
ATOM     84  C   UNL A   1      46.436  24.940  33.853  1.00  0.00     0.131 A 
ATOM     85  C   UNL A   1      48.879  25.157  32.574  1.00  0.00     0.055 A 
ATOM     86  C   UNL A   1      47.548  24.280  34.376  1.00  0.00     0.041 A 
ATOM     87  F   UNL A   1      45.262  24.773  34.482  1.00  0.00    -0.206 F 
ATOM     88  C   UNL A   1      48.776  24.372  33.726  1.00  0.00     0.022 A 
BRANCH  85  89
ATOM     89  S   UNL A   1      50.414  25.150  31.607  1.00  0.00     0.124 S 
ATOM     90  O   UNL A   1      51.196  26.185  32.275  1.00  0.00    -0.237 OA
ATOM     91  O   UNL A   1      50.886  23.781  31.782  1.00  0.00    -0.237 OA
ATOM     92  O   UNL A   1      49.969  25.484  30.255  1.00  0.00    -0.744 OA
ENDBRANCH  85  89
ENDBRANCH  59  82
ENDBRANCH  33  34
ENDBRANCH  25  28
ENDBRANCH  23  24
ENDBRANCH   1  23
TORSDOF 16
ENDMDL
MODEL 2
REMARK VINA RESULT:     -11.4      3.722      8.962
REMARK SMILES CC(=O)O[C@@H](C)c1nc2ccc(C(=O)NCCCNC(=O)c3ccc(-c4c5nc(c(-c6cc(S(=O)(=O)[O-])ccc6F)c6ccc([nH]6)c(-c6cc(S(=O)(=O)[O-])ccc6F)c6nc(c(-c7cc(S(=O)(=O)[O-])ccc7F)c7ccc4[nH]7)C=C6)C=C5)cc3)cc2[nH]1
REMARK SMILES IDX 17 1 16 2 15 3 13 4 14 5 12 7 7 8 8 9 87 10 9 11 86 12 10 14
REMARK SMILES IDX 85 15 11 16 5 17 6 18 4 19 2 20 1 21 3 22 18 23 19 24 20 25
REMARK SMILES IDX 21 27 22 28 23 29 84 30 24 31 83 32 25 33 26 34 27 35 77 36
REMARK SMILES IDX 28 37 82 38 76 39 78 40 29 41 81 42 75 43 74 44 30 46 62 47
REMARK SMILES IDX 42 48 61 49 43 50 46 51 60 52 79 53 44 54 45 55 59 57 80 58
REMARK SMILES IDX 47 59 31 60 32 61 40 62 33 63 39 64 41 65 38 66 34 67 35 68
REMARK SMILES IDX 36 69 37 70 63 71 64 72 72 73 65 74 71 75 73 76 70 77 66 78
REMARK SMILES IDX 67 79 68 80 69 81 48 82 49 83 57 84 50 85 56 86 58 87 55 88
REMARK SMILES IDX 51 89 52 90 53 91 54 92
REMARK H PARENT 15 6 87 13 19 26 78 45 46 56
REMARK Flexibility Score: inf
ROOT
ATOM      1  C   UNL A   1      31.572  32.334  26.762  1.00  0.00     0.042 C 
ENDROOT
BRANCH   1   2
ATOM      2  C   UNL A   1      31.657  30.816  26.602  1.00  0.00     0.118 C 
BRANCH   2   3
ATOM      3  N   UNL A   1      32.918  30.313  27.111  1.00  0.00    -0.352 N 
ATOM      4  C   UNL A   1      33.470  29.061  27.156  1.00  0.00     0.251 C 
ATOM      5  O   UNL A   1      34.604  28.967  27.628  1.00  0.00    -0.269 OA
ATOM      6  H   UNL A   1      33.492  31.011  27.501  1.00  0.00     0.163 HD
BRANCH   4   7
ATOM      7  C   UNL A   1      32.804  27.833  26.625  1.00  0.00     0.042 A 
ATOM      8  C   UNL A   1      32.572  23.795  24.542  1.00  0.00     0.148 A 
ATOM      9  N   UNL A   1      31.417  24.280  24.958  1.00  0.00    -0.229 NA
ATOM     10  N   UNL A   1      33.571  24.726  24.701  1.00  0.00    -0.339 N 
ATOM     11  C   UNL A   1      31.714  25.479  25.545  1.00  0.00     0.089 A 
ATOM     12  C   UNL A   1      33.053  25.795  25.381  1.00  0.00     0.066 A 
ATOM     13  H   UNL A   1      34.499  24.639  24.383  1.00  0.00     0.168 HD
ATOM     14  C   UNL A   1      30.894  26.337  26.279  1.00  0.00     0.031 A 
ATOM     15  C   UNL A   1      33.630  26.963  25.883  1.00  0.00     0.042 A 
ATOM     16  C   UNL A   1      31.466  27.484  26.852  1.00  0.00     0.016 A 
BRANCH   8  17
ATOM     17  C   UNL A   1      32.804  22.428  23.980  1.00  0.00     0.239 C 
ATOM     18  C   UNL A   1      32.699  22.383  22.458  1.00  0.00     0.062 C 
BRANCH  17  19
ATOM     19  O   UNL A   1      31.952  21.450  24.629  1.00  0.00    -0.455 OA
BRANCH  19  20
ATOM     20  C   UNL A   1      32.506  20.317  25.144  1.00  0.00     0.303 C 
ATOM     21  C   UNL A   1      33.652  20.678  26.039  1.00  0.00     0.139 C 
ATOM     22  O   UNL A   1      32.130  19.176  24.950  1.00  0.00    -0.253 OA
ENDBRANCH  19  20
ENDBRANCH  17  19
ENDBRANCH   8  17
ENDBRANCH   4   7
ENDBRANCH   2   3
ENDBRANCH   1   2
BRANCH   1  23
ATOM     23  C   UNL A   1      32.902  32.957  27.181  1.00  0.00     0.118 C 
BRANCH  23  24
ATOM     24  N   UNL A   1      32.705  34.271  27.777  1.00  0.00    -0.352 N 
ATOM     25  C   UNL A   1      33.177  34.788  28.956  1.00  0.00     0.251 C 
ATOM     26  H   UNL A   1      32.144  34.886  27.251  1.00  0.00     0.163 HD
ATOM     27  O   UNL A   1      32.645  35.795  29.416  1.00  0.00    -0.269 OA
BRANCH  25  28
ATOM     28  C   UNL A   1      34.308  34.150  29.660  1.00  0.00     0.039 A 
ATOM     29  C   UNL A   1      35.611  34.471  29.270  1.00  0.00     0.014 A 
ATOM     30  C   UNL A   1      34.093  33.191  30.655  1.00  0.00     0.014 A 
ATOM     31  C   UNL A   1      36.693  33.856  29.900  1.00  0.00     0.010 A 
ATOM     32  C   UNL A   1      35.174  32.644  31.341  1.00  0.00     0.010 A 
ATOM     33  C   UNL A   1      36.486  32.956  30.958  1.00  0.00    -0.014 A 
BRANCH  33  34
ATOM     34  C   UNL A   1      37.631  32.313  31.652  1.00  0.00     0.031 A 
ATOM     35  C   UNL A   1      38.385  31.193  30.986  1.00  0.00     0.074 A 
ATOM     36  C   UNL A   1      37.963  32.716  32.893  1.00  0.00     0.049 A 
ATOM     37  N   UNL A   1      39.380  30.478  31.444  1.00  0.00    -0.248 NA
ATOM     38  C   UNL A   1      37.940  30.805  29.638  1.00  0.00     0.031 C 
ATOM     39  C   UNL A   1      37.278  33.766  33.650  1.00  0.00     0.029 A 
ATOM     40  N   UNL A   1      38.957  32.294  33.740  1.00  0.00    -0.354 N 
ATOM     41  C   UNL A   1      39.673  29.552  30.448  1.00  0.00     0.074 A 
ATOM     42  C   UNL A   1      38.702  29.751  29.394  1.00  0.00     0.031 C 
ATOM     43  C   UNL A   1      37.893  33.930  34.831  1.00  0.00     0.029 A 
ATOM     44  C   UNL A   1      38.981  32.965  34.941  1.00  0.00     0.049 A 
ATOM     45  H   UNL A   1      39.592  31.578  33.510  1.00  0.00     0.167 HD
ATOM     46  C   UNL A   1      40.674  28.638  30.407  1.00  0.00     0.034 A 
ATOM     47  C   UNL A   1      39.784  32.810  36.012  1.00  0.00     0.034 A 
ATOM     48  C   UNL A   1      41.634  28.461  31.469  1.00  0.00     0.049 A 
ATOM     49  C   UNL A   1      40.872  31.768  35.954  1.00  0.00     0.074 A 
ATOM     50  C   UNL A   1      42.716  27.599  31.519  1.00  0.00     0.029 A 
ATOM     51  N   UNL A   1      41.626  29.152  32.675  1.00  0.00    -0.354 N 
ATOM     52  N   UNL A   1      41.167  30.932  34.985  1.00  0.00    -0.248 NA
ATOM     53  C   UNL A   1      41.745  31.661  37.129  1.00  0.00     0.031 C 
ATOM     54  C   UNL A   1      43.311  27.712  32.781  1.00  0.00     0.029 A 
ATOM     55  C   UNL A   1      42.661  28.712  33.486  1.00  0.00     0.049 A 
ATOM     56  H   UNL A   1      40.977  29.853  32.918  1.00  0.00     0.167 HD
ATOM     57  C   UNL A   1      42.284  30.224  35.421  1.00  0.00     0.074 A 
ATOM     58  C   UNL A   1      42.617  30.748  36.730  1.00  0.00     0.031 C 
ATOM     59  C   UNL A   1      42.976  29.237  34.795  1.00  0.00     0.034 A 
BRANCH  46  60
ATOM     60  C   UNL A   1      40.756  27.745  29.189  1.00  0.00     0.023 A 
ATOM     61  C   UNL A   1      41.678  27.989  28.153  1.00  0.00     0.031 A 
ATOM     62  C   UNL A   1      39.885  26.651  29.045  1.00  0.00     0.131 A 
ATOM     63  C   UNL A   1      41.652  27.203  26.991  1.00  0.00     0.055 A 
ATOM     64  C   UNL A   1      39.926  25.817  27.925  1.00  0.00     0.041 A 
ATOM     65  F   UNL A   1      38.967  26.380  29.986  1.00  0.00    -0.206 F 
ATOM     66  C   UNL A   1      40.802  26.101  26.882  1.00  0.00     0.022 A 
BRANCH  63  67
ATOM     67  S   UNL A   1      42.635  27.737  25.563  1.00  0.00     0.124 S 
ATOM     68  O   UNL A   1      43.926  28.022  26.184  1.00  0.00    -0.237 OA
ATOM     69  O   UNL A   1      42.589  26.567  24.693  1.00  0.00    -0.237 OA
ATOM     70  O   UNL A   1      41.916  28.910  25.070  1.00  0.00    -0.744 OA
ENDBRANCH  63  67
ENDBRANCH  46  60
BRANCH  47  71
ATOM     71  C   UNL A   1      39.593  33.653  37.228  1.00  0.00     0.023 A 
ATOM     72  C   UNL A   1      38.872  33.178  38.334  1.00  0.00     0.031 A 
ATOM     73  C   UNL A   1      40.093  34.967  37.284  1.00  0.00     0.131 A 
ATOM     74  C   UNL A   1      38.622  34.025  39.425  1.00  0.00     0.055 A 
ATOM     75  C   UNL A   1      39.896  35.785  38.399  1.00  0.00     0.041 A 
ATOM     76  F   UNL A   1      40.793  35.473  36.257  1.00  0.00    -0.206 F 
ATOM     77  C   UNL A   1      39.142  35.321  39.472  1.00  0.00     0.022 A 
BRANCH  74  78
ATOM     78  S   UNL A   1      37.518  33.444  40.742  1.00  0.00     0.124 S 
ATOM     79  O   UNL A   1      38.358  32.464  41.421  1.00  0.00    -0.237 OA
ATOM     80  O   UNL A   1      37.247  34.676  41.475  1.00  0.00    -0.237 OA
ATOM     81  O   UNL A   1      36.379  32.891  40.012  1.00  0.00    -0.744 OA
ENDBRANCH  74  78
ENDBRANCH  47  71
BRANCH  59  82
ATOM     82  C   UNL A   1      44.196  28.699  35.507  1.00  0.00     0.023 A 
ATOM     83  C   UNL A   1      44.110  27.665  36.454  1.00  0.00     0.031 A 
ATOM     84  C   UNL A   1      45.464  29.253  35.246  1.00  0.00     0.131 A 
ATOM     85  C   UNL A   1      45.255  27.267  37.161  1.00  0.00     0.055 A 
ATOM     86  C   UNL A   1      46.612  28.799  35.897  1.00  0.00     0.041 A 
ATOM     87  F   UNL A   1      45.607  30.246  34.355  1.00  0.00    -0.206 F 
ATOM     88  C   UNL A   1      46.509  27.813  36.873  1.00  0.00     0.022 A 
BRANCH  85  89
ATOM     89  S   UNL A   1      45.064  26.115  38.549  1.00  0.00     0.124 S 
ATOM     90  O   UNL A   1      46.424  26.044  39.072  1.00  0.00    -0.237 OA
ATOM     91  O   UNL A   1      44.091  26.803  39.392  1.00  0.00    -0.237 OA
ATOM     92  O   UNL A   1      44.578  24.891  37.914  1.00  0.00    -0.744 OA
ENDBRANCH  85  89
ENDBRANCH  59  82
ENDBRANCH  33  34
ENDBRANCH  25  28
ENDBRANCH  23  24
ENDBRANCH   1  23
TORSDOF 16
ENDMDL
MODEL 3
REMARK VINA RESULT:     -11.3      1.697      2.196
REMARK SMILES CC(=O)O[C@@H](C)c1nc2ccc(C(=O)NCCCNC(=O)c3ccc(-c4c5nc(c(-c6cc(S(=O)(=O)[O-])ccc6F)c6ccc([nH]6)c(-c6cc(S(=O)(=O)[O-])ccc6F)c6nc(c(-c7cc(S(=O)(=O)[O-])ccc7F)c7ccc4[nH]7)C=C6)C=C5)cc3)cc2[nH]1
REMARK SMILES IDX 17 1 16 2 15 3 13 4 14 5 12 7 7 8 8 9 87 10 9 11 86 12 10 14
REMARK SMILES IDX 85 15 11 16 5 17 6 18 4 19 2 20 1 21 3 22 18 23 19 24 20 25
REMARK SMILES IDX 21 27 22 28 23 29 84 30 24 31 83 32 25 33 26 34 27 35 77 36
REMARK SMILES IDX 28 37 82 38 76 39 78 40 29 41 81 42 75 43 74 44 30 46 62 47
REMARK SMILES IDX 42 48 61 49 43 50 46 51 60 52 79 53 44 54 45 55 59 57 80 58
REMARK SMILES IDX 47 59 31 60 32 61 40 62 33 63 39 64 41 65 38 66 34 67 35 68
REMARK SMILES IDX 36 69 37 70 63 71 64 72 72 73 65 74 71 75 73 76 70 77 66 78
REMARK SMILES IDX 67 79 68 80 69 81 48 82 49 83 57 84 50 85 56 86 58 87 55 88
REMARK SMILES IDX 51 89 52 90 53 91 54 92
REMARK H PARENT 15 6 87 13 19 26 78 45 46 56
REMARK Flexibility Score: inf
ROOT
ATOM      1  C   UNL A   1      32.114  28.994  26.187  1.00  0.00     0.042 C 
ENDROOT
BRANCH   1   2
ATOM      2  C   UNL A   1      31.663  29.406  24.786  1.00  0.00     0.118 C 
BRANCH   2   3
ATOM      3  N   UNL A   1      32.764  29.334  23.847  1.00  0.00    -0.352 N 
ATOM      4  C   UNL A   1      33.326  28.297  23.151  1.00  0.00     0.251 C 
ATOM      5  O   UNL A   1      34.248  28.576  22.382  1.00  0.00    -0.269 OA
ATOM      6  H   UNL A   1      33.193  30.203  23.674  1.00  0.00     0.163 HD
BRANCH   4   7
ATOM      7  C   UNL A   1      32.856  26.882  23.233  1.00  0.00     0.042 A 
ATOM      8  C   UNL A   1      32.942  22.539  24.586  1.00  0.00     0.148 A 
ATOM      9  N   UNL A   1      31.969  22.848  23.750  1.00  0.00    -0.229 NA
ATOM     10  N   UNL A   1      33.812  23.595  24.724  1.00  0.00    -0.339 N 
ATOM     11  C   UNL A   1      32.128  24.179  23.479  1.00  0.00     0.089 A 
ATOM     12  C   UNL A   1      33.287  24.669  24.058  1.00  0.00     0.066 A 
ATOM     13  H   UNL A   1      34.664  23.581  25.217  1.00  0.00     0.168 HD
ATOM     14  C   UNL A   1      31.294  25.050  22.776  1.00  0.00     0.031 A 
ATOM     15  C   UNL A   1      33.696  25.999  23.943  1.00  0.00     0.042 A 
ATOM     16  C   UNL A   1      31.649  26.406  22.704  1.00  0.00     0.016 A 
BRANCH   8  17
ATOM     17  C   UNL A   1      33.105  21.239  25.309  1.00  0.00     0.239 C 
ATOM     18  C   UNL A   1      34.072  21.329  26.487  1.00  0.00     0.062 C 
BRANCH  17  19
ATOM     19  O   UNL A   1      33.446  20.173  24.386  1.00  0.00    -0.455 OA
BRANCH  19  20
ATOM     20  C   UNL A   1      33.204  18.880  24.738  1.00  0.00     0.303 C 
ATOM     21  C   UNL A   1      34.389  18.032  24.385  1.00  0.00     0.139 C 
ATOM     22  O   UNL A   1      32.204  18.454  25.285  1.00  0.00    -0.253 OA
ENDBRANCH  19  20
ENDBRANCH  17  19
ENDBRANCH   8  17
ENDBRANCH   4   7
ENDBRANCH   2   3
ENDBRANCH   1   2
BRANCH   1  23
ATOM     23  C   UNL A   1      33.523  29.484  26.521  1.00  0.00     0.118 C 
BRANCH  23  24
ATOM     24  N   UNL A   1      33.525  30.900  26.858  1.00  0.00    -0.352 N 
ATOM     25  C   UNL A   1      34.284  31.594  27.764  1.00  0.00     0.251 C 
ATOM     26  H   UNL A   1      32.878  31.447  26.355  1.00  0.00     0.163 HD
ATOM     27  O   UNL A   1      33.917  32.713  28.111  1.00  0.00    -0.269 OA
BRANCH  25  28
ATOM     28  C   UNL A   1      35.526  31.009  28.311  1.00  0.00     0.039 A 
ATOM     29  C   UNL A   1      36.745  31.628  28.022  1.00  0.00     0.014 A 
ATOM     30  C   UNL A   1      35.502  29.822  29.050  1.00  0.00     0.014 A 
ATOM     31  C   UNL A   1      37.933  31.074  28.502  1.00  0.00     0.010 A 
ATOM     32  C   UNL A   1      36.679  29.321  29.601  1.00  0.00     0.010 A 
ATOM     33  C   UNL A   1      37.909  29.930  29.317  1.00  0.00    -0.014 A 
BRANCH  33  34
ATOM     34  C   UNL A   1      39.165  29.346  29.853  1.00  0.00     0.031 A 
ATOM     35  C   UNL A   1      39.801  29.928  31.087  1.00  0.00     0.074 A 
ATOM     36  C   UNL A   1      39.746  28.320  29.204  1.00  0.00     0.049 A 
ATOM     37  N   UNL A   1      40.916  29.589  31.681  1.00  0.00    -0.248 NA
ATOM     38  C   UNL A   1      39.107  31.062  31.718  1.00  0.00     0.031 C 
ATOM     39  C   UNL A   1      39.238  27.701  27.977  1.00  0.00     0.029 A 
ATOM     40  N   UNL A   1      40.890  27.613  29.481  1.00  0.00    -0.354 N 
ATOM     41  C   UNL A   1      41.061  30.471  32.747  1.00  0.00     0.074 A 
ATOM     42  C   UNL A   1      39.959  31.404  32.672  1.00  0.00     0.031 C 
ATOM     43  C   UNL A   1      40.045  26.687  27.629  1.00  0.00     0.029 A 
ATOM     44  C   UNL A   1      41.155  26.614  28.573  1.00  0.00     0.049 A 
ATOM     45  H   UNL A   1      41.466  27.804  30.256  1.00  0.00     0.167 HD
ATOM     46  C   UNL A   1      42.014  30.486  33.713  1.00  0.00     0.034 A 
ATOM     47  C   UNL A   1      42.183  25.745  28.505  1.00  0.00     0.034 A 
ATOM     48  C   UNL A   1      43.103  29.540  33.771  1.00  0.00     0.049 A 
ATOM     49  C   UNL A   1      43.244  25.798  29.574  1.00  0.00     0.074 A 
ATOM     50  C   UNL A   1      44.100  29.430  34.725  1.00  0.00     0.029 A 
ATOM     51  N   UNL A   1      43.346  28.545  32.831  1.00  0.00    -0.354 N 
ATOM     52  N   UNL A   1      43.342  26.608  30.604  1.00  0.00    -0.248 NA
ATOM     53  C   UNL A   1      44.325  24.809  29.480  1.00  0.00     0.031 C 
ATOM     54  C   UNL A   1      44.986  28.426  34.322  1.00  0.00     0.029 A 
ATOM     55  C   UNL A   1      44.493  27.842  33.166  1.00  0.00     0.049 A 
ATOM     56  H   UNL A   1      42.784  28.367  32.041  1.00  0.00     0.167 HD
ATOM     57  C   UNL A   1      44.478  26.200  31.300  1.00  0.00     0.074 A 
ATOM     58  C   UNL A   1      45.015  25.063  30.582  1.00  0.00     0.031 C 
ATOM     59  C   UNL A   1      45.023  26.714  32.433  1.00  0.00     0.034 A 
BRANCH  46  60
ATOM     60  C   UNL A   1      41.931  31.573  34.760  1.00  0.00     0.023 A 
ATOM     61  C   UNL A   1      40.968  31.542  35.786  1.00  0.00     0.031 A 
ATOM     62  C   UNL A   1      42.809  32.670  34.721  1.00  0.00     0.131 A 
ATOM     63  C   UNL A   1      40.853  32.622  36.675  1.00  0.00     0.055 A 
ATOM     64  C   UNL A   1      42.749  33.699  35.665  1.00  0.00     0.041 A 
ATOM     65  F   UNL A   1      43.735  32.771  33.754  1.00  0.00    -0.206 F 
ATOM     66  C   UNL A   1      41.756  33.687  36.639  1.00  0.00     0.022 A 
BRANCH  63  67
ATOM     67  S   UNL A   1      39.413  32.689  37.776  1.00  0.00     0.124 S 
ATOM     68  O   UNL A   1      38.641  31.534  37.321  1.00  0.00    -0.237 OA
ATOM     69  O   UNL A   1      40.020  32.571  39.096  1.00  0.00    -0.237 OA
ATOM     70  O   UNL A   1      38.812  33.987  37.477  1.00  0.00    -0.744 OA
ENDBRANCH  63  67
ENDBRANCH  46  60
BRANCH  47  71
ATOM     71  C   UNL A   1      42.265  24.756  27.391  1.00  0.00     0.023 A 
ATOM     72  C   UNL A   1      41.487  23.589  27.398  1.00  0.00     0.031 A 
ATOM     73  C   UNL A   1      43.160  24.944  26.321  1.00  0.00     0.131 A 
ATOM     74  C   UNL A   1      41.655  22.628  26.389  1.00  0.00     0.055 A 
ATOM     75  C   UNL A   1      43.278  24.014  25.286  1.00  0.00     0.041 A 
ATOM     76  F   UNL A   1      43.927  26.044  26.260  1.00  0.00    -0.206 F 
ATOM     77  C   UNL A   1      42.534  22.840  25.324  1.00  0.00     0.022 A 
BRANCH  74  78
ATOM     78  S   UNL A   1      40.780  21.046  26.541  1.00  0.00     0.124 S 
ATOM     79  O   UNL A   1      40.789  20.840  27.984  1.00  0.00    -0.237 OA
ATOM     80  O   UNL A   1      39.485  21.358  25.945  1.00  0.00    -0.237 OA
ATOM     81  O   UNL A   1      41.611  20.122  25.773  1.00  0.00    -0.744 OA
ENDBRANCH  74  78
ENDBRANCH  47  71
BRANCH  59  82
ATOM     82  C   UNL A   1      46.239  26.008  32.989  1.00  0.00     0.023 A 
ATOM     83  C   UNL A   1      46.128  24.898  33.842  1.00  0.00     0.031 A 
ATOM     84  C   UNL A   1      47.529  26.475  32.676  1.00  0.00     0.131 A 
ATOM     85  C   UNL A   1      47.281  24.336  34.413  1.00  0.00     0.055 A 
ATOM     86  C   UNL A   1      48.676  25.865  33.185  1.00  0.00     0.041 A 
ATOM     87  F   UNL A   1      47.696  27.535  31.870  1.00  0.00    -0.206 F 
ATOM     88  C   UNL A   1      48.555  24.800  34.073  1.00  0.00     0.022 A 
BRANCH  85  89
ATOM     89  S   UNL A   1      47.088  23.075  35.702  1.00  0.00     0.124 S 
ATOM     90  O   UNL A   1      48.387  23.120  36.365  1.00  0.00    -0.237 OA
ATOM     91  O   UNL A   1      45.960  23.587  36.472  1.00  0.00    -0.237 OA
ATOM     92  O   UNL A   1      46.819  21.852  34.947  1.00  0.00    -0.744 OA
ENDBRANCH  85  89
ENDBRANCH  59  82
ENDBRANCH  33  34
ENDBRANCH  25  28
ENDBRANCH  23  24
ENDBRANCH   1  23
TORSDOF 16
ENDMDL
