MODEL 1
REMARK VINA RESULT:     -12.6      0.000      0.000
REMARK SMILES CC1(C)CCN(S(=O)(=O)c2ccc(O)c(C(=O)NCCCNC(=O)c3ccc(-c4c5nc(c(-c6cc(S(=O)(=O)[O-])ccc6F)c6ccc([nH]6)c(-c6cc(S(=O)(=O)[O-])ccc6F)c6nc(c(-c7cc(S(=O)(=O)[O-])ccc7F)c7ccc4[nH]7)C=C6)C=C5)cc3)c2)C1
REMARK SMILES IDX 20 1 19 2 18 3 16 4 17 5 15 7 10 8 11 9 88 10 12 11 13 12
REMARK SMILES IDX 7 13 8 14 9 15 6 16 1 17 2 18 3 19 4 20 89 21 5 22 14 23
REMARK SMILES IDX 21 25 22 26 23 27 24 29 25 30 26 31 87 32 27 33 86 34 28 35
REMARK SMILES IDX 29 36 30 37 80 38 31 39 85 40 79 41 81 42 32 43 84 44 78 45
REMARK SMILES IDX 77 46 33 48 65 49 45 50 64 51 46 52 49 53 63 54 82 55 47 56
REMARK SMILES IDX 48 57 62 59 83 60 50 61 34 62 35 63 43 64 36 65 42 66 44 67
REMARK SMILES IDX 41 68 37 69 38 70 39 71 40 72 66 73 67 74 75 75 68 76 74 77
REMARK SMILES IDX 76 78 73 79 69 80 70 81 71 82 72 83 51 84 52 85 60 86 53 87
REMARK SMILES IDX 59 88 61 89 58 90 54 91 55 92 56 93 57 94
REMARK H PARENT 18 6 14 24 22 28 81 47 49 58
REMARK Flexibility Score: inf
ROOT
ATOM      1  C   UNL A   1      35.426  21.502  25.628  1.00  0.00     0.042 C 
ENDROOT
BRANCH   1   2
ATOM      2  C   UNL A   1      35.352  20.268  24.724  1.00  0.00     0.118 C 
BRANCH   2   3
ATOM      3  N   UNL A   1      34.205  19.444  25.044  1.00  0.00    -0.352 N 
ATOM      4  C   UNL A   1      32.853  19.638  24.943  1.00  0.00     0.255 C 
ATOM      5  O   UNL A   1      32.154  18.674  25.276  1.00  0.00    -0.269 OA
ATOM      6  H   UNL A   1      34.447  18.562  25.408  1.00  0.00     0.163 HD
BRANCH   4   7
ATOM      7  C   UNL A   1      32.152  20.869  24.447  1.00  0.00     0.082 A 
ATOM      8  C   UNL A   1      31.372  23.094  25.130  1.00  0.00     0.083 A 
ATOM      9  C   UNL A   1      31.144  23.434  23.799  1.00  0.00     0.025 A 
ATOM     10  C   UNL A   1      31.870  21.825  25.452  1.00  0.00     0.039 A 
ATOM     11  C   UNL A   1      31.358  22.493  22.803  1.00  0.00     0.048 A 
ATOM     12  C   UNL A   1      31.878  21.231  23.119  1.00  0.00     0.128 A 
BRANCH   8  13
ATOM     13  S   UNL A   1      31.225  24.351  26.381  1.00  0.00     0.243 S 
ATOM     14  O   UNL A   1      31.718  23.781  27.624  1.00  0.00    -0.207 OA
ATOM     15  O   UNL A   1      29.905  24.928  26.303  1.00  0.00    -0.207 OA
BRANCH  13  16
ATOM     16  N   UNL A   1      32.334  25.564  25.910  1.00  0.00    -0.197 NA
ATOM     17  C   UNL A   1      34.026  27.886  24.590  1.00  0.00     0.012 C 
ATOM     18  C   UNL A   1      33.359  26.634  24.002  1.00  0.00    -0.020 C 
ATOM     19  C   UNL A   1      33.186  26.813  22.491  1.00  0.00     0.012 C 
ATOM     20  C   UNL A   1      34.142  25.366  24.339  1.00  0.00     0.024 C 
ATOM     21  C   UNL A   1      32.014  26.339  24.679  1.00  0.00     0.109 C 
ATOM     22  C   UNL A   1      33.735  25.058  25.777  1.00  0.00     0.103 C 
ENDBRANCH  13  16
ENDBRANCH   8  13
BRANCH  12  23
ATOM     23  O   UNL A   1      32.156  20.426  22.059  1.00  0.00    -0.507 OA
ATOM     24  H   UNL A   1      31.944  20.705  21.190  1.00  0.00     0.293 HD
ENDBRANCH  12  23
ENDBRANCH   4   7
ENDBRANCH   2   3
ENDBRANCH   1   2
BRANCH   1  25
ATOM     25  C   UNL A   1      36.783  22.190  25.647  1.00  0.00     0.118 C 
BRANCH  25  26
ATOM     26  N   UNL A   1      37.865  21.239  25.839  1.00  0.00    -0.352 N 
ATOM     27  C   UNL A   1      39.181  21.442  26.163  1.00  0.00     0.251 C 
ATOM     28  H   UNL A   1      37.611  20.296  25.715  1.00  0.00     0.163 HD
ATOM     29  O   UNL A   1      39.968  20.510  26.005  1.00  0.00    -0.269 OA
BRANCH  27  30
ATOM     30  C   UNL A   1      39.671  22.742  26.691  1.00  0.00     0.039 A 
ATOM     31  C   UNL A   1      39.163  23.917  26.124  1.00  0.00     0.014 A 
ATOM     32  C   UNL A   1      40.680  22.828  27.655  1.00  0.00     0.014 A 
ATOM     33  C   UNL A   1      39.656  25.163  26.524  1.00  0.00     0.010 A 
ATOM     34  C   UNL A   1      41.115  24.074  28.111  1.00  0.00     0.010 A 
ATOM     35  C   UNL A   1      40.634  25.253  27.527  1.00  0.00    -0.014 A 
BRANCH  35  36
ATOM     36  C   UNL A   1      41.203  26.572  27.913  1.00  0.00     0.031 A 
ATOM     37  C   UNL A   1      42.621  26.918  27.537  1.00  0.00     0.074 A 
ATOM     38  C   UNL A   1      40.452  27.449  28.607  1.00  0.00     0.049 A 
ATOM     39  N   UNL A   1      43.302  28.010  27.782  1.00  0.00    -0.248 NA
ATOM     40  C   UNL A   1      43.383  25.889  26.816  1.00  0.00     0.031 C 
ATOM     41  C   UNL A   1      39.083  27.209  29.065  1.00  0.00     0.029 A 
ATOM     42  N   UNL A   1      40.732  28.717  29.048  1.00  0.00    -0.354 N 
ATOM     43  C   UNL A   1      44.574  27.792  27.259  1.00  0.00     0.074 A 
ATOM     44  C   UNL A   1      44.585  26.439  26.743  1.00  0.00     0.031 C 
ATOM     45  C   UNL A   1      38.632  28.306  29.696  1.00  0.00     0.029 A 
ATOM     46  C   UNL A   1      39.687  29.314  29.714  1.00  0.00     0.049 A 
ATOM     47  H   UNL A   1      41.600  29.159  28.901  1.00  0.00     0.167 HD
ATOM     48  C   UNL A   1      45.626  28.645  27.192  1.00  0.00     0.034 A 
ATOM     49  C   UNL A   1      39.590  30.537  30.271  1.00  0.00     0.034 A 
ATOM     50  C   UNL A   1      45.593  29.997  27.698  1.00  0.00     0.049 A 
ATOM     51  C   UNL A   1      40.762  31.479  30.162  1.00  0.00     0.074 A 
ATOM     52  C   UNL A   1      46.585  30.962  27.656  1.00  0.00     0.029 A 
ATOM     53  N   UNL A   1      44.505  30.577  28.341  1.00  0.00    -0.354 N 
ATOM     54  N   UNL A   1      41.942  31.273  29.623  1.00  0.00    -0.248 NA
ATOM     55  C   UNL A   1      40.576  32.827  30.713  1.00  0.00     0.031 C 
ATOM     56  C   UNL A   1      46.116  32.104  28.318  1.00  0.00     0.029 A 
ATOM     57  C   UNL A   1      44.807  31.879  28.712  1.00  0.00     0.049 A 
ATOM     58  H   UNL A   1      43.646  30.128  28.508  1.00  0.00     0.167 HD
ATOM     59  C   UNL A   1      42.629  32.478  29.744  1.00  0.00     0.074 A 
ATOM     60  C   UNL A   1      41.720  33.408  30.384  1.00  0.00     0.031 C 
ATOM     61  C   UNL A   1      43.893  32.791  29.360  1.00  0.00     0.034 A 
BRANCH  48  62
ATOM     62  C   UNL A   1      46.903  28.124  26.571  1.00  0.00     0.023 A 
ATOM     63  C   UNL A   1      47.145  28.220  25.188  1.00  0.00     0.031 A 
ATOM     64  C   UNL A   1      47.873  27.483  27.362  1.00  0.00     0.131 A 
ATOM     65  C   UNL A   1      48.281  27.612  24.629  1.00  0.00     0.055 A 
ATOM     66  C   UNL A   1      49.043  26.955  26.811  1.00  0.00     0.041 A 
ATOM     67  F   UNL A   1      47.692  27.342  28.685  1.00  0.00    -0.206 F 
ATOM     68  C   UNL A   1      49.244  27.002  25.435  1.00  0.00     0.022 A 
BRANCH  65  69
ATOM     69  S   UNL A   1      48.401  27.499  22.823  1.00  0.00     0.124 S 
ATOM     70  O   UNL A   1      47.192  28.200  22.402  1.00  0.00    -0.237 OA
ATOM     71  O   UNL A   1      49.663  28.177  22.547  1.00  0.00    -0.237 OA
ATOM     72  O   UNL A   1      48.399  26.059  22.570  1.00  0.00    -0.744 OA
ENDBRANCH  65  69
ENDBRANCH  48  62
BRANCH  49  73
ATOM     73  C   UNL A   1      38.339  30.953  30.967  1.00  0.00     0.023 A 
ATOM     74  C   UNL A   1      37.302  31.595  30.272  1.00  0.00     0.031 A 
ATOM     75  C   UNL A   1      38.179  30.747  32.348  1.00  0.00     0.131 A 
ATOM     76  C   UNL A   1      36.172  32.052  30.965  1.00  0.00     0.055 A 
ATOM     77  C   UNL A   1      37.031  31.161  33.027  1.00  0.00     0.041 A 
ATOM     78  F   UNL A   1      39.135  30.128  33.059  1.00  0.00    -0.206 F 
ATOM     79  C   UNL A   1      36.025  31.831  32.338  1.00  0.00     0.022 A 
BRANCH  76  80
ATOM     80  S   UNL A   1      34.927  33.015  30.063  1.00  0.00     0.124 S 
ATOM     81  O   UNL A   1      34.400  32.024  29.132  1.00  0.00    -0.237 OA
ATOM     82  O   UNL A   1      34.029  33.428  31.137  1.00  0.00    -0.237 OA
ATOM     83  O   UNL A   1      35.704  34.093  29.456  1.00  0.00    -0.744 OA
ENDBRANCH  76  80
ENDBRANCH  49  73
BRANCH  61  84
ATOM     84  C   UNL A   1      44.337  34.215  29.586  1.00  0.00     0.023 A 
ATOM     85  C   UNL A   1      44.017  35.243  28.682  1.00  0.00     0.031 A 
ATOM     86  C   UNL A   1      45.132  34.539  30.700  1.00  0.00     0.131 A 
ATOM     87  C   UNL A   1      44.552  36.527  28.864  1.00  0.00     0.055 A 
ATOM     88  C   UNL A   1      45.608  35.834  30.912  1.00  0.00     0.041 A 
ATOM     89  F   UNL A   1      45.469  33.598  31.596  1.00  0.00    -0.206 F 
ATOM     90  C   UNL A   1      45.334  36.832  29.981  1.00  0.00     0.022 A 
BRANCH  87  91
ATOM     91  S   UNL A   1      44.319  37.759  27.554  1.00  0.00     0.124 S 
ATOM     92  O   UNL A   1      43.967  38.952  28.316  1.00  0.00    -0.237 OA
ATOM     93  O   UNL A   1      45.628  37.778  26.908  1.00  0.00    -0.237 OA
ATOM     94  O   UNL A   1      43.237  37.199  26.745  1.00  0.00    -0.744 OA
ENDBRANCH  87  91
ENDBRANCH  61  84
ENDBRANCH  35  36
ENDBRANCH  27  30
ENDBRANCH  25  26
ENDBRANCH   1  25
TORSDOF 16
ENDMDL
MODEL 2
REMARK VINA RESULT:     -12.3      4.900     10.232
REMARK SMILES CC1(C)CCN(S(=O)(=O)c2ccc(O)c(C(=O)NCCCNC(=O)c3ccc(-c4c5nc(c(-c6cc(S(=O)(=O)[O-])ccc6F)c6ccc([nH]6)c(-c6cc(S(=O)(=O)[O-])ccc6F)c6nc(c(-c7cc(S(=O)(=O)[O-])ccc7F)c7ccc4[nH]7)C=C6)C=C5)cc3)c2)C1
REMARK SMILES IDX 20 1 19 2 18 3 16 4 17 5 15 7 10 8 11 9 88 10 12 11 13 12
REMARK SMILES IDX 7 13 8 14 9 15 6 16 1 17 2 18 3 19 4 20 89 21 5 22 14 23
REMARK SMILES IDX 21 25 22 26 23 27 24 29 25 30 26 31 87 32 27 33 86 34 28 35
REMARK SMILES IDX 29 36 30 37 80 38 31 39 85 40 79 41 81 42 32 43 84 44 78 45
REMARK SMILES IDX 77 46 33 48 65 49 45 50 64 51 46 52 49 53 63 54 82 55 47 56
REMARK SMILES IDX 48 57 62 59 83 60 50 61 34 62 35 63 43 64 36 65 42 66 44 67
REMARK SMILES IDX 41 68 37 69 38 70 39 71 40 72 66 73 67 74 75 75 68 76 74 77
REMARK SMILES IDX 76 78 73 79 69 80 70 81 71 82 72 83 51 84 52 85 60 86 53 87
REMARK SMILES IDX 59 88 61 89 58 90 54 91 55 92 56 93 57 94
REMARK H PARENT 18 6 14 24 22 28 81 47 49 58
REMARK Flexibility Score: inf
ROOT
ATOM      1  C   UNL A   1      32.629  30.166  25.706  1.00  0.00     0.042 C 
ENDROOT
BRANCH   1   2
ATOM      2  C   UNL A   1      33.842  29.264  25.466  1.00  0.00     0.118 C 
BRANCH   2   3
ATOM      3  N   UNL A   1      34.035  28.999  24.054  1.00  0.00    -0.352 N 
ATOM      4  C   UNL A   1      33.289  28.341  23.114  1.00  0.00     0.255 C 
ATOM      5  O   UNL A   1      33.754  28.351  21.968  1.00  0.00    -0.269 OA
ATOM      6  H   UNL A   1      34.875  29.369  23.699  1.00  0.00     0.163 HD
BRANCH   4   7
ATOM      7  C   UNL A   1      31.973  27.651  23.325  1.00  0.00     0.082 A 
ATOM      8  C   UNL A   1      30.825  26.000  24.733  1.00  0.00     0.083 A 
ATOM      9  C   UNL A   1      29.597  26.384  24.201  1.00  0.00     0.025 A 
ATOM     10  C   UNL A   1      32.002  26.625  24.300  1.00  0.00     0.039 A 
ATOM     11  C   UNL A   1      29.551  27.347  23.204  1.00  0.00     0.048 A 
ATOM     12  C   UNL A   1      30.722  27.991  22.784  1.00  0.00     0.128 A 
BRANCH   8  13
ATOM     13  S   UNL A   1      30.857  24.867  26.105  1.00  0.00     0.243 S 
ATOM     14  O   UNL A   1      29.480  24.644  26.510  1.00  0.00    -0.207 OA
ATOM     15  O   UNL A   1      31.844  25.319  27.055  1.00  0.00    -0.207 OA
BRANCH  13  16
ATOM     16  N   UNL A   1      31.431  23.400  25.443  1.00  0.00    -0.197 NA
ATOM     17  C   UNL A   1      33.018  20.900  24.331  1.00  0.00     0.012 C 
ATOM     18  C   UNL A   1      33.208  22.411  24.139  1.00  0.00    -0.020 C 
ATOM     19  C   UNL A   1      34.635  22.686  23.655  1.00  0.00     0.012 C 
ATOM     20  C   UNL A   1      32.164  22.997  23.190  1.00  0.00     0.024 C 
ATOM     21  C   UNL A   1      32.905  23.188  25.426  1.00  0.00     0.109 C 
ATOM     22  C   UNL A   1      30.920  23.140  24.061  1.00  0.00     0.103 C 
ENDBRANCH  13  16
ENDBRANCH   8  13
BRANCH  12  23
ATOM     23  O   UNL A   1      30.553  28.995  21.884  1.00  0.00    -0.507 OA
ATOM     24  H   UNL A   1      29.913  28.913  21.205  1.00  0.00     0.293 HD
ENDBRANCH  12  23
ENDBRANCH   4   7
ENDBRANCH   2   3
ENDBRANCH   1   2
BRANCH   1  25
ATOM     25  C   UNL A   1      32.529  30.725  27.118  1.00  0.00     0.118 C 
BRANCH  25  26
ATOM     26  N   UNL A   1      32.738  32.163  27.143  1.00  0.00    -0.352 N 
ATOM     27  C   UNL A   1      33.728  32.908  27.729  1.00  0.00     0.251 C 
ATOM     28  H   UNL A   1      32.057  32.686  26.662  1.00  0.00     0.163 HD
ATOM     29  O   UNL A   1      33.549  34.120  27.846  1.00  0.00    -0.269 OA
BRANCH  27  30
ATOM     30  C   UNL A   1      34.990  32.296  28.218  1.00  0.00     0.039 A 
ATOM     31  C   UNL A   1      34.932  31.001  28.748  1.00  0.00     0.014 A 
ATOM     32  C   UNL A   1      36.199  32.997  28.256  1.00  0.00     0.014 A 
ATOM     33  C   UNL A   1      36.074  30.416  29.303  1.00  0.00     0.010 A 
ATOM     34  C   UNL A   1      37.356  32.382  28.736  1.00  0.00     0.010 A 
ATOM     35  C   UNL A   1      37.300  31.099  29.296  1.00  0.00    -0.014 A 
BRANCH  35  36
ATOM     36  C   UNL A   1      38.502  30.503  29.937  1.00  0.00     0.031 A 
ATOM     37  C   UNL A   1      38.878  30.895  31.344  1.00  0.00     0.074 A 
ATOM     38  C   UNL A   1      39.260  29.623  29.254  1.00  0.00     0.049 A 
ATOM     39  N   UNL A   1      39.886  30.494  32.077  1.00  0.00    -0.248 NA
ATOM     40  C   UNL A   1      38.021  31.892  32.001  1.00  0.00     0.031 C 
ATOM     41  C   UNL A   1      39.022  29.200  27.873  1.00  0.00     0.029 A 
ATOM     42  N   UNL A   1      40.380  28.925  29.628  1.00  0.00    -0.354 N 
ATOM     43  C   UNL A   1      39.793  31.200  33.273  1.00  0.00     0.074 A 
ATOM     44  C   UNL A   1      38.667  32.100  33.138  1.00  0.00     0.031 C 
ATOM     45  C   UNL A   1      39.949  28.293  27.526  1.00  0.00     0.029 A 
ATOM     46  C   UNL A   1      40.864  28.092  28.645  1.00  0.00     0.049 A 
ATOM     47  H   UNL A   1      40.798  29.011  30.515  1.00  0.00     0.167 HD
ATOM     48  C   UNL A   1      40.557  31.092  34.389  1.00  0.00     0.034 A 
ATOM     49  C   UNL A   1      41.923  27.258  28.650  1.00  0.00     0.034 A 
ATOM     50  C   UNL A   1      41.667  30.177  34.512  1.00  0.00     0.049 A 
ATOM     51  C   UNL A   1      42.742  27.133  29.909  1.00  0.00     0.074 A 
ATOM     52  C   UNL A   1      42.491  29.957  35.603  1.00  0.00     0.029 A 
ATOM     53  N   UNL A   1      42.111  29.327  33.505  1.00  0.00    -0.354 N 
ATOM     54  N   UNL A   1      42.613  27.775  31.048  1.00  0.00    -0.248 NA
ATOM     55  C   UNL A   1      43.834  26.152  29.889  1.00  0.00     0.031 C 
ATOM     56  C   UNL A   1      43.462  29.014  35.239  1.00  0.00     0.029 A 
ATOM     57  C   UNL A   1      43.203  28.594  33.944  1.00  0.00     0.049 A 
ATOM     58  H   UNL A   1      41.708  29.257  32.610  1.00  0.00     0.167 HD
ATOM     59  C   UNL A   1      43.589  27.251  31.891  1.00  0.00     0.074 A 
ATOM     60  C   UNL A   1      44.280  26.226  31.134  1.00  0.00     0.031 C 
ATOM     61  C   UNL A   1      43.888  27.582  33.173  1.00  0.00     0.034 A 
BRANCH  48  62
ATOM     62  C   UNL A   1      40.226  32.006  35.547  1.00  0.00     0.023 A 
ATOM     63  C   UNL A   1      39.224  31.684  36.480  1.00  0.00     0.031 A 
ATOM     64  C   UNL A   1      40.889  33.238  35.698  1.00  0.00     0.131 A 
ATOM     65  C   UNL A   1      38.856  32.613  37.466  1.00  0.00     0.055 A 
ATOM     66  C   UNL A   1      40.576  34.121  36.734  1.00  0.00     0.041 A 
ATOM     67  F   UNL A   1      41.841  33.612  34.829  1.00  0.00    -0.206 F 
ATOM     68  C   UNL A   1      39.542  33.819  37.614  1.00  0.00     0.022 A 
BRANCH  65  69
ATOM     69  S   UNL A   1      37.368  32.286  38.452  1.00  0.00     0.124 S 
ATOM     70  O   UNL A   1      36.366  33.078  37.743  1.00  0.00    -0.237 OA
ATOM     71  O   UNL A   1      37.231  30.838  38.346  1.00  0.00    -0.237 OA
ATOM     72  O   UNL A   1      37.721  32.785  39.780  1.00  0.00    -0.744 OA
ENDBRANCH  65  69
ENDBRANCH  48  62
BRANCH  49  73
ATOM     73  C   UNL A   1      42.263  26.463  27.436  1.00  0.00     0.023 A 
ATOM     74  C   UNL A   1      41.940  25.100  27.349  1.00  0.00     0.031 A 
ATOM     75  C   UNL A   1      42.952  27.048  26.360  1.00  0.00     0.131 A 
ATOM     76  C   UNL A   1      42.347  24.353  26.232  1.00  0.00     0.055 A 
ATOM     77  C   UNL A   1      43.312  26.313  25.228  1.00  0.00     0.041 A 
ATOM     78  F   UNL A   1      43.275  28.351  26.387  1.00  0.00    -0.206 F 
ATOM     79  C   UNL A   1      43.022  24.954  25.166  1.00  0.00     0.022 A 
BRANCH  76  80
ATOM     80  S   UNL A   1      42.050  22.564  26.226  1.00  0.00     0.124 S 
ATOM     81  O   UNL A   1      42.707  22.148  27.460  1.00  0.00    -0.237 OA
ATOM     82  O   UNL A   1      40.592  22.500  26.223  1.00  0.00    -0.237 OA
ATOM     83  O   UNL A   1      42.693  22.116  24.993  1.00  0.00    -0.744 OA
ENDBRANCH  76  80
ENDBRANCH  49  73
BRANCH  61  84
ATOM     84  C   UNL A   1      44.982  26.787  33.842  1.00  0.00     0.023 A 
ATOM     85  C   UNL A   1      44.734  25.534  34.430  1.00  0.00     0.031 A 
ATOM     86  C   UNL A   1      46.284  27.312  33.930  1.00  0.00     0.131 A 
ATOM     87  C   UNL A   1      45.749  24.885  35.147  1.00  0.00     0.055 A 
ATOM     88  C   UNL A   1      47.308  26.629  34.590  1.00  0.00     0.041 A 
ATOM     89  F   UNL A   1      46.579  28.504  33.387  1.00  0.00    -0.206 F 
ATOM     90  C   UNL A   1      47.038  25.418  35.219  1.00  0.00     0.022 A 
BRANCH  87  91
ATOM     91  S   UNL A   1      45.327  23.396  36.094  1.00  0.00     0.124 S 
ATOM     92  O   UNL A   1      46.384  22.472  35.697  1.00  0.00    -0.237 OA
ATOM     93  O   UNL A   1      45.384  23.876  37.471  1.00  0.00    -0.237 OA
ATOM     94  O   UNL A   1      43.990  23.051  35.614  1.00  0.00    -0.744 OA
ENDBRANCH  87  91
ENDBRANCH  61  84
ENDBRANCH  35  36
ENDBRANCH  27  30
ENDBRANCH  25  26
ENDBRANCH   1  25
TORSDOF 16
ENDMDL
MODEL 3
REMARK VINA RESULT:     -12.3      5.656      8.680
REMARK SMILES CC1(C)CCN(S(=O)(=O)c2ccc(O)c(C(=O)NCCCNC(=O)c3ccc(-c4c5nc(c(-c6cc(S(=O)(=O)[O-])ccc6F)c6ccc([nH]6)c(-c6cc(S(=O)(=O)[O-])ccc6F)c6nc(c(-c7cc(S(=O)(=O)[O-])ccc7F)c7ccc4[nH]7)C=C6)C=C5)cc3)c2)C1
REMARK SMILES IDX 20 1 19 2 18 3 16 4 17 5 15 7 10 8 11 9 88 10 12 11 13 12
REMARK SMILES IDX 7 13 8 14 9 15 6 16 1 17 2 18 3 19 4 20 89 21 5 22 14 23
REMARK SMILES IDX 21 25 22 26 23 27 24 29 25 30 26 31 87 32 27 33 86 34 28 35
REMARK SMILES IDX 29 36 30 37 80 38 31 39 85 40 79 41 81 42 32 43 84 44 78 45
REMARK SMILES IDX 77 46 33 48 65 49 45 50 64 51 46 52 49 53 63 54 82 55 47 56
REMARK SMILES IDX 48 57 62 59 83 60 50 61 34 62 35 63 43 64 36 65 42 66 44 67
REMARK SMILES IDX 41 68 37 69 38 70 39 71 40 72 66 73 67 74 75 75 68 76 74 77
REMARK SMILES IDX 76 78 73 79 69 80 70 81 71 82 72 83 51 84 52 85 60 86 53 87
REMARK SMILES IDX 59 88 61 89 58 90 54 91 55 92 56 93 57 94
REMARK H PARENT 18 6 14 24 22 28 81 47 49 58
REMARK Flexibility Score: inf
ROOT
ATOM      1  C   UNL A   1      31.458  32.207  26.810  1.00  0.00     0.042 C 
ENDROOT
BRANCH   1   2
ATOM      2  C   UNL A   1      31.585  30.707  26.529  1.00  0.00     0.118 C 
BRANCH   2   3
ATOM      3  N   UNL A   1      32.772  30.151  27.147  1.00  0.00    -0.352 N 
ATOM      4  C   UNL A   1      33.560  29.069  26.857  1.00  0.00     0.255 C 
ATOM      5  O   UNL A   1      34.543  28.919  27.592  1.00  0.00    -0.269 OA
ATOM      6  H   UNL A   1      33.075  30.655  27.936  1.00  0.00     0.163 HD
BRANCH   4   7
ATOM      7  C   UNL A   1      33.371  28.088  25.738  1.00  0.00     0.082 A 
ATOM      8  C   UNL A   1      32.587  25.817  25.229  1.00  0.00     0.083 A 
ATOM      9  C   UNL A   1      32.607  26.105  23.866  1.00  0.00     0.025 A 
ATOM     10  C   UNL A   1      32.966  26.797  26.156  1.00  0.00     0.039 A 
ATOM     11  C   UNL A   1      33.055  27.344  23.432  1.00  0.00     0.048 A 
ATOM     12  C   UNL A   1      33.412  28.334  24.356  1.00  0.00     0.128 A 
BRANCH   8  13
ATOM     13  S   UNL A   1      31.882  24.279  25.778  1.00  0.00     0.243 S 
ATOM     14  O   UNL A   1      30.888  23.886  24.794  1.00  0.00    -0.207 OA
ATOM     15  O   UNL A   1      31.535  24.402  27.173  1.00  0.00    -0.207 OA
BRANCH  13  16
ATOM     16  N   UNL A   1      33.164  23.153  25.675  1.00  0.00    -0.197 NA
ATOM     17  C   UNL A   1      35.846  21.479  25.755  1.00  0.00     0.012 C 
ATOM     18  C   UNL A   1      35.552  22.938  25.377  1.00  0.00    -0.020 C 
ATOM     19  C   UNL A   1      36.847  23.752  25.449  1.00  0.00     0.012 C 
ATOM     20  C   UNL A   1      34.888  23.045  24.005  1.00  0.00     0.024 C 
ATOM     21  C   UNL A   1      34.469  23.547  26.276  1.00  0.00     0.109 C 
ATOM     22  C   UNL A   1      33.430  22.692  24.278  1.00  0.00     0.103 C 
ENDBRANCH  13  16
ENDBRANCH   8  13
BRANCH  12  23
ATOM     23  O   UNL A   1      33.729  29.546  23.829  1.00  0.00    -0.507 OA
ATOM     24  H   UNL A   1      33.166  30.280  23.970  1.00  0.00     0.293 HD
ENDBRANCH  12  23
ENDBRANCH   4   7
ENDBRANCH   2   3
ENDBRANCH   1   2
BRANCH   1  25
ATOM     25  C   UNL A   1      32.785  32.946  26.905  1.00  0.00     0.118 C 
BRANCH  25  26
ATOM     26  N   UNL A   1      32.649  34.205  27.617  1.00  0.00    -0.352 N 
ATOM     27  C   UNL A   1      33.227  34.635  28.783  1.00  0.00     0.251 C 
ATOM     28  H   UNL A   1      32.042  34.854  27.193  1.00  0.00     0.163 HD
ATOM     29  O   UNL A   1      32.755  35.629  29.332  1.00  0.00    -0.269 OA
BRANCH  27  30
ATOM     30  C   UNL A   1      34.391  33.937  29.389  1.00  0.00     0.039 A 
ATOM     31  C   UNL A   1      34.147  32.796  30.161  1.00  0.00     0.014 A 
ATOM     32  C   UNL A   1      35.695  34.433  29.294  1.00  0.00     0.014 A 
ATOM     33  C   UNL A   1      35.198  32.156  30.825  1.00  0.00     0.010 A 
ATOM     34  C   UNL A   1      36.755  33.748  29.891  1.00  0.00     0.010 A 
ATOM     35  C   UNL A   1      36.514  32.623  30.691  1.00  0.00    -0.014 A 
BRANCH  35  36
ATOM     36  C   UNL A   1      37.626  31.981  31.441  1.00  0.00     0.031 A 
ATOM     37  C   UNL A   1      38.456  30.906  30.785  1.00  0.00     0.074 A 
ATOM     38  C   UNL A   1      37.882  32.354  32.711  1.00  0.00     0.049 A 
ATOM     39  N   UNL A   1      39.463  30.223  31.269  1.00  0.00    -0.248 NA
ATOM     40  C   UNL A   1      38.083  30.532  29.414  1.00  0.00     0.031 C 
ATOM     41  C   UNL A   1      37.120  33.350  33.466  1.00  0.00     0.029 A 
ATOM     42  N   UNL A   1      38.852  31.942  33.588  1.00  0.00    -0.354 N 
ATOM     43  C   UNL A   1      39.833  29.330  30.268  1.00  0.00     0.074 A 
ATOM     44  C   UNL A   1      38.900  29.516  29.178  1.00  0.00     0.031 C 
ATOM     45  C   UNL A   1      37.670  33.494  34.683  1.00  0.00     0.029 A 
ATOM     46  C   UNL A   1      38.802  32.581  34.806  1.00  0.00     0.049 A 
ATOM     47  H   UNL A   1      39.520  31.253  33.368  1.00  0.00     0.167 HD
ATOM     48  C   UNL A   1      40.869  28.454  30.248  1.00  0.00     0.034 A 
ATOM     49  C   UNL A   1      39.585  32.448  35.895  1.00  0.00     0.034 A 
ATOM     50  C   UNL A   1      41.801  28.292  31.338  1.00  0.00     0.049 A 
ATOM     51  C   UNL A   1      40.746  31.488  35.842  1.00  0.00     0.074 A 
ATOM     52  C   UNL A   1      42.906  27.461  31.418  1.00  0.00     0.029 A 
ATOM     53  N   UNL A   1      41.737  28.979  32.546  1.00  0.00    -0.354 N 
ATOM     54  N   UNL A   1      41.110  30.683  34.870  1.00  0.00    -0.248 NA
ATOM     55  C   UNL A   1      41.615  31.440  37.023  1.00  0.00     0.031 C 
ATOM     56  C   UNL A   1      43.477  27.607  32.689  1.00  0.00     0.029 A 
ATOM     57  C   UNL A   1      42.772  28.580  33.379  1.00  0.00     0.049 A 
ATOM     58  H   UNL A   1      41.055  29.650  32.775  1.00  0.00     0.167 HD
ATOM     59  C   UNL A   1      42.271  30.056  35.313  1.00  0.00     0.074 A 
ATOM     60  C   UNL A   1      42.555  30.596  36.628  1.00  0.00     0.031 C 
ATOM     61  C   UNL A   1      43.035  29.121  34.692  1.00  0.00     0.034 A 
BRANCH  48  62
ATOM     62  C   UNL A   1      41.023  27.591  29.016  1.00  0.00     0.023 A 
ATOM     63  C   UNL A   1      42.014  27.851  28.051  1.00  0.00     0.031 A 
ATOM     64  C   UNL A   1      40.142  26.521  28.776  1.00  0.00     0.131 A 
ATOM     65  C   UNL A   1      42.047  27.110  26.859  1.00  0.00     0.055 A 
ATOM     66  C   UNL A   1      40.234  25.733  27.626  1.00  0.00     0.041 A 
ATOM     67  F   UNL A   1      39.163  26.235  29.649  1.00  0.00    -0.206 F 
ATOM     68  C   UNL A   1      41.179  26.037  26.651  1.00  0.00     0.022 A 
BRANCH  65  69
ATOM     69  S   UNL A   1      43.138  27.668  25.521  1.00  0.00     0.124 S 
ATOM     70  O   UNL A   1      44.060  28.544  26.239  1.00  0.00    -0.237 OA
ATOM     71  O   UNL A   1      43.699  26.416  25.027  1.00  0.00    -0.237 OA
ATOM     72  O   UNL A   1      42.230  28.351  24.601  1.00  0.00    -0.744 OA
ENDBRANCH  65  69
ENDBRANCH  48  62
BRANCH  49  73
ATOM     73  C   UNL A   1      39.313  33.250  37.122  1.00  0.00     0.023 A 
ATOM     74  C   UNL A   1      39.943  34.487  37.333  1.00  0.00     0.031 A 
ATOM     75  C   UNL A   1      38.448  32.771  38.121  1.00  0.00     0.131 A 
ATOM     76  C   UNL A   1      39.736  35.182  38.534  1.00  0.00     0.055 A 
ATOM     77  C   UNL A   1      38.208  33.489  39.294  1.00  0.00     0.041 A 
ATOM     78  F   UNL A   1      37.812  31.599  37.964  1.00  0.00    -0.206 F 
ATOM     79  C   UNL A   1      38.865  34.696  39.512  1.00  0.00     0.022 A 
BRANCH  76  80
ATOM     80  S   UNL A   1      40.687  36.697  38.838  1.00  0.00     0.124 S 
ATOM     81  O   UNL A   1      39.633  37.703  38.901  1.00  0.00    -0.237 OA
ATOM     82  O   UNL A   1      41.354  36.386  40.098  1.00  0.00    -0.237 OA
ATOM     83  O   UNL A   1      41.568  36.785  37.676  1.00  0.00    -0.744 OA
ENDBRANCH  76  80
ENDBRANCH  49  73
BRANCH  61  84
ATOM     84  C   UNL A   1      44.276  28.666  35.421  1.00  0.00     0.023 A 
ATOM     85  C   UNL A   1      44.236  27.642  36.383  1.00  0.00     0.031 A 
ATOM     86  C   UNL A   1      45.509  29.299  35.181  1.00  0.00     0.131 A 
ATOM     87  C   UNL A   1      45.386  27.334  37.126  1.00  0.00     0.055 A 
ATOM     88  C   UNL A   1      46.666  28.943  35.876  1.00  0.00     0.041 A 
ATOM     89  F   UNL A   1      45.606  30.284  34.273  1.00  0.00    -0.206 F 
ATOM     90  C   UNL A   1      46.604  27.969  36.867  1.00  0.00     0.022 A 
BRANCH  87  91
ATOM     91  S   UNL A   1      45.238  26.184  38.520  1.00  0.00     0.124 S 
ATOM     92  O   UNL A   1      46.608  26.131  39.019  1.00  0.00    -0.237 OA
ATOM     93  O   UNL A   1      44.272  26.860  39.380  1.00  0.00    -0.237 OA
ATOM     94  O   UNL A   1      44.757  24.951  37.897  1.00  0.00    -0.744 OA
ENDBRANCH  87  91
ENDBRANCH  61  84
ENDBRANCH  35  36
ENDBRANCH  27  30
ENDBRANCH  25  26
ENDBRANCH   1  25
TORSDOF 16
ENDMDL
