MODEL 1
REMARK VINA RESULT:     -14.4      0.000      0.000
REMARK SMILES Cc1c(CC(=O)NCCCNC(=O)c2ccc(-c3c4nc(c(-c5cc(S(=O)(=O)[O-])ccc5F)c5ccc([nH]5)c(-c5cc(S(=O)(=O)[O-])ccc5F)c5nc(c(-c6cc(S(=O)(=O)[O-])ccc6F)c6ccc3[nH]6)C=C5)C=C4)cc2)cc(-c2ccc(S(C)(=O)=O)cc2)n1-c1cccc(F)c1
REMARK SMILES IDX 9 1 8 2 7 3 5 4 6 5 4 7 3 8 1 9 2 10 89 11 77 12 78 13 90 14
REMARK SMILES IDX 91 15 96 16 92 17 94 18 93 19 95 20 79 21 80 22 88 23 81 24
REMARK SMILES IDX 87 25 82 26 83 27 84 28 85 29 86 30 10 31 11 32 12 33 13 35
REMARK SMILES IDX 14 36 15 37 76 38 16 39 75 40 17 41 18 42 19 43 69 44 20 45
REMARK SMILES IDX 74 46 68 47 70 48 21 49 73 50 67 51 66 52 22 54 54 55 34 56
REMARK SMILES IDX 53 57 35 58 38 59 52 60 71 61 36 62 37 63 51 65 72 66 39 67
REMARK SMILES IDX 23 68 24 69 32 70 25 71 31 72 33 73 30 74 26 75 27 76 28 77
REMARK SMILES IDX 29 78 55 79 56 80 64 81 57 82 63 83 65 84 62 85 58 86 59 87
REMARK SMILES IDX 60 88 61 89 40 90 41 91 49 92 42 93 48 94 50 95 47 96 43 97
REMARK SMILES IDX 44 98 45 99 46 100
REMARK H PARENT 7 6 11 34 70 53 38 64
REMARK Flexibility Score: inf
ROOT
ATOM      1  C   UNL A   1      37.469  23.062  24.915  1.00  0.00     0.042 C 
ENDROOT
BRANCH   1   2
ATOM      2  C   UNL A   1      36.970  21.826  24.142  1.00  0.00     0.117 C 
BRANCH   2   3
ATOM      3  N   UNL A   1      35.609  21.425  24.456  1.00  0.00    -0.356 N 
ATOM      4  C   UNL A   1      34.406  21.918  24.050  1.00  0.00     0.224 C 
ATOM      5  O   UNL A   1      33.389  21.353  24.468  1.00  0.00    -0.275 OA
ATOM      6  H   UNL A   1      35.546  20.662  25.073  1.00  0.00     0.163 HD
BRANCH   4   7
ATOM      7  C   UNL A   1      34.296  23.061  23.056  1.00  0.00     0.137 C 
BRANCH   7   8
ATOM      8  C   UNL A   1      33.612  24.286  23.580  1.00  0.00    -0.017 A 
ATOM      9  C   UNL A   1      34.804  24.630  25.865  1.00  0.00     0.065 C 
ATOM     10  C   UNL A   1      33.866  24.984  24.754  1.00  0.00     0.024 A 
ATOM     11  N   UNL A   1      33.006  26.081  24.803  1.00  0.00    -0.313 N 
ATOM     12  C   UNL A   1      32.502  24.917  22.961  1.00  0.00     0.033 A 
ATOM     13  C   UNL A   1      32.155  26.033  23.700  1.00  0.00     0.053 A 
BRANCH  11  14
ATOM     14  C   UNL A   1      32.988  27.084  25.809  1.00  0.00     0.049 A 
ATOM     15  C   UNL A   1      31.872  27.206  26.651  1.00  0.00     0.027 A 
ATOM     16  C   UNL A   1      34.045  27.995  25.899  1.00  0.00     0.065 A 
ATOM     17  C   UNL A   1      31.820  28.238  27.590  1.00  0.00     0.005 A 
ATOM     18  C   UNL A   1      33.968  29.023  26.829  1.00  0.00     0.125 A 
ATOM     19  C   UNL A   1      32.870  29.151  27.676  1.00  0.00     0.039 A 
ATOM     20  F   UNL A   1      34.956  29.924  26.897  1.00  0.00    -0.207 F 
ENDBRANCH  11  14
BRANCH  13  21
ATOM     21  C   UNL A   1      31.168  27.056  23.338  1.00  0.00    -0.001 A 
ATOM     22  C   UNL A   1      29.808  26.882  23.638  1.00  0.00     0.011 A 
ATOM     23  C   UNL A   1      31.583  28.239  22.710  1.00  0.00     0.011 A 
ATOM     24  C   UNL A   1      28.870  27.854  23.284  1.00  0.00     0.021 A 
ATOM     25  C   UNL A   1      30.651  29.215  22.353  1.00  0.00     0.021 A 
ATOM     26  C   UNL A   1      29.298  29.012  22.629  1.00  0.00     0.067 A 
BRANCH  26  27
ATOM     27  S   UNL A   1      28.100  30.250  22.197  1.00  0.00     0.175 S 
ATOM     28  C   UNL A   1      28.883  31.786  22.613  1.00  0.00     0.163 C 
ATOM     29  O   UNL A   1      27.914  30.193  20.773  1.00  0.00    -0.224 OA
ATOM     30  O   UNL A   1      26.963  30.091  23.106  1.00  0.00    -0.224 OA
ENDBRANCH  26  27
ENDBRANCH  13  21
ENDBRANCH   7   8
ENDBRANCH   4   7
ENDBRANCH   2   3
ENDBRANCH   1   2
BRANCH   1  31
ATOM     31  C   UNL A   1      38.279  22.821  26.212  1.00  0.00     0.118 C 
BRANCH  31  32
ATOM     32  N   UNL A   1      39.686  22.540  26.001  1.00  0.00    -0.352 N 
ATOM     33  C   UNL A   1      40.815  23.139  26.548  1.00  0.00     0.251 C 
ATOM     34  H   UNL A   1      39.871  21.807  25.370  1.00  0.00     0.163 HD
ATOM     35  O   UNL A   1      41.898  22.692  26.169  1.00  0.00    -0.269 OA
BRANCH  33  36
ATOM     36  C   UNL A   1      40.782  24.360  27.457  1.00  0.00     0.039 A 
ATOM     37  C   UNL A   1      39.562  24.725  28.004  1.00  0.00     0.014 A 
ATOM     38  C   UNL A   1      41.799  25.327  27.592  1.00  0.00     0.014 A 
ATOM     39  C   UNL A   1      39.402  25.956  28.736  1.00  0.00     0.010 A 
ATOM     40  C   UNL A   1      41.601  26.633  28.271  1.00  0.00     0.010 A 
ATOM     41  C   UNL A   1      40.386  27.011  28.889  1.00  0.00    -0.014 A 
BRANCH  41  42
ATOM     42  C   UNL A   1      39.774  28.549  29.208  1.00  0.00     0.031 A 
ATOM     43  C   UNL A   1      41.058  29.313  29.250  1.00  0.00     0.074 A 
ATOM     44  C   UNL A   1      38.649  29.325  29.590  1.00  0.00     0.049 A 
ATOM     45  N   UNL A   1      41.969  28.922  30.097  1.00  0.00    -0.248 NA
ATOM     46  C   UNL A   1      41.570  30.134  28.151  1.00  0.00     0.031 C 
ATOM     47  C   UNL A   1      37.326  28.851  30.047  1.00  0.00     0.029 A 
ATOM     48  N   UNL A   1      38.392  30.761  29.693  1.00  0.00    -0.354 N 
ATOM     49  C   UNL A   1      43.088  29.674  29.854  1.00  0.00     0.074 A 
ATOM     50  C   UNL A   1      42.859  30.203  28.513  1.00  0.00     0.031 C 
ATOM     51  C   UNL A   1      36.414  29.867  30.191  1.00  0.00     0.029 A 
ATOM     52  C   UNL A   1      36.994  31.185  29.901  1.00  0.00     0.049 A 
ATOM     53  H   UNL A   1      39.122  31.418  29.624  1.00  0.00     0.167 HD
ATOM     54  C   UNL A   1      43.547  30.348  30.951  1.00  0.00     0.034 A 
ATOM     55  C   UNL A   1      36.369  32.461  29.942  1.00  0.00     0.034 A 
ATOM     56  C   UNL A   1      42.997  31.678  31.001  1.00  0.00     0.049 A 
ATOM     57  C   UNL A   1      37.389  33.361  30.465  1.00  0.00     0.074 A 
ATOM     58  C   UNL A   1      42.863  32.658  30.037  1.00  0.00     0.029 A 
ATOM     59  N   UNL A   1      42.060  31.945  31.976  1.00  0.00    -0.354 N 
ATOM     60  N   UNL A   1      37.703  33.385  31.721  1.00  0.00    -0.248 NA
ATOM     61  C   UNL A   1      38.096  34.294  29.602  1.00  0.00     0.031 C 
ATOM     62  C   UNL A   1      41.550  33.139  30.208  1.00  0.00     0.029 A 
ATOM     63  C   UNL A   1      41.126  32.842  31.497  1.00  0.00     0.049 A 
ATOM     64  H   UNL A   1      42.057  31.554  32.879  1.00  0.00     0.167 HD
ATOM     65  C   UNL A   1      38.975  33.863  31.684  1.00  0.00     0.074 A 
ATOM     66  C   UNL A   1      39.060  34.640  30.456  1.00  0.00     0.031 C 
ATOM     67  C   UNL A   1      39.927  33.093  32.268  1.00  0.00     0.034 A 
BRANCH  54  68
ATOM     68  C   UNL A   1      43.754  29.452  32.147  1.00  0.00     0.023 A 
ATOM     69  C   UNL A   1      42.631  28.875  32.750  1.00  0.00     0.031 A 
ATOM     70  C   UNL A   1      45.001  29.291  32.795  1.00  0.00     0.131 A 
ATOM     71  C   UNL A   1      42.758  28.229  33.991  1.00  0.00     0.055 A 
ATOM     72  C   UNL A   1      45.113  28.699  34.052  1.00  0.00     0.041 A 
ATOM     73  F   UNL A   1      46.138  29.716  32.219  1.00  0.00    -0.206 F 
ATOM     74  C   UNL A   1      43.982  28.171  34.664  1.00  0.00     0.022 A 
BRANCH  71  75
ATOM     75  S   UNL A   1      41.291  27.448  34.710  1.00  0.00     0.124 S 
ATOM     76  O   UNL A   1      40.280  27.666  33.679  1.00  0.00    -0.237 OA
ATOM     77  O   UNL A   1      41.726  26.063  34.879  1.00  0.00    -0.237 OA
ATOM     78  O   UNL A   1      41.078  28.182  35.956  1.00  0.00    -0.744 OA
ENDBRANCH  71  75
ENDBRANCH  54  68
BRANCH  55  79
ATOM     79  C   UNL A   1      35.004  33.301  29.857  1.00  0.00     0.023 A 
ATOM     80  C   UNL A   1      34.564  34.263  30.883  1.00  0.00     0.031 A 
ATOM     81  C   UNL A   1      34.356  33.482  28.628  1.00  0.00     0.131 A 
ATOM     82  C   UNL A   1      33.604  35.309  30.634  1.00  0.00     0.055 A 
ATOM     83  C   UNL A   1      33.409  34.519  28.390  1.00  0.00     0.041 A 
ATOM     84  F   UNL A   1      34.692  32.725  27.574  1.00  0.00    -0.206 F 
ATOM     85  C   UNL A   1      33.046  35.440  29.373  1.00  0.00     0.022 A 
BRANCH  82  86
ATOM     86  S   UNL A   1      33.176  36.648  31.861  1.00  0.00     0.124 S 
ATOM     87  O   UNL A   1      34.293  36.613  32.796  1.00  0.00    -0.237 OA
ATOM     88  O   UNL A   1      33.061  37.838  31.025  1.00  0.00    -0.237 OA
ATOM     89  O   UNL A   1      31.901  36.200  32.431  1.00  0.00    -0.744 OA
ENDBRANCH  82  86
ENDBRANCH  55  79
BRANCH  67  90
ATOM     90  C   UNL A   1      39.611  32.469  33.622  1.00  0.00     0.023 A 
ATOM     91  C   UNL A   1      39.807  33.051  34.902  1.00  0.00     0.031 A 
ATOM     92  C   UNL A   1      39.124  31.150  33.606  1.00  0.00     0.131 A 
ATOM     93  C   UNL A   1      39.530  32.319  36.078  1.00  0.00     0.055 A 
ATOM     94  C   UNL A   1      38.806  30.445  34.766  1.00  0.00     0.041 A 
ATOM     95  F   UNL A   1      38.949  30.509  32.438  1.00  0.00    -0.206 F 
ATOM     96  C   UNL A   1      39.018  31.023  36.008  1.00  0.00     0.022 A 
BRANCH  93  97
ATOM     97  S   UNL A   1      39.908  33.011  37.726  1.00  0.00     0.124 S 
ATOM     98  O   UNL A   1      39.914  34.451  37.496  1.00  0.00    -0.237 OA
ATOM     99  O   UNL A   1      38.810  32.501  38.544  1.00  0.00    -0.237 OA
ATOM    100  O   UNL A   1      41.220  32.442  38.041  1.00  0.00    -0.744 OA
ENDBRANCH  93  97
ENDBRANCH  67  90
ENDBRANCH  41  42
ENDBRANCH  33  36
ENDBRANCH  31  32
ENDBRANCH   1  31
TORSDOF 17
ENDMDL
MODEL 2
REMARK VINA RESULT:     -13.5      4.675     10.588
REMARK SMILES Cc1c(CC(=O)NCCCNC(=O)c2ccc(-c3c4nc(c(-c5cc(S(=O)(=O)[O-])ccc5F)c5ccc([nH]5)c(-c5cc(S(=O)(=O)[O-])ccc5F)c5nc(c(-c6cc(S(=O)(=O)[O-])ccc6F)c6ccc3[nH]6)C=C5)C=C4)cc2)cc(-c2ccc(S(C)(=O)=O)cc2)n1-c1cccc(F)c1
REMARK SMILES IDX 9 1 8 2 7 3 5 4 6 5 4 7 3 8 1 9 2 10 89 11 77 12 78 13 90 14
REMARK SMILES IDX 91 15 96 16 92 17 94 18 93 19 95 20 79 21 80 22 88 23 81 24
REMARK SMILES IDX 87 25 82 26 83 27 84 28 85 29 86 30 10 31 11 32 12 33 13 35
REMARK SMILES IDX 14 36 15 37 76 38 16 39 75 40 17 41 18 42 19 43 69 44 20 45
REMARK SMILES IDX 74 46 68 47 70 48 21 49 73 50 67 51 66 52 22 54 54 55 34 56
REMARK SMILES IDX 53 57 35 58 38 59 52 60 71 61 36 62 37 63 51 65 72 66 39 67
REMARK SMILES IDX 23 68 24 69 32 70 25 71 31 72 33 73 30 74 26 75 27 76 28 77
REMARK SMILES IDX 29 78 55 79 56 80 64 81 57 82 63 83 65 84 62 85 58 86 59 87
REMARK SMILES IDX 60 88 61 89 40 90 41 91 49 92 42 93 48 94 50 95 47 96 43 97
REMARK SMILES IDX 44 98 45 99 46 100
REMARK H PARENT 7 6 11 34 70 53 38 64
REMARK Flexibility Score: inf
ROOT
ATOM      1  C   UNL A   1      32.731  28.364  26.645  1.00  0.00     0.042 C 
ENDROOT
BRANCH   1   2
ATOM      2  C   UNL A   1      31.895  28.345  25.349  1.00  0.00     0.117 C 
BRANCH   2   3
ATOM      3  N   UNL A   1      30.645  27.611  25.448  1.00  0.00    -0.356 N 
ATOM      4  C   UNL A   1      30.057  26.712  24.611  1.00  0.00     0.224 C 
ATOM      5  O   UNL A   1      28.982  26.219  24.969  1.00  0.00    -0.275 OA
ATOM      6  H   UNL A   1      30.132  27.797  26.266  1.00  0.00     0.163 HD
BRANCH   4   7
ATOM      7  C   UNL A   1      30.720  26.255  23.323  1.00  0.00     0.137 C 
BRANCH   7   8
ATOM      8  C   UNL A   1      31.735  25.167  23.490  1.00  0.00    -0.017 A 
ATOM      9  C   UNL A   1      33.950  26.519  23.645  1.00  0.00     0.065 C 
ATOM     10  C   UNL A   1      33.106  25.284  23.680  1.00  0.00     0.024 A 
ATOM     11  N   UNL A   1      33.637  24.003  23.825  1.00  0.00    -0.313 N 
ATOM     12  C   UNL A   1      31.450  23.780  23.413  1.00  0.00     0.033 A 
ATOM     13  C   UNL A   1      32.614  23.071  23.649  1.00  0.00     0.053 A 
BRANCH  11  14
ATOM     14  C   UNL A   1      34.994  23.686  24.101  1.00  0.00     0.049 A 
ATOM     15  C   UNL A   1      35.722  22.896  23.199  1.00  0.00     0.027 A 
ATOM     16  C   UNL A   1      35.569  24.094  25.308  1.00  0.00     0.065 A 
ATOM     17  C   UNL A   1      37.032  22.522  23.504  1.00  0.00     0.005 A 
ATOM     18  C   UNL A   1      36.868  23.698  25.601  1.00  0.00     0.125 A 
ATOM     19  C   UNL A   1      37.604  22.921  24.710  1.00  0.00     0.039 A 
ATOM     20  F   UNL A   1      37.414  24.049  26.771  1.00  0.00    -0.207 F 
ENDBRANCH  11  14
BRANCH  13  21
ATOM     21  C   UNL A   1      32.743  21.620  23.814  1.00  0.00    -0.001 A 
ATOM     22  C   UNL A   1      32.302  20.739  22.814  1.00  0.00     0.011 A 
ATOM     23  C   UNL A   1      33.339  21.098  24.971  1.00  0.00     0.011 A 
ATOM     24  C   UNL A   1      32.418  19.357  22.980  1.00  0.00     0.021 A 
ATOM     25  C   UNL A   1      33.458  19.717  25.143  1.00  0.00     0.021 A 
ATOM     26  C   UNL A   1      32.986  18.854  24.154  1.00  0.00     0.067 A 
BRANCH  26  27
ATOM     27  S   UNL A   1      33.144  17.095  24.349  1.00  0.00     0.175 S 
ATOM     28  C   UNL A   1      34.779  16.869  24.996  1.00  0.00     0.163 C 
ATOM     29  O   UNL A   1      32.190  16.683  25.341  1.00  0.00    -0.224 OA
ATOM     30  O   UNL A   1      33.131  16.506  23.008  1.00  0.00    -0.224 OA
ENDBRANCH  26  27
ENDBRANCH  13  21
ENDBRANCH   7   8
ENDBRANCH   4   7
ENDBRANCH   2   3
ENDBRANCH   1   2
BRANCH   1  31
ATOM     31  C   UNL A   1      34.134  29.014  26.585  1.00  0.00     0.118 C 
BRANCH  31  32
ATOM     32  N   UNL A   1      34.183  30.387  27.049  1.00  0.00    -0.352 N 
ATOM     33  C   UNL A   1      35.202  31.085  27.688  1.00  0.00     0.251 C 
ATOM     34  H   UNL A   1      33.364  30.909  26.885  1.00  0.00     0.163 HD
ATOM     35  O   UNL A   1      34.952  32.256  27.979  1.00  0.00    -0.269 OA
BRANCH  33  36
ATOM     36  C   UNL A   1      36.513  30.461  28.146  1.00  0.00     0.039 A 
ATOM     37  C   UNL A   1      37.452  30.148  27.175  1.00  0.00     0.014 A 
ATOM     38  C   UNL A   1      36.776  29.911  29.417  1.00  0.00     0.014 A 
ATOM     39  C   UNL A   1      38.644  29.405  27.493  1.00  0.00     0.010 A 
ATOM     40  C   UNL A   1      37.963  29.071  29.714  1.00  0.00     0.010 A 
ATOM     41  C   UNL A   1      38.969  28.781  28.762  1.00  0.00    -0.014 A 
BRANCH  41  42
ATOM     42  C   UNL A   1      40.044  27.485  28.694  1.00  0.00     0.031 A 
ATOM     43  C   UNL A   1      40.921  27.839  29.851  1.00  0.00     0.074 A 
ATOM     44  C   UNL A   1      40.524  26.376  27.947  1.00  0.00     0.049 A 
ATOM     45  N   UNL A   1      41.501  29.007  29.836  1.00  0.00    -0.248 NA
ATOM     46  C   UNL A   1      40.827  27.229  31.179  1.00  0.00     0.031 C 
ATOM     47  C   UNL A   1      40.178  25.989  26.564  1.00  0.00     0.029 A 
ATOM     48  N   UNL A   1      41.474  25.300  28.223  1.00  0.00    -0.354 N 
ATOM     49  C   UNL A   1      42.126  29.156  31.046  1.00  0.00     0.074 A 
ATOM     50  C   UNL A   1      41.471  28.163  31.893  1.00  0.00     0.031 C 
ATOM     51  C   UNL A   1      40.705  24.775  26.200  1.00  0.00     0.029 A 
ATOM     52  C   UNL A   1      41.527  24.181  27.264  1.00  0.00     0.049 A 
ATOM     53  H   UNL A   1      42.055  25.322  29.019  1.00  0.00     0.167 HD
ATOM     54  C   UNL A   1      43.464  29.418  30.946  1.00  0.00     0.034 A 
ATOM     55  C   UNL A   1      42.229  22.945  27.260  1.00  0.00     0.034 A 
ATOM     56  C   UNL A   1      44.230  28.200  31.010  1.00  0.00     0.049 A 
ATOM     57  C   UNL A   1      43.464  23.215  27.987  1.00  0.00     0.074 A 
ATOM     58  C   UNL A   1      44.163  27.111  31.857  1.00  0.00     0.029 A 
ATOM     59  N   UNL A   1      44.839  27.769  29.851  1.00  0.00    -0.354 N 
ATOM     60  N   UNL A   1      44.446  23.868  27.453  1.00  0.00    -0.248 NA
ATOM     61  C   UNL A   1      43.662  22.746  29.349  1.00  0.00     0.031 C 
ATOM     62  C   UNL A   1      44.248  25.996  31.000  1.00  0.00     0.029 A 
ATOM     63  C   UNL A   1      44.845  26.389  29.809  1.00  0.00     0.049 A 
ATOM     64  H   UNL A   1      45.215  28.357  29.158  1.00  0.00     0.167 HD
ATOM     65  C   UNL A   1      45.075  24.374  28.547  1.00  0.00     0.074 A 
ATOM     66  C   UNL A   1      44.747  23.465  29.636  1.00  0.00     0.031 C 
ATOM     67  C   UNL A   1      45.231  25.721  28.584  1.00  0.00     0.034 A 
BRANCH  54  68
ATOM     68  C   UNL A   1      43.768  30.585  30.041  1.00  0.00     0.023 A 
ATOM     69  C   UNL A   1      44.069  31.820  30.625  1.00  0.00     0.031 A 
ATOM     70  C   UNL A   1      43.609  30.546  28.636  1.00  0.00     0.131 A 
ATOM     71  C   UNL A   1      44.130  32.975  29.827  1.00  0.00     0.055 A 
ATOM     72  C   UNL A   1      43.614  31.702  27.856  1.00  0.00     0.041 A 
ATOM     73  F   UNL A   1      43.435  29.380  27.994  1.00  0.00    -0.206 F 
ATOM     74  C   UNL A   1      43.867  32.931  28.455  1.00  0.00     0.022 A 
BRANCH  71  75
ATOM     75  S   UNL A   1      44.576  34.544  30.614  1.00  0.00     0.124 S 
ATOM     76  O   UNL A   1      46.028  34.567  30.469  1.00  0.00    -0.237 OA
ATOM     77  O   UNL A   1      43.849  35.517  29.802  1.00  0.00    -0.237 OA
ATOM     78  O   UNL A   1      44.089  34.399  31.984  1.00  0.00    -0.744 OA
ENDBRANCH  71  75
ENDBRANCH  54  68
BRANCH  55  79
ATOM     79  C   UNL A   1      42.360  21.465  26.652  1.00  0.00     0.023 A 
ATOM     80  C   UNL A   1      43.435  21.042  25.738  1.00  0.00     0.031 A 
ATOM     81  C   UNL A   1      41.710  20.386  27.265  1.00  0.00     0.131 A 
ATOM     82  C   UNL A   1      43.810  19.666  25.534  1.00  0.00     0.055 A 
ATOM     83  C   UNL A   1      42.087  19.028  27.059  1.00  0.00     0.041 A 
ATOM     84  F   UNL A   1      40.749  20.609  28.173  1.00  0.00    -0.206 F 
ATOM     85  C   UNL A   1      43.138  18.664  26.218  1.00  0.00     0.022 A 
BRANCH  82  86
ATOM     86  S   UNL A   1      45.285  19.122  24.530  1.00  0.00     0.124 S 
ATOM     87  O   UNL A   1      45.773  17.958  25.258  1.00  0.00    -0.237 OA
ATOM     88  O   UNL A   1      44.715  18.875  23.211  1.00  0.00    -0.237 OA
ATOM     89  O   UNL A   1      46.183  20.281  24.579  1.00  0.00    -0.744 OA
ENDBRANCH  82  86
ENDBRANCH  55  79
BRANCH  67  90
ATOM     90  C   UNL A   1      45.687  26.424  27.310  1.00  0.00     0.023 A 
ATOM     91  C   UNL A   1      47.022  26.614  26.865  1.00  0.00     0.031 A 
ATOM     92  C   UNL A   1      44.677  26.998  26.517  1.00  0.00     0.131 A 
ATOM     93  C   UNL A   1      47.293  27.351  25.691  1.00  0.00     0.055 A 
ATOM     94  C   UNL A   1      44.943  27.685  25.333  1.00  0.00     0.041 A 
ATOM     95  F   UNL A   1      43.390  26.901  26.888  1.00  0.00    -0.206 F 
ATOM     96  C   UNL A   1      46.253  27.874  24.921  1.00  0.00     0.022 A 
BRANCH  93  97
ATOM     97  S   UNL A   1      49.010  27.716  25.186  1.00  0.00     0.124 S 
ATOM     98  O   UNL A   1      49.728  26.490  25.517  1.00  0.00    -0.237 OA
ATOM     99  O   UNL A   1      48.868  28.007  23.762  1.00  0.00    -0.237 OA
ATOM    100  O   UNL A   1      49.370  28.870  26.013  1.00  0.00    -0.744 OA
ENDBRANCH  93  97
ENDBRANCH  67  90
ENDBRANCH  41  42
ENDBRANCH  33  36
ENDBRANCH  31  32
ENDBRANCH   1  31
TORSDOF 17
ENDMDL
MODEL 3
REMARK VINA RESULT:     -12.6      5.269     13.209
REMARK SMILES Cc1c(CC(=O)NCCCNC(=O)c2ccc(-c3c4nc(c(-c5cc(S(=O)(=O)[O-])ccc5F)c5ccc([nH]5)c(-c5cc(S(=O)(=O)[O-])ccc5F)c5nc(c(-c6cc(S(=O)(=O)[O-])ccc6F)c6ccc3[nH]6)C=C5)C=C4)cc2)cc(-c2ccc(S(C)(=O)=O)cc2)n1-c1cccc(F)c1
REMARK SMILES IDX 9 1 8 2 7 3 5 4 6 5 4 7 3 8 1 9 2 10 89 11 77 12 78 13 90 14
REMARK SMILES IDX 91 15 96 16 92 17 94 18 93 19 95 20 79 21 80 22 88 23 81 24
REMARK SMILES IDX 87 25 82 26 83 27 84 28 85 29 86 30 10 31 11 32 12 33 13 35
REMARK SMILES IDX 14 36 15 37 76 38 16 39 75 40 17 41 18 42 19 43 69 44 20 45
REMARK SMILES IDX 74 46 68 47 70 48 21 49 73 50 67 51 66 52 22 54 54 55 34 56
REMARK SMILES IDX 53 57 35 58 38 59 52 60 71 61 36 62 37 63 51 65 72 66 39 67
REMARK SMILES IDX 23 68 24 69 32 70 25 71 31 72 33 73 30 74 26 75 27 76 28 77
REMARK SMILES IDX 29 78 55 79 56 80 64 81 57 82 63 83 65 84 62 85 58 86 59 87
REMARK SMILES IDX 60 88 61 89 40 90 41 91 49 92 42 93 48 94 50 95 47 96 43 97
REMARK SMILES IDX 44 98 45 99 46 100
REMARK H PARENT 7 6 11 34 70 53 38 64
REMARK Flexibility Score: inf
ROOT
ATOM      1  C   UNL A   1      36.059  33.834  29.564  1.00  0.00     0.042 C 
ENDROOT
BRANCH   1   2
ATOM      2  C   UNL A   1      34.898  33.729  30.573  1.00  0.00     0.117 C 
BRANCH   2   3
ATOM      3  N   UNL A   1      34.803  34.842  31.502  1.00  0.00    -0.356 N 
ATOM      4  C   UNL A   1      34.736  34.881  32.862  1.00  0.00     0.224 C 
ATOM      5  O   UNL A   1      34.683  35.993  33.398  1.00  0.00    -0.275 OA
ATOM      6  H   UNL A   1      34.782  35.726  31.071  1.00  0.00     0.163 HD
BRANCH   4   7
ATOM      7  C   UNL A   1      34.807  33.622  33.710  1.00  0.00     0.137 C 
BRANCH   7   8
ATOM      8  C   UNL A   1      36.124  33.392  34.384  1.00  0.00    -0.017 A 
ATOM      9  C   UNL A   1      37.105  31.430  32.988  1.00  0.00     0.065 C 
ATOM     10  C   UNL A   1      37.126  32.492  34.042  1.00  0.00     0.024 A 
ATOM     11  N   UNL A   1      38.186  32.661  34.932  1.00  0.00    -0.313 N 
ATOM     12  C   UNL A   1      36.547  34.043  35.571  1.00  0.00     0.033 A 
ATOM     13  C   UNL A   1      37.823  33.613  35.885  1.00  0.00     0.053 A 
BRANCH  11  14
ATOM     14  C   UNL A   1      39.431  31.978  34.889  1.00  0.00     0.049 A 
ATOM     15  C   UNL A   1      40.465  32.468  34.078  1.00  0.00     0.027 A 
ATOM     16  C   UNL A   1      39.589  30.779  35.589  1.00  0.00     0.065 A 
ATOM     17  C   UNL A   1      41.663  31.758  33.976  1.00  0.00     0.005 A 
ATOM     18  C   UNL A   1      40.782  30.080  35.463  1.00  0.00     0.125 A 
ATOM     19  C   UNL A   1      41.819  30.559  34.667  1.00  0.00     0.039 A 
ATOM     20  F   UNL A   1      40.929  28.910  36.097  1.00  0.00    -0.207 F 
ENDBRANCH  11  14
BRANCH  13  21
ATOM     21  C   UNL A   1      38.696  34.140  36.939  1.00  0.00    -0.001 A 
ATOM     22  C   UNL A   1      38.816  33.479  38.172  1.00  0.00     0.011 A 
ATOM     23  C   UNL A   1      39.444  35.303  36.712  1.00  0.00     0.011 A 
ATOM     24  C   UNL A   1      39.641  33.990  39.177  1.00  0.00     0.021 A 
ATOM     25  C   UNL A   1      40.270  35.820  37.712  1.00  0.00     0.021 A 
ATOM     26  C   UNL A   1      40.354  35.168  38.944  1.00  0.00     0.067 A 
BRANCH  26  27
ATOM     27  S   UNL A   1      41.413  35.801  40.222  1.00  0.00     0.175 S 
ATOM     28  C   UNL A   1      43.050  35.627  39.565  1.00  0.00     0.163 C 
ATOM     29  O   UNL A   1      41.118  37.199  40.374  1.00  0.00    -0.224 OA
ATOM     30  O   UNL A   1      41.311  34.888  41.363  1.00  0.00    -0.224 OA
ENDBRANCH  26  27
ENDBRANCH  13  21
ENDBRANCH   7   8
ENDBRANCH   4   7
ENDBRANCH   2   3
ENDBRANCH   1   2
BRANCH   1  31
ATOM     31  C   UNL A   1      35.735  33.600  28.069  1.00  0.00     0.118 C 
BRANCH  31  32
ATOM     32  N   UNL A   1      34.883  32.456  27.808  1.00  0.00    -0.352 N 
ATOM     33  C   UNL A   1      35.140  31.096  27.932  1.00  0.00     0.251 C 
ATOM     34  H   UNL A   1      33.977  32.679  27.493  1.00  0.00     0.163 HD
ATOM     35  O   UNL A   1      34.215  30.343  27.623  1.00  0.00    -0.269 OA
BRANCH  33  36
ATOM     36  C   UNL A   1      36.498  30.509  28.292  1.00  0.00     0.039 A 
ATOM     37  C   UNL A   1      37.322  30.106  27.253  1.00  0.00     0.014 A 
ATOM     38  C   UNL A   1      36.907  30.074  29.569  1.00  0.00     0.014 A 
ATOM     39  C   UNL A   1      38.547  29.388  27.498  1.00  0.00     0.010 A 
ATOM     40  C   UNL A   1      38.125  29.258  29.803  1.00  0.00     0.010 A 
ATOM     41  C   UNL A   1      39.018  28.880  28.773  1.00  0.00    -0.014 A 
BRANCH  41  42
ATOM     42  C   UNL A   1      40.085  27.577  28.700  1.00  0.00     0.031 A 
ATOM     43  C   UNL A   1      40.986  27.941  29.835  1.00  0.00     0.074 A 
ATOM     44  C   UNL A   1      40.545  26.458  27.958  1.00  0.00     0.049 A 
ATOM     45  N   UNL A   1      41.571  29.106  29.796  1.00  0.00    -0.248 NA
ATOM     46  C   UNL A   1      40.915  27.348  31.172  1.00  0.00     0.031 C 
ATOM     47  C   UNL A   1      40.171  26.055  26.586  1.00  0.00     0.029 A 
ATOM     48  N   UNL A   1      41.496  25.380  28.228  1.00  0.00    -0.354 N 
ATOM     49  C   UNL A   1      42.220  29.267  30.991  1.00  0.00     0.074 A 
ATOM     50  C   UNL A   1      41.577  28.287  31.862  1.00  0.00     0.031 C 
ATOM     51  C   UNL A   1      40.685  24.834  26.227  1.00  0.00     0.029 A 
ATOM     52  C   UNL A   1      41.525  24.249  27.282  1.00  0.00     0.049 A 
ATOM     53  H   UNL A   1      42.092  25.408  29.012  1.00  0.00     0.167 HD
ATOM     54  C   UNL A   1      43.557  29.521  30.862  1.00  0.00     0.034 A 
ATOM     55  C   UNL A   1      42.221  23.010  27.279  1.00  0.00     0.034 A 
ATOM     56  C   UNL A   1      44.318  28.300  30.925  1.00  0.00     0.049 A 
ATOM     57  C   UNL A   1      43.471  23.283  27.979  1.00  0.00     0.074 A 
ATOM     58  C   UNL A   1      44.263  27.221  31.787  1.00  0.00     0.029 A 
ATOM     59  N   UNL A   1      44.903  27.852  29.761  1.00  0.00    -0.354 N 
ATOM     60  N   UNL A   1      44.445  23.925  27.418  1.00  0.00    -0.248 NA
ATOM     61  C   UNL A   1      43.693  22.830  29.343  1.00  0.00     0.031 C 
ATOM     62  C   UNL A   1      44.327  26.096  30.942  1.00  0.00     0.029 A 
ATOM     63  C   UNL A   1      44.902  26.472  29.735  1.00  0.00     0.049 A 
ATOM     64  H   UNL A   1      45.268  28.430  29.053  1.00  0.00     0.167 HD
ATOM     65  C   UNL A   1      45.098  24.441  28.493  1.00  0.00     0.074 A 
ATOM     66  C   UNL A   1      44.787  23.546  29.599  1.00  0.00     0.031 C 
ATOM     67  C   UNL A   1      45.261  25.787  28.511  1.00  0.00     0.034 A 
BRANCH  54  68
ATOM     68  C   UNL A   1      43.849  30.675  29.937  1.00  0.00     0.023 A 
ATOM     69  C   UNL A   1      44.935  30.568  29.061  1.00  0.00     0.031 A 
ATOM     70  C   UNL A   1      43.191  31.925  30.014  1.00  0.00     0.131 A 
ATOM     71  C   UNL A   1      45.378  31.699  28.354  1.00  0.00     0.055 A 
ATOM     72  C   UNL A   1      43.668  33.057  29.356  1.00  0.00     0.041 A 
ATOM     73  F   UNL A   1      42.072  32.071  30.743  1.00  0.00    -0.206 F 
ATOM     74  C   UNL A   1      44.777  32.950  28.524  1.00  0.00     0.022 A 
BRANCH  71  75
ATOM     75  S   UNL A   1      46.752  31.505  27.190  1.00  0.00     0.124 S 
ATOM     76  O   UNL A   1      47.058  30.082  27.299  1.00  0.00    -0.237 OA
ATOM     77  O   UNL A   1      46.149  31.922  25.925  1.00  0.00    -0.237 OA
ATOM     78  O   UNL A   1      47.780  32.405  27.708  1.00  0.00    -0.744 OA
ENDBRANCH  71  75
ENDBRANCH  54  68
BRANCH  55  79
ATOM     79  C   UNL A   1      42.333  21.523  26.687  1.00  0.00     0.023 A 
ATOM     80  C   UNL A   1      43.422  21.066  25.805  1.00  0.00     0.031 A 
ATOM     81  C   UNL A   1      41.642  20.464  27.291  1.00  0.00     0.131 A 
ATOM     82  C   UNL A   1      43.770  19.680  25.623  1.00  0.00     0.055 A 
ATOM     83  C   UNL A   1      41.993  19.096  27.106  1.00  0.00     0.041 A 
ATOM     84  F   UNL A   1      40.663  20.717  28.171  1.00  0.00    -0.206 F 
ATOM     85  C   UNL A   1      43.057  18.700  26.296  1.00  0.00     0.022 A 
BRANCH  82  86
ATOM     86  S   UNL A   1      45.258  19.094  24.663  1.00  0.00     0.124 S 
ATOM     87  O   UNL A   1      45.656  17.884  25.372  1.00  0.00    -0.237 OA
ATOM     88  O   UNL A   1      44.733  18.917  23.313  1.00  0.00    -0.237 OA
ATOM     89  O   UNL A   1      46.209  20.203  24.787  1.00  0.00    -0.744 OA
ENDBRANCH  82  86
ENDBRANCH  55  79
BRANCH  67  90
ATOM     90  C   UNL A   1      45.695  26.473  27.220  1.00  0.00     0.023 A 
ATOM     91  C   UNL A   1      46.987  26.455  26.632  1.00  0.00     0.031 A 
ATOM     92  C   UNL A   1      44.724  27.256  26.570  1.00  0.00     0.131 A 
ATOM     93  C   UNL A   1      47.257  27.200  25.462  1.00  0.00     0.055 A 
ATOM     94  C   UNL A   1      44.979  27.953  25.391  1.00  0.00     0.041 A 
ATOM     95  F   UNL A   1      43.487  27.361  27.084  1.00  0.00    -0.206 F 
ATOM     96  C   UNL A   1      46.251  27.937  24.837  1.00  0.00     0.022 A 
BRANCH  93  97
ATOM     97  S   UNL A   1      48.948  27.291  24.776  1.00  0.00     0.124 S 
ATOM     98  O   UNL A   1      49.598  26.103  25.316  1.00  0.00    -0.237 OA
ATOM     99  O   UNL A   1      48.707  27.288  23.335  1.00  0.00    -0.237 OA
ATOM    100  O   UNL A   1      49.462  28.556  25.306  1.00  0.00    -0.744 OA
ENDBRANCH  93  97
ENDBRANCH  67  90
ENDBRANCH  41  42
ENDBRANCH  33  36
ENDBRANCH  31  32
ENDBRANCH   1  31
TORSDOF 17
ENDMDL
