MODEL 1
REMARK VINA RESULT:     -13.0      0.000      0.000
REMARK SMILES COc1ccc(-c2nc3ccc(C)cc3[nH]2)c(C(=O)NCCCNC(=O)c2ccc(-c3c4nc(c(-c5cc(S(=O)(=O)[O-])ccc5F)c5ccc([nH]5)c(-c5cc(S(=O)(=O)[O-])ccc5F)c5nc(c(-c6cc(S(=O)(=O)[O-])ccc6F)c6ccc3[nH]6)C=C5)C=C4)cc2)c1OC
REMARK SMILES IDX 23 1 22 2 21 3 20 4 18 5 19 6 17 8 3 9 4 10 90 11 5 12 6 13
REMARK SMILES IDX 2 14 1 15 91 16 92 17 7 18 8 19 16 20 9 21 15 22 10 24 14 25
REMARK SMILES IDX 11 26 12 27 13 28 24 29 25 30 26 32 27 33 28 34 89 35 29 36
REMARK SMILES IDX 88 37 30 38 31 39 32 40 82 41 33 42 87 43 81 44 83 45 34 46
REMARK SMILES IDX 86 47 80 48 79 49 35 51 67 52 47 53 66 54 48 55 51 56 65 57
REMARK SMILES IDX 84 58 49 59 50 60 64 62 85 63 52 64 36 65 37 66 45 67 38 68
REMARK SMILES IDX 44 69 46 70 43 71 39 72 40 73 41 74 42 75 68 76 69 77 77 78
REMARK SMILES IDX 70 79 76 80 78 81 75 82 71 83 72 84 73 85 74 86 53 87 54 88
REMARK SMILES IDX 62 89 55 90 61 91 63 92 60 93 56 94 57 95 58 96 59 97
REMARK H PARENT 20 7 16 23 24 31 83 50 51 61
REMARK Flexibility Score: inf
ROOT
ATOM      1  C   UNL A   1      37.024  22.169  24.518  1.00  0.00     0.118 C 
ENDROOT
BRANCH   1   2
ATOM      2  C   UNL A   1      35.563  22.133  24.936  1.00  0.00     0.042 C 
BRANCH   2   3
ATOM      3  C   UNL A   1      35.036  23.431  25.510  1.00  0.00     0.118 C 
BRANCH   3   4
ATOM      4  N   UNL A   1      34.195  23.358  26.684  1.00  0.00    -0.352 N 
ATOM      5  C   UNL A   1      32.817  23.237  26.687  1.00  0.00     0.255 C 
ATOM      6  O   UNL A   1      32.241  22.702  27.632  1.00  0.00    -0.269 OA
ATOM      7  H   UNL A   1      34.643  23.398  27.560  1.00  0.00     0.163 HD
BRANCH   5   8
ATOM      8  C   UNL A   1      32.015  23.851  25.595  1.00  0.00     0.096 A 
ATOM      9  C   UNL A   1      30.765  25.693  24.624  1.00  0.00     0.161 A 
ATOM     10  C   UNL A   1      30.382  24.831  23.582  1.00  0.00     0.051 A 
ATOM     11  C   UNL A   1      31.629  25.223  25.626  1.00  0.00     0.174 A 
ATOM     12  C   UNL A   1      30.844  23.517  23.506  1.00  0.00     0.017 A 
ATOM     13  C   UNL A   1      31.651  23.001  24.521  1.00  0.00     0.034 A 
BRANCH   9  14
ATOM     14  O   UNL A   1      30.102  26.886  24.548  1.00  0.00    -0.493 OA
ATOM     15  C   UNL A   1      30.687  27.971  23.853  1.00  0.00     0.278 C 
ENDBRANCH   9  14
BRANCH  11  16
ATOM     16  O   UNL A   1      32.240  26.003  26.575  1.00  0.00    -0.492 OA
ATOM     17  C   UNL A   1      33.316  26.844  26.169  1.00  0.00     0.278 C 
ENDBRANCH  11  16
BRANCH  13  18
ATOM     18  C   UNL A   1      32.079  21.599  24.438  1.00  0.00     0.139 A 
ATOM     19  N   UNL A   1      32.403  20.935  23.345  1.00  0.00    -0.228 NA
ATOM     20  N   UNL A   1      32.157  20.769  25.537  1.00  0.00    -0.338 N 
ATOM     21  C   UNL A   1      32.587  19.629  23.737  1.00  0.00     0.089 A 
ATOM     22  C   UNL A   1      32.451  19.498  25.112  1.00  0.00     0.066 A 
ATOM     23  H   UNL A   1      32.023  21.045  26.473  1.00  0.00     0.168 HD
ATOM     24  C   UNL A   1      32.855  18.490  22.967  1.00  0.00     0.031 A 
ATOM     25  C   UNL A   1      32.576  18.277  25.785  1.00  0.00     0.031 A 
ATOM     26  C   UNL A   1      32.961  17.248  23.611  1.00  0.00     0.006 A 
ATOM     27  C   UNL A   1      32.823  17.135  25.003  1.00  0.00    -0.049 A 
ATOM     28  C   UNL A   1      32.922  15.777  25.640  1.00  0.00     0.044 C 
ENDBRANCH  13  18
ENDBRANCH   5   8
ENDBRANCH   3   4
ENDBRANCH   2   3
ENDBRANCH   1   2
BRANCH   1  29
ATOM     29  N   UNL A   1      37.816  21.035  24.990  1.00  0.00    -0.352 N 
ATOM     30  C   UNL A   1      38.926  20.942  25.805  1.00  0.00     0.251 C 
ATOM     31  H   UNL A   1      37.494  20.165  24.662  1.00  0.00     0.163 HD
ATOM     32  O   UNL A   1      39.460  19.852  25.958  1.00  0.00    -0.269 OA
BRANCH  30  33
ATOM     33  C   UNL A   1      39.512  22.146  26.445  1.00  0.00     0.039 A 
ATOM     34  C   UNL A   1      40.549  21.991  27.373  1.00  0.00     0.014 A 
ATOM     35  C   UNL A   1      39.055  23.423  26.145  1.00  0.00     0.014 A 
ATOM     36  C   UNL A   1      41.201  23.118  27.892  1.00  0.00     0.010 A 
ATOM     37  C   UNL A   1      39.783  24.534  26.552  1.00  0.00     0.010 A 
ATOM     38  C   UNL A   1      40.869  24.400  27.430  1.00  0.00    -0.014 A 
BRANCH  38  39
ATOM     39  C   UNL A   1      41.597  25.632  27.846  1.00  0.00     0.031 A 
ATOM     40  C   UNL A   1      40.863  26.688  28.634  1.00  0.00     0.074 A 
ATOM     41  C   UNL A   1      42.849  25.873  27.406  1.00  0.00     0.049 A 
ATOM     42  N   UNL A   1      41.177  27.938  28.848  1.00  0.00    -0.248 NA
ATOM     43  C   UNL A   1      39.564  26.290  29.199  1.00  0.00     0.031 C 
ATOM     44  C   UNL A   1      43.665  24.951  26.614  1.00  0.00     0.029 A 
ATOM     45  N   UNL A   1      43.647  26.984  27.541  1.00  0.00    -0.354 N 
ATOM     46  C   UNL A   1      40.090  28.492  29.520  1.00  0.00     0.074 A 
ATOM     47  C   UNL A   1      39.089  27.451  29.619  1.00  0.00     0.031 C 
ATOM     48  C   UNL A   1      44.849  25.525  26.348  1.00  0.00     0.029 A 
ATOM     49  C   UNL A   1      44.856  26.880  26.891  1.00  0.00     0.049 A 
ATOM     50  H   UNL A   1      43.378  27.780  28.054  1.00  0.00     0.167 HD
ATOM     51  C   UNL A   1      39.948  29.744  30.023  1.00  0.00     0.034 A 
ATOM     52  C   UNL A   1      45.845  27.782  26.725  1.00  0.00     0.034 A 
ATOM     53  C   UNL A   1      40.982  30.747  29.963  1.00  0.00     0.049 A 
ATOM     54  C   UNL A   1      45.679  29.162  27.311  1.00  0.00     0.074 A 
ATOM     55  C   UNL A   1      40.975  32.026  30.491  1.00  0.00     0.029 A 
ATOM     56  N   UNL A   1      42.215  30.578  29.348  1.00  0.00    -0.354 N 
ATOM     57  N   UNL A   1      44.648  29.669  27.948  1.00  0.00    -0.248 NA
ATOM     58  C   UNL A   1      46.809  30.088  27.160  1.00  0.00     0.031 C 
ATOM     59  C   UNL A   1      42.183  32.647  30.154  1.00  0.00     0.029 A 
ATOM     60  C   UNL A   1      42.973  31.731  29.475  1.00  0.00     0.049 A 
ATOM     61  H   UNL A   1      42.510  29.758  28.888  1.00  0.00     0.167 HD
ATOM     62  C   UNL A   1      45.025  30.960  28.310  1.00  0.00     0.074 A 
ATOM     63  C   UNL A   1      46.374  31.153  27.820  1.00  0.00     0.031 C 
ATOM     64  C   UNL A   1      44.323  31.898  28.995  1.00  0.00     0.034 A 
BRANCH  51  65
ATOM     65  C   UNL A   1      38.621  30.091  30.659  1.00  0.00     0.023 A 
ATOM     66  C   UNL A   1      37.597  30.722  29.933  1.00  0.00     0.031 A 
ATOM     67  C   UNL A   1      38.395  29.833  32.022  1.00  0.00     0.131 A 
ATOM     68  C   UNL A   1      36.440  31.165  30.591  1.00  0.00     0.055 A 
ATOM     69  C   UNL A   1      37.200  30.190  32.651  1.00  0.00     0.041 A 
ATOM     70  F   UNL A   1      39.341  29.249  32.776  1.00  0.00    -0.206 F 
ATOM     71  C   UNL A   1      36.222  30.879  31.941  1.00  0.00     0.022 A 
BRANCH  68  72
ATOM     72  S   UNL A   1      35.310  32.266  29.698  1.00  0.00     0.124 S 
ATOM     73  O   UNL A   1      36.210  33.346  29.297  1.00  0.00    -0.237 OA
ATOM     74  O   UNL A   1      34.819  31.412  28.624  1.00  0.00    -0.237 OA
ATOM     75  O   UNL A   1      34.319  32.633  30.708  1.00  0.00    -0.744 OA
ENDBRANCH  68  72
ENDBRANCH  51  65
BRANCH  52  76
ATOM     76  C   UNL A   1      47.078  27.424  25.966  1.00  0.00     0.023 A 
ATOM     77  C   UNL A   1      47.209  27.761  24.610  1.00  0.00     0.031 A 
ATOM     78  C   UNL A   1      48.127  26.709  26.571  1.00  0.00     0.131 A 
ATOM     79  C   UNL A   1      48.338  27.342  23.889  1.00  0.00     0.055 A 
ATOM     80  C   UNL A   1      49.272  26.339  25.864  1.00  0.00     0.041 A 
ATOM     81  F   UNL A   1      48.057  26.369  27.869  1.00  0.00    -0.206 F 
ATOM     82  C   UNL A   1      49.376  26.645  24.510  1.00  0.00     0.022 A 
BRANCH  79  83
ATOM     83  S   UNL A   1      48.392  27.655  22.103  1.00  0.00     0.124 S 
ATOM     84  O   UNL A   1      49.518  28.577  21.998  1.00  0.00    -0.237 OA
ATOM     85  O   UNL A   1      48.605  26.315  21.568  1.00  0.00    -0.237 OA
ATOM     86  O   UNL A   1      47.080  28.236  21.820  1.00  0.00    -0.744 OA
ENDBRANCH  79  83
ENDBRANCH  52  76
BRANCH  64  87
ATOM     87  C   UNL A   1      45.033  33.185  29.328  1.00  0.00     0.023 A 
ATOM     88  C   UNL A   1      45.798  33.336  30.497  1.00  0.00     0.031 A 
ATOM     89  C   UNL A   1      44.954  34.273  28.439  1.00  0.00     0.131 A 
ATOM     90  C   UNL A   1      46.423  34.563  30.765  1.00  0.00     0.055 A 
ATOM     91  C   UNL A   1      45.619  35.473  28.687  1.00  0.00     0.041 A 
ATOM     92  F   UNL A   1      44.236  34.180  27.308  1.00  0.00    -0.206 F 
ATOM     93  C   UNL A   1      46.353  35.626  29.860  1.00  0.00     0.022 A 
BRANCH  90  94
ATOM     94  S   UNL A   1      47.285  34.777  32.347  1.00  0.00     0.124 S 
ATOM     95  O   UNL A   1      47.750  36.156  32.255  1.00  0.00    -0.237 OA
ATOM     96  O   UNL A   1      46.225  34.524  33.317  1.00  0.00    -0.237 OA
ATOM     97  O   UNL A   1      48.338  33.762  32.304  1.00  0.00    -0.744 OA
ENDBRANCH  90  94
ENDBRANCH  64  87
ENDBRANCH  38  39
ENDBRANCH  30  33
ENDBRANCH   1  29
TORSDOF 16
ENDMDL
MODEL 2
REMARK VINA RESULT:     -13.0      1.622      7.564
REMARK SMILES COc1ccc(-c2nc3ccc(C)cc3[nH]2)c(C(=O)NCCCNC(=O)c2ccc(-c3c4nc(c(-c5cc(S(=O)(=O)[O-])ccc5F)c5ccc([nH]5)c(-c5cc(S(=O)(=O)[O-])ccc5F)c5nc(c(-c6cc(S(=O)(=O)[O-])ccc6F)c6ccc3[nH]6)C=C5)C=C4)cc2)c1OC
REMARK SMILES IDX 23 1 22 2 21 3 20 4 18 5 19 6 17 8 3 9 4 10 90 11 5 12 6 13
REMARK SMILES IDX 2 14 1 15 91 16 92 17 7 18 8 19 16 20 9 21 15 22 10 24 14 25
REMARK SMILES IDX 11 26 12 27 13 28 24 29 25 30 26 32 27 33 28 34 89 35 29 36
REMARK SMILES IDX 88 37 30 38 31 39 32 40 82 41 33 42 87 43 81 44 83 45 34 46
REMARK SMILES IDX 86 47 80 48 79 49 35 51 67 52 47 53 66 54 48 55 51 56 65 57
REMARK SMILES IDX 84 58 49 59 50 60 64 62 85 63 52 64 36 65 37 66 45 67 38 68
REMARK SMILES IDX 44 69 46 70 43 71 39 72 40 73 41 74 42 75 68 76 69 77 77 78
REMARK SMILES IDX 70 79 76 80 78 81 75 82 71 83 72 84 73 85 74 86 53 87 54 88
REMARK SMILES IDX 62 89 55 90 61 91 63 92 60 93 56 94 57 95 58 96 59 97
REMARK H PARENT 20 7 16 23 24 31 83 50 51 61
REMARK Flexibility Score: inf
ROOT
ATOM      1  C   UNL A   1      37.782  21.318  24.849  1.00  0.00     0.118 C 
ENDROOT
BRANCH   1   2
ATOM      2  C   UNL A   1      36.372  21.274  25.415  1.00  0.00     0.042 C 
BRANCH   2   3
ATOM      3  C   UNL A   1      35.835  22.610  25.882  1.00  0.00     0.118 C 
BRANCH   3   4
ATOM      4  N   UNL A   1      34.872  22.610  26.960  1.00  0.00    -0.352 N 
ATOM      5  C   UNL A   1      33.503  22.459  26.825  1.00  0.00     0.255 C 
ATOM      6  O   UNL A   1      32.835  21.987  27.743  1.00  0.00    -0.269 OA
ATOM      7  H   UNL A   1      35.221  22.729  27.873  1.00  0.00     0.163 HD
BRANCH   5   8
ATOM      8  C   UNL A   1      32.816  22.967  25.608  1.00  0.00     0.096 A 
ATOM      9  C   UNL A   1      31.718  24.720  24.335  1.00  0.00     0.161 A 
ATOM     10  C   UNL A   1      31.390  23.756  23.366  1.00  0.00     0.051 A 
ATOM     11  C   UNL A   1      32.479  24.343  25.454  1.00  0.00     0.174 A 
ATOM     12  C   UNL A   1      31.809  22.430  23.476  1.00  0.00     0.017 A 
ATOM     13  C   UNL A   1      32.510  22.010  24.607  1.00  0.00     0.034 A 
BRANCH   9  14
ATOM     14  O   UNL A   1      31.108  25.914  24.072  1.00  0.00    -0.493 OA
ATOM     15  C   UNL A   1      31.298  26.539  22.817  1.00  0.00     0.278 C 
ENDBRANCH   9  14
BRANCH  11  16
ATOM     16  O   UNL A   1      33.039  25.209  26.360  1.00  0.00    -0.492 OA
ATOM     17  C   UNL A   1      33.947  26.196  25.879  1.00  0.00     0.278 C 
ENDBRANCH  11  16
BRANCH  13  18
ATOM     18  C   UNL A   1      32.892  20.597  24.717  1.00  0.00     0.139 A 
ATOM     19  N   UNL A   1      33.863  19.988  24.063  1.00  0.00    -0.228 NA
ATOM     20  N   UNL A   1      32.226  19.697  25.522  1.00  0.00    -0.338 N 
ATOM     21  C   UNL A   1      33.747  18.653  24.372  1.00  0.00     0.089 A 
ATOM     22  C   UNL A   1      32.734  18.442  25.298  1.00  0.00     0.066 A 
ATOM     23  H   UNL A   1      31.504  19.920  26.153  1.00  0.00     0.168 HD
ATOM     24  C   UNL A   1      34.463  17.552  23.884  1.00  0.00     0.031 A 
ATOM     25  C   UNL A   1      32.387  17.176  25.785  1.00  0.00     0.031 A 
ATOM     26  C   UNL A   1      34.122  16.269  24.336  1.00  0.00     0.006 A 
ATOM     27  C   UNL A   1      33.096  16.075  25.274  1.00  0.00    -0.049 A 
ATOM     28  C   UNL A   1      32.754  14.676  25.707  1.00  0.00     0.044 C 
ENDBRANCH  13  18
ENDBRANCH   5   8
ENDBRANCH   3   4
ENDBRANCH   2   3
ENDBRANCH   1   2
BRANCH   1  29
ATOM     29  N   UNL A   1      38.740  20.462  25.547  1.00  0.00    -0.352 N 
ATOM     30  C   UNL A   1      39.804  20.734  26.382  1.00  0.00     0.251 C 
ATOM     31  H   UNL A   1      38.599  19.501  25.389  1.00  0.00     0.163 HD
ATOM     32  O   UNL A   1      40.518  19.813  26.754  1.00  0.00    -0.269 OA
BRANCH  30  33
ATOM     33  C   UNL A   1      40.129  22.125  26.786  1.00  0.00     0.039 A 
ATOM     34  C   UNL A   1      41.200  22.353  27.658  1.00  0.00     0.014 A 
ATOM     35  C   UNL A   1      39.392  23.207  26.319  1.00  0.00     0.014 A 
ATOM     36  C   UNL A   1      41.602  23.663  27.950  1.00  0.00     0.010 A 
ATOM     37  C   UNL A   1      39.868  24.499  26.499  1.00  0.00     0.010 A 
ATOM     38  C   UNL A   1      40.982  24.749  27.315  1.00  0.00    -0.014 A 
BRANCH  38  39
ATOM     39  C   UNL A   1      41.431  26.160  27.484  1.00  0.00     0.031 A 
ATOM     40  C   UNL A   1      42.784  26.568  26.957  1.00  0.00     0.074 A 
ATOM     41  C   UNL A   1      40.709  27.028  28.222  1.00  0.00     0.049 A 
ATOM     42  N   UNL A   1      43.504  27.623  27.235  1.00  0.00    -0.248 NA
ATOM     43  C   UNL A   1      43.438  25.618  26.043  1.00  0.00     0.031 C 
ATOM     44  C   UNL A   1      39.398  26.757  28.814  1.00  0.00     0.029 A 
ATOM     45  N   UNL A   1      40.992  28.311  28.625  1.00  0.00    -0.354 N 
ATOM     46  C   UNL A   1      44.718  27.435  26.578  1.00  0.00     0.074 A 
ATOM     47  C   UNL A   1      44.650  26.137  25.942  1.00  0.00     0.031 C 
ATOM     48  C   UNL A   1      38.984  27.843  29.488  1.00  0.00     0.029 A 
ATOM     49  C   UNL A   1      40.025  28.864  29.434  1.00  0.00     0.049 A 
ATOM     50  H   UNL A   1      41.810  28.790  28.360  1.00  0.00     0.167 HD
ATOM     51  C   UNL A   1      45.781  28.275  26.498  1.00  0.00     0.034 A 
ATOM     52  C   UNL A   1      39.992  30.045  30.084  1.00  0.00     0.034 A 
ATOM     53  C   UNL A   1      45.803  29.587  27.093  1.00  0.00     0.049 A 
ATOM     54  C   UNL A   1      41.174  30.975  29.964  1.00  0.00     0.074 A 
ATOM     55  C   UNL A   1      46.797  30.549  27.025  1.00  0.00     0.029 A 
ATOM     56  N   UNL A   1      44.776  30.131  27.853  1.00  0.00    -0.354 N 
ATOM     57  N   UNL A   1      42.312  30.788  29.336  1.00  0.00    -0.248 NA
ATOM     58  C   UNL A   1      41.065  32.277  30.637  1.00  0.00     0.031 C 
ATOM     59  C   UNL A   1      46.393  31.652  27.785  1.00  0.00     0.029 A 
ATOM     60  C   UNL A   1      45.116  31.409  28.269  1.00  0.00     0.049 A 
ATOM     61  H   UNL A   1      43.930  29.676  28.066  1.00  0.00     0.167 HD
ATOM     62  C   UNL A   1      43.035  31.965  29.503  1.00  0.00     0.074 A 
ATOM     63  C   UNL A   1      42.207  32.855  30.291  1.00  0.00     0.031 C 
ATOM     64  C   UNL A   1      44.270  32.286  29.039  1.00  0.00     0.034 A 
BRANCH  51  65
ATOM     65  C   UNL A   1      47.002  27.780  25.758  1.00  0.00     0.023 A 
ATOM     66  C   UNL A   1      47.241  28.120  24.416  1.00  0.00     0.031 A 
ATOM     67  C   UNL A   1      47.916  26.916  26.387  1.00  0.00     0.131 A 
ATOM     68  C   UNL A   1      48.300  27.522  23.717  1.00  0.00     0.055 A 
ATOM     69  C   UNL A   1      49.025  26.400  25.714  1.00  0.00     0.041 A 
ATOM     70  F   UNL A   1      47.735  26.539  27.663  1.00  0.00    -0.206 F 
ATOM     71  C   UNL A   1      49.212  26.685  24.364  1.00  0.00     0.022 A 
BRANCH  68  72
ATOM     72  S   UNL A   1      48.365  27.722  21.917  1.00  0.00     0.124 S 
ATOM     73  O   UNL A   1      47.040  28.269  21.634  1.00  0.00    -0.237 OA
ATOM     74  O   UNL A   1      49.485  28.639  21.740  1.00  0.00    -0.237 OA
ATOM     75  O   UNL A   1      48.588  26.362  21.428  1.00  0.00    -0.744 OA
ENDBRANCH  68  72
ENDBRANCH  51  65
BRANCH  52  76
ATOM     76  C   UNL A   1      38.812  30.421  30.915  1.00  0.00     0.023 A 
ATOM     77  C   UNL A   1      37.720  31.095  30.345  1.00  0.00     0.031 A 
ATOM     78  C   UNL A   1      38.772  30.147  32.293  1.00  0.00     0.131 A 
ATOM     79  C   UNL A   1      36.655  31.515  31.157  1.00  0.00     0.055 A 
ATOM     80  C   UNL A   1      37.687  30.522  33.088  1.00  0.00     0.041 A 
ATOM     81  F   UNL A   1      39.786  29.498  32.887  1.00  0.00    -0.206 F 
ATOM     82  C   UNL A   1      36.625  31.223  32.523  1.00  0.00     0.022 A 
BRANCH  79  83
ATOM     83  S   UNL A   1      35.344  32.525  30.414  1.00  0.00     0.124 S 
ATOM     84  O   UNL A   1      34.950  31.705  29.274  1.00  0.00    -0.237 OA
ATOM     85  O   UNL A   1      34.379  32.616  31.504  1.00  0.00    -0.237 OA
ATOM     86  O   UNL A   1      36.025  33.774  30.081  1.00  0.00    -0.744 OA
ENDBRANCH  79  83
ENDBRANCH  52  76
BRANCH  64  87
ATOM     87  C   UNL A   1      44.762  33.688  29.299  1.00  0.00     0.023 A 
ATOM     88  C   UNL A   1      44.434  34.763  28.457  1.00  0.00     0.031 A 
ATOM     89  C   UNL A   1      45.559  33.945  30.428  1.00  0.00     0.131 A 
ATOM     90  C   UNL A   1      44.935  36.043  28.737  1.00  0.00     0.055 A 
ATOM     91  C   UNL A   1      46.012  35.230  30.730  1.00  0.00     0.041 A 
ATOM     92  F   UNL A   1      45.901  32.952  31.265  1.00  0.00    -0.206 F 
ATOM     93  C   UNL A   1      45.707  36.287  29.877  1.00  0.00     0.022 A 
BRANCH  90  94
ATOM     94  S   UNL A   1      44.614  37.384  27.559  1.00  0.00     0.124 S 
ATOM     95  O   UNL A   1      44.510  38.543  28.438  1.00  0.00    -0.237 OA
ATOM     96  O   UNL A   1      45.795  37.337  26.702  1.00  0.00    -0.237 OA
ATOM     97  O   UNL A   1      43.365  36.982  26.912  1.00  0.00    -0.744 OA
ENDBRANCH  90  94
ENDBRANCH  64  87
ENDBRANCH  38  39
ENDBRANCH  30  33
ENDBRANCH   1  29
TORSDOF 16
ENDMDL
MODEL 3
REMARK VINA RESULT:     -12.9      4.958     10.193
REMARK SMILES COc1ccc(-c2nc3ccc(C)cc3[nH]2)c(C(=O)NCCCNC(=O)c2ccc(-c3c4nc(c(-c5cc(S(=O)(=O)[O-])ccc5F)c5ccc([nH]5)c(-c5cc(S(=O)(=O)[O-])ccc5F)c5nc(c(-c6cc(S(=O)(=O)[O-])ccc6F)c6ccc3[nH]6)C=C5)C=C4)cc2)c1OC
REMARK SMILES IDX 23 1 22 2 21 3 20 4 18 5 19 6 17 8 3 9 4 10 90 11 5 12 6 13
REMARK SMILES IDX 2 14 1 15 91 16 92 17 7 18 8 19 16 20 9 21 15 22 10 24 14 25
REMARK SMILES IDX 11 26 12 27 13 28 24 29 25 30 26 32 27 33 28 34 89 35 29 36
REMARK SMILES IDX 88 37 30 38 31 39 32 40 82 41 33 42 87 43 81 44 83 45 34 46
REMARK SMILES IDX 86 47 80 48 79 49 35 51 67 52 47 53 66 54 48 55 51 56 65 57
REMARK SMILES IDX 84 58 49 59 50 60 64 62 85 63 52 64 36 65 37 66 45 67 38 68
REMARK SMILES IDX 44 69 46 70 43 71 39 72 40 73 41 74 42 75 68 76 69 77 77 78
REMARK SMILES IDX 70 79 76 80 78 81 75 82 71 83 72 84 73 85 74 86 53 87 54 88
REMARK SMILES IDX 62 89 55 90 61 91 63 92 60 93 56 94 57 95 58 96 59 97
REMARK H PARENT 20 7 16 23 24 31 83 50 51 61
REMARK Flexibility Score: inf
ROOT
ATOM      1  C   UNL A   1      33.694  29.007  24.827  1.00  0.00     0.118 C 
ENDROOT
BRANCH   1   2
ATOM      2  C   UNL A   1      33.572  28.804  23.325  1.00  0.00     0.042 C 
BRANCH   2   3
ATOM      3  C   UNL A   1      33.956  27.422  22.839  1.00  0.00     0.118 C 
BRANCH   3   4
ATOM      4  N   UNL A   1      33.125  26.807  21.828  1.00  0.00    -0.352 N 
ATOM      5  C   UNL A   1      31.815  26.396  21.996  1.00  0.00     0.255 C 
ATOM      6  O   UNL A   1      31.048  26.354  21.036  1.00  0.00    -0.269 OA
ATOM      7  H   UNL A   1      33.528  26.668  20.941  1.00  0.00     0.163 HD
BRANCH   5   8
ATOM      8  C   UNL A   1      31.357  25.898  23.319  1.00  0.00     0.096 A 
ATOM      9  C   UNL A   1      31.152  24.166  25.009  1.00  0.00     0.161 A 
ATOM     10  C   UNL A   1      30.300  25.023  25.727  1.00  0.00     0.051 A 
ATOM     11  C   UNL A   1      31.730  24.613  23.810  1.00  0.00     0.174 A 
ATOM     12  C   UNL A   1      30.017  26.316  25.289  1.00  0.00     0.017 A 
ATOM     13  C   UNL A   1      30.524  26.767  24.070  1.00  0.00     0.034 A 
BRANCH   9  14
ATOM     14  O   UNL A   1      31.189  22.920  25.571  1.00  0.00    -0.493 OA
ATOM     15  C   UNL A   1      32.016  22.680  26.693  1.00  0.00     0.278 C 
ENDBRANCH   9  14
BRANCH  11  16
ATOM     16  O   UNL A   1      32.728  23.969  23.123  1.00  0.00    -0.492 OA
ATOM     17  C   UNL A   1      33.995  23.814  23.757  1.00  0.00     0.278 C 
ENDBRANCH  11  16
BRANCH  13  18
ATOM     18  C   UNL A   1      30.167  28.115  23.612  1.00  0.00     0.139 A 
ATOM     19  N   UNL A   1      30.265  29.236  24.301  1.00  0.00    -0.228 NA
ATOM     20  N   UNL A   1      29.626  28.369  22.368  1.00  0.00    -0.338 N 
ATOM     21  C   UNL A   1      29.678  30.208  23.526  1.00  0.00     0.089 A 
ATOM     22  C   UNL A   1      29.279  29.695  22.299  1.00  0.00     0.066 A 
ATOM     23  H   UNL A   1      29.510  27.707  21.649  1.00  0.00     0.168 HD
ATOM     24  C   UNL A   1      29.431  31.558  23.813  1.00  0.00     0.031 A 
ATOM     25  C   UNL A   1      28.642  30.459  21.315  1.00  0.00     0.031 A 
ATOM     26  C   UNL A   1      28.772  32.343  22.855  1.00  0.00     0.006 A 
ATOM     27  C   UNL A   1      28.378  31.807  21.619  1.00  0.00    -0.049 A 
ATOM     28  C   UNL A   1      27.653  32.686  20.637  1.00  0.00     0.044 C 
ENDBRANCH  13  18
ENDBRANCH   5   8
ENDBRANCH   3   4
ENDBRANCH   2   3
ENDBRANCH   1   2
BRANCH   1  29
ATOM     29  N   UNL A   1      32.857  30.080  25.362  1.00  0.00    -0.352 N 
ATOM     30  C   UNL A   1      32.950  30.864  26.493  1.00  0.00     0.251 C 
ATOM     31  H   UNL A   1      32.072  30.282  24.805  1.00  0.00     0.163 HD
ATOM     32  O   UNL A   1      32.037  31.634  26.758  1.00  0.00    -0.269 OA
BRANCH  30  33
ATOM     33  C   UNL A   1      34.105  30.746  27.418  1.00  0.00     0.039 A 
ATOM     34  C   UNL A   1      34.362  29.517  28.038  1.00  0.00     0.014 A 
ATOM     35  C   UNL A   1      34.935  31.828  27.684  1.00  0.00     0.014 A 
ATOM     36  C   UNL A   1      35.517  29.349  28.813  1.00  0.00     0.010 A 
ATOM     37  C   UNL A   1      36.144  31.629  28.338  1.00  0.00     0.010 A 
ATOM     38  C   UNL A   1      36.457  30.386  28.912  1.00  0.00    -0.014 A 
BRANCH  38  39
ATOM     39  C   UNL A   1      37.761  30.243  29.618  1.00  0.00     0.031 A 
ATOM     40  C   UNL A   1      38.824  29.353  29.024  1.00  0.00     0.074 A 
ATOM     41  C   UNL A   1      37.943  30.781  30.842  1.00  0.00     0.049 A 
ATOM     42  N   UNL A   1      39.892  28.844  29.579  1.00  0.00    -0.248 NA
ATOM     43  C   UNL A   1      38.611  28.929  27.632  1.00  0.00     0.031 C 
ATOM     44  C   UNL A   1      36.988  31.639  31.546  1.00  0.00     0.029 A 
ATOM     45  N   UNL A   1      38.990  30.661  31.725  1.00  0.00    -0.354 N 
ATOM     46  C   UNL A   1      40.445  27.994  28.625  1.00  0.00     0.074 A 
ATOM     47  C   UNL A   1      39.556  28.015  27.483  1.00  0.00     0.031 C 
ATOM     48  C   UNL A   1      37.498  31.980  32.740  1.00  0.00     0.029 A 
ATOM     49  C   UNL A   1      38.784  31.314  32.919  1.00  0.00     0.049 A 
ATOM     50  H   UNL A   1      39.809  30.154  31.523  1.00  0.00     0.167 HD
ATOM     51  C   UNL A   1      41.596  27.278  28.688  1.00  0.00     0.034 A 
ATOM     52  C   UNL A   1      39.531  31.349  34.042  1.00  0.00     0.034 A 
ATOM     53  C   UNL A   1      42.496  27.317  29.814  1.00  0.00     0.049 A 
ATOM     54  C   UNL A   1      40.819  30.565  34.085  1.00  0.00     0.074 A 
ATOM     55  C   UNL A   1      43.718  26.685  29.964  1.00  0.00     0.029 A 
ATOM     56  N   UNL A   1      42.278  28.041  30.979  1.00  0.00    -0.354 N 
ATOM     57  N   UNL A   1      41.332  29.770  33.174  1.00  0.00    -0.248 NA
ATOM     58  C   UNL A   1      41.630  30.686  35.304  1.00  0.00     0.031 C 
ATOM     59  C   UNL A   1      44.215  26.987  31.237  1.00  0.00     0.029 A 
ATOM     60  C   UNL A   1      43.337  27.864  31.855  1.00  0.00     0.049 A 
ATOM     61  H   UNL A   1      41.486  28.600  31.156  1.00  0.00     0.167 HD
ATOM     62  C   UNL A   1      42.546  29.331  33.696  1.00  0.00     0.074 A 
ATOM     63  C   UNL A   1      42.688  29.948  34.998  1.00  0.00     0.031 C 
ATOM     64  C   UNL A   1      43.467  28.501  33.142  1.00  0.00     0.034 A 
BRANCH  51  65
ATOM     65  C   UNL A   1      41.924  26.384  27.514  1.00  0.00     0.023 A 
ATOM     66  C   UNL A   1      41.487  25.050  27.457  1.00  0.00     0.031 A 
ATOM     67  C   UNL A   1      42.726  26.856  26.461  1.00  0.00     0.131 A 
ATOM     68  C   UNL A   1      41.936  24.208  26.429  1.00  0.00     0.055 A 
ATOM     69  C   UNL A   1      43.091  26.039  25.388  1.00  0.00     0.041 A 
ATOM     70  F   UNL A   1      43.191  28.116  26.465  1.00  0.00    -0.206 F 
ATOM     71  C   UNL A   1      42.713  24.700  25.378  1.00  0.00     0.022 A 
BRANCH  68  72
ATOM     72  S   UNL A   1      41.630  22.427  26.580  1.00  0.00     0.124 S 
ATOM     73  O   UNL A   1      42.268  22.128  27.860  1.00  0.00    -0.237 OA
ATOM     74  O   UNL A   1      40.174  22.353  26.560  1.00  0.00    -0.237 OA
ATOM     75  O   UNL A   1      42.300  21.863  25.410  1.00  0.00    -0.744 OA
ENDBRANCH  68  72
ENDBRANCH  51  65
BRANCH  52  76
ATOM     76  C   UNL A   1      39.086  32.142  35.224  1.00  0.00     0.023 A 
ATOM     77  C   UNL A   1      38.519  31.508  36.341  1.00  0.00     0.031 A 
ATOM     78  C   UNL A   1      39.185  33.544  35.243  1.00  0.00     0.131 A 
ATOM     79  C   UNL A   1      38.029  32.275  37.408  1.00  0.00     0.055 A 
ATOM     80  C   UNL A   1      38.743  34.301  36.329  1.00  0.00     0.041 A 
ATOM     81  F   UNL A   1      39.728  34.201  34.204  1.00  0.00    -0.206 F 
ATOM     82  C   UNL A   1      38.148  33.666  37.416  1.00  0.00     0.022 A 
BRANCH  79  83
ATOM     83  S   UNL A   1      37.157  31.430  38.756  1.00  0.00     0.124 S 
ATOM     84  O   UNL A   1      37.025  30.078  38.222  1.00  0.00    -0.237 OA
ATOM     85  O   UNL A   1      38.086  31.594  39.868  1.00  0.00    -0.237 OA
ATOM     86  O   UNL A   1      35.907  32.179  38.874  1.00  0.00    -0.744 OA
ENDBRANCH  79  83
ENDBRANCH  52  76
BRANCH  64  87
ATOM     87  C   UNL A   1      44.746  28.280  33.909  1.00  0.00     0.023 A 
ATOM     88  C   UNL A   1      44.904  27.211  34.807  1.00  0.00     0.031 A 
ATOM     89  C   UNL A   1      45.832  29.152  33.714  1.00  0.00     0.131 A 
ATOM     90  C   UNL A   1      46.111  27.064  35.508  1.00  0.00     0.055 A 
ATOM     91  C   UNL A   1      47.047  28.970  34.376  1.00  0.00     0.041 A 
ATOM     92  F   UNL A   1      45.732  30.189  32.866  1.00  0.00    -0.206 F 
ATOM     93  C   UNL A   1      47.189  27.927  35.285  1.00  0.00     0.022 A 
BRANCH  90  94
ATOM     94  S   UNL A   1      46.238  25.763  36.764  1.00  0.00     0.124 S 
ATOM     95  O   UNL A   1      46.164  24.551  35.955  1.00  0.00    -0.237 OA
ATOM     96  O   UNL A   1      47.533  26.044  37.375  1.00  0.00    -0.237 OA
ATOM     97  O   UNL A   1      45.083  26.004  37.628  1.00  0.00    -0.744 OA
ENDBRANCH  90  94
ENDBRANCH  64  87
ENDBRANCH  38  39
ENDBRANCH  30  33
ENDBRANCH   1  29
TORSDOF 16
ENDMDL
