MODEL 1
REMARK VINA RESULT:     -13.2      0.000      0.000
REMARK SMILES Cc1ccc(-c2nc(C)c(C(=O)N3CCC(C(=O)NCCCNC(=O)c4ccc(-c5c6nc(c(-c7cc(S(=O)(=O)[O-])ccc7F)c7ccc([nH]7)c(-c7cc(S(=O)(=O)[O-])ccc7F)c7nc(c(-c8cc(S(=O)(=O)[O-])ccc8F)c8ccc5[nH]8)C=C7)C=C6)cc4)CC3)s2)o1
REMARK SMILES IDX 21 1 20 2 19 3 17 4 18 5 16 7 11 8 12 9 13 10 14 11 90 12
REMARK SMILES IDX 15 13 89 14 10 15 6 16 7 17 91 18 8 19 9 20 5 21 1 22 2 23
REMARK SMILES IDX 3 24 92 25 4 26 22 27 23 28 24 29 25 31 26 32 27 33 88 34
REMARK SMILES IDX 28 35 87 36 29 37 30 38 31 39 81 40 32 41 86 42 80 43 82 44
REMARK SMILES IDX 33 45 85 46 79 47 78 48 34 50 66 51 46 52 65 53 47 54 50 55
REMARK SMILES IDX 64 56 83 57 48 58 49 59 63 61 84 62 51 63 35 64 36 65 44 66
REMARK SMILES IDX 37 67 43 68 45 69 42 70 38 71 39 72 40 73 41 74 67 75 68 76
REMARK SMILES IDX 76 77 69 78 75 79 77 80 74 81 70 82 71 83 72 84 73 85 52 86
REMARK SMILES IDX 53 87 61 88 54 89 60 90 62 91 59 92 55 93 56 94 57 95 58 96
REMARK H PARENT 19 6 23 30 82 49 50 60
REMARK Flexibility Score: inf
ROOT
ATOM      1  C   UNL A   1      31.575  31.918  26.524  1.00  0.00     0.042 C 
ENDROOT
BRANCH   1   2
ATOM      2  C   UNL A   1      31.636  30.413  26.320  1.00  0.00     0.117 C 
BRANCH   2   3
ATOM      3  N   UNL A   1      32.209  30.052  25.030  1.00  0.00    -0.356 N 
ATOM      4  C   UNL A   1      32.655  28.855  24.560  1.00  0.00     0.223 C 
ATOM      5  O   UNL A   1      33.108  28.809  23.414  1.00  0.00    -0.275 OA
ATOM      6  H   UNL A   1      32.287  30.796  24.392  1.00  0.00     0.163 HD
BRANCH   4   7
ATOM      7  C   UNL A   1      32.584  27.598  25.409  1.00  0.00     0.082 C 
ATOM      8  C   UNL A   1      31.667  23.630  24.843  1.00  0.00     0.265 C 
ATOM      9  O   UNL A   1      30.693  23.694  24.093  1.00  0.00    -0.268 OA
ATOM     10  N   UNL A   1      32.083  24.778  25.515  1.00  0.00    -0.338 N 
ATOM     11  C   UNL A   1      31.076  25.667  26.068  1.00  0.00     0.120 C 
ATOM     12  C   UNL A   1      33.467  25.215  25.612  1.00  0.00     0.120 C 
ATOM     13  C   UNL A   1      31.149  27.057  25.473  1.00  0.00     0.035 C 
ATOM     14  C   UNL A   1      33.664  26.588  24.984  1.00  0.00     0.035 C 
BRANCH   8  15
ATOM     15  C   UNL A   1      32.332  22.374  25.169  1.00  0.00     0.115 A 
ATOM     16  C   UNL A   1      33.031  20.043  25.119  1.00  0.00     0.159 A 
ATOM     17  N   UNL A   1      33.219  20.539  26.320  1.00  0.00    -0.237 NA
ATOM     18  S   UNL A   1      32.461  21.153  23.951  1.00  0.00    -0.105 S 
ATOM     19  C   UNL A   1      32.806  21.860  26.371  1.00  0.00     0.062 A 
ATOM     20  C   UNL A   1      32.867  22.491  27.713  1.00  0.00     0.068 C 
BRANCH  16  21
ATOM     21  C   UNL A   1      33.258  18.652  24.850  1.00  0.00     0.162 A 
ATOM     22  C   UNL A   1      32.439  15.273  25.729  1.00  0.00     0.087 C 
ATOM     23  C   UNL A   1      33.045  16.461  25.099  1.00  0.00     0.101 A 
ATOM     24  C   UNL A   1      33.990  16.645  24.115  1.00  0.00     0.046 A 
ATOM     25  O   UNL A   1      32.613  17.664  25.557  1.00  0.00    -0.459 OA
ATOM     26  C   UNL A   1      34.113  18.048  23.942  1.00  0.00     0.054 A 
ENDBRANCH  16  21
ENDBRANCH   8  15
ENDBRANCH   4   7
ENDBRANCH   2   3
ENDBRANCH   1   2
BRANCH   1  27
ATOM     27  C   UNL A   1      32.798  32.485  27.223  1.00  0.00     0.118 C 
BRANCH  27  28
ATOM     28  N   UNL A   1      32.626  33.884  27.589  1.00  0.00    -0.352 N 
ATOM     29  C   UNL A   1      33.186  34.597  28.618  1.00  0.00     0.251 C 
ATOM     30  H   UNL A   1      32.017  34.395  27.009  1.00  0.00     0.163 HD
ATOM     31  O   UNL A   1      32.732  35.706  28.896  1.00  0.00    -0.269 OA
BRANCH  29  32
ATOM     32  C   UNL A   1      34.308  34.029  29.395  1.00  0.00     0.039 A 
ATOM     33  C   UNL A   1      34.029  33.165  30.455  1.00  0.00     0.014 A 
ATOM     34  C   UNL A   1      35.631  34.351  29.087  1.00  0.00     0.014 A 
ATOM     35  C   UNL A   1      35.081  32.582  31.164  1.00  0.00     0.010 A 
ATOM     36  C   UNL A   1      36.675  33.687  29.721  1.00  0.00     0.010 A 
ATOM     37  C   UNL A   1      36.413  32.808  30.779  1.00  0.00    -0.014 A 
BRANCH  37  38
ATOM     38  C   UNL A   1      37.540  32.150  31.491  1.00  0.00     0.031 A 
ATOM     39  C   UNL A   1      38.324  31.056  30.815  1.00  0.00     0.074 A 
ATOM     40  C   UNL A   1      37.827  32.510  32.758  1.00  0.00     0.049 A 
ATOM     41  N   UNL A   1      39.320  30.344  31.279  1.00  0.00    -0.248 NA
ATOM     42  C   UNL A   1      37.916  30.693  29.450  1.00  0.00     0.031 C 
ATOM     43  C   UNL A   1      37.103  33.518  33.535  1.00  0.00     0.029 A 
ATOM     44  N   UNL A   1      38.803  32.072  33.617  1.00  0.00    -0.354 N 
ATOM     45  C   UNL A   1      39.648  29.446  30.268  1.00  0.00     0.074 A 
ATOM     46  C   UNL A   1      38.695  29.652  29.200  1.00  0.00     0.031 C 
ATOM     47  C   UNL A   1      37.687  33.654  34.735  1.00  0.00     0.029 A 
ATOM     48  C   UNL A   1      38.794  32.710  34.837  1.00  0.00     0.049 A 
ATOM     49  H   UNL A   1      39.452  31.370  33.382  1.00  0.00     0.167 HD
ATOM     50  C   UNL A   1      40.669  28.555  30.222  1.00  0.00     0.034 A 
ATOM     51  C   UNL A   1      39.583  32.547  35.916  1.00  0.00     0.034 A 
ATOM     52  C   UNL A   1      41.616  28.371  31.295  1.00  0.00     0.049 A 
ATOM     53  C   UNL A   1      40.700  31.533  35.849  1.00  0.00     0.074 A 
ATOM     54  C   UNL A   1      42.716  27.531  31.339  1.00  0.00     0.029 A 
ATOM     55  N   UNL A   1      41.571  29.029  32.518  1.00  0.00    -0.354 N 
ATOM     56  N   UNL A   1      41.032  30.732  34.863  1.00  0.00    -0.248 NA
ATOM     57  C   UNL A   1      41.556  31.417  37.034  1.00  0.00     0.031 C 
ATOM     58  C   UNL A   1      43.288  27.625  32.612  1.00  0.00     0.029 A 
ATOM     59  C   UNL A   1      42.604  28.591  33.334  1.00  0.00     0.049 A 
ATOM     60  H   UNL A   1      40.904  29.708  32.769  1.00  0.00     0.167 HD
ATOM     61  C   UNL A   1      42.160  30.042  35.300  1.00  0.00     0.074 A 
ATOM     62  C   UNL A   1      42.459  30.539  36.626  1.00  0.00     0.031 C 
ATOM     63  C   UNL A   1      42.886  29.088  34.661  1.00  0.00     0.034 A 
BRANCH  50  64
ATOM     64  C   UNL A   1      40.793  27.701  28.980  1.00  0.00     0.023 A 
ATOM     65  C   UNL A   1      41.730  27.992  27.972  1.00  0.00     0.031 A 
ATOM     66  C   UNL A   1      39.944  26.597  28.786  1.00  0.00     0.131 A 
ATOM     67  C   UNL A   1      41.743  27.241  26.787  1.00  0.00     0.055 A 
ATOM     68  C   UNL A   1      40.022  25.799  27.642  1.00  0.00     0.041 A 
ATOM     69  F   UNL A   1      39.011  26.281  29.698  1.00  0.00    -0.206 F 
ATOM     70  C   UNL A   1      40.915  26.128  26.626  1.00  0.00     0.022 A 
BRANCH  67  71
ATOM     71  S   UNL A   1      42.747  27.834  25.397  1.00  0.00     0.124 S 
ATOM     72  O   UNL A   1      42.907  26.614  24.608  1.00  0.00    -0.237 OA
ATOM     73  O   UNL A   1      41.900  28.867  24.814  1.00  0.00    -0.237 OA
ATOM     74  O   UNL A   1      43.969  28.316  26.038  1.00  0.00    -0.744 OA
ENDBRANCH  67  71
ENDBRANCH  50  64
BRANCH  51  75
ATOM     75  C   UNL A   1      39.358  33.354  37.150  1.00  0.00     0.023 A 
ATOM     76  C   UNL A   1      40.042  34.561  37.363  1.00  0.00     0.031 A 
ATOM     77  C   UNL A   1      38.488  32.904  38.161  1.00  0.00     0.131 A 
ATOM     78  C   UNL A   1      39.889  35.249  38.578  1.00  0.00     0.055 A 
ATOM     79  C   UNL A   1      38.292  33.623  39.341  1.00  0.00     0.041 A 
ATOM     80  F   UNL A   1      37.806  31.757  38.011  1.00  0.00    -0.206 F 
ATOM     81  C   UNL A   1      39.007  34.797  39.561  1.00  0.00     0.022 A 
BRANCH  78  82
ATOM     82  S   UNL A   1      40.939  36.693  38.896  1.00  0.00     0.124 S 
ATOM     83  O   UNL A   1      41.884  36.623  37.787  1.00  0.00    -0.237 OA
ATOM     84  O   UNL A   1      39.974  37.786  38.848  1.00  0.00    -0.237 OA
ATOM     85  O   UNL A   1      41.504  36.420  40.215  1.00  0.00    -0.744 OA
ENDBRANCH  78  82
ENDBRANCH  51  75
BRANCH  63  86
ATOM     86  C   UNL A   1      44.106  28.561  35.379  1.00  0.00     0.023 A 
ATOM     87  C   UNL A   1      44.027  27.503  36.303  1.00  0.00     0.031 A 
ATOM     88  C   UNL A   1      45.365  29.150  35.158  1.00  0.00     0.131 A 
ATOM     89  C   UNL A   1      45.167  27.120  37.025  1.00  0.00     0.055 A 
ATOM     90  C   UNL A   1      46.510  28.711  35.823  1.00  0.00     0.041 A 
ATOM     91  F   UNL A   1      45.502  30.166  34.290  1.00  0.00    -0.206 F 
ATOM     92  C   UNL A   1      46.412  27.703  36.777  1.00  0.00     0.022 A 
BRANCH  89  93
ATOM     93  S   UNL A   1      44.975  25.935  38.386  1.00  0.00     0.124 S 
ATOM     94  O   UNL A   1      44.264  24.839  37.735  1.00  0.00    -0.237 OA
ATOM     95  O   UNL A   1      46.359  25.665  38.759  1.00  0.00    -0.237 OA
ATOM     96  O   UNL A   1      44.198  26.675  39.378  1.00  0.00    -0.744 OA
ENDBRANCH  89  93
ENDBRANCH  63  86
ENDBRANCH  37  38
ENDBRANCH  29  32
ENDBRANCH  27  28
ENDBRANCH   1  27
TORSDOF 15
ENDMDL
MODEL 2
REMARK VINA RESULT:     -13.0      5.543      9.312
REMARK SMILES Cc1ccc(-c2nc(C)c(C(=O)N3CCC(C(=O)NCCCNC(=O)c4ccc(-c5c6nc(c(-c7cc(S(=O)(=O)[O-])ccc7F)c7ccc([nH]7)c(-c7cc(S(=O)(=O)[O-])ccc7F)c7nc(c(-c8cc(S(=O)(=O)[O-])ccc8F)c8ccc5[nH]8)C=C7)C=C6)cc4)CC3)s2)o1
REMARK SMILES IDX 21 1 20 2 19 3 17 4 18 5 16 7 11 8 12 9 13 10 14 11 90 12
REMARK SMILES IDX 15 13 89 14 10 15 6 16 7 17 91 18 8 19 9 20 5 21 1 22 2 23
REMARK SMILES IDX 3 24 92 25 4 26 22 27 23 28 24 29 25 31 26 32 27 33 88 34
REMARK SMILES IDX 28 35 87 36 29 37 30 38 31 39 81 40 32 41 86 42 80 43 82 44
REMARK SMILES IDX 33 45 85 46 79 47 78 48 34 50 66 51 46 52 65 53 47 54 50 55
REMARK SMILES IDX 64 56 83 57 48 58 49 59 63 61 84 62 51 63 35 64 36 65 44 66
REMARK SMILES IDX 37 67 43 68 45 69 42 70 38 71 39 72 40 73 41 74 67 75 68 76
REMARK SMILES IDX 76 77 69 78 75 79 77 80 74 81 70 82 71 83 72 84 73 85 52 86
REMARK SMILES IDX 53 87 61 88 54 89 60 90 62 91 59 92 55 93 56 94 57 95 58 96
REMARK H PARENT 19 6 23 30 82 49 50 60
REMARK Flexibility Score: inf
ROOT
ATOM      1  C   UNL A   1      36.317  21.623  24.459  1.00  0.00     0.042 C 
ENDROOT
BRANCH   1   2
ATOM      2  C   UNL A   1      35.349  20.986  25.442  1.00  0.00     0.117 C 
BRANCH   2   3
ATOM      3  N   UNL A   1      34.668  19.828  24.879  1.00  0.00    -0.356 N 
ATOM      4  C   UNL A   1      33.386  19.674  24.449  1.00  0.00     0.223 C 
ATOM      5  O   UNL A   1      33.045  18.572  24.009  1.00  0.00    -0.275 OA
ATOM      6  H   UNL A   1      35.227  19.023  24.795  1.00  0.00     0.163 HD
BRANCH   4   7
ATOM      7  C   UNL A   1      32.397  20.825  24.486  1.00  0.00     0.082 C 
ATOM      8  C   UNL A   1      32.514  24.873  25.200  1.00  0.00     0.265 C 
ATOM      9  O   UNL A   1      33.289  24.945  26.153  1.00  0.00    -0.268 OA
ATOM     10  N   UNL A   1      31.972  23.634  24.858  1.00  0.00    -0.338 N 
ATOM     11  C   UNL A   1      31.552  22.739  25.921  1.00  0.00     0.120 C 
ATOM     12  C   UNL A   1      31.894  23.121  23.499  1.00  0.00     0.120 C 
ATOM     13  C   UNL A   1      32.305  21.426  25.895  1.00  0.00     0.035 C 
ATOM     14  C   UNL A   1      32.674  21.823  23.348  1.00  0.00     0.035 C 
BRANCH   8  15
ATOM     15  C   UNL A   1      32.025  26.047  24.487  1.00  0.00     0.115 A 
ATOM     16  C   UNL A   1      30.569  27.814  23.659  1.00  0.00     0.159 A 
ATOM     17  N   UNL A   1      31.572  27.638  22.831  1.00  0.00    -0.237 NA
ATOM     18  S   UNL A   1      30.617  26.860  25.077  1.00  0.00    -0.105 S 
ATOM     19  C   UNL A   1      32.398  26.620  23.276  1.00  0.00     0.062 A 
ATOM     20  C   UNL A   1      33.506  26.255  22.357  1.00  0.00     0.068 C 
BRANCH  16  21
ATOM     21  C   UNL A   1      29.503  28.723  23.348  1.00  0.00     0.162 A 
ATOM     22  C   UNL A   1      28.491  32.154  23.086  1.00  0.00     0.087 C 
ATOM     23  C   UNL A   1      28.494  30.678  23.092  1.00  0.00     0.101 A 
ATOM     24  C   UNL A   1      27.540  29.719  22.839  1.00  0.00     0.046 A 
ATOM     25  O   UNL A   1      29.673  30.086  23.415  1.00  0.00    -0.459 OA
ATOM     26  C   UNL A   1      28.191  28.466  22.985  1.00  0.00     0.054 A 
ENDBRANCH  16  21
ENDBRANCH   8  15
ENDBRANCH   4   7
ENDBRANCH   2   3
ENDBRANCH   1   2
BRANCH   1  27
ATOM     27  C   UNL A   1      37.531  22.249  25.122  1.00  0.00     0.118 C 
BRANCH  27  28
ATOM     28  N   UNL A   1      38.409  21.254  25.720  1.00  0.00    -0.352 N 
ATOM     29  C   UNL A   1      39.588  21.420  26.403  1.00  0.00     0.251 C 
ATOM     30  H   UNL A   1      38.111  20.321  25.621  1.00  0.00     0.163 HD
ATOM     31  O   UNL A   1      40.296  20.439  26.623  1.00  0.00    -0.269 OA
BRANCH  29  32
ATOM     32  C   UNL A   1      40.008  22.765  26.847  1.00  0.00     0.039 A 
ATOM     33  C   UNL A   1      40.907  22.878  27.909  1.00  0.00     0.014 A 
ATOM     34  C   UNL A   1      39.513  23.914  26.226  1.00  0.00     0.014 A 
ATOM     35  C   UNL A   1      41.351  24.141  28.305  1.00  0.00     0.010 A 
ATOM     36  C   UNL A   1      40.039  25.161  26.549  1.00  0.00     0.010 A 
ATOM     37  C   UNL A   1      40.950  25.291  27.605  1.00  0.00    -0.014 A 
BRANCH  37  38
ATOM     38  C   UNL A   1      41.458  26.636  27.982  1.00  0.00     0.031 A 
ATOM     39  C   UNL A   1      42.872  27.032  27.642  1.00  0.00     0.074 A 
ATOM     40  C   UNL A   1      40.660  27.481  28.665  1.00  0.00     0.049 A 
ATOM     41  N   UNL A   1      43.506  28.144  27.910  1.00  0.00    -0.248 NA
ATOM     42  C   UNL A   1      43.689  26.033  26.937  1.00  0.00     0.031 C 
ATOM     43  C   UNL A   1      39.292  27.188  29.097  1.00  0.00     0.029 A 
ATOM     44  N   UNL A   1      40.881  28.758  29.115  1.00  0.00    -0.354 N 
ATOM     45  C   UNL A   1      44.796  27.975  27.415  1.00  0.00     0.074 A 
ATOM     46  C   UNL A   1      44.872  26.625  26.903  1.00  0.00     0.031 C 
ATOM     47  C   UNL A   1      38.781  28.268  29.707  1.00  0.00     0.029 A 
ATOM     48  C   UNL A   1      39.798  29.313  29.758  1.00  0.00     0.049 A 
ATOM     49  H   UNL A   1      41.733  29.234  28.989  1.00  0.00     0.167 HD
ATOM     50  C   UNL A   1      45.810  28.873  27.364  1.00  0.00     0.034 A 
ATOM     51  C   UNL A   1      39.644  30.524  30.329  1.00  0.00     0.034 A 
ATOM     52  C   UNL A   1      45.710  30.220  27.873  1.00  0.00     0.049 A 
ATOM     53  C   UNL A   1      40.795  31.498  30.279  1.00  0.00     0.074 A 
ATOM     54  C   UNL A   1      46.658  31.228  27.833  1.00  0.00     0.029 A 
ATOM     55  N   UNL A   1      44.600  30.745  28.523  1.00  0.00    -0.354 N 
ATOM     56  N   UNL A   1      41.990  31.341  29.755  1.00  0.00    -0.248 NA
ATOM     57  C   UNL A   1      40.569  32.816  30.880  1.00  0.00     0.031 C 
ATOM     58  C   UNL A   1      46.150  32.333  28.523  1.00  0.00     0.029 A 
ATOM     59  C   UNL A   1      44.851  32.051  28.916  1.00  0.00     0.049 A 
ATOM     60  H   UNL A   1      43.758  30.260  28.681  1.00  0.00     0.167 HD
ATOM     61  C   UNL A   1      42.644  32.558  29.935  1.00  0.00     0.074 A 
ATOM     62  C   UNL A   1      41.702  33.439  30.594  1.00  0.00     0.031 C 
ATOM     63  C   UNL A   1      43.906  32.917  29.584  1.00  0.00     0.034 A 
BRANCH  50  64
ATOM     64  C   UNL A   1      47.117  28.413  26.757  1.00  0.00     0.023 A 
ATOM     65  C   UNL A   1      47.298  28.327  25.365  1.00  0.00     0.031 A 
ATOM     66  C   UNL A   1      48.190  28.028  27.582  1.00  0.00     0.131 A 
ATOM     67  C   UNL A   1      48.486  27.795  24.842  1.00  0.00     0.055 A 
ATOM     68  C   UNL A   1      49.403  27.584  27.053  1.00  0.00     0.041 A 
ATOM     69  F   UNL A   1      48.073  28.062  28.918  1.00  0.00    -0.206 F 
ATOM     70  C   UNL A   1      49.552  27.450  25.675  1.00  0.00     0.022 A 
BRANCH  67  71
ATOM     71  S   UNL A   1      48.559  27.417  23.070  1.00  0.00     0.124 S 
ATOM     72  O   UNL A   1      49.874  27.944  22.710  1.00  0.00    -0.237 OA
ATOM     73  O   UNL A   1      48.424  25.966  23.050  1.00  0.00    -0.237 OA
ATOM     74  O   UNL A   1      47.427  28.157  22.514  1.00  0.00    -0.744 OA
ENDBRANCH  67  71
ENDBRANCH  50  64
BRANCH  51  75
ATOM     75  C   UNL A   1      38.361  30.891  30.995  1.00  0.00     0.023 A 
ATOM     76  C   UNL A   1      37.335  31.538  30.288  1.00  0.00     0.031 A 
ATOM     77  C   UNL A   1      38.159  30.644  32.366  1.00  0.00     0.131 A 
ATOM     78  C   UNL A   1      36.180  31.965  30.962  1.00  0.00     0.055 A 
ATOM     79  C   UNL A   1      36.982  31.015  33.018  1.00  0.00     0.041 A 
ATOM     80  F   UNL A   1      39.105  30.027  33.092  1.00  0.00    -0.206 F 
ATOM     81  C   UNL A   1      35.990  31.694  32.317  1.00  0.00     0.022 A 
BRANCH  78  82
ATOM     82  S   UNL A   1      34.971  32.972  30.060  1.00  0.00     0.124 S 
ATOM     83  O   UNL A   1      35.815  34.028  29.511  1.00  0.00    -0.237 OA
ATOM     84  O   UNL A   1      34.435  32.014  29.098  1.00  0.00    -0.237 OA
ATOM     85  O   UNL A   1      34.037  33.397  31.101  1.00  0.00    -0.744 OA
ENDBRANCH  78  82
ENDBRANCH  51  75
BRANCH  63  86
ATOM     86  C   UNL A   1      44.316  34.344  29.863  1.00  0.00     0.023 A 
ATOM     87  C   UNL A   1      44.024  35.390  28.970  1.00  0.00     0.031 A 
ATOM     88  C   UNL A   1      45.039  34.655  31.029  1.00  0.00     0.131 A 
ATOM     89  C   UNL A   1      44.518  36.679  29.218  1.00  0.00     0.055 A 
ATOM     90  C   UNL A   1      45.461  35.955  31.308  1.00  0.00     0.041 A 
ATOM     91  F   UNL A   1      45.350  33.698  31.918  1.00  0.00    -0.206 F 
ATOM     92  C   UNL A   1      45.218  36.973  30.391  1.00  0.00     0.022 A 
BRANCH  89  93
ATOM     93  S   UNL A   1      44.346  37.940  27.925  1.00  0.00     0.124 S 
ATOM     94  O   UNL A   1      43.796  39.066  28.672  1.00  0.00    -0.237 OA
ATOM     95  O   UNL A   1      45.719  38.095  27.456  1.00  0.00    -0.237 OA
ATOM     96  O   UNL A   1      43.429  37.325  26.966  1.00  0.00    -0.744 OA
ENDBRANCH  89  93
ENDBRANCH  63  86
ENDBRANCH  37  38
ENDBRANCH  29  32
ENDBRANCH  27  28
ENDBRANCH   1  27
TORSDOF 15
ENDMDL
MODEL 3
REMARK VINA RESULT:     -12.9      6.250     11.809
REMARK SMILES Cc1ccc(-c2nc(C)c(C(=O)N3CCC(C(=O)NCCCNC(=O)c4ccc(-c5c6nc(c(-c7cc(S(=O)(=O)[O-])ccc7F)c7ccc([nH]7)c(-c7cc(S(=O)(=O)[O-])ccc7F)c7nc(c(-c8cc(S(=O)(=O)[O-])ccc8F)c8ccc5[nH]8)C=C7)C=C6)cc4)CC3)s2)o1
REMARK SMILES IDX 21 1 20 2 19 3 17 4 18 5 16 7 11 8 12 9 13 10 14 11 90 12
REMARK SMILES IDX 15 13 89 14 10 15 6 16 7 17 91 18 8 19 9 20 5 21 1 22 2 23
REMARK SMILES IDX 3 24 92 25 4 26 22 27 23 28 24 29 25 31 26 32 27 33 88 34
REMARK SMILES IDX 28 35 87 36 29 37 30 38 31 39 81 40 32 41 86 42 80 43 82 44
REMARK SMILES IDX 33 45 85 46 79 47 78 48 34 50 66 51 46 52 65 53 47 54 50 55
REMARK SMILES IDX 64 56 83 57 48 58 49 59 63 61 84 62 51 63 35 64 36 65 44 66
REMARK SMILES IDX 37 67 43 68 45 69 42 70 38 71 39 72 40 73 41 74 67 75 68 76
REMARK SMILES IDX 76 77 69 78 75 79 77 80 74 81 70 82 71 83 72 84 73 85 52 86
REMARK SMILES IDX 53 87 61 88 54 89 60 90 62 91 59 92 55 93 56 94 57 95 58 96
REMARK H PARENT 19 6 23 30 82 49 50 60
REMARK Flexibility Score: inf
ROOT
ATOM      1  C   UNL A   1      37.964  19.706  24.992  1.00  0.00     0.042 C 
ENDROOT
BRANCH   1   2
ATOM      2  C   UNL A   1      36.962  20.787  24.621  1.00  0.00     0.117 C 
BRANCH   2   3
ATOM      3  N   UNL A   1      35.864  20.876  25.574  1.00  0.00    -0.356 N 
ATOM      4  C   UNL A   1      34.859  21.785  25.687  1.00  0.00     0.223 C 
ATOM      5  O   UNL A   1      34.040  21.641  26.599  1.00  0.00    -0.275 OA
ATOM      6  H   UNL A   1      35.847  20.160  26.248  1.00  0.00     0.163 HD
BRANCH   4   7
ATOM      7  C   UNL A   1      34.726  22.942  24.712  1.00  0.00     0.082 C 
ATOM      8  C   UNL A   1      31.696  25.274  23.201  1.00  0.00     0.265 C 
ATOM      9  O   UNL A   1      30.806  24.447  23.006  1.00  0.00    -0.268 OA
ATOM     10  N   UNL A   1      32.999  24.830  23.423  1.00  0.00    -0.338 N 
ATOM     11  C   UNL A   1      33.503  23.722  22.631  1.00  0.00     0.120 C 
ATOM     12  C   UNL A   1      33.867  25.330  24.477  1.00  0.00     0.120 C 
ATOM     13  C   UNL A   1      33.894  22.536  23.488  1.00  0.00     0.035 C 
ATOM     14  C   UNL A   1      34.274  24.221  25.437  1.00  0.00     0.035 C 
BRANCH   8  15
ATOM     15  C   UNL A   1      31.481  26.711  23.080  1.00  0.00     0.115 A 
ATOM     16  C   UNL A   1      30.402  28.875  22.799  1.00  0.00     0.159 A 
ATOM     17  N   UNL A   1      31.671  28.964  22.475  1.00  0.00    -0.237 NA
ATOM     18  S   UNL A   1      29.905  27.352  23.393  1.00  0.00    -0.105 S 
ATOM     19  C   UNL A   1      32.295  27.736  22.609  1.00  0.00     0.062 A 
ATOM     20  C   UNL A   1      33.709  27.691  22.161  1.00  0.00     0.068 C 
BRANCH  16  21
ATOM     21  C   UNL A   1      29.512  29.986  22.615  1.00  0.00     0.162 A 
ATOM     22  C   UNL A   1      27.859  32.124  20.258  1.00  0.00     0.087 C 
ATOM     23  C   UNL A   1      28.347  31.510  21.508  1.00  0.00     0.101 A 
ATOM     24  C   UNL A   1      28.153  31.776  22.843  1.00  0.00     0.046 A 
ATOM     25  O   UNL A   1      29.177  30.444  21.363  1.00  0.00    -0.459 OA
ATOM     26  C   UNL A   1      28.884  30.789  23.554  1.00  0.00     0.054 A 
ENDBRANCH  16  21
ENDBRANCH   8  15
ENDBRANCH   4   7
ENDBRANCH   2   3
ENDBRANCH   1   2
BRANCH   1  27
ATOM     27  C   UNL A   1      39.038  20.179  25.955  1.00  0.00     0.118 C 
BRANCH  27  28
ATOM     28  N   UNL A   1      40.139  19.233  26.064  1.00  0.00    -0.352 N 
ATOM     29  C   UNL A   1      41.488  19.462  26.159  1.00  0.00     0.251 C 
ATOM     30  H   UNL A   1      39.875  18.284  26.071  1.00  0.00     0.163 HD
ATOM     31  O   UNL A   1      42.269  18.524  26.006  1.00  0.00    -0.269 OA
BRANCH  29  32
ATOM     32  C   UNL A   1      41.995  20.826  26.423  1.00  0.00     0.039 A 
ATOM     33  C   UNL A   1      42.209  21.690  25.347  1.00  0.00     0.014 A 
ATOM     34  C   UNL A   1      42.268  21.251  27.725  1.00  0.00     0.014 A 
ATOM     35  C   UNL A   1      42.639  22.996  25.587  1.00  0.00     0.010 A 
ATOM     36  C   UNL A   1      42.590  22.582  27.969  1.00  0.00     0.010 A 
ATOM     37  C   UNL A   1      42.797  23.465  26.902  1.00  0.00    -0.014 A 
BRANCH  37  38
ATOM     38  C   UNL A   1      43.201  24.870  27.172  1.00  0.00     0.031 A 
ATOM     39  C   UNL A   1      42.241  25.816  27.845  1.00  0.00     0.074 A 
ATOM     40  C   UNL A   1      44.415  25.301  26.773  1.00  0.00     0.049 A 
ATOM     41  N   UNL A   1      42.397  27.082  28.140  1.00  0.00    -0.248 NA
ATOM     42  C   UNL A   1      40.921  25.278  28.205  1.00  0.00     0.031 C 
ATOM     43  C   UNL A   1      45.408  24.492  26.064  1.00  0.00     0.029 A 
ATOM     44  N   UNL A   1      45.022  26.524  26.907  1.00  0.00    -0.354 N 
ATOM     45  C   UNL A   1      41.195  27.490  28.710  1.00  0.00     0.074 A 
ATOM     46  C   UNL A   1      40.297  26.358  28.647  1.00  0.00     0.031 C 
ATOM     47  C   UNL A   1      46.515  25.224  25.867  1.00  0.00     0.029 A 
ATOM     48  C   UNL A   1      46.295  26.569  26.387  1.00  0.00     0.049 A 
ATOM     49  H   UNL A   1      44.589  27.296  27.337  1.00  0.00     0.167 HD
ATOM     50  C   UNL A   1      40.881  28.687  29.264  1.00  0.00     0.034 A 
ATOM     51  C   UNL A   1      47.183  27.582  26.331  1.00  0.00     0.034 A 
ATOM     52  C   UNL A   1      41.796  29.802  29.326  1.00  0.00     0.049 A 
ATOM     53  C   UNL A   1      46.802  28.911  26.935  1.00  0.00     0.074 A 
ATOM     54  C   UNL A   1      41.601  31.044  29.904  1.00  0.00     0.029 A 
ATOM     55  N   UNL A   1      43.075  29.813  28.783  1.00  0.00    -0.354 N 
ATOM     56  N   UNL A   1      45.681  29.263  27.521  1.00  0.00    -0.248 NA
ATOM     57  C   UNL A   1      47.814  29.971  26.883  1.00  0.00     0.031 C 
ATOM     58  C   UNL A   1      42.729  31.829  29.644  1.00  0.00     0.029 A 
ATOM     59  C   UNL A   1      43.668  31.051  28.986  1.00  0.00     0.049 A 
ATOM     60  H   UNL A   1      43.499  29.053  28.323  1.00  0.00     0.167 HD
ATOM     61  C   UNL A   1      45.870  30.578  27.940  1.00  0.00     0.074 A 
ATOM     62  C   UNL A   1      47.218  30.943  27.556  1.00  0.00     0.031 C 
ATOM     63  C   UNL A   1      45.011  31.407  28.587  1.00  0.00     0.034 A 
BRANCH  50  64
ATOM     64  C   UNL A   1      39.485  28.851  29.822  1.00  0.00     0.023 A 
ATOM     65  C   UNL A   1      38.434  29.372  29.045  1.00  0.00     0.031 A 
ATOM     66  C   UNL A   1      39.205  28.510  31.157  1.00  0.00     0.131 A 
ATOM     67  C   UNL A   1      37.181  29.610  29.628  1.00  0.00     0.055 A 
ATOM     68  C   UNL A   1      37.931  28.665  31.706  1.00  0.00     0.041 A 
ATOM     69  F   UNL A   1      40.171  28.031  31.958  1.00  0.00    -0.206 F 
ATOM     70  C   UNL A   1      36.913  29.233  30.946  1.00  0.00     0.022 A 
BRANCH  67  71
ATOM     71  S   UNL A   1      35.954  30.560  28.688  1.00  0.00     0.124 S 
ATOM     72  O   UNL A   1      35.415  31.445  29.719  1.00  0.00    -0.237 OA
ATOM     73  O   UNL A   1      36.768  31.197  27.660  1.00  0.00    -0.237 OA
ATOM     74  O   UNL A   1      35.025  29.539  28.207  1.00  0.00    -0.744 OA
ENDBRANCH  67  71
ENDBRANCH  50  64
BRANCH  51  75
ATOM     75  C   UNL A   1      48.514  27.388  25.686  1.00  0.00     0.023 A 
ATOM     76  C   UNL A   1      48.686  27.577  24.305  1.00  0.00     0.031 A 
ATOM     77  C   UNL A   1      49.627  26.963  26.435  1.00  0.00     0.131 A 
ATOM     78  C   UNL A   1      49.923  27.289  23.707  1.00  0.00     0.055 A 
ATOM     79  C   UNL A   1      50.872  26.738  25.845  1.00  0.00     0.041 A 
ATOM     80  F   UNL A   1      49.521  26.768  27.759  1.00  0.00    -0.206 F 
ATOM     81  C   UNL A   1      51.021  26.886  24.469  1.00  0.00     0.022 A 
BRANCH  78  82
ATOM     82  S   UNL A   1      50.049  27.352  21.899  1.00  0.00     0.124 S 
ATOM     83  O   UNL A   1      48.950  26.482  21.495  1.00  0.00    -0.237 OA
ATOM     84  O   UNL A   1      49.871  28.775  21.631  1.00  0.00    -0.237 OA
ATOM     85  O   UNL A   1      51.388  26.831  21.632  1.00  0.00    -0.744 OA
ENDBRANCH  78  82
ENDBRANCH  51  75
BRANCH  63  86
ATOM     86  C   UNL A   1      45.530  32.774  28.964  1.00  0.00     0.023 A 
ATOM     87  C   UNL A   1      45.455  33.867  28.081  1.00  0.00     0.031 A 
ATOM     88  C   UNL A   1      46.140  32.979  30.215  1.00  0.00     0.131 A 
ATOM     89  C   UNL A   1      46.047  35.090  28.431  1.00  0.00     0.055 A 
ATOM     90  C   UNL A   1      46.658  34.219  30.588  1.00  0.00     0.041 A 
ATOM     91  F   UNL A   1      46.244  31.972  31.098  1.00  0.00    -0.206 F 
ATOM     92  C   UNL A   1      46.631  35.279  29.687  1.00  0.00     0.022 A 
BRANCH  89  93
ATOM     93  S   UNL A   1      46.159  36.392  27.174  1.00  0.00     0.124 S 
ATOM     94  O   UNL A   1      47.422  37.039  27.519  1.00  0.00    -0.237 OA
ATOM     95  O   UNL A   1      46.154  35.627  25.932  1.00  0.00    -0.237 OA
ATOM     96  O   UNL A   1      44.964  37.201  27.409  1.00  0.00    -0.744 OA
ENDBRANCH  89  93
ENDBRANCH  63  86
ENDBRANCH  37  38
ENDBRANCH  29  32
ENDBRANCH  27  28
ENDBRANCH   1  27
TORSDOF 15
ENDMDL
