MODEL 1
REMARK VINA RESULT:     -13.5      0.000      0.000
REMARK SMILES O=C(NCCCNC(=O)[C@@H](NC(=O)c1cn(Cc2ccccc2)nn1)c1ccc(F)c(F)c1)c1ccc(-c2c3nc(c(-c4cc(S(=O)(=O)[O-])ccc4F)c4ccc([nH]4)c(-c4cc(S(=O)(=O)[O-])ccc4F)c4nc(c(-c5cc(S(=O)(=O)[O-])ccc5F)c5ccc2[nH]5)C=C4)C=C3)cc1
REMARK SMILES IDX 5 1 4 2 3 3 1 4 2 5 34 7 35 8 96 9 36 10 95 11 37 12 38 13
REMARK SMILES IDX 39 14 89 15 40 16 94 17 88 18 90 19 41 20 93 21 87 22 86 23
REMARK SMILES IDX 42 25 74 26 54 27 73 28 55 29 58 30 72 31 91 32 56 33 57 34
REMARK SMILES IDX 71 36 92 37 59 38 43 39 44 40 52 41 45 42 51 43 53 44 50 45
REMARK SMILES IDX 46 46 47 47 48 48 49 49 75 50 76 51 84 52 77 53 83 54 85 55
REMARK SMILES IDX 82 56 78 57 79 58 80 59 81 60 60 61 61 62 69 63 62 64 68 65
REMARK SMILES IDX 70 66 67 67 63 68 64 69 65 70 66 71 6 72 7 73 8 74 9 76
REMARK SMILES IDX 10 77 11 78 12 79 13 81 14 82 15 83 25 84 16 85 24 86 17 87
REMARK SMILES IDX 18 88 19 89 23 90 20 91 22 92 21 93 26 94 27 95 33 96 28 97
REMARK SMILES IDX 31 98 29 99 32 100 30 101
REMARK H PARENT 3 6 90 24 58 35 7 75 11 80
REMARK Flexibility Score: inf
ROOT
ATOM      1  C   UNL A   1      32.452  28.669  27.225  1.00  0.00     0.042 C 
ENDROOT
BRANCH   1   2
ATOM      2  C   UNL A   1      33.752  29.434  26.970  1.00  0.00     0.118 C 
BRANCH   2   3
ATOM      3  N   UNL A   1      33.962  30.608  27.799  1.00  0.00    -0.352 N 
ATOM      4  O   UNL A   1      34.833  32.246  28.990  1.00  0.00    -0.269 OA
ATOM      5  C   UNL A   1      35.018  31.129  28.499  1.00  0.00     0.251 C 
ATOM      6  H   UNL A   1      33.152  31.162  27.877  1.00  0.00     0.163 HD
BRANCH   5   7
ATOM      7  C   UNL A   1      36.321  30.444  28.733  1.00  0.00     0.039 A 
ATOM      8  C   UNL A   1      37.402  30.453  27.855  1.00  0.00     0.014 A 
ATOM      9  C   UNL A   1      36.445  29.718  29.933  1.00  0.00     0.014 A 
ATOM     10  C   UNL A   1      38.539  29.693  28.116  1.00  0.00     0.010 A 
ATOM     11  C   UNL A   1      37.601  28.990  30.223  1.00  0.00     0.010 A 
ATOM     12  C   UNL A   1      38.641  28.958  29.298  1.00  0.00    -0.014 A 
BRANCH  12  13
ATOM     13  C   UNL A   1      39.927  28.318  29.577  1.00  0.00     0.031 A 
ATOM     14  C   UNL A   1      40.312  28.247  31.017  1.00  0.00     0.074 A 
ATOM     15  C   UNL A   1      40.681  27.673  28.667  1.00  0.00     0.049 A 
ATOM     16  N   UNL A   1      41.375  28.706  31.594  1.00  0.00    -0.248 NA
ATOM     17  C   UNL A   1      39.340  27.651  31.944  1.00  0.00     0.031 C 
ATOM     18  C   UNL A   1      40.326  27.358  27.284  1.00  0.00     0.029 A 
ATOM     19  N   UNL A   1      41.887  27.053  28.838  1.00  0.00    -0.354 N 
ATOM     20  C   UNL A   1      41.310  28.282  32.921  1.00  0.00     0.074 A 
ATOM     21  C   UNL A   1      39.980  27.770  33.108  1.00  0.00     0.031 C 
ATOM     22  C   UNL A   1      41.178  26.419  26.818  1.00  0.00     0.029 A 
ATOM     23  C   UNL A   1      42.200  26.160  27.822  1.00  0.00     0.049 A 
ATOM     24  H   UNL A   1      42.477  27.222  29.608  1.00  0.00     0.167 HD
ATOM     25  C   UNL A   1      42.419  28.215  33.714  1.00  0.00     0.034 A 
ATOM     26  C   UNL A   1      43.171  25.213  27.830  1.00  0.00     0.034 A 
ATOM     27  C   UNL A   1      43.487  29.039  33.195  1.00  0.00     0.049 A 
ATOM     28  C   UNL A   1      44.186  25.601  28.837  1.00  0.00     0.074 A 
ATOM     29  C   UNL A   1      43.610  30.379  32.869  1.00  0.00     0.029 A 
ATOM     30  N   UNL A   1      44.595  28.433  32.644  1.00  0.00    -0.354 N 
ATOM     31  N   UNL A   1      44.963  26.643  28.725  1.00  0.00    -0.248 NA
ATOM     32  C   UNL A   1      44.091  25.045  30.179  1.00  0.00     0.031 C 
ATOM     33  C   UNL A   1      44.484  30.410  31.743  1.00  0.00     0.029 A 
ATOM     34  C   UNL A   1      44.870  29.097  31.476  1.00  0.00     0.049 A 
ATOM     35  H   UNL A   1      45.093  27.672  33.017  1.00  0.00     0.167 HD
ATOM     36  C   UNL A   1      45.119  27.117  30.016  1.00  0.00     0.074 A 
ATOM     37  C   UNL A   1      44.669  26.027  30.875  1.00  0.00     0.031 C 
ATOM     38  C   UNL A   1      45.327  28.445  30.265  1.00  0.00     0.034 A 
BRANCH  25  39
ATOM     39  C   UNL A   1      42.668  27.149  34.769  1.00  0.00     0.023 A 
ATOM     40  C   UNL A   1      43.505  26.076  34.405  1.00  0.00     0.031 A 
ATOM     41  C   UNL A   1      41.916  26.954  35.949  1.00  0.00     0.131 A 
ATOM     42  C   UNL A   1      43.445  24.844  35.077  1.00  0.00     0.055 A 
ATOM     43  C   UNL A   1      41.928  25.753  36.670  1.00  0.00     0.041 A 
ATOM     44  F   UNL A   1      41.068  27.868  36.432  1.00  0.00    -0.206 F 
ATOM     45  C   UNL A   1      42.658  24.673  36.209  1.00  0.00     0.022 A 
BRANCH  42  46
ATOM     46  S   UNL A   1      44.224  23.410  34.289  1.00  0.00     0.124 S 
ATOM     47  O   UNL A   1      44.454  22.540  35.439  1.00  0.00    -0.237 OA
ATOM     48  O   UNL A   1      43.188  22.984  33.354  1.00  0.00    -0.237 OA
ATOM     49  O   UNL A   1      45.427  23.972  33.679  1.00  0.00    -0.744 OA
ENDBRANCH  42  46
ENDBRANCH  25  39
BRANCH  26  50
ATOM     50  C   UNL A   1      43.103  23.871  27.194  1.00  0.00     0.023 A 
ATOM     51  C   UNL A   1      43.906  23.510  26.096  1.00  0.00     0.031 A 
ATOM     52  C   UNL A   1      42.367  22.832  27.813  1.00  0.00     0.131 A 
ATOM     53  C   UNL A   1      43.933  22.170  25.648  1.00  0.00     0.055 A 
ATOM     54  C   UNL A   1      42.380  21.516  27.353  1.00  0.00     0.041 A 
ATOM     55  F   UNL A   1      41.673  23.047  28.942  1.00  0.00    -0.206 F 
ATOM     56  C   UNL A   1      43.170  21.177  26.268  1.00  0.00     0.022 A 
BRANCH  53  57
ATOM     57  S   UNL A   1      45.061  21.674  24.309  1.00  0.00     0.124 S 
ATOM     58  O   UNL A   1      46.358  21.685  24.975  1.00  0.00    -0.237 OA
ATOM     59  O   UNL A   1      44.539  20.368  23.925  1.00  0.00    -0.237 OA
ATOM     60  O   UNL A   1      44.878  22.722  23.304  1.00  0.00    -0.744 OA
ENDBRANCH  53  57
ENDBRANCH  26  50
BRANCH  38  61
ATOM     61  C   UNL A   1      45.787  29.341  29.139  1.00  0.00     0.023 A 
ATOM     62  C   UNL A   1      44.932  30.139  28.351  1.00  0.00     0.031 A 
ATOM     63  C   UNL A   1      47.175  29.480  28.945  1.00  0.00     0.131 A 
ATOM     64  C   UNL A   1      45.473  31.024  27.400  1.00  0.00     0.055 A 
ATOM     65  C   UNL A   1      47.708  30.373  28.015  1.00  0.00     0.041 A 
ATOM     66  F   UNL A   1      48.043  28.773  29.688  1.00  0.00    -0.206 F 
ATOM     67  C   UNL A   1      46.856  31.145  27.234  1.00  0.00     0.022 A 
BRANCH  64  68
ATOM     68  S   UNL A   1      44.378  32.035  26.356  1.00  0.00     0.124 S 
ATOM     69  O   UNL A   1      45.240  32.452  25.257  1.00  0.00    -0.237 OA
ATOM     70  O   UNL A   1      43.314  31.093  26.016  1.00  0.00    -0.237 OA
ATOM     71  O   UNL A   1      43.964  33.120  27.248  1.00  0.00    -0.744 OA
ENDBRANCH  64  68
ENDBRANCH  38  61
ENDBRANCH  12  13
ENDBRANCH   5   7
ENDBRANCH   2   3
ENDBRANCH   1   2
BRANCH   1  72
ATOM     72  C   UNL A   1      32.353  27.344  26.491  1.00  0.00     0.117 C 
BRANCH  72  73
ATOM     73  N   UNL A   1      31.127  26.620  26.780  1.00  0.00    -0.354 N 
ATOM     74  C   UNL A   1      30.340  25.886  25.937  1.00  0.00     0.247 C 
ATOM     75  H   UNL A   1      30.819  26.664  27.714  1.00  0.00     0.163 HD
ATOM     76  O   UNL A   1      29.521  25.119  26.457  1.00  0.00    -0.272 OA
BRANCH  74  77
ATOM     77  C   UNL A   1      30.504  25.945  24.394  1.00  0.00     0.202 C 
BRANCH  77  78
ATOM     78  N   UNL A   1      30.356  24.605  23.809  1.00  0.00    -0.335 N 
ATOM     79  C   UNL A   1      31.188  23.574  23.472  1.00  0.00     0.274 C 
ATOM     80  H   UNL A   1      29.415  24.397  23.607  1.00  0.00     0.165 HD
ATOM     81  O   UNL A   1      30.657  22.523  23.106  1.00  0.00    -0.267 OA
BRANCH  79  82
ATOM     82  C   UNL A   1      32.616  23.723  23.598  1.00  0.00     0.170 A 
ATOM     83  C   UNL A   1      33.381  23.490  24.722  1.00  0.00     0.145 A 
ATOM     84  N   UNL A   1      33.419  24.192  22.595  1.00  0.00    -0.125 NA
ATOM     85  N   UNL A   1      34.628  23.939  24.372  1.00  0.00    -0.247 N 
ATOM     86  N   UNL A   1      34.645  24.337  23.081  1.00  0.00    -0.066 NA
BRANCH  85  87
ATOM     87  C   UNL A   1      35.626  24.463  25.294  1.00  0.00     0.181 C 
BRANCH  87  88
ATOM     88  C   UNL A   1      36.765  23.552  25.650  1.00  0.00    -0.026 A 
ATOM     89  C   UNL A   1      37.862  24.087  26.350  1.00  0.00     0.005 A 
ATOM     90  C   UNL A   1      36.856  22.246  25.155  1.00  0.00     0.005 A 
ATOM     91  C   UNL A   1      39.021  23.338  26.544  1.00  0.00     0.000 A 
ATOM     92  C   UNL A   1      38.018  21.496  25.352  1.00  0.00     0.000 A 
ATOM     93  C   UNL A   1      39.102  22.044  26.037  1.00  0.00     0.000 A 
ENDBRANCH  87  88
ENDBRANCH  85  87
ENDBRANCH  79  82
ENDBRANCH  77  78
BRANCH  77  94
ATOM     94  C   UNL A   1      29.853  27.155  23.744  1.00  0.00    -0.013 A 
ATOM     95  C   UNL A   1      30.593  28.186  23.133  1.00  0.00     0.009 A 
ATOM     96  C   UNL A   1      28.451  27.259  23.715  1.00  0.00     0.048 A 
ATOM     97  C   UNL A   1      29.970  29.292  22.547  1.00  0.00     0.043 A 
ATOM     98  C   UNL A   1      27.834  28.356  23.115  1.00  0.00     0.159 A 
ATOM     99  C   UNL A   1      28.589  29.369  22.539  1.00  0.00     0.158 A 
ATOM    100  F   UNL A   1      26.496  28.449  23.142  1.00  0.00    -0.204 F 
ATOM    101  F   UNL A   1      27.987  30.440  22.005  1.00  0.00    -0.204 F 
ENDBRANCH  77  94
ENDBRANCH  74  77
ENDBRANCH  72  73
ENDBRANCH   1  72
TORSDOF 18
ENDMDL
MODEL 2
REMARK VINA RESULT:     -13.3      3.895      9.636
REMARK SMILES O=C(NCCCNC(=O)[C@@H](NC(=O)c1cn(Cc2ccccc2)nn1)c1ccc(F)c(F)c1)c1ccc(-c2c3nc(c(-c4cc(S(=O)(=O)[O-])ccc4F)c4ccc([nH]4)c(-c4cc(S(=O)(=O)[O-])ccc4F)c4nc(c(-c5cc(S(=O)(=O)[O-])ccc5F)c5ccc2[nH]5)C=C4)C=C3)cc1
REMARK SMILES IDX 5 1 4 2 3 3 1 4 2 5 34 7 35 8 96 9 36 10 95 11 37 12 38 13
REMARK SMILES IDX 39 14 89 15 40 16 94 17 88 18 90 19 41 20 93 21 87 22 86 23
REMARK SMILES IDX 42 25 74 26 54 27 73 28 55 29 58 30 72 31 91 32 56 33 57 34
REMARK SMILES IDX 71 36 92 37 59 38 43 39 44 40 52 41 45 42 51 43 53 44 50 45
REMARK SMILES IDX 46 46 47 47 48 48 49 49 75 50 76 51 84 52 77 53 83 54 85 55
REMARK SMILES IDX 82 56 78 57 79 58 80 59 81 60 60 61 61 62 69 63 62 64 68 65
REMARK SMILES IDX 70 66 67 67 63 68 64 69 65 70 66 71 6 72 7 73 8 74 9 76
REMARK SMILES IDX 10 77 11 78 12 79 13 81 14 82 15 83 25 84 16 85 24 86 17 87
REMARK SMILES IDX 18 88 19 89 23 90 20 91 22 92 21 93 26 94 27 95 33 96 28 97
REMARK SMILES IDX 31 98 29 99 32 100 30 101
REMARK H PARENT 3 6 90 24 58 35 7 75 11 80
REMARK Flexibility Score: inf
ROOT
ATOM      1  C   UNL A   1      37.307  21.712  24.874  1.00  0.00     0.042 C 
ENDROOT
BRANCH   1   2
ATOM      2  C   UNL A   1      38.067  22.708  25.752  1.00  0.00     0.118 C 
BRANCH   2   3
ATOM      3  N   UNL A   1      39.356  22.255  26.244  1.00  0.00    -0.352 N 
ATOM      4  O   UNL A   1      41.256  22.022  27.337  1.00  0.00    -0.269 OA
ATOM      5  C   UNL A   1      40.339  22.790  27.034  1.00  0.00     0.251 C 
ATOM      6  H   UNL A   1      39.577  21.347  25.936  1.00  0.00     0.163 HD
BRANCH   5   7
ATOM      7  C   UNL A   1      40.395  24.203  27.504  1.00  0.00     0.039 A 
ATOM      8  C   UNL A   1      39.520  25.214  27.115  1.00  0.00     0.014 A 
ATOM      9  C   UNL A   1      41.432  24.530  28.399  1.00  0.00     0.014 A 
ATOM     10  C   UNL A   1      39.719  26.528  27.528  1.00  0.00     0.010 A 
ATOM     11  C   UNL A   1      41.611  25.838  28.854  1.00  0.00     0.010 A 
ATOM     12  C   UNL A   1      40.765  26.845  28.395  1.00  0.00    -0.014 A 
BRANCH  12  13
ATOM     13  C   UNL A   1      40.812  28.213  28.913  1.00  0.00     0.031 A 
ATOM     14  C   UNL A   1      41.910  29.068  28.372  1.00  0.00     0.074 A 
ATOM     15  C   UNL A   1      39.871  28.775  29.694  1.00  0.00     0.049 A 
ATOM     16  N   UNL A   1      42.841  29.694  29.018  1.00  0.00    -0.248 NA
ATOM     17  C   UNL A   1      42.026  29.171  26.911  1.00  0.00     0.031 C 
ATOM     18  C   UNL A   1      38.574  28.212  30.065  1.00  0.00     0.029 A 
ATOM     19  N   UNL A   1      39.836  30.036  30.220  1.00  0.00    -0.354 N 
ATOM     20  C   UNL A   1      43.540  30.437  28.067  1.00  0.00     0.074 A 
ATOM     21  C   UNL A   1      43.090  29.964  26.786  1.00  0.00     0.031 C 
ATOM     22  C   UNL A   1      37.793  29.201  30.552  1.00  0.00     0.029 A 
ATOM     23  C   UNL A   1      38.571  30.427  30.637  1.00  0.00     0.049 A 
ATOM     24  H   UNL A   1      40.631  30.612  30.296  1.00  0.00     0.167 HD
ATOM     25  C   UNL A   1      44.302  31.515  28.410  1.00  0.00     0.034 A 
ATOM     26  C   UNL A   1      38.159  31.682  30.946  1.00  0.00     0.034 A 
ATOM     27  C   UNL A   1      44.655  31.486  29.812  1.00  0.00     0.049 A 
ATOM     28  C   UNL A   1      39.353  32.488  31.292  1.00  0.00     0.074 A 
ATOM     29  C   UNL A   1      45.296  30.576  30.634  1.00  0.00     0.029 A 
ATOM     30  N   UNL A   1      44.074  32.395  30.669  1.00  0.00    -0.354 N 
ATOM     31  N   UNL A   1      40.091  32.283  32.348  1.00  0.00    -0.248 NA
ATOM     32  C   UNL A   1      39.973  33.303  30.257  1.00  0.00     0.031 C 
ATOM     33  C   UNL A   1      44.653  30.696  31.900  1.00  0.00     0.029 A 
ATOM     34  C   UNL A   1      43.688  31.697  31.784  1.00  0.00     0.049 A 
ATOM     35  H   UNL A   1      43.960  33.358  30.512  1.00  0.00     0.167 HD
ATOM     36  C   UNL A   1      41.383  32.577  31.949  1.00  0.00     0.074 A 
ATOM     37  C   UNL A   1      41.233  33.317  30.701  1.00  0.00     0.031 C 
ATOM     38  C   UNL A   1      42.461  31.951  32.512  1.00  0.00     0.034 A 
BRANCH  25  39
ATOM     39  C   UNL A   1      44.449  32.775  27.572  1.00  0.00     0.023 A 
ATOM     40  C   UNL A   1      43.782  33.928  28.032  1.00  0.00     0.031 A 
ATOM     41  C   UNL A   1      44.915  32.840  26.240  1.00  0.00     0.131 A 
ATOM     42  C   UNL A   1      43.455  34.979  27.158  1.00  0.00     0.055 A 
ATOM     43  C   UNL A   1      44.666  33.930  25.398  1.00  0.00     0.041 A 
ATOM     44  F   UNL A   1      45.562  31.832  25.645  1.00  0.00    -0.206 F 
ATOM     45  C   UNL A   1      43.891  34.987  25.839  1.00  0.00     0.022 A 
BRANCH  42  46
ATOM     46  S   UNL A   1      42.241  36.202  27.720  1.00  0.00     0.124 S 
ATOM     47  O   UNL A   1      41.003  35.432  27.645  1.00  0.00    -0.237 OA
ATOM     48  O   UNL A   1      42.729  36.512  29.060  1.00  0.00    -0.237 OA
ATOM     49  O   UNL A   1      42.369  37.278  26.741  1.00  0.00    -0.744 OA
ENDBRANCH  42  46
ENDBRANCH  25  39
BRANCH  26  50
ATOM     50  C   UNL A   1      36.813  32.260  30.692  1.00  0.00     0.023 A 
ATOM     51  C   UNL A   1      35.998  32.767  31.722  1.00  0.00     0.031 A 
ATOM     52  C   UNL A   1      36.391  32.510  29.365  1.00  0.00     0.131 A 
ATOM     53  C   UNL A   1      34.812  33.467  31.406  1.00  0.00     0.055 A 
ATOM     54  C   UNL A   1      35.208  33.182  29.060  1.00  0.00     0.041 A 
ATOM     55  F   UNL A   1      37.160  32.182  28.315  1.00  0.00    -0.206 F 
ATOM     56  C   UNL A   1      34.413  33.670  30.083  1.00  0.00     0.022 A 
BRANCH  53  57
ATOM     57  S   UNL A   1      33.819  34.230  32.727  1.00  0.00     0.124 S 
ATOM     58  O   UNL A   1      33.150  33.078  33.318  1.00  0.00    -0.237 OA
ATOM     59  O   UNL A   1      34.833  34.884  33.546  1.00  0.00    -0.237 OA
ATOM     60  O   UNL A   1      32.937  35.148  32.003  1.00  0.00    -0.744 OA
ENDBRANCH  53  57
ENDBRANCH  26  50
BRANCH  38  61
ATOM     61  C   UNL A   1      42.291  31.241  33.835  1.00  0.00     0.023 A 
ATOM     62  C   UNL A   1      42.071  29.855  33.976  1.00  0.00     0.031 A 
ATOM     63  C   UNL A   1      42.485  31.995  35.007  1.00  0.00     0.131 A 
ATOM     64  C   UNL A   1      42.038  29.275  35.257  1.00  0.00     0.055 A 
ATOM     65  C   UNL A   1      42.471  31.413  36.274  1.00  0.00     0.041 A 
ATOM     66  F   UNL A   1      42.732  33.314  34.938  1.00  0.00    -0.206 F 
ATOM     67  C   UNL A   1      42.241  30.049  36.404  1.00  0.00     0.022 A 
BRANCH  64  68
ATOM     68  S   UNL A   1      41.724  27.493  35.452  1.00  0.00     0.124 S 
ATOM     69  O   UNL A   1      40.767  27.195  34.393  1.00  0.00    -0.237 OA
ATOM     70  O   UNL A   1      43.058  26.921  35.292  1.00  0.00    -0.237 OA
ATOM     71  O   UNL A   1      41.179  27.390  36.808  1.00  0.00    -0.744 OA
ENDBRANCH  64  68
ENDBRANCH  38  61
ENDBRANCH  12  13
ENDBRANCH   5   7
ENDBRANCH   2   3
ENDBRANCH   1   2
BRANCH   1  72
ATOM     72  C   UNL A   1      36.024  22.259  24.276  1.00  0.00     0.117 C 
BRANCH  72  73
ATOM     73  N   UNL A   1      35.003  22.539  25.271  1.00  0.00    -0.354 N 
ATOM     74  C   UNL A   1      33.684  22.182  25.276  1.00  0.00     0.247 C 
ATOM     75  H   UNL A   1      35.304  23.057  26.052  1.00  0.00     0.163 HD
ATOM     76  O   UNL A   1      33.083  22.267  26.354  1.00  0.00    -0.272 OA
BRANCH  74  77
ATOM     77  C   UNL A   1      32.973  21.626  24.013  1.00  0.00     0.202 C 
BRANCH  77  78
ATOM     78  N   UNL A   1      33.135  22.550  22.882  1.00  0.00    -0.335 N 
ATOM     79  C   UNL A   1      32.878  23.871  22.638  1.00  0.00     0.274 C 
ATOM     80  H   UNL A   1      33.529  22.103  22.099  1.00  0.00     0.165 HD
ATOM     81  O   UNL A   1      33.281  24.330  21.567  1.00  0.00    -0.267 OA
BRANCH  79  82
ATOM     82  C   UNL A   1      32.209  24.676  23.629  1.00  0.00     0.170 A 
ATOM     83  C   UNL A   1      32.749  25.707  24.367  1.00  0.00     0.145 A 
ATOM     84  N   UNL A   1      30.914  24.469  24.023  1.00  0.00    -0.125 NA
ATOM     85  N   UNL A   1      31.766  26.018  25.270  1.00  0.00    -0.247 N 
ATOM     86  N   UNL A   1      30.657  25.283  25.037  1.00  0.00    -0.066 NA
BRANCH  85  87
ATOM     87  C   UNL A   1      31.984  26.582  26.595  1.00  0.00     0.181 C 
BRANCH  87  88
ATOM     88  C   UNL A   1      32.545  27.973  26.657  1.00  0.00    -0.026 A 
ATOM     89  C   UNL A   1      33.935  28.131  26.811  1.00  0.00     0.005 A 
ATOM     90  C   UNL A   1      31.725  29.103  26.751  1.00  0.00     0.005 A 
ATOM     91  C   UNL A   1      34.488  29.387  27.059  1.00  0.00     0.000 A 
ATOM     92  C   UNL A   1      32.282  30.360  26.998  1.00  0.00     0.000 A 
ATOM     93  C   UNL A   1      33.659  30.501  27.160  1.00  0.00     0.000 A 
ENDBRANCH  87  88
ENDBRANCH  85  87
ENDBRANCH  79  82
ENDBRANCH  77  78
BRANCH  77  94
ATOM     94  C   UNL A   1      33.126  20.127  23.821  1.00  0.00    -0.013 A 
ATOM     95  C   UNL A   1      32.317  19.381  22.941  1.00  0.00     0.009 A 
ATOM     96  C   UNL A   1      34.130  19.434  24.522  1.00  0.00     0.048 A 
ATOM     97  C   UNL A   1      32.475  18.000  22.788  1.00  0.00     0.043 A 
ATOM     98  C   UNL A   1      34.293  18.059  24.353  1.00  0.00     0.159 A 
ATOM     99  C   UNL A   1      33.468  17.346  23.495  1.00  0.00     0.158 A 
ATOM    100  F   UNL A   1      35.230  17.420  25.068  1.00  0.00    -0.204 F 
ATOM    101  F   UNL A   1      33.604  16.019  23.373  1.00  0.00    -0.204 F 
ENDBRANCH  77  94
ENDBRANCH  74  77
ENDBRANCH  72  73
ENDBRANCH   1  72
TORSDOF 18
ENDMDL
MODEL 3
REMARK VINA RESULT:     -13.1      3.454      9.327
REMARK SMILES O=C(NCCCNC(=O)[C@@H](NC(=O)c1cn(Cc2ccccc2)nn1)c1ccc(F)c(F)c1)c1ccc(-c2c3nc(c(-c4cc(S(=O)(=O)[O-])ccc4F)c4ccc([nH]4)c(-c4cc(S(=O)(=O)[O-])ccc4F)c4nc(c(-c5cc(S(=O)(=O)[O-])ccc5F)c5ccc2[nH]5)C=C4)C=C3)cc1
REMARK SMILES IDX 5 1 4 2 3 3 1 4 2 5 34 7 35 8 96 9 36 10 95 11 37 12 38 13
REMARK SMILES IDX 39 14 89 15 40 16 94 17 88 18 90 19 41 20 93 21 87 22 86 23
REMARK SMILES IDX 42 25 74 26 54 27 73 28 55 29 58 30 72 31 91 32 56 33 57 34
REMARK SMILES IDX 71 36 92 37 59 38 43 39 44 40 52 41 45 42 51 43 53 44 50 45
REMARK SMILES IDX 46 46 47 47 48 48 49 49 75 50 76 51 84 52 77 53 83 54 85 55
REMARK SMILES IDX 82 56 78 57 79 58 80 59 81 60 60 61 61 62 69 63 62 64 68 65
REMARK SMILES IDX 70 66 67 67 63 68 64 69 65 70 66 71 6 72 7 73 8 74 9 76
REMARK SMILES IDX 10 77 11 78 12 79 13 81 14 82 15 83 25 84 16 85 24 86 17 87
REMARK SMILES IDX 18 88 19 89 23 90 20 91 22 92 21 93 26 94 27 95 33 96 28 97
REMARK SMILES IDX 31 98 29 99 32 100 30 101
REMARK H PARENT 3 6 90 24 58 35 7 75 11 80
REMARK Flexibility Score: inf
ROOT
ATOM      1  C   UNL A   1      36.655  22.508  26.068  1.00  0.00     0.042 C 
ENDROOT
BRANCH   1   2
ATOM      2  C   UNL A   1      37.972  23.071  25.531  1.00  0.00     0.118 C 
BRANCH   2   3
ATOM      3  N   UNL A   1      39.178  22.446  26.043  1.00  0.00    -0.352 N 
ATOM      4  O   UNL A   1      40.981  21.927  27.201  1.00  0.00    -0.269 OA
ATOM      5  C   UNL A   1      40.166  22.810  26.920  1.00  0.00     0.251 C 
ATOM      6  H   UNL A   1      39.321  21.545  25.672  1.00  0.00     0.163 HD
BRANCH   5   7
ATOM      7  C   UNL A   1      40.342  24.168  27.507  1.00  0.00     0.039 A 
ATOM      8  C   UNL A   1      41.494  24.626  28.142  1.00  0.00     0.014 A 
ATOM      9  C   UNL A   1      39.239  25.040  27.422  1.00  0.00     0.014 A 
ATOM     10  C   UNL A   1      41.523  25.876  28.753  1.00  0.00     0.010 A 
ATOM     11  C   UNL A   1      39.277  26.314  27.993  1.00  0.00     0.010 A 
ATOM     12  C   UNL A   1      40.416  26.722  28.683  1.00  0.00    -0.014 A 
BRANCH  12  13
ATOM     13  C   UNL A   1      40.578  28.079  29.206  1.00  0.00     0.031 A 
ATOM     14  C   UNL A   1      41.667  28.884  28.580  1.00  0.00     0.074 A 
ATOM     15  C   UNL A   1      39.739  28.678  30.072  1.00  0.00     0.049 A 
ATOM     16  N   UNL A   1      42.681  29.454  29.147  1.00  0.00    -0.248 NA
ATOM     17  C   UNL A   1      41.661  29.001  27.115  1.00  0.00     0.031 C 
ATOM     18  C   UNL A   1      38.451  28.175  30.549  1.00  0.00     0.029 A 
ATOM     19  N   UNL A   1      39.814  29.931  30.610  1.00  0.00    -0.354 N 
ATOM     20  C   UNL A   1      43.333  30.174  28.145  1.00  0.00     0.074 A 
ATOM     21  C   UNL A   1      42.750  29.741  26.904  1.00  0.00     0.031 C 
ATOM     22  C   UNL A   1      37.767  29.196  31.112  1.00  0.00     0.029 A 
ATOM     23  C   UNL A   1      38.611  30.380  31.139  1.00  0.00     0.049 A 
ATOM     24  H   UNL A   1      40.641  30.466  30.621  1.00  0.00     0.167 HD
ATOM     25  C   UNL A   1      44.176  31.207  28.430  1.00  0.00     0.034 A 
ATOM     26  C   UNL A   1      38.293  31.650  31.495  1.00  0.00     0.034 A 
ATOM     27  C   UNL A   1      44.647  31.142  29.796  1.00  0.00     0.049 A 
ATOM     28  C   UNL A   1      39.552  32.390  31.742  1.00  0.00     0.074 A 
ATOM     29  C   UNL A   1      45.310  30.189  30.550  1.00  0.00     0.029 A 
ATOM     30  N   UNL A   1      44.191  32.067  30.708  1.00  0.00    -0.354 N 
ATOM     31  N   UNL A   1      40.367  32.134  32.728  1.00  0.00    -0.248 NA
ATOM     32  C   UNL A   1      40.121  33.186  30.664  1.00  0.00     0.031 C 
ATOM     33  C   UNL A   1      44.786  30.325  31.868  1.00  0.00     0.029 A 
ATOM     34  C   UNL A   1      43.867  31.375  31.846  1.00  0.00     0.049 A 
ATOM     35  H   UNL A   1      44.113  33.037  30.570  1.00  0.00     0.167 HD
ATOM     36  C   UNL A   1      41.634  32.368  32.220  1.00  0.00     0.074 A 
ATOM     37  C   UNL A   1      41.414  33.131  30.996  1.00  0.00     0.031 C 
ATOM     38  C   UNL A   1      42.723  31.681  32.681  1.00  0.00     0.034 A 
BRANCH  25  39
ATOM     39  C   UNL A   1      44.314  32.470  27.593  1.00  0.00     0.023 A 
ATOM     40  C   UNL A   1      43.741  33.646  28.116  1.00  0.00     0.031 A 
ATOM     41  C   UNL A   1      44.675  32.529  26.228  1.00  0.00     0.131 A 
ATOM     42  C   UNL A   1      43.395  34.721  27.280  1.00  0.00     0.055 A 
ATOM     43  C   UNL A   1      44.410  33.640  25.419  1.00  0.00     0.041 A 
ATOM     44  F   UNL A   1      45.224  31.500  25.575  1.00  0.00    -0.206 F 
ATOM     45  C   UNL A   1      43.723  34.726  25.930  1.00  0.00     0.022 A 
BRANCH  42  46
ATOM     46  S   UNL A   1      42.288  35.992  27.948  1.00  0.00     0.124 S 
ATOM     47  O   UNL A   1      42.537  37.100  27.031  1.00  0.00    -0.237 OA
ATOM     48  O   UNL A   1      40.987  35.342  27.837  1.00  0.00    -0.237 OA
ATOM     49  O   UNL A   1      42.780  36.184  29.310  1.00  0.00    -0.744 OA
ENDBRANCH  42  46
ENDBRANCH  25  39
BRANCH  26  50
ATOM     50  C   UNL A   1      36.962  32.299  31.364  1.00  0.00     0.023 A 
ATOM     51  C   UNL A   1      36.378  32.588  30.116  1.00  0.00     0.031 A 
ATOM     52  C   UNL A   1      36.139  32.459  32.504  1.00  0.00     0.131 A 
ATOM     53  C   UNL A   1      35.039  33.035  30.048  1.00  0.00     0.055 A 
ATOM     54  C   UNL A   1      34.826  32.923  32.433  1.00  0.00     0.041 A 
ATOM     55  F   UNL A   1      36.559  32.090  33.725  1.00  0.00    -0.206 F 
ATOM     56  C   UNL A   1      34.267  33.209  31.199  1.00  0.00     0.022 A 
BRANCH  53  57
ATOM     57  S   UNL A   1      34.240  33.292  28.433  1.00  0.00     0.124 S 
ATOM     58  O   UNL A   1      33.202  34.265  28.751  1.00  0.00    -0.237 OA
ATOM     59  O   UNL A   1      35.344  33.766  27.607  1.00  0.00    -0.237 OA
ATOM     60  O   UNL A   1      33.746  31.959  28.082  1.00  0.00    -0.744 OA
ENDBRANCH  53  57
ENDBRANCH  26  50
BRANCH  38  61
ATOM     61  C   UNL A   1      42.632  30.963  34.007  1.00  0.00     0.023 A 
ATOM     62  C   UNL A   1      42.256  29.612  34.161  1.00  0.00     0.031 A 
ATOM     63  C   UNL A   1      43.068  31.655  35.152  1.00  0.00     0.131 A 
ATOM     64  C   UNL A   1      42.311  29.007  35.430  1.00  0.00     0.055 A 
ATOM     65  C   UNL A   1      43.140  31.046  36.404  1.00  0.00     0.041 A 
ATOM     66  F   UNL A   1      43.471  32.934  35.066  1.00  0.00    -0.206 F 
ATOM     67  C   UNL A   1      42.755  29.718  36.549  1.00  0.00     0.022 A 
BRANCH  64  68
ATOM     68  S   UNL A   1      41.799  27.274  35.645  1.00  0.00     0.124 S 
ATOM     69  O   UNL A   1      43.058  26.539  35.625  1.00  0.00    -0.237 OA
ATOM     70  O   UNL A   1      41.098  27.312  36.926  1.00  0.00    -0.237 OA
ATOM     71  O   UNL A   1      40.935  27.029  34.488  1.00  0.00    -0.744 OA
ENDBRANCH  64  68
ENDBRANCH  38  61
ENDBRANCH  12  13
ENDBRANCH   5   7
ENDBRANCH   2   3
ENDBRANCH   1   2
BRANCH   1  72
ATOM     72  C   UNL A   1      35.554  23.540  26.229  1.00  0.00     0.117 C 
BRANCH  72  73
ATOM     73  N   UNL A   1      34.291  23.125  25.643  1.00  0.00    -0.354 N 
ATOM     74  C   UNL A   1      33.548  23.738  24.674  1.00  0.00     0.247 C 
ATOM     75  H   UNL A   1      33.918  22.284  25.992  1.00  0.00     0.163 HD
ATOM     76  O   UNL A   1      32.672  23.059  24.123  1.00  0.00    -0.272 OA
BRANCH  74  77
ATOM     77  C   UNL A   1      33.823  25.198  24.221  1.00  0.00     0.202 C 
BRANCH  77  78
ATOM     78  N   UNL A   1      33.655  25.326  22.767  1.00  0.00    -0.335 N 
ATOM     79  C   UNL A   1      32.934  26.121  21.920  1.00  0.00     0.274 C 
ATOM     80  H   UNL A   1      34.202  24.671  22.277  1.00  0.00     0.165 HD
ATOM     81  O   UNL A   1      33.162  26.004  20.714  1.00  0.00    -0.267 OA
BRANCH  79  82
ATOM     82  C   UNL A   1      31.995  27.079  22.446  1.00  0.00     0.170 A 
ATOM     83  C   UNL A   1      30.696  26.841  22.842  1.00  0.00     0.145 A 
ATOM     84  N   UNL A   1      32.266  28.415  22.568  1.00  0.00    -0.125 NA
ATOM     85  N   UNL A   1      30.193  28.091  23.094  1.00  0.00    -0.247 N 
ATOM     86  N   UNL A   1      31.154  29.029  22.949  1.00  0.00    -0.066 NA
BRANCH  85  87
ATOM     87  C   UNL A   1      28.793  28.478  22.973  1.00  0.00     0.181 C 
BRANCH  87  88
ATOM     88  C   UNL A   1      28.512  29.917  22.648  1.00  0.00    -0.026 A 
ATOM     89  C   UNL A   1      28.293  30.271  21.304  1.00  0.00     0.005 A 
ATOM     90  C   UNL A   1      28.642  30.934  23.600  1.00  0.00     0.005 A 
ATOM     91  C   UNL A   1      28.211  31.610  20.922  1.00  0.00     0.000 A 
ATOM     92  C   UNL A   1      28.558  32.274  23.215  1.00  0.00     0.000 A 
ATOM     93  C   UNL A   1      28.352  32.612  21.878  1.00  0.00     0.000 A 
ENDBRANCH  87  88
ENDBRANCH  85  87
ENDBRANCH  79  82
ENDBRANCH  77  78
BRANCH  77  94
ATOM     94  C   UNL A   1      33.278  26.257  25.165  1.00  0.00    -0.013 A 
ATOM     95  C   UNL A   1      32.061  26.110  25.859  1.00  0.00     0.009 A 
ATOM     96  C   UNL A   1      34.016  27.433  25.391  1.00  0.00     0.048 A 
ATOM     97  C   UNL A   1      31.578  27.104  26.716  1.00  0.00     0.043 A 
ATOM     98  C   UNL A   1      33.538  28.413  26.260  1.00  0.00     0.159 A 
ATOM     99  C   UNL A   1      32.324  28.252  26.915  1.00  0.00     0.158 A 
ATOM    100  F   UNL A   1      34.243  29.542  26.422  1.00  0.00    -0.204 F 
ATOM    101  F   UNL A   1      31.853  29.220  27.713  1.00  0.00    -0.204 F 
ENDBRANCH  77  94
ENDBRANCH  74  77
ENDBRANCH  72  73
ENDBRANCH   1  72
TORSDOF 18
ENDMDL
