MODEL 1
REMARK VINA RESULT:     -12.5      0.000      0.000
REMARK SMILES O=C(C[C@@H](C(=O)NCCCNC(=O)c1ccc(-c2c3nc(c(-c4cc(S(=O)(=O)[O-])ccc4F)c4ccc([nH]4)c(-c4cc(S(=O)(=O)[O-])ccc4F)c4nc(c(-c5cc(S(=O)(=O)[O-])ccc5F)c5ccc2[nH]5)C=C4)C=C3)cc1)[NH+]1CCN(c2cccc(Cl)c2)CC1)c1ccc(F)cc1
REMARK SMILES IDX 9 1 8 2 7 3 5 4 6 5 4 7 3 8 2 9 1 10 90 11 91 12 96 13 92 14
REMARK SMILES IDX 95 15 93 16 94 17 77 18 78 19 89 20 79 22 88 23 80 24 81 25
REMARK SMILES IDX 82 26 87 27 83 28 85 29 84 30 86 31 10 32 11 33 12 34 13 36
REMARK SMILES IDX 14 37 15 38 76 39 16 40 75 41 17 42 18 43 19 44 69 45 20 46
REMARK SMILES IDX 74 47 68 48 70 49 21 50 73 51 67 52 66 53 22 55 54 56 34 57
REMARK SMILES IDX 53 58 35 59 38 60 52 61 71 62 36 63 37 64 51 66 72 67 39 68
REMARK SMILES IDX 23 69 24 70 32 71 25 72 31 73 33 74 30 75 26 76 27 77 28 78
REMARK SMILES IDX 29 79 55 80 56 81 64 82 57 83 63 84 65 85 62 86 58 87 59 88
REMARK SMILES IDX 60 89 61 90 40 91 41 92 49 93 42 94 48 95 50 96 47 97 43 98
REMARK SMILES IDX 44 99 45 100 46 101
REMARK H PARENT 7 6 77 21 11 35 70 54 38 65
REMARK Flexibility Score: inf
ROOT
ATOM      1  C   UNL A   1      31.409  31.819  26.485  1.00  0.00     0.042 C 
ENDROOT
BRANCH   1   2
ATOM      2  C   UNL A   1      31.563  30.447  25.808  1.00  0.00     0.118 C 
BRANCH   2   3
ATOM      3  N   UNL A   1      30.902  30.256  24.526  1.00  0.00    -0.351 N 
ATOM      4  C   UNL A   1      30.541  29.140  23.821  1.00  0.00     0.278 C 
ATOM      5  O   UNL A   1      29.658  29.319  22.971  1.00  0.00    -0.268 OA
ATOM      6  H   UNL A   1      30.669  31.099  24.074  1.00  0.00     0.163 HD
BRANCH   4   7
ATOM      7  C   UNL A   1      31.260  27.758  23.979  1.00  0.00     0.282 C 
BRANCH   7   8
ATOM      8  C   UNL A   1      31.625  27.121  22.630  1.00  0.00     0.156 C 
BRANCH   8   9
ATOM      9  C   UNL A   1      33.049  26.755  22.340  1.00  0.00     0.169 C 
ATOM     10  O   UNL A   1      33.786  27.549  21.759  1.00  0.00    -0.294 OA
BRANCH   9  11
ATOM     11  C   UNL A   1      33.586  25.453  22.846  1.00  0.00     0.018 A 
ATOM     12  C   UNL A   1      33.338  24.231  22.204  1.00  0.00     0.015 A 
ATOM     13  C   UNL A   1      34.421  25.474  23.966  1.00  0.00     0.015 A 
ATOM     14  C   UNL A   1      34.036  23.081  22.568  1.00  0.00     0.040 A 
ATOM     15  C   UNL A   1      35.056  24.303  24.379  1.00  0.00     0.040 A 
ATOM     16  C   UNL A   1      34.903  23.132  23.646  1.00  0.00     0.123 A 
ATOM     17  F   UNL A   1      35.610  22.044  23.973  1.00  0.00    -0.207 F 
ENDBRANCH   9  11
ENDBRANCH   8   9
ENDBRANCH   7   8
BRANCH   7  18
ATOM     18  N   UNL A   1      30.359  26.870  24.794  1.00  0.00    -0.321 N 
ATOM     19  C   UNL A   1      29.923  25.591  24.173  1.00  0.00     0.284 C 
ATOM     20  C   UNL A   1      30.803  26.597  26.171  1.00  0.00     0.284 C 
ATOM     21  H   UNL A   1      29.543  27.482  24.826  1.00  0.00     0.348 HD
ATOM     22  C   UNL A   1      30.909  24.388  24.282  1.00  0.00     0.178 C 
ATOM     23  C   UNL A   1      31.874  25.493  26.323  1.00  0.00     0.178 C 
ATOM     24  N   UNL A   1      31.448  24.268  25.636  1.00  0.00    -0.360 N 
BRANCH  24  25
ATOM     25  C   UNL A   1      32.042  23.066  25.984  1.00  0.00     0.038 A 
ATOM     26  C   UNL A   1      32.904  22.928  27.082  1.00  0.00     0.026 A 
ATOM     27  C   UNL A   1      31.844  21.958  25.153  1.00  0.00     0.046 A 
ATOM     28  C   UNL A   1      33.583  21.727  27.317  1.00  0.00     0.004 A 
ATOM     29  C   UNL A   1      32.535  20.769  25.375  1.00  0.00     0.043 A 
ATOM     30  C   UNL A   1      33.409  20.649  26.451  1.00  0.00     0.020 A 
ATOM     31  Cl  UNL A   1      32.332  19.453  24.284  1.00  0.00    -0.084 Cl
ENDBRANCH  24  25
ENDBRANCH   7  18
ENDBRANCH   4   7
ENDBRANCH   2   3
ENDBRANCH   1   2
BRANCH   1  32
ATOM     32  C   UNL A   1      32.615  32.429  27.211  1.00  0.00     0.118 C 
BRANCH  32  33
ATOM     33  N   UNL A   1      32.429  33.816  27.600  1.00  0.00    -0.352 N 
ATOM     34  C   UNL A   1      33.152  34.579  28.493  1.00  0.00     0.251 C 
ATOM     35  H   UNL A   1      31.678  34.280  27.162  1.00  0.00     0.163 HD
ATOM     36  O   UNL A   1      32.785  35.732  28.726  1.00  0.00    -0.269 OA
BRANCH  34  37
ATOM     37  C   UNL A   1      34.338  34.040  29.205  1.00  0.00     0.039 A 
ATOM     38  C   UNL A   1      34.143  33.260  30.348  1.00  0.00     0.014 A 
ATOM     39  C   UNL A   1      35.639  34.377  28.828  1.00  0.00     0.014 A 
ATOM     40  C   UNL A   1      35.242  32.760  31.067  1.00  0.00     0.010 A 
ATOM     41  C   UNL A   1      36.740  33.854  29.537  1.00  0.00     0.010 A 
ATOM     42  C   UNL A   1      36.560  33.015  30.651  1.00  0.00    -0.014 A 
BRANCH  42  43
ATOM     43  C   UNL A   1      37.728  32.372  31.343  1.00  0.00     0.031 A 
ATOM     44  C   UNL A   1      38.488  31.225  30.718  1.00  0.00     0.074 A 
ATOM     45  C   UNL A   1      38.105  32.803  32.567  1.00  0.00     0.049 A 
ATOM     46  N   UNL A   1      39.493  30.534  31.203  1.00  0.00    -0.248 NA
ATOM     47  C   UNL A   1      38.057  30.791  29.382  1.00  0.00     0.031 C 
ATOM     48  C   UNL A   1      37.465  33.891  33.310  1.00  0.00     0.029 A 
ATOM     49  N   UNL A   1      39.112  32.382  33.408  1.00  0.00    -0.354 N 
ATOM     50  C   UNL A   1      39.818  29.589  30.234  1.00  0.00     0.074 A 
ATOM     51  C   UNL A   1      38.866  29.764  29.156  1.00  0.00     0.031 C 
ATOM     52  C   UNL A   1      38.109  34.069  34.475  1.00  0.00     0.029 A 
ATOM     53  C   UNL A   1      39.172  33.074  34.598  1.00  0.00     0.049 A 
ATOM     54  H   UNL A   1      39.733  31.653  33.179  1.00  0.00     0.167 HD
ATOM     55  C   UNL A   1      40.824  28.675  30.228  1.00  0.00     0.034 A 
ATOM     56  C   UNL A   1      39.967  32.922  35.679  1.00  0.00     0.034 A 
ATOM     57  C   UNL A   1      41.779  28.498  31.300  1.00  0.00     0.049 A 
ATOM     58  C   UNL A   1      41.019  31.838  35.685  1.00  0.00     0.074 A 
ATOM     59  C   UNL A   1      42.862  27.634  31.352  1.00  0.00     0.029 A 
ATOM     60  N   UNL A   1      41.766  29.178  32.509  1.00  0.00    -0.354 N 
ATOM     61  N   UNL A   1      41.333  30.987  34.737  1.00  0.00    -0.248 NA
ATOM     62  C   UNL A   1      41.821  31.692  36.909  1.00  0.00     0.031 C 
ATOM     63  C   UNL A   1      43.451  27.733  32.617  1.00  0.00     0.029 A 
ATOM     64  C   UNL A   1      42.788  28.718  33.329  1.00  0.00     0.049 A 
ATOM     65  H   UNL A   1      41.123  29.884  32.751  1.00  0.00     0.167 HD
ATOM     66  C   UNL A   1      42.386  30.227  35.245  1.00  0.00     0.074 A 
ATOM     67  C   UNL A   1      42.667  30.730  36.571  1.00  0.00     0.031 C 
ATOM     68  C   UNL A   1      43.060  29.205  34.660  1.00  0.00     0.034 A 
BRANCH  55  69
ATOM     69  C   UNL A   1      40.940  27.766  29.026  1.00  0.00     0.023 A 
ATOM     70  C   UNL A   1      41.942  27.949  28.058  1.00  0.00     0.031 A 
ATOM     71  C   UNL A   1      40.055  26.685  28.860  1.00  0.00     0.131 A 
ATOM     72  C   UNL A   1      41.998  27.106  26.938  1.00  0.00     0.055 A 
ATOM     73  C   UNL A   1      40.163  25.803  27.782  1.00  0.00     0.041 A 
ATOM     74  F   UNL A   1      39.071  26.465  29.745  1.00  0.00    -0.206 F 
ATOM     75  C   UNL A   1      41.131  26.018  26.806  1.00  0.00     0.022 A 
BRANCH  72  76
ATOM     76  S   UNL A   1      43.142  27.523  25.594  1.00  0.00     0.124 S 
ATOM     77  O   UNL A   1      42.266  28.248  24.676  1.00  0.00    -0.237 OA
ATOM     78  O   UNL A   1      44.153  28.323  26.278  1.00  0.00    -0.237 OA
ATOM     79  O   UNL A   1      43.597  26.221  25.113  1.00  0.00    -0.744 OA
ENDBRANCH  72  76
ENDBRANCH  55  69
BRANCH  56  80
ATOM     80  C   UNL A   1      39.784  33.785  36.886  1.00  0.00     0.023 A 
ATOM     81  C   UNL A   1      40.635  34.875  37.133  1.00  0.00     0.031 A 
ATOM     82  C   UNL A   1      38.808  33.481  37.852  1.00  0.00     0.131 A 
ATOM     83  C   UNL A   1      40.529  35.586  38.339  1.00  0.00     0.055 A 
ATOM     84  C   UNL A   1      38.664  34.233  39.019  1.00  0.00     0.041 A 
ATOM     85  F   UNL A   1      37.973  32.444  37.672  1.00  0.00    -0.206 F 
ATOM     86  C   UNL A   1      39.539  35.282  39.275  1.00  0.00     0.022 A 
BRANCH  83  87
ATOM     87  S   UNL A   1      41.782  36.842  38.720  1.00  0.00     0.124 S 
ATOM     88  O   UNL A   1      40.960  37.941  39.209  1.00  0.00    -0.237 OA
ATOM     89  O   UNL A   1      42.602  36.159  39.716  1.00  0.00    -0.237 OA
ATOM     90  O   UNL A   1      42.433  37.073  37.432  1.00  0.00    -0.744 OA
ENDBRANCH  83  87
ENDBRANCH  56  80
BRANCH  68  91
ATOM     91  C   UNL A   1      44.190  28.578  35.443  1.00  0.00     0.023 A 
ATOM     92  C   UNL A   1      43.974  27.498  36.317  1.00  0.00     0.031 A 
ATOM     93  C   UNL A   1      45.503  29.066  35.311  1.00  0.00     0.131 A 
ATOM     94  C   UNL A   1      45.045  26.969  37.056  1.00  0.00     0.055 A 
ATOM     95  C   UNL A   1      46.573  28.501  36.007  1.00  0.00     0.041 A 
ATOM     96  F   UNL A   1      45.769  30.099  34.494  1.00  0.00    -0.206 F 
ATOM     97  C   UNL A   1      46.345  27.453  36.893  1.00  0.00     0.022 A 
BRANCH  94  98
ATOM     98  S   UNL A   1      44.705  25.681  38.288  1.00  0.00     0.124 S 
ATOM     99  O   UNL A   1      43.646  24.913  37.641  1.00  0.00    -0.237 OA
ATOM    100  O   UNL A   1      45.996  25.011  38.407  1.00  0.00    -0.237 OA
ATOM    101  O   UNL A   1      44.290  26.436  39.469  1.00  0.00    -0.744 OA
ENDBRANCH  94  98
ENDBRANCH  68  91
ENDBRANCH  42  43
ENDBRANCH  34  37
ENDBRANCH  32  33
ENDBRANCH   1  32
TORSDOF 18
ENDMDL
MODEL 2
REMARK VINA RESULT:     -12.5      3.094      4.261
REMARK SMILES O=C(C[C@@H](C(=O)NCCCNC(=O)c1ccc(-c2c3nc(c(-c4cc(S(=O)(=O)[O-])ccc4F)c4ccc([nH]4)c(-c4cc(S(=O)(=O)[O-])ccc4F)c4nc(c(-c5cc(S(=O)(=O)[O-])ccc5F)c5ccc2[nH]5)C=C4)C=C3)cc1)[NH+]1CCN(c2cccc(Cl)c2)CC1)c1ccc(F)cc1
REMARK SMILES IDX 9 1 8 2 7 3 5 4 6 5 4 7 3 8 2 9 1 10 90 11 91 12 96 13 92 14
REMARK SMILES IDX 95 15 93 16 94 17 77 18 78 19 89 20 79 22 88 23 80 24 81 25
REMARK SMILES IDX 82 26 87 27 83 28 85 29 84 30 86 31 10 32 11 33 12 34 13 36
REMARK SMILES IDX 14 37 15 38 76 39 16 40 75 41 17 42 18 43 19 44 69 45 20 46
REMARK SMILES IDX 74 47 68 48 70 49 21 50 73 51 67 52 66 53 22 55 54 56 34 57
REMARK SMILES IDX 53 58 35 59 38 60 52 61 71 62 36 63 37 64 51 66 72 67 39 68
REMARK SMILES IDX 23 69 24 70 32 71 25 72 31 73 33 74 30 75 26 76 27 77 28 78
REMARK SMILES IDX 29 79 55 80 56 81 64 82 57 83 63 84 65 85 62 86 58 87 59 88
REMARK SMILES IDX 60 89 61 90 40 91 41 92 49 93 42 94 48 95 50 96 47 97 43 98
REMARK SMILES IDX 44 99 45 100 46 101
REMARK H PARENT 7 6 77 21 11 35 70 54 38 65
REMARK Flexibility Score: inf
ROOT
ATOM      1  C   UNL A   1      32.044  29.001  27.251  1.00  0.00     0.042 C 
ENDROOT
BRANCH   1   2
ATOM      2  C   UNL A   1      32.059  27.487  26.984  1.00  0.00     0.118 C 
BRANCH   2   3
ATOM      3  N   UNL A   1      30.774  26.807  26.915  1.00  0.00    -0.351 N 
ATOM      4  C   UNL A   1      30.303  25.782  26.143  1.00  0.00     0.278 C 
ATOM      5  O   UNL A   1      29.316  25.189  26.601  1.00  0.00    -0.268 OA
ATOM      6  H   UNL A   1      30.110  27.156  27.552  1.00  0.00     0.163 HD
BRANCH   4   7
ATOM      7  C   UNL A   1      30.881  25.440  24.727  1.00  0.00     0.282 C 
BRANCH   7   8
ATOM      8  C   UNL A   1      29.969  25.911  23.585  1.00  0.00     0.156 C 
BRANCH   8   9
ATOM      9  C   UNL A   1      30.326  27.142  22.807  1.00  0.00     0.169 C 
ATOM     10  O   UNL A   1      31.272  27.126  22.024  1.00  0.00    -0.294 OA
BRANCH   9  11
ATOM     11  C   UNL A   1      29.460  28.357  22.926  1.00  0.00     0.018 A 
ATOM     12  C   UNL A   1      28.068  28.314  22.761  1.00  0.00     0.015 A 
ATOM     13  C   UNL A   1      30.064  29.565  23.281  1.00  0.00     0.015 A 
ATOM     14  C   UNL A   1      27.276  29.409  23.103  1.00  0.00     0.040 A 
ATOM     15  C   UNL A   1      29.274  30.684  23.543  1.00  0.00     0.040 A 
ATOM     16  C   UNL A   1      27.888  30.583  23.507  1.00  0.00     0.123 A 
ATOM     17  F   UNL A   1      27.134  31.623  23.879  1.00  0.00    -0.207 F 
ENDBRANCH   9  11
ENDBRANCH   8   9
ENDBRANCH   7   8
BRANCH   7  18
ATOM     18  N   UNL A   1      31.117  23.955  24.682  1.00  0.00    -0.321 N 
ATOM     19  C   UNL A   1      31.853  23.419  23.505  1.00  0.00     0.284 C 
ATOM     20  C   UNL A   1      31.685  23.359  25.903  1.00  0.00     0.284 C 
ATOM     21  H   UNL A   1      30.146  23.655  24.591  1.00  0.00     0.348 HD
ATOM     22  C   UNL A   1      33.409  23.485  23.563  1.00  0.00     0.178 C 
ATOM     23  C   UNL A   1      33.215  23.504  26.070  1.00  0.00     0.178 C 
ATOM     24  N   UNL A   1      33.909  23.038  24.864  1.00  0.00    -0.360 N 
BRANCH  24  25
ATOM     25  C   UNL A   1      35.250  22.700  24.952  1.00  0.00     0.038 A 
ATOM     26  C   UNL A   1      35.744  21.435  24.603  1.00  0.00     0.026 A 
ATOM     27  C   UNL A   1      36.140  23.634  25.493  1.00  0.00     0.046 A 
ATOM     28  C   UNL A   1      37.082  21.097  24.833  1.00  0.00     0.004 A 
ATOM     29  C   UNL A   1      37.468  23.291  25.740  1.00  0.00     0.043 A 
ATOM     30  C   UNL A   1      37.943  22.024  25.417  1.00  0.00     0.020 A 
ATOM     31  Cl  UNL A   1      38.514  24.437  26.487  1.00  0.00    -0.084 Cl
ENDBRANCH  24  25
ENDBRANCH   7  18
ENDBRANCH   4   7
ENDBRANCH   2   3
ENDBRANCH   1   2
BRANCH   1  32
ATOM     32  C   UNL A   1      33.001  29.905  26.461  1.00  0.00     0.118 C 
BRANCH  32  33
ATOM     33  N   UNL A   1      32.895  31.314  26.798  1.00  0.00    -0.352 N 
ATOM     34  C   UNL A   1      33.720  32.090  27.582  1.00  0.00     0.251 C 
ATOM     35  H   UNL A   1      32.121  31.782  26.408  1.00  0.00     0.163 HD
ATOM     36  O   UNL A   1      33.412  33.265  27.791  1.00  0.00    -0.269 OA
BRANCH  34  37
ATOM     37  C   UNL A   1      34.951  31.543  28.208  1.00  0.00     0.039 A 
ATOM     38  C   UNL A   1      36.122  32.305  28.171  1.00  0.00     0.014 A 
ATOM     39  C   UNL A   1      34.998  30.252  28.736  1.00  0.00     0.014 A 
ATOM     40  C   UNL A   1      37.314  31.807  28.724  1.00  0.00     0.010 A 
ATOM     41  C   UNL A   1      36.189  29.766  29.311  1.00  0.00     0.010 A 
ATOM     42  C   UNL A   1      37.358  30.544  29.340  1.00  0.00    -0.014 A 
BRANCH  42  43
ATOM     43  C   UNL A   1      38.597  30.071  30.045  1.00  0.00     0.031 A 
ATOM     44  C   UNL A   1      39.477  28.988  29.464  1.00  0.00     0.074 A 
ATOM     45  C   UNL A   1      38.933  30.599  31.243  1.00  0.00     0.049 A 
ATOM     46  N   UNL A   1      40.558  28.439  29.966  1.00  0.00    -0.248 NA
ATOM     47  C   UNL A   1      39.087  28.446  28.155  1.00  0.00     0.031 C 
ATOM     48  C   UNL A   1      38.180  31.642  31.943  1.00  0.00     0.029 A 
ATOM     49  N   UNL A   1      39.988  30.335  32.088  1.00  0.00    -0.354 N 
ATOM     50  C   UNL A   1      40.980  27.491  29.038  1.00  0.00     0.074 A 
ATOM     51  C   UNL A   1      40.005  27.507  27.967  1.00  0.00     0.031 C 
ATOM     52  C   UNL A   1      38.810  31.946  33.090  1.00  0.00     0.029 A 
ATOM     53  C   UNL A   1      39.979  31.085  33.245  1.00  0.00     0.049 A 
ATOM     54  H   UNL A   1      40.686  29.670  31.885  1.00  0.00     0.167 HD
ATOM     55  C   UNL A   1      42.083  26.697  29.061  1.00  0.00     0.034 A 
ATOM     56  C   UNL A   1      40.795  31.075  34.320  1.00  0.00     0.034 A 
ATOM     57  C   UNL A   1      43.060  26.680  30.127  1.00  0.00     0.049 A 
ATOM     58  C   UNL A   1      41.963  30.118  34.363  1.00  0.00     0.074 A 
ATOM     59  C   UNL A   1      44.235  25.947  30.204  1.00  0.00     0.029 A 
ATOM     60  N   UNL A   1      42.980  27.411  31.303  1.00  0.00    -0.354 N 
ATOM     61  N   UNL A   1      42.364  29.264  33.451  1.00  0.00    -0.248 NA
ATOM     62  C   UNL A   1      42.787  30.122  35.581  1.00  0.00     0.031 C 
ATOM     63  C   UNL A   1      44.819  26.172  31.455  1.00  0.00     0.029 A 
ATOM     64  C   UNL A   1      44.054  27.109  32.129  1.00  0.00     0.049 A 
ATOM     65  H   UNL A   1      42.263  28.051  31.521  1.00  0.00     0.167 HD
ATOM     66  C   UNL A   1      43.500  28.652  33.979  1.00  0.00     0.074 A 
ATOM     67  C   UNL A   1      43.733  29.246  35.276  1.00  0.00     0.031 C 
ATOM     68  C   UNL A   1      44.281  27.686  33.433  1.00  0.00     0.034 A 
BRANCH  55  69
ATOM     69  C   UNL A   1      42.291  25.751  27.901  1.00  0.00     0.023 A 
ATOM     70  C   UNL A   1      41.801  24.434  27.928  1.00  0.00     0.031 A 
ATOM     71  C   UNL A   1      42.964  26.178  26.742  1.00  0.00     0.131 A 
ATOM     72  C   UNL A   1      42.043  23.574  26.846  1.00  0.00     0.055 A 
ATOM     73  C   UNL A   1      43.135  25.341  25.638  1.00  0.00     0.041 A 
ATOM     74  F   UNL A   1      43.464  27.421  26.662  1.00  0.00    -0.206 F 
ATOM     75  C   UNL A   1      42.685  24.025  25.690  1.00  0.00     0.022 A 
BRANCH  72  76
ATOM     76  S   UNL A   1      41.614  21.820  27.019  1.00  0.00     0.124 S 
ATOM     77  O   UNL A   1      42.780  21.300  27.731  1.00  0.00    -0.237 OA
ATOM     78  O   UNL A   1      40.371  21.874  27.782  1.00  0.00    -0.237 OA
ATOM     79  O   UNL A   1      41.480  21.361  25.639  1.00  0.00    -0.744 OA
ENDBRANCH  72  76
ENDBRANCH  55  69
BRANCH  56  80
ATOM     80  C   UNL A   1      40.526  31.968  35.488  1.00  0.00     0.023 A 
ATOM     81  C   UNL A   1      39.427  31.743  36.335  1.00  0.00     0.031 A 
ATOM     82  C   UNL A   1      41.316  33.108  35.725  1.00  0.00     0.131 A 
ATOM     83  C   UNL A   1      39.118  32.673  37.341  1.00  0.00     0.055 A 
ATOM     84  C   UNL A   1      41.042  33.993  36.769  1.00  0.00     0.041 A 
ATOM     85  F   UNL A   1      42.373  33.377  34.942  1.00  0.00    -0.206 F 
ATOM     86  C   UNL A   1      39.927  33.786  37.574  1.00  0.00     0.022 A 
BRANCH  83  87
ATOM     87  S   UNL A   1      37.572  32.465  38.268  1.00  0.00     0.124 S 
ATOM     88  O   UNL A   1      37.412  31.017  38.256  1.00  0.00    -0.237 OA
ATOM     89  O   UNL A   1      37.909  33.064  39.556  1.00  0.00    -0.237 OA
ATOM     90  O   UNL A   1      36.597  33.209  37.473  1.00  0.00    -0.744 OA
ENDBRANCH  83  87
ENDBRANCH  56  80
BRANCH  68  91
ATOM     91  C   UNL A   1      45.481  27.229  34.228  1.00  0.00     0.023 A 
ATOM     92  C   UNL A   1      45.423  26.107  35.076  1.00  0.00     0.031 A 
ATOM     93  C   UNL A   1      46.702  27.922  34.136  1.00  0.00     0.131 A 
ATOM     94  C   UNL A   1      46.550  25.738  35.828  1.00  0.00     0.055 A 
ATOM     95  C   UNL A   1      47.834  27.518  34.846  1.00  0.00     0.041 A 
ATOM     96  F   UNL A   1      46.815  29.004  33.348  1.00  0.00    -0.206 F 
ATOM     97  C   UNL A   1      47.759  26.426  35.704  1.00  0.00     0.022 A 
BRANCH  94  98
ATOM     98  S   UNL A   1      46.396  24.383  37.025  1.00  0.00     0.124 S 
ATOM     99  O   UNL A   1      44.956  24.347  37.261  1.00  0.00    -0.237 OA
ATOM    100  O   UNL A   1      46.950  23.251  36.291  1.00  0.00    -0.237 OA
ATOM    101  O   UNL A   1      47.198  24.835  38.160  1.00  0.00    -0.744 OA
ENDBRANCH  94  98
ENDBRANCH  68  91
ENDBRANCH  42  43
ENDBRANCH  34  37
ENDBRANCH  32  33
ENDBRANCH   1  32
TORSDOF 18
ENDMDL
MODEL 3
REMARK VINA RESULT:     -12.5      1.855      3.035
REMARK SMILES O=C(C[C@@H](C(=O)NCCCNC(=O)c1ccc(-c2c3nc(c(-c4cc(S(=O)(=O)[O-])ccc4F)c4ccc([nH]4)c(-c4cc(S(=O)(=O)[O-])ccc4F)c4nc(c(-c5cc(S(=O)(=O)[O-])ccc5F)c5ccc2[nH]5)C=C4)C=C3)cc1)[NH+]1CCN(c2cccc(Cl)c2)CC1)c1ccc(F)cc1
REMARK SMILES IDX 9 1 8 2 7 3 5 4 6 5 4 7 3 8 2 9 1 10 90 11 91 12 96 13 92 14
REMARK SMILES IDX 95 15 93 16 94 17 77 18 78 19 89 20 79 22 88 23 80 24 81 25
REMARK SMILES IDX 82 26 87 27 83 28 85 29 84 30 86 31 10 32 11 33 12 34 13 36
REMARK SMILES IDX 14 37 15 38 76 39 16 40 75 41 17 42 18 43 19 44 69 45 20 46
REMARK SMILES IDX 74 47 68 48 70 49 21 50 73 51 67 52 66 53 22 55 54 56 34 57
REMARK SMILES IDX 53 58 35 59 38 60 52 61 71 62 36 63 37 64 51 66 72 67 39 68
REMARK SMILES IDX 23 69 24 70 32 71 25 72 31 73 33 74 30 75 26 76 27 77 28 78
REMARK SMILES IDX 29 79 55 80 56 81 64 82 57 83 63 84 65 85 62 86 58 87 59 88
REMARK SMILES IDX 60 89 61 90 40 91 41 92 49 93 42 94 48 95 50 96 47 97 43 98
REMARK SMILES IDX 44 99 45 100 46 101
REMARK H PARENT 7 6 77 21 11 35 70 54 38 65
REMARK Flexibility Score: inf
ROOT
ATOM      1  C   UNL A   1      31.627  31.828  26.731  1.00  0.00     0.042 C 
ENDROOT
BRANCH   1   2
ATOM      2  C   UNL A   1      31.786  30.335  26.401  1.00  0.00     0.118 C 
BRANCH   2   3
ATOM      3  N   UNL A   1      32.878  29.958  25.515  1.00  0.00    -0.351 N 
ATOM      4  C   UNL A   1      32.982  29.047  24.500  1.00  0.00     0.278 C 
ATOM      5  O   UNL A   1      33.907  29.252  23.703  1.00  0.00    -0.268 OA
ATOM      6  H   UNL A   1      33.709  30.459  25.680  1.00  0.00     0.163 HD
BRANCH   4   7
ATOM      7  C   UNL A   1      32.082  27.768  24.402  1.00  0.00     0.282 C 
BRANCH   7   8
ATOM      8  C   UNL A   1      30.604  28.101  24.153  1.00  0.00     0.156 C 
BRANCH   8   9
ATOM      9  C   UNL A   1      30.159  28.544  22.792  1.00  0.00     0.169 C 
ATOM     10  O   UNL A   1      30.324  27.812  21.819  1.00  0.00    -0.294 OA
BRANCH   9  11
ATOM     11  C   UNL A   1      29.431  29.844  22.649  1.00  0.00     0.018 A 
ATOM     12  C   UNL A   1      29.233  30.723  23.723  1.00  0.00     0.015 A 
ATOM     13  C   UNL A   1      28.993  30.219  21.376  1.00  0.00     0.015 A 
ATOM     14  C   UNL A   1      28.759  32.016  23.508  1.00  0.00     0.040 A 
ATOM     15  C   UNL A   1      28.442  31.484  21.178  1.00  0.00     0.040 A 
ATOM     16  C   UNL A   1      28.380  32.391  22.230  1.00  0.00     0.123 A 
ATOM     17  F   UNL A   1      27.967  33.643  22.008  1.00  0.00    -0.207 F 
ENDBRANCH   9  11
ENDBRANCH   8   9
ENDBRANCH   7   8
BRANCH   7  18
ATOM     18  N   UNL A   1      32.275  26.981  25.670  1.00  0.00    -0.321 N 
ATOM     19  C   UNL A   1      31.246  25.959  25.998  1.00  0.00     0.284 C 
ATOM     20  C   UNL A   1      33.608  26.383  25.856  1.00  0.00     0.284 C 
ATOM     21  H   UNL A   1      32.162  27.746  26.335  1.00  0.00     0.348 HD
ATOM     22  C   UNL A   1      31.402  24.564  25.319  1.00  0.00     0.178 C 
ATOM     23  C   UNL A   1      33.858  25.056  25.102  1.00  0.00     0.178 C 
ATOM     24  N   UNL A   1      32.786  24.095  25.387  1.00  0.00    -0.360 N 
BRANCH  24  25
ATOM     25  C   UNL A   1      33.017  22.749  25.158  1.00  0.00     0.038 A 
ATOM     26  C   UNL A   1      31.988  21.799  25.082  1.00  0.00     0.026 A 
ATOM     27  C   UNL A   1      34.340  22.301  25.085  1.00  0.00     0.046 A 
ATOM     28  C   UNL A   1      32.276  20.433  24.981  1.00  0.00     0.004 A 
ATOM     29  C   UNL A   1      34.628  20.940  25.004  1.00  0.00     0.043 A 
ATOM     30  C   UNL A   1      33.601  20.002  24.957  1.00  0.00     0.020 A 
ATOM     31  Cl  UNL A   1      36.268  20.418  25.002  1.00  0.00    -0.084 Cl
ENDBRANCH  24  25
ENDBRANCH   7  18
ENDBRANCH   4   7
ENDBRANCH   2   3
ENDBRANCH   1   2
BRANCH   1  32
ATOM     32  C   UNL A   1      32.866  32.635  27.143  1.00  0.00     0.118 C 
BRANCH  32  33
ATOM     33  N   UNL A   1      32.562  33.948  27.683  1.00  0.00    -0.352 N 
ATOM     34  C   UNL A   1      33.188  34.645  28.694  1.00  0.00     0.251 C 
ATOM     35  H   UNL A   1      31.797  34.408  27.266  1.00  0.00     0.163 HD
ATOM     36  O   UNL A   1      32.728  35.733  29.043  1.00  0.00    -0.269 OA
BRANCH  34  37
ATOM     37  C   UNL A   1      34.382  34.107  29.396  1.00  0.00     0.039 A 
ATOM     38  C   UNL A   1      34.202  33.392  30.583  1.00  0.00     0.014 A 
ATOM     39  C   UNL A   1      35.679  34.385  28.961  1.00  0.00     0.014 A 
ATOM     40  C   UNL A   1      35.310  32.897  31.292  1.00  0.00     0.010 A 
ATOM     41  C   UNL A   1      36.787  33.865  29.661  1.00  0.00     0.010 A 
ATOM     42  C   UNL A   1      36.620  33.090  30.821  1.00  0.00    -0.014 A 
BRANCH  42  43
ATOM     43  C   UNL A   1      37.791  32.448  31.508  1.00  0.00     0.031 A 
ATOM     44  C   UNL A   1      38.563  31.316  30.871  1.00  0.00     0.074 A 
ATOM     45  C   UNL A   1      38.160  32.865  32.739  1.00  0.00     0.049 A 
ATOM     46  N   UNL A   1      39.572  30.627  31.349  1.00  0.00    -0.248 NA
ATOM     47  C   UNL A   1      38.141  30.897  29.528  1.00  0.00     0.031 C 
ATOM     48  C   UNL A   1      37.509  33.937  33.495  1.00  0.00     0.029 A 
ATOM     49  N   UNL A   1      39.169  32.442  33.578  1.00  0.00    -0.354 N 
ATOM     50  C   UNL A   1      39.909  29.698  30.369  1.00  0.00     0.074 A 
ATOM     51  C   UNL A   1      38.959  29.880  29.291  1.00  0.00     0.031 C 
ATOM     52  C   UNL A   1      38.147  34.105  34.664  1.00  0.00     0.029 A 
ATOM     53  C   UNL A   1      39.218  33.118  34.778  1.00  0.00     0.049 A 
ATOM     54  H   UNL A   1      39.796  31.721  33.341  1.00  0.00     0.167 HD
ATOM     55  C   UNL A   1      40.923  28.793  30.355  1.00  0.00     0.034 A 
ATOM     56  C   UNL A   1      40.011  32.958  35.859  1.00  0.00     0.034 A 
ATOM     57  C   UNL A   1      41.876  28.609  31.427  1.00  0.00     0.049 A 
ATOM     58  C   UNL A   1      41.073  31.883  35.855  1.00  0.00     0.074 A 
ATOM     59  C   UNL A   1      42.966  27.754  31.471  1.00  0.00     0.029 A 
ATOM     60  N   UNL A   1      41.852  29.273  32.645  1.00  0.00    -0.354 N 
ATOM     61  N   UNL A   1      41.397  31.048  34.896  1.00  0.00    -0.248 NA
ATOM     62  C   UNL A   1      41.872  31.728  37.079  1.00  0.00     0.031 C 
ATOM     63  C   UNL A   1      43.550  27.842  32.739  1.00  0.00     0.029 A 
ATOM     64  C   UNL A   1      42.876  28.811  33.462  1.00  0.00     0.049 A 
ATOM     65  H   UNL A   1      41.203  29.971  32.894  1.00  0.00     0.167 HD
ATOM     66  C   UNL A   1      42.455  30.290  35.397  1.00  0.00     0.074 A 
ATOM     67  C   UNL A   1      42.726  30.778  36.731  1.00  0.00     0.031 C 
ATOM     68  C   UNL A   1      43.139  29.282  34.800  1.00  0.00     0.034 A 
BRANCH  55  69
ATOM     69  C   UNL A   1      41.051  27.901  29.141  1.00  0.00     0.023 A 
ATOM     70  C   UNL A   1      42.053  28.108  28.177  1.00  0.00     0.031 A 
ATOM     71  C   UNL A   1      40.178  26.814  28.958  1.00  0.00     0.131 A 
ATOM     72  C   UNL A   1      42.120  27.280  27.046  1.00  0.00     0.055 A 
ATOM     73  C   UNL A   1      40.297  25.947  27.869  1.00  0.00     0.041 A 
ATOM     74  F   UNL A   1      39.194  26.571  29.838  1.00  0.00    -0.206 F 
ATOM     75  C   UNL A   1      41.264  26.186  26.897  1.00  0.00     0.022 A 
BRANCH  72  76
ATOM     76  S   UNL A   1      43.262  27.727  25.710  1.00  0.00     0.124 S 
ATOM     77  O   UNL A   1      43.804  28.994  26.197  1.00  0.00    -0.237 OA
ATOM     78  O   UNL A   1      44.189  26.599  25.698  1.00  0.00    -0.237 OA
ATOM     79  O   UNL A   1      42.396  27.836  24.539  1.00  0.00    -0.744 OA
ENDBRANCH  72  76
ENDBRANCH  55  69
BRANCH  56  80
ATOM     80  C   UNL A   1      39.817  33.803  37.077  1.00  0.00     0.023 A 
ATOM     81  C   UNL A   1      40.634  34.918  37.323  1.00  0.00     0.031 A 
ATOM     82  C   UNL A   1      38.865  33.457  38.054  1.00  0.00     0.131 A 
ATOM     83  C   UNL A   1      40.522  35.614  38.538  1.00  0.00     0.055 A 
ATOM     84  C   UNL A   1      38.713  34.193  39.230  1.00  0.00     0.041 A 
ATOM     85  F   UNL A   1      38.063  32.395  37.876  1.00  0.00    -0.206 F 
ATOM     86  C   UNL A   1      39.556  35.269  39.485  1.00  0.00     0.022 A 
BRANCH  83  87
ATOM     87  S   UNL A   1      41.737  36.908  38.913  1.00  0.00     0.124 S 
ATOM     88  O   UNL A   1      42.489  36.300  40.003  1.00  0.00    -0.237 OA
ATOM     89  O   UNL A   1      42.441  37.040  37.641  1.00  0.00    -0.237 OA
ATOM     90  O   UNL A   1      40.909  38.053  39.286  1.00  0.00    -0.744 OA
ENDBRANCH  83  87
ENDBRANCH  56  80
BRANCH  68  91
ATOM     91  C   UNL A   1      44.272  28.655  35.579  1.00  0.00     0.023 A 
ATOM     92  C   UNL A   1      44.061  27.568  36.447  1.00  0.00     0.031 A 
ATOM     93  C   UNL A   1      45.584  29.148  35.449  1.00  0.00     0.131 A 
ATOM     94  C   UNL A   1      45.134  27.038  37.182  1.00  0.00     0.055 A 
ATOM     95  C   UNL A   1      46.655  28.582  36.141  1.00  0.00     0.041 A 
ATOM     96  F   UNL A   1      45.845  30.187  34.639  1.00  0.00    -0.206 F 
ATOM     97  C   UNL A   1      46.432  27.528  37.020  1.00  0.00     0.022 A 
BRANCH  94  98
ATOM     98  S   UNL A   1      44.799  25.742  38.406  1.00  0.00     0.124 S 
ATOM     99  O   UNL A   1      46.143  25.266  38.721  1.00  0.00    -0.237 OA
ATOM    100  O   UNL A   1      44.120  26.478  39.466  1.00  0.00    -0.237 OA
ATOM    101  O   UNL A   1      43.960  24.791  37.679  1.00  0.00    -0.744 OA
ENDBRANCH  94  98
ENDBRANCH  68  91
ENDBRANCH  42  43
ENDBRANCH  34  37
ENDBRANCH  32  33
ENDBRANCH   1  32
TORSDOF 18
ENDMDL
