MODEL 1
REMARK VINA RESULT:     -13.0      0.000      0.000
REMARK SMILES Cc1ccc(C#N)cc1S(=O)(=O)Nc1cccc(C(=O)NCCCNC(=O)c2ccc(-c3c4nc(c(-c5cc(S(=O)(=O)[O-])ccc5F)c5ccc([nH]5)c(-c5cc(S(=O)(=O)[O-])ccc5F)c5nc(c(-c6cc(S(=O)(=O)[O-])ccc6F)c6ccc3[nH]6)C=C5)C=C4)cc2)c1
REMARK SMILES IDX 22 1 21 2 19 3 20 4 18 6 14 7 15 8 91 9 16 10 17 11 13 12
REMARK SMILES IDX 10 14 11 15 12 16 9 17 1 18 2 19 3 20 4 21 8 22 5 23 6 24
REMARK SMILES IDX 7 25 23 26 24 27 25 28 26 29 27 31 28 32 29 33 90 34 30 35
REMARK SMILES IDX 89 36 31 37 32 38 33 39 83 40 34 41 88 42 82 43 84 44 35 45
REMARK SMILES IDX 87 46 81 47 80 48 36 50 68 51 48 52 67 53 49 54 52 55 66 56
REMARK SMILES IDX 85 57 50 58 51 59 65 61 86 62 53 63 37 64 38 65 46 66 39 67
REMARK SMILES IDX 45 68 47 69 44 70 40 71 41 72 42 73 43 74 69 75 70 76 78 77
REMARK SMILES IDX 71 78 77 79 79 80 76 81 72 82 73 83 74 84 75 85 54 86 55 87
REMARK SMILES IDX 63 88 56 89 62 90 64 91 61 92 57 93 58 94 59 95 60 96
REMARK H PARENT 21 5 13 13 25 30 84 49 52 60
REMARK Flexibility Score: inf
ROOT
ATOM      1  C   UNL A   1      31.386  29.218  24.986  1.00  0.00     0.118 C 
ENDROOT
BRANCH   1   2
ATOM      2  N   UNL A   1      30.701  29.373  23.712  1.00  0.00    -0.352 N 
ATOM      3  C   UNL A   1      30.238  28.483  22.772  1.00  0.00     0.251 C 
ATOM      4  O   UNL A   1      29.595  28.959  21.834  1.00  0.00    -0.269 OA
ATOM      5  H   UNL A   1      30.535  30.313  23.473  1.00  0.00     0.163 HD
BRANCH   3   6
ATOM      6  C   UNL A   1      30.540  27.014  22.759  1.00  0.00     0.041 A 
ATOM      7  C   UNL A   1      30.605  24.817  23.783  1.00  0.00     0.050 A 
ATOM      8  C   UNL A   1      31.598  24.408  22.903  1.00  0.00     0.027 A 
ATOM      9  C   UNL A   1      29.987  26.063  23.620  1.00  0.00     0.040 A 
ATOM     10  C   UNL A   1      32.049  25.284  21.923  1.00  0.00     0.003 A 
ATOM     11  C   UNL A   1      31.556  26.592  21.882  1.00  0.00     0.014 A 
BRANCH   7  12
ATOM     12  N   UNL A   1      30.304  23.989  24.912  1.00  0.00    -0.280 N 
ATOM     13  H   UNL A   1      29.420  23.563  24.981  1.00  0.00     0.180 HD
BRANCH  12  14
ATOM     14  S   UNL A   1      31.476  23.733  26.149  1.00  0.00     0.262 S 
ATOM     15  O   UNL A   1      30.682  23.284  27.279  1.00  0.00    -0.201 OA
ATOM     16  O   UNL A   1      32.248  24.952  26.250  1.00  0.00    -0.201 OA
BRANCH  14  17
ATOM     17  C   UNL A   1      32.605  22.398  25.745  1.00  0.00     0.092 A 
ATOM     18  C   UNL A   1      34.095  22.648  27.829  1.00  0.00     0.046 C 
ATOM     19  C   UNL A   1      33.788  22.124  26.455  1.00  0.00    -0.030 A 
ATOM     20  C   UNL A   1      34.652  21.116  25.979  1.00  0.00     0.006 A 
ATOM     21  C   UNL A   1      34.256  20.255  24.959  1.00  0.00     0.020 A 
ATOM     22  C   UNL A   1      32.181  21.474  24.765  1.00  0.00     0.042 A 
ATOM     23  C   UNL A   1      32.982  20.379  24.412  1.00  0.00     0.053 A 
BRANCH  23  24
ATOM     24  C   UNL A   1      32.484  19.343  23.550  1.00  0.00     0.099 C 
ATOM     25  N   UNL A   1      32.111  18.479  22.877  1.00  0.00    -0.192 NA
ENDBRANCH  23  24
ENDBRANCH  14  17
ENDBRANCH  12  14
ENDBRANCH   7  12
ENDBRANCH   3   6
ENDBRANCH   1   2
BRANCH   1  26
ATOM     26  C   UNL A   1      32.112  30.456  25.477  1.00  0.00     0.042 C 
BRANCH  26  27
ATOM     27  C   UNL A   1      31.781  30.895  26.889  1.00  0.00     0.118 C 
BRANCH  27  28
ATOM     28  N   UNL A   1      31.847  32.340  27.087  1.00  0.00    -0.352 N 
ATOM     29  C   UNL A   1      32.856  33.141  27.584  1.00  0.00     0.251 C 
ATOM     30  H   UNL A   1      31.034  32.826  26.822  1.00  0.00     0.163 HD
ATOM     31  O   UNL A   1      32.630  34.331  27.789  1.00  0.00    -0.269 OA
BRANCH  29  32
ATOM     32  C   UNL A   1      34.177  32.564  27.919  1.00  0.00     0.039 A 
ATOM     33  C   UNL A   1      34.299  31.217  28.243  1.00  0.00     0.014 A 
ATOM     34  C   UNL A   1      35.307  33.387  27.963  1.00  0.00     0.014 A 
ATOM     35  C   UNL A   1      35.443  30.770  28.890  1.00  0.00     0.010 A 
ATOM     36  C   UNL A   1      36.514  32.885  28.467  1.00  0.00     0.010 A 
ATOM     37  C   UNL A   1      36.569  31.596  29.017  1.00  0.00    -0.014 A 
BRANCH  37  38
ATOM     38  C   UNL A   1      37.770  31.083  29.738  1.00  0.00     0.031 A 
ATOM     39  C   UNL A   1      38.038  31.461  31.174  1.00  0.00     0.074 A 
ATOM     40  C   UNL A   1      38.586  30.207  29.115  1.00  0.00     0.049 A 
ATOM     41  N   UNL A   1      39.006  31.064  31.960  1.00  0.00    -0.248 NA
ATOM     42  C   UNL A   1      37.111  32.410  31.811  1.00  0.00     0.031 C 
ATOM     43  C   UNL A   1      38.429  29.761  27.730  1.00  0.00     0.029 A 
ATOM     44  N   UNL A   1      39.681  29.511  29.562  1.00  0.00    -0.354 N 
ATOM     45  C   UNL A   1      38.820  31.728  33.169  1.00  0.00     0.074 A 
ATOM     46  C   UNL A   1      37.672  32.589  32.999  1.00  0.00     0.031 C 
ATOM     47  C   UNL A   1      39.343  28.820  27.463  1.00  0.00     0.029 A 
ATOM     48  C   UNL A   1      40.218  28.663  28.620  1.00  0.00     0.049 A 
ATOM     49  H   UNL A   1      40.049  29.609  30.471  1.00  0.00     0.167 HD
ATOM     50  C   UNL A   1      39.528  31.613  34.318  1.00  0.00     0.034 A 
ATOM     51  C   UNL A   1      41.302  27.861  28.662  1.00  0.00     0.034 A 
ATOM     52  C   UNL A   1      40.656  30.728  34.478  1.00  0.00     0.049 A 
ATOM     53  C   UNL A   1      42.091  27.776  29.941  1.00  0.00     0.074 A 
ATOM     54  C   UNL A   1      41.416  30.515  35.615  1.00  0.00     0.029 A 
ATOM     55  N   UNL A   1      41.186  29.911  33.489  1.00  0.00    -0.354 N 
ATOM     56  N   UNL A   1      41.867  28.373  31.088  1.00  0.00    -0.248 NA
ATOM     57  C   UNL A   1      43.270  26.901  29.942  1.00  0.00     0.031 C 
ATOM     58  C   UNL A   1      42.456  29.648  35.291  1.00  0.00     0.029 A 
ATOM     59  C   UNL A   1      42.283  29.222  33.984  1.00  0.00     0.049 A 
ATOM     60  H   UNL A   1      40.836  29.832  32.573  1.00  0.00     0.167 HD
ATOM     61  C   UNL A   1      42.856  27.921  31.955  1.00  0.00     0.074 A 
ATOM     62  C   UNL A   1      43.662  26.979  31.206  1.00  0.00     0.031 C 
ATOM     63  C   UNL A   1      43.074  28.261  33.250  1.00  0.00     0.034 A 
BRANCH  50  64
ATOM     64  C   UNL A   1      39.128  32.447  35.515  1.00  0.00     0.023 A 
ATOM     65  C   UNL A   1      39.597  33.770  35.631  1.00  0.00     0.031 A 
ATOM     66  C   UNL A   1      38.432  31.895  36.605  1.00  0.00     0.131 A 
ATOM     67  C   UNL A   1      39.415  34.474  36.828  1.00  0.00     0.055 A 
ATOM     68  C   UNL A   1      38.200  32.624  37.774  1.00  0.00     0.041 A 
ATOM     69  F   UNL A   1      37.968  30.635  36.552  1.00  0.00    -0.206 F 
ATOM     70  C   UNL A   1      38.709  33.913  37.896  1.00  0.00     0.022 A 
BRANCH  67  71
ATOM     71  S   UNL A   1      40.174  36.103  37.081  1.00  0.00     0.124 S 
ATOM     72  O   UNL A   1      41.558  35.745  37.388  1.00  0.00    -0.237 OA
ATOM     73  O   UNL A   1      39.970  36.738  35.782  1.00  0.00    -0.237 OA
ATOM     74  O   UNL A   1      39.419  36.674  38.190  1.00  0.00    -0.744 OA
ENDBRANCH  67  71
ENDBRANCH  50  64
BRANCH  51  75
ATOM     75  C   UNL A   1      41.659  27.061  27.452  1.00  0.00     0.023 A 
ATOM     76  C   UNL A   1      41.386  25.681  27.399  1.00  0.00     0.031 A 
ATOM     77  C   UNL A   1      42.379  27.631  26.389  1.00  0.00     0.131 A 
ATOM     78  C   UNL A   1      41.906  24.906  26.355  1.00  0.00     0.055 A 
ATOM     79  C   UNL A   1      42.817  26.868  25.304  1.00  0.00     0.041 A 
ATOM     80  F   UNL A   1      42.679  28.938  26.399  1.00  0.00    -0.206 F 
ATOM     81  C   UNL A   1      42.600  25.494  25.295  1.00  0.00     0.022 A 
BRANCH  78  82
ATOM     82  S   UNL A   1      41.835  23.094  26.426  1.00  0.00     0.124 S 
ATOM     83  O   UNL A   1      42.515  22.809  27.685  1.00  0.00    -0.237 OA
ATOM     84  O   UNL A   1      40.394  22.855  26.417  1.00  0.00    -0.237 OA
ATOM     85  O   UNL A   1      42.538  22.674  25.218  1.00  0.00    -0.744 OA
ENDBRANCH  78  82
ENDBRANCH  51  75
BRANCH  63  86
ATOM     86  C   UNL A   1      44.211  27.599  33.997  1.00  0.00     0.023 A 
ATOM     87  C   UNL A   1      43.985  26.381  34.669  1.00  0.00     0.031 A 
ATOM     88  C   UNL A   1      45.453  28.231  34.178  1.00  0.00     0.131 A 
ATOM     89  C   UNL A   1      44.960  25.864  35.529  1.00  0.00     0.055 A 
ATOM     90  C   UNL A   1      46.449  27.675  34.982  1.00  0.00     0.041 A 
ATOM     91  F   UNL A   1      45.717  29.403  33.578  1.00  0.00    -0.206 F 
ATOM     92  C   UNL A   1      46.198  26.496  35.677  1.00  0.00     0.022 A 
BRANCH  89  93
ATOM     93  S   UNL A   1      44.615  24.421  36.573  1.00  0.00     0.124 S 
ATOM     94  O   UNL A   1      45.961  23.946  36.885  1.00  0.00    -0.237 OA
ATOM     95  O   UNL A   1      43.889  25.018  37.691  1.00  0.00    -0.237 OA
ATOM     96  O   UNL A   1      43.831  23.541  35.712  1.00  0.00    -0.744 OA
ENDBRANCH  89  93
ENDBRANCH  63  86
ENDBRANCH  37  38
ENDBRANCH  29  32
ENDBRANCH  27  28
ENDBRANCH  26  27
ENDBRANCH   1  26
TORSDOF 17
ENDMDL
MODEL 2
REMARK VINA RESULT:     -12.7      1.848      2.385
REMARK SMILES Cc1ccc(C#N)cc1S(=O)(=O)Nc1cccc(C(=O)NCCCNC(=O)c2ccc(-c3c4nc(c(-c5cc(S(=O)(=O)[O-])ccc5F)c5ccc([nH]5)c(-c5cc(S(=O)(=O)[O-])ccc5F)c5nc(c(-c6cc(S(=O)(=O)[O-])ccc6F)c6ccc3[nH]6)C=C5)C=C4)cc2)c1
REMARK SMILES IDX 22 1 21 2 19 3 20 4 18 6 14 7 15 8 91 9 16 10 17 11 13 12
REMARK SMILES IDX 10 14 11 15 12 16 9 17 1 18 2 19 3 20 4 21 8 22 5 23 6 24
REMARK SMILES IDX 7 25 23 26 24 27 25 28 26 29 27 31 28 32 29 33 90 34 30 35
REMARK SMILES IDX 89 36 31 37 32 38 33 39 83 40 34 41 88 42 82 43 84 44 35 45
REMARK SMILES IDX 87 46 81 47 80 48 36 50 68 51 48 52 67 53 49 54 52 55 66 56
REMARK SMILES IDX 85 57 50 58 51 59 65 61 86 62 53 63 37 64 38 65 46 66 39 67
REMARK SMILES IDX 45 68 47 69 44 70 40 71 41 72 42 73 43 74 69 75 70 76 78 77
REMARK SMILES IDX 71 78 77 79 79 80 76 81 72 82 73 83 74 84 75 85 54 86 55 87
REMARK SMILES IDX 63 88 56 89 62 90 64 91 61 92 57 93 58 94 59 95 60 96
REMARK H PARENT 21 5 13 13 25 30 84 49 52 60
REMARK Flexibility Score: inf
ROOT
ATOM      1  C   UNL A   1      31.022  29.426  25.009  1.00  0.00     0.118 C 
ENDROOT
BRANCH   1   2
ATOM      2  N   UNL A   1      30.585  29.596  23.633  1.00  0.00    -0.352 N 
ATOM      3  C   UNL A   1      30.343  28.719  22.602  1.00  0.00     0.251 C 
ATOM      4  O   UNL A   1      29.871  29.200  21.569  1.00  0.00    -0.269 OA
ATOM      5  H   UNL A   1      30.431  30.536  23.387  1.00  0.00     0.163 HD
BRANCH   3   6
ATOM      6  C   UNL A   1      30.699  27.262  22.613  1.00  0.00     0.041 A 
ATOM      7  C   UNL A   1      30.893  25.098  23.690  1.00  0.00     0.050 A 
ATOM      8  C   UNL A   1      31.860  24.701  22.776  1.00  0.00     0.027 A 
ATOM      9  C   UNL A   1      30.222  26.315  23.523  1.00  0.00     0.040 A 
ATOM     10  C   UNL A   1      32.233  25.566  21.753  1.00  0.00     0.003 A 
ATOM     11  C   UNL A   1      31.691  26.853  21.701  1.00  0.00     0.014 A 
BRANCH   7  12
ATOM     12  N   UNL A   1      30.674  24.291  24.852  1.00  0.00    -0.280 N 
ATOM     13  H   UNL A   1      29.919  23.660  24.871  1.00  0.00     0.180 HD
BRANCH  12  14
ATOM     14  S   UNL A   1      31.719  24.417  26.217  1.00  0.00     0.262 S 
ATOM     15  O   UNL A   1      30.890  23.969  27.320  1.00  0.00    -0.201 OA
ATOM     16  O   UNL A   1      32.249  25.763  26.213  1.00  0.00    -0.201 OA
BRANCH  14  17
ATOM     17  C   UNL A   1      33.105  23.281  26.114  1.00  0.00     0.092 A 
ATOM     18  C   UNL A   1      31.781  21.313  25.112  1.00  0.00     0.046 C 
ATOM     19  C   UNL A   1      32.985  21.921  25.774  1.00  0.00    -0.030 A 
ATOM     20  C   UNL A   1      34.130  21.100  25.831  1.00  0.00     0.006 A 
ATOM     21  C   UNL A   1      35.398  21.648  26.004  1.00  0.00     0.020 A 
ATOM     22  C   UNL A   1      34.399  23.836  26.212  1.00  0.00     0.042 A 
ATOM     23  C   UNL A   1      35.540  23.029  26.105  1.00  0.00     0.053 A 
BRANCH  23  24
ATOM     24  C   UNL A   1      36.853  23.608  26.028  1.00  0.00     0.099 C 
ATOM     25  N   UNL A   1      37.927  24.035  25.986  1.00  0.00    -0.192 NA
ENDBRANCH  23  24
ENDBRANCH  14  17
ENDBRANCH  12  14
ENDBRANCH   7  12
ENDBRANCH   3   6
ENDBRANCH   1   2
BRANCH   1  26
ATOM     26  C   UNL A   1      32.512  29.601  25.233  1.00  0.00     0.042 C 
BRANCH  26  27
ATOM     27  C   UNL A   1      32.939  29.824  26.670  1.00  0.00     0.118 C 
BRANCH  27  28
ATOM     28  N   UNL A   1      32.896  31.222  27.088  1.00  0.00    -0.352 N 
ATOM     29  C   UNL A   1      33.836  32.005  27.726  1.00  0.00     0.251 C 
ATOM     30  H   UNL A   1      32.054  31.684  26.879  1.00  0.00     0.163 HD
ATOM     31  O   UNL A   1      33.522  33.131  28.104  1.00  0.00    -0.269 OA
BRANCH  29  32
ATOM     32  C   UNL A   1      35.192  31.478  28.003  1.00  0.00     0.039 A 
ATOM     33  C   UNL A   1      35.394  30.116  28.195  1.00  0.00     0.014 A 
ATOM     34  C   UNL A   1      36.271  32.359  28.126  1.00  0.00     0.014 A 
ATOM     35  C   UNL A   1      36.567  29.677  28.795  1.00  0.00     0.010 A 
ATOM     36  C   UNL A   1      37.509  31.883  28.578  1.00  0.00     0.010 A 
ATOM     37  C   UNL A   1      37.644  30.552  29.001  1.00  0.00    -0.014 A 
BRANCH  37  38
ATOM     38  C   UNL A   1      38.877  30.044  29.668  1.00  0.00     0.031 A 
ATOM     39  C   UNL A   1      39.250  30.489  31.060  1.00  0.00     0.074 A 
ATOM     40  C   UNL A   1      39.627  29.113  29.041  1.00  0.00     0.049 A 
ATOM     41  N   UNL A   1      40.259  30.106  31.801  1.00  0.00    -0.248 NA
ATOM     42  C   UNL A   1      38.392  31.496  31.705  1.00  0.00     0.031 C 
ATOM     43  C   UNL A   1      39.366  28.601  27.696  1.00  0.00     0.029 A 
ATOM     44  N   UNL A   1      40.733  28.411  29.452  1.00  0.00    -0.354 N 
ATOM     45  C   UNL A   1      40.171  30.838  32.982  1.00  0.00     0.074 A 
ATOM     46  C   UNL A   1      39.036  31.722  32.842  1.00  0.00     0.031 C 
ATOM     47  C   UNL A   1      40.237  27.621  27.420  1.00  0.00     0.029 A 
ATOM     48  C   UNL A   1      41.184  27.500  28.524  1.00  0.00     0.049 A 
ATOM     49  H   UNL A   1      41.163  28.547  30.328  1.00  0.00     0.167 HD
ATOM     50  C   UNL A   1      40.952  30.764  34.086  1.00  0.00     0.034 A 
ATOM     51  C   UNL A   1      42.248  26.671  28.537  1.00  0.00     0.034 A 
ATOM     52  C   UNL A   1      42.066  29.856  34.220  1.00  0.00     0.049 A 
ATOM     53  C   UNL A   1      43.118  26.631  29.764  1.00  0.00     0.074 A 
ATOM     54  C   UNL A   1      42.895  29.682  35.314  1.00  0.00     0.029 A 
ATOM     55  N   UNL A   1      42.508  28.974  33.244  1.00  0.00    -0.354 N 
ATOM     56  N   UNL A   1      42.987  27.293  30.890  1.00  0.00    -0.248 NA
ATOM     57  C   UNL A   1      44.273  25.724  29.735  1.00  0.00     0.031 C 
ATOM     58  C   UNL A   1      43.890  28.770  34.970  1.00  0.00     0.029 A 
ATOM     59  C   UNL A   1      43.618  28.281  33.701  1.00  0.00     0.049 A 
ATOM     60  H   UNL A   1      42.095  28.857  32.358  1.00  0.00     0.167 HD
ATOM     61  C   UNL A   1      44.021  26.860  31.713  1.00  0.00     0.074 A 
ATOM     62  C   UNL A   1      44.751  25.858  30.965  1.00  0.00     0.031 C 
ATOM     63  C   UNL A   1      44.334  27.261  32.970  1.00  0.00     0.034 A 
BRANCH  50  64
ATOM     64  C   UNL A   1      40.655  31.670  35.261  1.00  0.00     0.023 A 
ATOM     65  C   UNL A   1      39.588  31.361  36.127  1.00  0.00     0.031 A 
ATOM     66  C   UNL A   1      41.306  32.905  35.430  1.00  0.00     0.131 A 
ATOM     67  C   UNL A   1      39.168  32.296  37.081  1.00  0.00     0.055 A 
ATOM     68  C   UNL A   1      40.923  33.808  36.424  1.00  0.00     0.041 A 
ATOM     69  F   UNL A   1      42.327  33.253  34.629  1.00  0.00    -0.206 F 
ATOM     70  C   UNL A   1      39.837  33.513  37.242  1.00  0.00     0.022 A 
BRANCH  67  71
ATOM     71  S   UNL A   1      37.678  32.013  38.077  1.00  0.00     0.124 S 
ATOM     72  O   UNL A   1      38.185  32.201  39.435  1.00  0.00    -0.237 OA
ATOM     73  O   UNL A   1      36.785  33.062  37.595  1.00  0.00    -0.237 OA
ATOM     74  O   UNL A   1      37.287  30.647  37.745  1.00  0.00    -0.744 OA
ENDBRANCH  67  71
ENDBRANCH  50  64
BRANCH  51  75
ATOM     75  C   UNL A   1      42.502  25.799  27.352  1.00  0.00     0.023 A 
ATOM     76  C   UNL A   1      42.007  24.482  27.311  1.00  0.00     0.031 A 
ATOM     77  C   UNL A   1      43.337  26.221  26.304  1.00  0.00     0.131 A 
ATOM     78  C   UNL A   1      42.422  23.611  26.297  1.00  0.00     0.055 A 
ATOM     79  C   UNL A   1      43.674  25.375  25.245  1.00  0.00     0.041 A 
ATOM     80  F   UNL A   1      43.847  27.461  26.303  1.00  0.00    -0.206 F 
ATOM     81  C   UNL A   1      43.234  24.056  25.250  1.00  0.00     0.022 A 
BRANCH  78  82
ATOM     82  S   UNL A   1      42.052  21.837  26.393  1.00  0.00     0.124 S 
ATOM     83  O   UNL A   1      42.622  21.474  27.687  1.00  0.00    -0.237 OA
ATOM     84  O   UNL A   1      40.593  21.836  26.322  1.00  0.00    -0.237 OA
ATOM     85  O   UNL A   1      42.727  21.280  25.225  1.00  0.00    -0.744 OA
ENDBRANCH  78  82
ENDBRANCH  51  75
BRANCH  63  86
ATOM     86  C   UNL A   1      45.502  26.607  33.676  1.00  0.00     0.023 A 
ATOM     87  C   UNL A   1      45.285  25.455  34.457  1.00  0.00     0.031 A 
ATOM     88  C   UNL A   1      46.778  27.195  33.708  1.00  0.00     0.131 A 
ATOM     89  C   UNL A   1      46.306  24.961  35.277  1.00  0.00     0.055 A 
ATOM     90  C   UNL A   1      47.815  26.658  34.473  1.00  0.00     0.041 A 
ATOM     91  F   UNL A   1      47.037  28.305  32.998  1.00  0.00    -0.206 F 
ATOM     92  C   UNL A   1      47.576  25.547  35.276  1.00  0.00     0.022 A 
BRANCH  89  93
ATOM     93  S   UNL A   1      45.993  23.618  36.455  1.00  0.00     0.124 S 
ATOM     94  O   UNL A   1      45.029  22.796  35.726  1.00  0.00    -0.237 OA
ATOM     95  O   UNL A   1      47.321  23.032  36.612  1.00  0.00    -0.237 OA
ATOM     96  O   UNL A   1      45.463  24.299  37.633  1.00  0.00    -0.744 OA
ENDBRANCH  89  93
ENDBRANCH  63  86
ENDBRANCH  37  38
ENDBRANCH  29  32
ENDBRANCH  27  28
ENDBRANCH  26  27
ENDBRANCH   1  26
TORSDOF 17
ENDMDL
MODEL 3
REMARK VINA RESULT:     -12.5      1.690      7.627
REMARK SMILES Cc1ccc(C#N)cc1S(=O)(=O)Nc1cccc(C(=O)NCCCNC(=O)c2ccc(-c3c4nc(c(-c5cc(S(=O)(=O)[O-])ccc5F)c5ccc([nH]5)c(-c5cc(S(=O)(=O)[O-])ccc5F)c5nc(c(-c6cc(S(=O)(=O)[O-])ccc6F)c6ccc3[nH]6)C=C5)C=C4)cc2)c1
REMARK SMILES IDX 22 1 21 2 19 3 20 4 18 6 14 7 15 8 91 9 16 10 17 11 13 12
REMARK SMILES IDX 10 14 11 15 12 16 9 17 1 18 2 19 3 20 4 21 8 22 5 23 6 24
REMARK SMILES IDX 7 25 23 26 24 27 25 28 26 29 27 31 28 32 29 33 90 34 30 35
REMARK SMILES IDX 89 36 31 37 32 38 33 39 83 40 34 41 88 42 82 43 84 44 35 45
REMARK SMILES IDX 87 46 81 47 80 48 36 50 68 51 48 52 67 53 49 54 52 55 66 56
REMARK SMILES IDX 85 57 50 58 51 59 65 61 86 62 53 63 37 64 38 65 46 66 39 67
REMARK SMILES IDX 45 68 47 69 44 70 40 71 41 72 42 73 43 74 69 75 70 76 78 77
REMARK SMILES IDX 71 78 77 79 79 80 76 81 72 82 73 83 74 84 75 85 54 86 55 87
REMARK SMILES IDX 63 88 56 89 62 90 64 91 61 92 57 93 58 94 59 95 60 96
REMARK H PARENT 21 5 13 13 25 30 84 49 52 60
REMARK Flexibility Score: inf
ROOT
ATOM      1  C   UNL A   1      31.765  30.427  26.330  1.00  0.00     0.118 C 
ENDROOT
BRANCH   1   2
ATOM      2  N   UNL A   1      31.243  30.275  24.982  1.00  0.00    -0.352 N 
ATOM      3  C   UNL A   1      31.147  29.208  24.119  1.00  0.00     0.251 C 
ATOM      4  O   UNL A   1      30.540  29.407  23.065  1.00  0.00    -0.269 OA
ATOM      5  H   UNL A   1      30.883  31.111  24.608  1.00  0.00     0.163 HD
BRANCH   3   6
ATOM      6  C   UNL A   1      31.802  27.875  24.326  1.00  0.00     0.041 A 
ATOM      7  C   UNL A   1      32.149  25.810  25.549  1.00  0.00     0.050 A 
ATOM      8  C   UNL A   1      33.407  25.656  24.982  1.00  0.00     0.027 A 
ATOM      9  C   UNL A   1      31.301  26.838  25.117  1.00  0.00     0.040 A 
ATOM     10  C   UNL A   1      33.863  26.590  24.060  1.00  0.00     0.003 A 
ATOM     11  C   UNL A   1      33.085  27.715  23.770  1.00  0.00     0.014 A 
BRANCH   7  12
ATOM     12  N   UNL A   1      31.781  24.967  26.646  1.00  0.00    -0.280 N 
ATOM     13  H   UNL A   1      31.896  25.290  27.569  1.00  0.00     0.180 HD
BRANCH  12  14
ATOM     14  S   UNL A   1      31.140  23.392  26.365  1.00  0.00     0.262 S 
ATOM     15  O   UNL A   1      30.288  23.576  25.205  1.00  0.00    -0.201 OA
ATOM     16  O   UNL A   1      30.568  22.946  27.616  1.00  0.00    -0.201 OA
BRANCH  14  17
ATOM     17  C   UNL A   1      32.414  22.219  25.893  1.00  0.00     0.092 A 
ATOM     18  C   UNL A   1      33.940  22.626  27.924  1.00  0.00     0.046 C 
ATOM     19  C   UNL A   1      33.649  22.087  26.553  1.00  0.00    -0.030 A 
ATOM     20  C   UNL A   1      34.614  21.206  26.025  1.00  0.00     0.006 A 
ATOM     21  C   UNL A   1      34.292  20.317  25.004  1.00  0.00     0.020 A 
ATOM     22  C   UNL A   1      32.073  21.263  24.911  1.00  0.00     0.042 A 
ATOM     23  C   UNL A   1      32.992  20.285  24.507  1.00  0.00     0.053 A 
BRANCH  23  24
ATOM     24  C   UNL A   1      32.596  19.206  23.643  1.00  0.00     0.099 C 
ATOM     25  N   UNL A   1      32.253  18.370  22.923  1.00  0.00    -0.192 NA
ENDBRANCH  23  24
ENDBRANCH  14  17
ENDBRANCH  12  14
ENDBRANCH   7  12
ENDBRANCH   3   6
ENDBRANCH   1   2
BRANCH   1  26
ATOM     26  C   UNL A   1      31.461  31.760  26.987  1.00  0.00     0.042 C 
BRANCH  26  27
ATOM     27  C   UNL A   1      32.283  32.936  26.500  1.00  0.00     0.118 C 
BRANCH  27  28
ATOM     28  N   UNL A   1      32.272  34.080  27.407  1.00  0.00    -0.352 N 
ATOM     29  C   UNL A   1      33.100  34.409  28.461  1.00  0.00     0.251 C 
ATOM     30  H   UNL A   1      31.551  34.728  27.236  1.00  0.00     0.163 HD
ATOM     31  O   UNL A   1      32.809  35.365  29.176  1.00  0.00    -0.269 OA
BRANCH  29  32
ATOM     32  C   UNL A   1      34.293  33.587  28.765  1.00  0.00     0.039 A 
ATOM     33  C   UNL A   1      34.156  32.258  29.152  1.00  0.00     0.014 A 
ATOM     34  C   UNL A   1      35.567  34.161  28.713  1.00  0.00     0.014 A 
ATOM     35  C   UNL A   1      35.220  31.612  29.767  1.00  0.00     0.010 A 
ATOM     36  C   UNL A   1      36.673  33.443  29.186  1.00  0.00     0.010 A 
ATOM     37  C   UNL A   1      36.496  32.194  29.799  1.00  0.00    -0.014 A 
BRANCH  37  38
ATOM     38  C   UNL A   1      37.606  31.474  30.489  1.00  0.00     0.031 A 
ATOM     39  C   UNL A   1      38.450  30.460  29.759  1.00  0.00     0.074 A 
ATOM     40  C   UNL A   1      37.902  31.794  31.766  1.00  0.00     0.049 A 
ATOM     41  N   UNL A   1      39.482  29.784  30.196  1.00  0.00    -0.248 NA
ATOM     42  C   UNL A   1      38.093  30.156  28.363  1.00  0.00     0.031 C 
ATOM     43  C   UNL A   1      37.161  32.762  32.577  1.00  0.00     0.029 A 
ATOM     44  N   UNL A   1      38.912  31.374  32.596  1.00  0.00    -0.354 N 
ATOM     45  C   UNL A   1      39.879  28.962  29.145  1.00  0.00     0.074 A 
ATOM     46  C   UNL A   1      38.950  29.191  28.062  1.00  0.00     0.031 C 
ATOM     47  C   UNL A   1      37.779  32.914  33.755  1.00  0.00     0.029 A 
ATOM     48  C   UNL A   1      38.901  31.984  33.830  1.00  0.00     0.049 A 
ATOM     49  H   UNL A   1      39.580  30.700  32.334  1.00  0.00     0.167 HD
ATOM     50  C   UNL A   1      40.933  28.113  29.084  1.00  0.00     0.034 A 
ATOM     51  C   UNL A   1      39.685  31.810  34.914  1.00  0.00     0.034 A 
ATOM     52  C   UNL A   1      41.867  27.916  30.166  1.00  0.00     0.049 A 
ATOM     53  C   UNL A   1      40.830  30.837  34.830  1.00  0.00     0.074 A 
ATOM     54  C   UNL A   1      42.987  27.104  30.185  1.00  0.00     0.029 A 
ATOM     55  N   UNL A   1      41.801  28.530  31.409  1.00  0.00    -0.354 N 
ATOM     56  N   UNL A   1      41.219  30.109  33.810  1.00  0.00    -0.248 NA
ATOM     57  C   UNL A   1      41.653  30.668  36.034  1.00  0.00     0.031 C 
ATOM     58  C   UNL A   1      43.541  27.152  31.462  1.00  0.00     0.029 A 
ATOM     59  C   UNL A   1      42.840  28.085  32.211  1.00  0.00     0.049 A 
ATOM     60  H   UNL A   1      41.117  29.183  31.681  1.00  0.00     0.167 HD
ATOM     61  C   UNL A   1      42.350  29.421  34.239  1.00  0.00     0.074 A 
ATOM     62  C   UNL A   1      42.597  29.843  35.602  1.00  0.00     0.031 C 
ATOM     63  C   UNL A   1      43.107  28.522  33.562  1.00  0.00     0.034 A 
BRANCH  50  64
ATOM     64  C   UNL A   1      41.166  27.320  27.817  1.00  0.00     0.023 A 
ATOM     65  C   UNL A   1      40.915  25.934  27.805  1.00  0.00     0.031 A 
ATOM     66  C   UNL A   1      41.781  27.888  26.687  1.00  0.00     0.131 A 
ATOM     67  C   UNL A   1      41.328  25.156  26.717  1.00  0.00     0.055 A 
ATOM     68  C   UNL A   1      42.136  27.117  25.578  1.00  0.00     0.041 A 
ATOM     69  F   UNL A   1      42.049  29.204  26.646  1.00  0.00    -0.206 F 
ATOM     70  C   UNL A   1      41.927  25.742  25.598  1.00  0.00     0.022 A 
BRANCH  67  71
ATOM     71  S   UNL A   1      41.198  23.347  26.755  1.00  0.00     0.124 S 
ATOM     72  O   UNL A   1      42.093  22.958  25.667  1.00  0.00    -0.237 OA
ATOM     73  O   UNL A   1      41.678  23.036  28.098  1.00  0.00    -0.237 OA
ATOM     74  O   UNL A   1      39.782  23.091  26.514  1.00  0.00    -0.744 OA
ENDBRANCH  67  71
ENDBRANCH  50  64
BRANCH  51  75
ATOM     75  C   UNL A   1      39.412  32.614  36.143  1.00  0.00     0.023 A 
ATOM     76  C   UNL A   1      38.628  32.085  37.186  1.00  0.00     0.031 A 
ATOM     77  C   UNL A   1      39.824  33.953  36.243  1.00  0.00     0.131 A 
ATOM     78  C   UNL A   1      38.208  32.913  38.233  1.00  0.00     0.055 A 
ATOM     79  C   UNL A   1      39.478  34.750  37.337  1.00  0.00     0.041 A 
ATOM     80  F   UNL A   1      40.559  34.510  35.269  1.00  0.00    -0.206 F 
ATOM     81  C   UNL A   1      38.647  34.237  38.328  1.00  0.00     0.022 A 
BRANCH  78  82
ATOM     82  S   UNL A   1      36.953  32.346  39.414  1.00  0.00     0.124 S 
ATOM     83  O   UNL A   1      37.222  30.914  39.483  1.00  0.00    -0.237 OA
ATOM     84  O   UNL A   1      37.302  33.114  40.607  1.00  0.00    -0.237 OA
ATOM     85  O   UNL A   1      35.691  32.723  38.785  1.00  0.00    -0.744 OA
ENDBRANCH  78  82
ENDBRANCH  51  75
BRANCH  63  86
ATOM     86  C   UNL A   1      44.320  27.929  34.245  1.00  0.00     0.023 A 
ATOM     87  C   UNL A   1      44.165  26.811  35.088  1.00  0.00     0.031 A 
ATOM     88  C   UNL A   1      45.582  28.547  34.195  1.00  0.00     0.131 A 
ATOM     89  C   UNL A   1      45.233  26.380  35.883  1.00  0.00     0.055 A 
ATOM     90  C   UNL A   1      46.663  28.071  34.938  1.00  0.00     0.041 A 
ATOM     91  F   UNL A   1      45.782  29.628  33.424  1.00  0.00    -0.206 F 
ATOM     92  C   UNL A   1      46.486  26.993  35.801  1.00  0.00     0.022 A 
BRANCH  89  93
ATOM     93  S   UNL A   1      45.003  25.086  37.135  1.00  0.00     0.124 S 
ATOM     94  O   UNL A   1      44.320  24.045  36.371  1.00  0.00    -0.237 OA
ATOM     95  O   UNL A   1      46.380  24.780  37.515  1.00  0.00    -0.237 OA
ATOM     96  O   UNL A   1      44.196  25.732  38.165  1.00  0.00    -0.744 OA
ENDBRANCH  89  93
ENDBRANCH  63  86
ENDBRANCH  37  38
ENDBRANCH  29  32
ENDBRANCH  27  28
ENDBRANCH  26  27
ENDBRANCH   1  26
TORSDOF 17
ENDMDL
