MODEL 1
REMARK VINA RESULT:     -12.2      0.000      0.000
REMARK SMILES CC(C)c1nc(N2C[C@H](C)OC(C)(C)C2)sc1C(=O)NCCCNC(=O)c1ccc(-c2c3nc(c(-c4cc(S(=O)(=O)[O-])ccc4F)c4ccc([nH]4)c(-c4cc(S(=O)(=O)[O-])ccc4F)c4nc(c(-c5cc(S(=O)(=O)[O-])ccc5F)c5ccc2[nH]5)C=C4)C=C3)cc1
REMARK SMILES IDX 23 1 22 2 21 3 20 4 18 5 19 6 17 8 4 9 5 10 6 11 16 12 2 13
REMARK SMILES IDX 1 14 3 15 7 16 8 17 15 18 9 19 12 20 11 21 10 22 13 23 14 24
REMARK SMILES IDX 24 25 25 26 26 28 27 29 28 30 89 31 29 32 88 33 30 34 31 35
REMARK SMILES IDX 32 36 82 37 33 38 87 39 81 40 83 41 34 42 86 43 80 44 79 45
REMARK SMILES IDX 35 47 67 48 47 49 66 50 48 51 51 52 65 53 84 54 49 55 50 56
REMARK SMILES IDX 64 58 85 59 52 60 36 61 37 62 45 63 38 64 44 65 46 66 43 67
REMARK SMILES IDX 39 68 40 69 41 70 42 71 68 72 69 73 77 74 70 75 76 76 78 77
REMARK SMILES IDX 75 78 71 79 72 80 73 81 74 82 53 83 54 84 62 85 55 86 61 87
REMARK SMILES IDX 63 88 60 89 56 90 57 91 58 92 59 93
REMARK H PARENT 20 7 24 27 83 46 51 57
REMARK Flexibility Score: inf
ROOT
ATOM      1  C   UNL A   1      32.655  32.366  27.277  1.00  0.00     0.118 C 
ENDROOT
BRANCH   1   2
ATOM      2  C   UNL A   1      31.405  31.939  26.506  1.00  0.00     0.042 C 
BRANCH   2   3
ATOM      3  C   UNL A   1      31.539  30.588  25.800  1.00  0.00     0.118 C 
BRANCH   3   4
ATOM      4  N   UNL A   1      31.637  29.511  26.762  1.00  0.00    -0.351 N 
ATOM      5  C   UNL A   1      31.731  28.144  26.705  1.00  0.00     0.263 C 
ATOM      6  O   UNL A   1      31.864  27.648  27.834  1.00  0.00    -0.268 OA
ATOM      7  H   UNL A   1      31.635  29.842  27.689  1.00  0.00     0.163 HD
BRANCH   5   8
ATOM      8  C   UNL A   1      31.729  27.317  25.500  1.00  0.00     0.117 A 
ATOM      9  C   UNL A   1      31.011  27.200  24.306  1.00  0.00     0.069 A 
ATOM     10  N   UNL A   1      31.436  26.155  23.474  1.00  0.00    -0.224 NA
ATOM     11  C   UNL A   1      32.295  25.373  24.070  1.00  0.00     0.186 A 
ATOM     12  S   UNL A   1      32.830  25.960  25.581  1.00  0.00    -0.091 S 
BRANCH   9  13
ATOM     13  C   UNL A   1      29.797  27.953  23.810  1.00  0.00     0.034 C 
ATOM     14  C   UNL A   1      30.029  28.662  22.465  1.00  0.00     0.014 C 
ATOM     15  C   UNL A   1      28.593  27.023  23.657  1.00  0.00     0.014 C 
ENDBRANCH   9  13
BRANCH  11  16
ATOM     16  N   UNL A   1      32.757  24.207  23.559  1.00  0.00    -0.343 N 
ATOM     17  C   UNL A   1      34.140  24.107  23.091  1.00  0.00     0.150 C 
ATOM     18  C   UNL A   1      32.110  22.941  23.894  1.00  0.00     0.153 C 
ATOM     19  C   UNL A   1      34.964  23.242  24.068  1.00  0.00     0.135 C 
ATOM     20  C   UNL A   1      33.011  22.006  24.746  1.00  0.00     0.081 C 
ATOM     21  O   UNL A   1      34.362  21.945  24.236  1.00  0.00    -0.369 OA
ATOM     22  C   UNL A   1      36.377  23.017  23.543  1.00  0.00     0.040 C 
ATOM     23  C   UNL A   1      33.012  22.397  26.230  1.00  0.00     0.044 C 
ATOM     24  C   UNL A   1      32.475  20.568  24.630  1.00  0.00     0.044 C 
ENDBRANCH  11  16
ENDBRANCH   5   8
ENDBRANCH   3   4
ENDBRANCH   2   3
ENDBRANCH   1   2
BRANCH   1  25
ATOM     25  N   UNL A   1      32.632  33.780  27.610  1.00  0.00    -0.352 N 
ATOM     26  C   UNL A   1      33.275  34.495  28.594  1.00  0.00     0.251 C 
ATOM     27  H   UNL A   1      32.054  34.324  27.027  1.00  0.00     0.163 HD
ATOM     28  O   UNL A   1      32.872  35.635  28.826  1.00  0.00    -0.269 OA
BRANCH  26  29
ATOM     29  C   UNL A   1      34.409  33.946  29.386  1.00  0.00     0.039 A 
ATOM     30  C   UNL A   1      35.708  34.358  29.060  1.00  0.00     0.014 A 
ATOM     31  C   UNL A   1      34.244  32.964  30.366  1.00  0.00     0.014 A 
ATOM     32  C   UNL A   1      36.817  33.821  29.728  1.00  0.00     0.010 A 
ATOM     33  C   UNL A   1      35.342  32.496  31.096  1.00  0.00     0.010 A 
ATOM     34  C   UNL A   1      36.647  32.899  30.773  1.00  0.00    -0.014 A 
BRANCH  34  35
ATOM     35  C   UNL A   1      37.814  32.310  31.494  1.00  0.00     0.031 A 
ATOM     36  C   UNL A   1      38.628  31.213  30.850  1.00  0.00     0.074 A 
ATOM     37  C   UNL A   1      38.121  32.721  32.741  1.00  0.00     0.049 A 
ATOM     38  N   UNL A   1      39.609  30.502  31.347  1.00  0.00    -0.248 NA
ATOM     39  C   UNL A   1      38.265  30.845  29.473  1.00  0.00     0.031 C 
ATOM     40  C   UNL A   1      37.405  33.756  33.490  1.00  0.00     0.029 A 
ATOM     41  N   UNL A   1      39.111  32.317  33.604  1.00  0.00    -0.354 N 
ATOM     42  C   UNL A   1      39.961  29.588  30.356  1.00  0.00     0.074 A 
ATOM     43  C   UNL A   1      39.044  29.798  29.256  1.00  0.00     0.031 C 
ATOM     44  C   UNL A   1      37.994  33.923  34.686  1.00  0.00     0.029 A 
ATOM     45  C   UNL A   1      39.097  32.976  34.813  1.00  0.00     0.049 A 
ATOM     46  H   UNL A   1      39.769  31.620  33.379  1.00  0.00     0.167 HD
ATOM     47  C   UNL A   1      40.967  28.677  30.352  1.00  0.00     0.034 A 
ATOM     48  C   UNL A   1      39.873  32.827  35.907  1.00  0.00     0.034 A 
ATOM     49  C   UNL A   1      41.894  28.498  31.444  1.00  0.00     0.049 A 
ATOM     50  C   UNL A   1      40.974  31.796  35.888  1.00  0.00     0.074 A 
ATOM     51  C   UNL A   1      42.979  27.642  31.524  1.00  0.00     0.029 A 
ATOM     52  N   UNL A   1      41.846  29.187  32.650  1.00  0.00    -0.354 N 
ATOM     53  N   UNL A   1      41.309  30.961  34.930  1.00  0.00    -0.248 NA
ATOM     54  C   UNL A   1      41.807  31.694  37.093  1.00  0.00     0.031 C 
ATOM     55  C   UNL A   1      43.547  27.767  32.797  1.00  0.00     0.029 A 
ATOM     56  C   UNL A   1      42.865  28.757  33.487  1.00  0.00     0.049 A 
ATOM     57  H   UNL A   1      41.185  29.880  32.877  1.00  0.00     0.167 HD
ATOM     58  C   UNL A   1      42.412  30.259  35.408  1.00  0.00     0.074 A 
ATOM     59  C   UNL A   1      42.693  30.778  36.730  1.00  0.00     0.031 C 
ATOM     60  C   UNL A   1      43.131  29.277  34.807  1.00  0.00     0.034 A 
BRANCH  47  61
ATOM     61  C   UNL A   1      41.098  27.787  29.136  1.00  0.00     0.023 A 
ATOM     62  C   UNL A   1      42.111  27.985  28.180  1.00  0.00     0.031 A 
ATOM     63  C   UNL A   1      40.183  26.744  28.913  1.00  0.00     0.131 A 
ATOM     64  C   UNL A   1      42.132  27.211  27.009  1.00  0.00     0.055 A 
ATOM     65  C   UNL A   1      40.263  25.918  27.788  1.00  0.00     0.041 A 
ATOM     66  F   UNL A   1      39.183  26.514  29.779  1.00  0.00    -0.206 F 
ATOM     67  C   UNL A   1      41.232  26.161  26.819  1.00  0.00     0.022 A 
BRANCH  64  68
ATOM     68  S   UNL A   1      43.257  27.696  25.671  1.00  0.00     0.124 S 
ATOM     69  O   UNL A   1      43.941  28.843  26.265  1.00  0.00    -0.237 OA
ATOM     70  O   UNL A   1      44.066  26.495  25.489  1.00  0.00    -0.237 OA
ATOM     71  O   UNL A   1      42.358  28.018  24.567  1.00  0.00    -0.744 OA
ENDBRANCH  64  68
ENDBRANCH  47  61
BRANCH  48  72
ATOM     72  C   UNL A   1      39.639  33.662  37.121  1.00  0.00     0.023 A 
ATOM     73  C   UNL A   1      38.937  33.151  38.225  1.00  0.00     0.031 A 
ATOM     74  C   UNL A   1      40.078  34.996  37.181  1.00  0.00     0.131 A 
ATOM     75  C   UNL A   1      38.652  33.981  39.321  1.00  0.00     0.055 A 
ATOM     76  C   UNL A   1      39.840  35.803  38.296  1.00  0.00     0.041 A 
ATOM     77  F   UNL A   1      40.757  35.535  36.155  1.00  0.00    -0.206 F 
ATOM     78  C   UNL A   1      39.111  35.299  39.369  1.00  0.00     0.022 A 
BRANCH  75  79
ATOM     79  S   UNL A   1      37.599  33.337  40.649  1.00  0.00     0.124 S 
ATOM     80  O   UNL A   1      37.413  34.520  41.481  1.00  0.00    -0.237 OA
ATOM     81  O   UNL A   1      36.425  32.881  39.909  1.00  0.00    -0.237 OA
ATOM     82  O   UNL A   1      38.409  32.275  41.241  1.00  0.00    -0.744 OA
ENDBRANCH  75  79
ENDBRANCH  48  72
BRANCH  60  83
ATOM     83  C   UNL A   1      44.322  28.738  35.561  1.00  0.00     0.023 A 
ATOM     84  C   UNL A   1      44.199  27.693  36.493  1.00  0.00     0.031 A 
ATOM     85  C   UNL A   1      45.600  29.288  35.349  1.00  0.00     0.131 A 
ATOM     86  C   UNL A   1      45.322  27.269  37.221  1.00  0.00     0.055 A 
ATOM     87  C   UNL A   1      46.723  28.821  36.032  1.00  0.00     0.041 A 
ATOM     88  F   UNL A   1      45.775  30.289  34.473  1.00  0.00    -0.206 F 
ATOM     89  C   UNL A   1      46.586  27.815  36.983  1.00  0.00     0.022 A 
BRANCH  86  90
ATOM     90  S   UNL A   1      45.093  26.056  38.549  1.00  0.00     0.124 S 
ATOM     91  O   UNL A   1      46.383  26.101  39.228  1.00  0.00    -0.237 OA
ATOM     92  O   UNL A   1      43.963  26.611  39.288  1.00  0.00    -0.237 OA
ATOM     93  O   UNL A   1      44.812  24.811  37.834  1.00  0.00    -0.744 OA
ENDBRANCH  86  90
ENDBRANCH  60  83
ENDBRANCH  34  35
ENDBRANCH  26  29
ENDBRANCH   1  25
TORSDOF 15
ENDMDL
MODEL 2
REMARK VINA RESULT:     -12.2      2.278      3.226
REMARK SMILES CC(C)c1nc(N2C[C@H](C)OC(C)(C)C2)sc1C(=O)NCCCNC(=O)c1ccc(-c2c3nc(c(-c4cc(S(=O)(=O)[O-])ccc4F)c4ccc([nH]4)c(-c4cc(S(=O)(=O)[O-])ccc4F)c4nc(c(-c5cc(S(=O)(=O)[O-])ccc5F)c5ccc2[nH]5)C=C4)C=C3)cc1
REMARK SMILES IDX 23 1 22 2 21 3 20 4 18 5 19 6 17 8 4 9 5 10 6 11 16 12 2 13
REMARK SMILES IDX 1 14 3 15 7 16 8 17 15 18 9 19 12 20 11 21 10 22 13 23 14 24
REMARK SMILES IDX 24 25 25 26 26 28 27 29 28 30 89 31 29 32 88 33 30 34 31 35
REMARK SMILES IDX 32 36 82 37 33 38 87 39 81 40 83 41 34 42 86 43 80 44 79 45
REMARK SMILES IDX 35 47 67 48 47 49 66 50 48 51 51 52 65 53 84 54 49 55 50 56
REMARK SMILES IDX 64 58 85 59 52 60 36 61 37 62 45 63 38 64 44 65 46 66 43 67
REMARK SMILES IDX 39 68 40 69 41 70 42 71 68 72 69 73 77 74 70 75 76 76 78 77
REMARK SMILES IDX 75 78 71 79 72 80 73 81 74 82 53 83 54 84 62 85 55 86 61 87
REMARK SMILES IDX 63 88 60 89 56 90 57 91 58 92 59 93
REMARK H PARENT 20 7 24 27 83 46 51 57
REMARK Flexibility Score: inf
ROOT
ATOM      1  C   UNL A   1      33.126  29.295  25.048  1.00  0.00     0.118 C 
ENDROOT
BRANCH   1   2
ATOM      2  C   UNL A   1      32.534  28.981  23.673  1.00  0.00     0.042 C 
BRANCH   2   3
ATOM      3  C   UNL A   1      33.549  28.435  22.667  1.00  0.00     0.118 C 
BRANCH   3   4
ATOM      4  N   UNL A   1      32.926  27.481  21.773  1.00  0.00    -0.351 N 
ATOM      5  C   UNL A   1      32.423  26.210  21.883  1.00  0.00     0.263 C 
ATOM      6  O   UNL A   1      31.914  25.827  20.819  1.00  0.00    -0.268 OA
ATOM      7  H   UNL A   1      32.842  27.833  20.858  1.00  0.00     0.163 HD
BRANCH   5   8
ATOM      8  C   UNL A   1      32.413  25.374  23.082  1.00  0.00     0.117 A 
ATOM      9  C   UNL A   1      31.705  25.267  24.283  1.00  0.00     0.069 A 
ATOM     10  N   UNL A   1      32.160  24.249  25.134  1.00  0.00    -0.224 NA
ATOM     11  C   UNL A   1      33.282  23.729  24.719  1.00  0.00     0.186 A 
ATOM     12  S   UNL A   1      33.755  24.256  23.166  1.00  0.00    -0.091 S 
BRANCH   9  13
ATOM     13  C   UNL A   1      30.597  26.123  24.853  1.00  0.00     0.034 C 
ATOM     14  C   UNL A   1      29.441  26.359  23.865  1.00  0.00     0.014 C 
ATOM     15  C   UNL A   1      30.017  25.506  26.126  1.00  0.00     0.014 C 
ENDBRANCH   9  13
BRANCH  11  16
ATOM     16  N   UNL A   1      34.021  22.835  25.420  1.00  0.00    -0.343 N 
ATOM     17  C   UNL A   1      33.632  21.425  25.450  1.00  0.00     0.150 C 
ATOM     18  C   UNL A   1      35.421  23.113  25.734  1.00  0.00     0.153 C 
ATOM     19  C   UNL A   1      34.621  20.589  24.612  1.00  0.00     0.135 C 
ATOM     20  C   UNL A   1      36.406  22.158  25.007  1.00  0.00     0.081 C 
ATOM     21  O   UNL A   1      35.972  20.780  25.071  1.00  0.00    -0.369 OA
ATOM     22  C   UNL A   1      34.316  19.100  24.726  1.00  0.00     0.040 C 
ATOM     23  C   UNL A   1      36.650  22.577  23.551  1.00  0.00     0.044 C 
ATOM     24  C   UNL A   1      37.755  22.188  25.747  1.00  0.00     0.044 C 
ENDBRANCH  11  16
ENDBRANCH   5   8
ENDBRANCH   3   4
ENDBRANCH   2   3
ENDBRANCH   1   2
BRANCH   1  25
ATOM     25  N   UNL A   1      32.602  30.534  25.597  1.00  0.00    -0.352 N 
ATOM     26  C   UNL A   1      32.878  31.202  26.767  1.00  0.00     0.251 C 
ATOM     27  H   UNL A   1      31.928  30.974  25.029  1.00  0.00     0.163 HD
ATOM     28  O   UNL A   1      32.099  32.088  27.116  1.00  0.00    -0.269 OA
BRANCH  26  29
ATOM     29  C   UNL A   1      34.057  30.887  27.621  1.00  0.00     0.039 A 
ATOM     30  C   UNL A   1      34.922  31.933  27.970  1.00  0.00     0.014 A 
ATOM     31  C   UNL A   1      34.393  29.586  28.000  1.00  0.00     0.014 A 
ATOM     32  C   UNL A   1      36.083  31.682  28.714  1.00  0.00     0.010 A 
ATOM     33  C   UNL A   1      35.501  29.348  28.820  1.00  0.00     0.010 A 
ATOM     34  C   UNL A   1      36.375  30.388  29.170  1.00  0.00    -0.014 A 
BRANCH  34  35
ATOM     35  C   UNL A   1      37.609  30.097  29.960  1.00  0.00     0.031 A 
ATOM     36  C   UNL A   1      38.696  29.228  29.373  1.00  0.00     0.074 A 
ATOM     37  C   UNL A   1      37.739  30.569  31.216  1.00  0.00     0.049 A 
ATOM     38  N   UNL A   1      39.792  28.775  29.931  1.00  0.00    -0.248 NA
ATOM     39  C   UNL A   1      38.508  28.786  27.984  1.00  0.00     0.031 C 
ATOM     40  C   UNL A   1      36.755  31.399  31.913  1.00  0.00     0.029 A 
ATOM     41  N   UNL A   1      38.749  30.414  32.136  1.00  0.00    -0.354 N 
ATOM     42  C   UNL A   1      40.406  27.973  28.971  1.00  0.00     0.074 A 
ATOM     43  C   UNL A   1      39.527  27.957  27.821  1.00  0.00     0.031 C 
ATOM     44  C   UNL A   1      37.222  31.703  33.136  1.00  0.00     0.029 A 
ATOM     45  C   UNL A   1      38.511  31.049  33.334  1.00  0.00     0.049 A 
ATOM     46  H   UNL A   1      39.567  29.897  31.954  1.00  0.00     0.167 HD
ATOM     47  C   UNL A   1      41.601  27.331  29.032  1.00  0.00     0.034 A 
ATOM     48  C   UNL A   1      39.239  31.090  34.469  1.00  0.00     0.034 A 
ATOM     49  C   UNL A   1      42.482  27.379  30.174  1.00  0.00     0.049 A 
ATOM     50  C   UNL A   1      40.555  30.355  34.521  1.00  0.00     0.074 A 
ATOM     51  C   UNL A   1      43.736  26.810  30.322  1.00  0.00     0.029 A 
ATOM     52  N   UNL A   1      42.205  28.036  31.367  1.00  0.00    -0.354 N 
ATOM     53  N   UNL A   1      41.133  29.626  33.593  1.00  0.00    -0.248 NA
ATOM     54  C   UNL A   1      41.322  30.456  35.770  1.00  0.00     0.031 C 
ATOM     55  C   UNL A   1      44.186  27.067  31.621  1.00  0.00     0.029 A 
ATOM     56  C   UNL A   1      43.249  27.863  32.261  1.00  0.00     0.049 A 
ATOM     57  H   UNL A   1      41.385  28.549  31.550  1.00  0.00     0.167 HD
ATOM     58  C   UNL A   1      42.345  29.210  34.138  1.00  0.00     0.074 A 
ATOM     59  C   UNL A   1      42.420  29.781  35.466  1.00  0.00     0.031 C 
ATOM     60  C   UNL A   1      43.310  28.430  33.588  1.00  0.00     0.034 A 
BRANCH  47  61
ATOM     61  C   UNL A   1      42.008  26.500  27.835  1.00  0.00     0.023 A 
ATOM     62  C   UNL A   1      41.740  25.121  27.765  1.00  0.00     0.031 A 
ATOM     63  C   UNL A   1      42.699  27.088  26.760  1.00  0.00     0.131 A 
ATOM     64  C   UNL A   1      42.233  24.364  26.691  1.00  0.00     0.055 A 
ATOM     65  C   UNL A   1      43.108  26.345  25.650  1.00  0.00     0.041 A 
ATOM     66  F   UNL A   1      43.000  28.396  26.774  1.00  0.00    -0.206 F 
ATOM     67  C   UNL A   1      42.892  24.970  25.619  1.00  0.00     0.022 A 
BRANCH  64  68
ATOM     68  S   UNL A   1      42.133  22.555  26.789  1.00  0.00     0.124 S 
ATOM     69  O   UNL A   1      42.140  22.185  25.376  1.00  0.00    -0.237 OA
ATOM     70  O   UNL A   1      43.335  22.214  27.544  1.00  0.00    -0.237 OA
ATOM     71  O   UNL A   1      40.871  22.318  27.482  1.00  0.00    -0.744 OA
ENDBRANCH  64  68
ENDBRANCH  47  61
BRANCH  48  72
ATOM     72  C   UNL A   1      38.745  31.843  35.659  1.00  0.00     0.023 A 
ATOM     73  C   UNL A   1      38.152  31.174  36.742  1.00  0.00     0.031 A 
ATOM     74  C   UNL A   1      38.821  33.246  35.714  1.00  0.00     0.131 A 
ATOM     75  C   UNL A   1      37.616  31.909  37.812  1.00  0.00     0.055 A 
ATOM     76  C   UNL A   1      38.335  33.970  36.805  1.00  0.00     0.041 A 
ATOM     77  F   UNL A   1      39.382  33.936  34.707  1.00  0.00    -0.206 F 
ATOM     78  C   UNL A   1      37.716  33.301  37.856  1.00  0.00     0.022 A 
BRANCH  75  79
ATOM     79  S   UNL A   1      36.708  31.022  39.107  1.00  0.00     0.124 S 
ATOM     80  O   UNL A   1      36.542  29.704  38.505  1.00  0.00    -0.237 OA
ATOM     81  O   UNL A   1      37.633  31.102  40.233  1.00  0.00    -0.237 OA
ATOM     82  O   UNL A   1      35.480  31.801  39.256  1.00  0.00    -0.744 OA
ENDBRANCH  75  79
ENDBRANCH  48  72
BRANCH  60  83
ATOM     83  C   UNL A   1      44.554  28.193  34.410  1.00  0.00     0.023 A 
ATOM     84  C   UNL A   1      44.673  27.088  35.271  1.00  0.00     0.031 A 
ATOM     85  C   UNL A   1      45.631  29.096  34.338  1.00  0.00     0.131 A 
ATOM     86  C   UNL A   1      45.820  26.944  36.068  1.00  0.00     0.055 A 
ATOM     87  C   UNL A   1      46.793  28.914  35.088  1.00  0.00     0.041 A 
ATOM     88  F   UNL A   1      45.569  30.169  33.535  1.00  0.00    -0.206 F 
ATOM     89  C   UNL A   1      46.887  27.841  35.969  1.00  0.00     0.022 A 
BRANCH  86  90
ATOM     90  S   UNL A   1      45.860  25.619  37.305  1.00  0.00     0.124 S 
ATOM     91  O   UNL A   1      47.119  25.884  37.994  1.00  0.00    -0.237 OA
ATOM     92  O   UNL A   1      44.646  25.873  38.075  1.00  0.00    -0.237 OA
ATOM     93  O   UNL A   1      45.839  24.397  36.501  1.00  0.00    -0.744 OA
ENDBRANCH  86  90
ENDBRANCH  60  83
ENDBRANCH  34  35
ENDBRANCH  26  29
ENDBRANCH   1  25
TORSDOF 15
ENDMDL
MODEL 3
REMARK VINA RESULT:     -12.2      2.361      7.819
REMARK SMILES CC(C)c1nc(N2C[C@H](C)OC(C)(C)C2)sc1C(=O)NCCCNC(=O)c1ccc(-c2c3nc(c(-c4cc(S(=O)(=O)[O-])ccc4F)c4ccc([nH]4)c(-c4cc(S(=O)(=O)[O-])ccc4F)c4nc(c(-c5cc(S(=O)(=O)[O-])ccc5F)c5ccc2[nH]5)C=C4)C=C3)cc1
REMARK SMILES IDX 23 1 22 2 21 3 20 4 18 5 19 6 17 8 4 9 5 10 6 11 16 12 2 13
REMARK SMILES IDX 1 14 3 15 7 16 8 17 15 18 9 19 12 20 11 21 10 22 13 23 14 24
REMARK SMILES IDX 24 25 25 26 26 28 27 29 28 30 89 31 29 32 88 33 30 34 31 35
REMARK SMILES IDX 32 36 82 37 33 38 87 39 81 40 83 41 34 42 86 43 80 44 79 45
REMARK SMILES IDX 35 47 67 48 47 49 66 50 48 51 51 52 65 53 84 54 49 55 50 56
REMARK SMILES IDX 64 58 85 59 52 60 36 61 37 62 45 63 38 64 44 65 46 66 43 67
REMARK SMILES IDX 39 68 40 69 41 70 42 71 68 72 69 73 77 74 70 75 76 76 78 77
REMARK SMILES IDX 75 78 71 79 72 80 73 81 74 82 53 83 54 84 62 85 55 86 61 87
REMARK SMILES IDX 63 88 60 89 56 90 57 91 58 92 59 93
REMARK H PARENT 20 7 24 27 83 46 51 57
REMARK Flexibility Score: inf
ROOT
ATOM      1  C   UNL A   1      31.902  31.345  26.520  1.00  0.00     0.118 C 
ENDROOT
BRANCH   1   2
ATOM      2  C   UNL A   1      30.924  31.077  25.376  1.00  0.00     0.042 C 
BRANCH   2   3
ATOM      3  C   UNL A   1      31.028  29.672  24.781  1.00  0.00     0.118 C 
BRANCH   3   4
ATOM      4  N   UNL A   1      32.064  29.616  23.770  1.00  0.00    -0.351 N 
ATOM      5  C   UNL A   1      32.973  28.683  23.341  1.00  0.00     0.263 C 
ATOM      6  O   UNL A   1      33.623  29.093  22.369  1.00  0.00    -0.268 OA
ATOM      7  H   UNL A   1      32.134  30.458  23.266  1.00  0.00     0.163 HD
BRANCH   5   8
ATOM      8  C   UNL A   1      33.172  27.341  23.885  1.00  0.00     0.117 A 
ATOM      9  C   UNL A   1      33.385  26.730  25.124  1.00  0.00     0.069 A 
ATOM     10  N   UNL A   1      33.549  25.338  25.064  1.00  0.00    -0.224 NA
ATOM     11  C   UNL A   1      33.664  24.912  23.835  1.00  0.00     0.186 A 
ATOM     12  S   UNL A   1      33.354  26.108  22.658  1.00  0.00    -0.091 S 
BRANCH   9  13
ATOM     13  C   UNL A   1      33.562  27.330  26.501  1.00  0.00     0.034 C 
ATOM     14  C   UNL A   1      34.403  28.618  26.500  1.00  0.00     0.014 C 
ATOM     15  C   UNL A   1      32.212  27.643  27.147  1.00  0.00     0.014 C 
ENDBRANCH   9  13
BRANCH  11  16
ATOM     16  N   UNL A   1      33.979  23.641  23.489  1.00  0.00    -0.343 N 
ATOM     17  C   UNL A   1      35.375  23.203  23.496  1.00  0.00     0.150 C 
ATOM     18  C   UNL A   1      32.982  22.577  23.580  1.00  0.00     0.153 C 
ATOM     19  C   UNL A   1      35.618  22.241  24.677  1.00  0.00     0.135 C 
ATOM     20  C   UNL A   1      33.319  21.521  24.667  1.00  0.00     0.081 C 
ATOM     21  O   UNL A   1      34.709  21.125  24.625  1.00  0.00    -0.369 OA
ATOM     22  C   UNL A   1      37.031  21.670  24.638  1.00  0.00     0.040 C 
ATOM     23  C   UNL A   1      32.938  21.998  26.075  1.00  0.00     0.044 C 
ATOM     24  C   UNL A   1      32.528  20.237  24.366  1.00  0.00     0.044 C 
ENDBRANCH  11  16
ENDBRANCH   5   8
ENDBRANCH   3   4
ENDBRANCH   2   3
ENDBRANCH   1   2
BRANCH   1  25
ATOM     25  N   UNL A   1      32.039  32.764  26.799  1.00  0.00    -0.352 N 
ATOM     26  C   UNL A   1      32.897  33.452  27.625  1.00  0.00     0.251 C 
ATOM     27  H   UNL A   1      31.404  33.336  26.309  1.00  0.00     0.163 HD
ATOM     28  O   UNL A   1      32.624  34.624  27.882  1.00  0.00    -0.269 OA
BRANCH  26  29
ATOM     29  C   UNL A   1      34.115  32.838  28.222  1.00  0.00     0.039 A 
ATOM     30  C   UNL A   1      34.021  31.535  28.729  1.00  0.00     0.014 A 
ATOM     31  C   UNL A   1      35.312  33.537  28.390  1.00  0.00     0.014 A 
ATOM     32  C   UNL A   1      35.117  30.933  29.362  1.00  0.00     0.010 A 
ATOM     33  C   UNL A   1      36.434  32.905  28.938  1.00  0.00     0.010 A 
ATOM     34  C   UNL A   1      36.347  31.602  29.454  1.00  0.00    -0.014 A 
BRANCH  34  35
ATOM     35  C   UNL A   1      37.526  30.983  30.128  1.00  0.00     0.031 A 
ATOM     36  C   UNL A   1      37.874  31.365  31.548  1.00  0.00     0.074 A 
ATOM     37  C   UNL A   1      38.313  30.115  29.462  1.00  0.00     0.049 A 
ATOM     38  N   UNL A   1      38.910  31.022  32.273  1.00  0.00    -0.248 NA
ATOM     39  C   UNL A   1      36.949  32.282  32.228  1.00  0.00     0.031 C 
ATOM     40  C   UNL A   1      38.106  29.676  28.080  1.00  0.00     0.029 A 
ATOM     41  N   UNL A   1      39.450  29.448  29.850  1.00  0.00    -0.354 N 
ATOM     42  C   UNL A   1      38.774  31.701  33.481  1.00  0.00     0.074 A 
ATOM     43  C   UNL A   1      37.587  32.522  33.363  1.00  0.00     0.031 C 
ATOM     44  C   UNL A   1      39.064  28.795  27.748  1.00  0.00     0.029 A 
ATOM     45  C   UNL A   1      39.985  28.642  28.870  1.00  0.00     0.049 A 
ATOM     46  H   UNL A   1      39.845  29.538  30.748  1.00  0.00     0.167 HD
ATOM     47  C   UNL A   1      39.549  31.631  34.593  1.00  0.00     0.034 A 
ATOM     48  C   UNL A   1      41.097  27.879  28.866  1.00  0.00     0.034 A 
ATOM     49  C   UNL A   1      40.713  30.786  34.710  1.00  0.00     0.049 A 
ATOM     50  C   UNL A   1      41.954  27.829  30.107  1.00  0.00     0.074 A 
ATOM     51  C   UNL A   1      41.538  30.599  35.806  1.00  0.00     0.029 A 
ATOM     52  N   UNL A   1      41.219  29.984  33.694  1.00  0.00    -0.354 N 
ATOM     53  N   UNL A   1      41.792  28.456  31.250  1.00  0.00    -0.248 NA
ATOM     54  C   UNL A   1      43.137  26.960  30.060  1.00  0.00     0.031 C 
ATOM     55  C   UNL A   1      42.576  29.737  35.434  1.00  0.00     0.029 A 
ATOM     56  C   UNL A   1      42.358  29.324  34.129  1.00  0.00     0.049 A 
ATOM     57  H   UNL A   1      40.827  29.897  32.795  1.00  0.00     0.167 HD
ATOM     58  C   UNL A   1      42.837  28.031  32.067  1.00  0.00     0.074 A 
ATOM     59  C   UNL A   1      43.611  27.084  31.291  1.00  0.00     0.031 C 
ATOM     60  C   UNL A   1      43.127  28.387  33.343  1.00  0.00     0.034 A 
BRANCH  47  61
ATOM     61  C   UNL A   1      39.173  32.513  35.763  1.00  0.00     0.023 A 
ATOM     62  C   UNL A   1      39.607  33.847  35.854  1.00  0.00     0.031 A 
ATOM     63  C   UNL A   1      38.392  32.006  36.817  1.00  0.00     0.131 A 
ATOM     64  C   UNL A   1      39.332  34.599  37.007  1.00  0.00     0.055 A 
ATOM     65  C   UNL A   1      38.045  32.788  37.922  1.00  0.00     0.041 A 
ATOM     66  F   UNL A   1      37.960  30.735  36.799  1.00  0.00    -0.206 F 
ATOM     67  C   UNL A   1      38.531  34.088  38.031  1.00  0.00     0.022 A 
BRANCH  64  68
ATOM     68  S   UNL A   1      40.163  36.198  37.218  1.00  0.00     0.124 S 
ATOM     69  O   UNL A   1      40.028  36.776  35.883  1.00  0.00    -0.237 OA
ATOM     70  O   UNL A   1      39.371  36.829  38.269  1.00  0.00    -0.237 OA
ATOM     71  O   UNL A   1      41.524  35.830  37.595  1.00  0.00    -0.744 OA
ENDBRANCH  64  68
ENDBRANCH  47  61
BRANCH  48  72
ATOM     72  C   UNL A   1      41.479  27.103  27.651  1.00  0.00     0.023 A 
ATOM     73  C   UNL A   1      41.313  25.710  27.600  1.00  0.00     0.031 A 
ATOM     74  C   UNL A   1      42.055  27.737  26.536  1.00  0.00     0.131 A 
ATOM     75  C   UNL A   1      41.760  24.990  26.481  1.00  0.00     0.055 A 
ATOM     76  C   UNL A   1      42.450  27.024  25.402  1.00  0.00     0.041 A 
ATOM     77  F   UNL A   1      42.235  29.069  26.528  1.00  0.00    -0.206 F 
ATOM     78  C   UNL A   1      42.315  25.640  25.376  1.00  0.00     0.022 A 
BRANCH  75  79
ATOM     79  S   UNL A   1      41.684  23.178  26.526  1.00  0.00     0.124 S 
ATOM     80  O   UNL A   1      40.246  22.940  26.498  1.00  0.00    -0.237 OA
ATOM     81  O   UNL A   1      42.419  22.815  25.317  1.00  0.00    -0.237 OA
ATOM     82  O   UNL A   1      42.351  22.841  27.782  1.00  0.00    -0.744 OA
ENDBRANCH  75  79
ENDBRANCH  48  72
BRANCH  60  83
ATOM     83  C   UNL A   1      44.307  27.708  33.995  1.00  0.00     0.023 A 
ATOM     84  C   UNL A   1      44.147  26.605  34.852  1.00  0.00     0.031 A 
ATOM     85  C   UNL A   1      45.611  28.182  33.764  1.00  0.00     0.131 A 
ATOM     86  C   UNL A   1      45.265  26.048  35.491  1.00  0.00     0.055 A 
ATOM     87  C   UNL A   1      46.725  27.585  34.354  1.00  0.00     0.041 A 
ATOM     88  F   UNL A   1      45.822  29.233  32.957  1.00  0.00    -0.206 F 
ATOM     89  C   UNL A   1      46.555  26.520  35.233  1.00  0.00     0.022 A 
BRANCH  86  90
ATOM     90  S   UNL A   1      45.005  24.754  36.734  1.00  0.00     0.124 S 
ATOM     91  O   UNL A   1      44.559  25.528  37.889  1.00  0.00    -0.237 OA
ATOM     92  O   UNL A   1      43.993  23.912  36.102  1.00  0.00    -0.237 OA
ATOM     93  O   UNL A   1      46.324  24.139  36.872  1.00  0.00    -0.744 OA
ENDBRANCH  86  90
ENDBRANCH  60  83
ENDBRANCH  34  35
ENDBRANCH  26  29
ENDBRANCH   1  25
TORSDOF 15
ENDMDL
