MODEL 1
REMARK VINA RESULT:     -11.5      0.000      0.000
REMARK SMILES O=C(Cc1ccc(=O)n(C(F)F)c1)NCCCNC(=O)c1ccc(-c2c3nc(c(-c4cc(S(=O)(=O)[O-])ccc4F)c4ccc([nH]4)c(-c4cc(S(=O)(=O)[O-])ccc4F)c4nc(c(-c5cc(S(=O)(=O)[O-])ccc5F)c5ccc2[nH]5)C=C4)C=C3)cc1
REMARK SMILES IDX 16 1 15 2 14 3 1 4 2 5 3 7 4 8 5 9 13 10 6 11 9 12 7 13 8 14
REMARK SMILES IDX 10 15 11 16 12 17 17 18 18 19 19 20 20 22 21 23 22 24 83 25
REMARK SMILES IDX 23 26 82 27 24 28 25 29 26 30 76 31 27 32 81 33 75 34 77 35
REMARK SMILES IDX 28 36 80 37 74 38 73 39 29 41 61 42 41 43 60 44 42 45 45 46
REMARK SMILES IDX 59 47 78 48 43 49 44 50 58 52 79 53 46 54 30 55 31 56 39 57
REMARK SMILES IDX 32 58 38 59 40 60 37 61 33 62 34 63 35 64 36 65 62 66 63 67
REMARK SMILES IDX 71 68 64 69 70 70 72 71 69 72 65 73 66 74 67 75 68 76 47 77
REMARK SMILES IDX 48 78 56 79 49 80 55 81 57 82 54 83 50 84 51 85 52 86 53 87
REMARK H PARENT 14 6 18 21 77 40 45 51
REMARK Flexibility Score: inf
ROOT
ATOM      1  C   UNL A   1      32.546  30.963  26.880  1.00  0.00     0.042 C 
ENDROOT
BRANCH   1   2
ATOM      2  C   UNL A   1      33.228  29.827  26.132  1.00  0.00     0.117 C 
BRANCH   2   3
ATOM      3  N   UNL A   1      32.880  29.783  24.726  1.00  0.00    -0.356 N 
ATOM      4  O   UNL A   1      33.041  27.497  24.542  1.00  0.00    -0.275 OA
ATOM      5  C   UNL A   1      32.754  28.584  24.054  1.00  0.00     0.224 C 
ATOM      6  H   UNL A   1      32.732  30.627  24.240  1.00  0.00     0.163 HD
BRANCH   5   7
ATOM      7  C   UNL A   1      32.127  28.724  22.672  1.00  0.00     0.137 C 
BRANCH   7   8
ATOM      8  C   UNL A   1      30.627  28.800  22.820  1.00  0.00    -0.022 A 
ATOM      9  C   UNL A   1      29.916  27.603  23.216  1.00  0.00     0.011 A 
ATOM     10  C   UNL A   1      29.924  29.928  22.615  1.00  0.00     0.099 A 
ATOM     11  C   UNL A   1      28.587  27.613  23.374  1.00  0.00     0.072 A 
ATOM     12  N   UNL A   1      28.551  29.974  22.788  1.00  0.00    -0.258 N 
ATOM     13  C   UNL A   1      27.807  28.862  23.150  1.00  0.00     0.254 A 
ATOM     14  O   UNL A   1      26.590  28.827  23.298  1.00  0.00    -0.269 OA
BRANCH  12  15
ATOM     15  C   UNL A   1      27.830  31.207  22.592  1.00  0.00     0.451 C 
ATOM     16  F   UNL A   1      27.293  31.641  23.758  1.00  0.00    -0.185 F 
ATOM     17  F   UNL A   1      28.645  32.179  22.117  1.00  0.00    -0.185 F 
ENDBRANCH  12  15
ENDBRANCH   7   8
ENDBRANCH   5   7
ENDBRANCH   2   3
ENDBRANCH   1   2
BRANCH   1  18
ATOM     18  C   UNL A   1      33.491  31.977  27.515  1.00  0.00     0.118 C 
BRANCH  18  19
ATOM     19  N   UNL A   1      32.916  33.301  27.702  1.00  0.00    -0.352 N 
ATOM     20  C   UNL A   1      33.294  34.278  28.599  1.00  0.00     0.251 C 
ATOM     21  H   UNL A   1      32.159  33.527  27.112  1.00  0.00     0.163 HD
ATOM     22  O   UNL A   1      32.665  35.328  28.672  1.00  0.00    -0.269 OA
BRANCH  20  23
ATOM     23  C   UNL A   1      34.431  34.013  29.508  1.00  0.00     0.039 A 
ATOM     24  C   UNL A   1      35.731  34.355  29.129  1.00  0.00     0.014 A 
ATOM     25  C   UNL A   1      34.200  33.307  30.691  1.00  0.00     0.014 A 
ATOM     26  C   UNL A   1      36.809  33.818  29.827  1.00  0.00     0.010 A 
ATOM     27  C   UNL A   1      35.286  32.836  31.434  1.00  0.00     0.010 A 
ATOM     28  C   UNL A   1      36.597  33.027  30.969  1.00  0.00    -0.014 A 
BRANCH  28  29
ATOM     29  C   UNL A   1      37.750  32.360  31.634  1.00  0.00     0.031 A 
ATOM     30  C   UNL A   1      38.467  31.220  30.958  1.00  0.00     0.074 A 
ATOM     31  C   UNL A   1      38.187  32.814  32.824  1.00  0.00     0.049 A 
ATOM     32  N   UNL A   1      39.482  30.515  31.387  1.00  0.00    -0.248 NA
ATOM     33  C   UNL A   1      37.983  30.817  29.626  1.00  0.00     0.031 C 
ATOM     34  C   UNL A   1      37.592  33.929  33.559  1.00  0.00     0.029 A 
ATOM     35  N   UNL A   1      39.233  32.411  33.616  1.00  0.00    -0.354 N 
ATOM     36  C   UNL A   1      39.747  29.578  30.393  1.00  0.00     0.074 A 
ATOM     37  C   UNL A   1      38.766  29.782  29.351  1.00  0.00     0.031 C 
ATOM     38  C   UNL A   1      38.305  34.149  34.673  1.00  0.00     0.029 A 
ATOM     39  C   UNL A   1      39.363  33.145  34.772  1.00  0.00     0.049 A 
ATOM     40  H   UNL A   1      39.832  31.667  33.379  1.00  0.00     0.167 HD
ATOM     41  C   UNL A   1      40.728  28.645  30.348  1.00  0.00     0.034 A 
ATOM     42  C   UNL A   1      40.217  33.015  35.808  1.00  0.00     0.034 A 
ATOM     43  C   UNL A   1      41.717  28.468  31.379  1.00  0.00     0.049 A 
ATOM     44  C   UNL A   1      41.260  31.928  35.764  1.00  0.00     0.074 A 
ATOM     45  C   UNL A   1      42.774  27.575  31.404  1.00  0.00     0.029 A 
ATOM     46  N   UNL A   1      41.779  29.192  32.561  1.00  0.00    -0.354 N 
ATOM     47  N   UNL A   1      41.517  31.075  34.801  1.00  0.00    -0.248 NA
ATOM     48  C   UNL A   1      42.123  31.777  36.943  1.00  0.00     0.031 C 
ATOM     49  C   UNL A   1      43.440  27.719  32.622  1.00  0.00     0.029 A 
ATOM     50  C   UNL A   1      42.837  28.744  33.334  1.00  0.00     0.049 A 
ATOM     51  H   UNL A   1      41.162  29.917  32.813  1.00  0.00     0.167 HD
ATOM     52  C   UNL A   1      42.576  30.293  35.253  1.00  0.00     0.074 A 
ATOM     53  C   UNL A   1      42.930  30.793  36.565  1.00  0.00     0.031 C 
ATOM     54  C   UNL A   1      43.190  29.251  34.638  1.00  0.00     0.034 A 
BRANCH  41  55
ATOM     55  C   UNL A   1      40.810  27.737  29.147  1.00  0.00     0.023 A 
ATOM     56  C   UNL A   1      41.705  28.031  28.101  1.00  0.00     0.031 A 
ATOM     57  C   UNL A   1      39.916  26.665  28.976  1.00  0.00     0.131 A 
ATOM     58  C   UNL A   1      41.667  27.279  26.920  1.00  0.00     0.055 A 
ATOM     59  C   UNL A   1      39.905  25.898  27.811  1.00  0.00     0.041 A 
ATOM     60  F   UNL A   1      39.044  26.344  29.947  1.00  0.00    -0.206 F 
ATOM     61  C   UNL A   1      40.775  26.212  26.771  1.00  0.00     0.022 A 
BRANCH  58  62
ATOM     62  S   UNL A   1      42.731  27.690  25.510  1.00  0.00     0.124 S 
ATOM     63  O   UNL A   1      42.066  28.874  24.970  1.00  0.00    -0.237 OA
ATOM     64  O   UNL A   1      44.016  27.938  26.158  1.00  0.00    -0.237 OA
ATOM     65  O   UNL A   1      42.668  26.503  24.665  1.00  0.00    -0.744 OA
ENDBRANCH  58  62
ENDBRANCH  41  55
BRANCH  42  66
ATOM     66  C   UNL A   1      40.119  33.969  36.950  1.00  0.00     0.023 A 
ATOM     67  C   UNL A   1      41.097  34.961  37.148  1.00  0.00     0.031 A 
ATOM     68  C   UNL A   1      39.119  33.824  37.924  1.00  0.00     0.131 A 
ATOM     69  C   UNL A   1      41.101  35.711  38.331  1.00  0.00     0.055 A 
ATOM     70  C   UNL A   1      39.083  34.626  39.067  1.00  0.00     0.041 A 
ATOM     71  F   UNL A   1      38.170  32.885  37.785  1.00  0.00    -0.206 F 
ATOM     72  C   UNL A   1      40.090  35.560  39.285  1.00  0.00     0.022 A 
BRANCH  69  73
ATOM     73  S   UNL A   1      42.501  36.792  38.737  1.00  0.00     0.124 S 
ATOM     74  O   UNL A   1      43.073  36.122  39.900  1.00  0.00    -0.237 OA
ATOM     75  O   UNL A   1      43.295  36.724  37.514  1.00  0.00    -0.237 OA
ATOM     76  O   UNL A   1      41.873  38.083  38.997  1.00  0.00    -0.744 OA
ENDBRANCH  69  73
ENDBRANCH  42  66
BRANCH  54  77
ATOM     77  C   UNL A   1      44.314  28.548  35.359  1.00  0.00     0.023 A 
ATOM     78  C   UNL A   1      44.027  27.544  36.304  1.00  0.00     0.031 A 
ATOM     79  C   UNL A   1      45.641  28.988  35.235  1.00  0.00     0.131 A 
ATOM     80  C   UNL A   1      45.048  27.049  37.123  1.00  0.00     0.055 A 
ATOM     81  C   UNL A   1      46.664  28.459  36.024  1.00  0.00     0.041 A 
ATOM     82  F   UNL A   1      45.962  29.948  34.352  1.00  0.00    -0.206 F 
ATOM     83  C   UNL A   1      46.366  27.495  36.985  1.00  0.00     0.022 A 
BRANCH  80  84
ATOM     84  S   UNL A   1      44.689  25.872  38.457  1.00  0.00     0.124 S 
ATOM     85  O   UNL A   1      44.016  24.793  37.737  1.00  0.00    -0.237 OA
ATOM     86  O   UNL A   1      46.025  25.553  38.953  1.00  0.00    -0.237 OA
ATOM     87  O   UNL A   1      43.842  26.627  39.375  1.00  0.00    -0.744 OA
ENDBRANCH  80  84
ENDBRANCH  54  77
ENDBRANCH  28  29
ENDBRANCH  20  23
ENDBRANCH  18  19
ENDBRANCH   1  18
TORSDOF 15
ENDMDL
MODEL 2
REMARK VINA RESULT:     -11.4      0.364      7.760
REMARK SMILES O=C(Cc1ccc(=O)n(C(F)F)c1)NCCCNC(=O)c1ccc(-c2c3nc(c(-c4cc(S(=O)(=O)[O-])ccc4F)c4ccc([nH]4)c(-c4cc(S(=O)(=O)[O-])ccc4F)c4nc(c(-c5cc(S(=O)(=O)[O-])ccc5F)c5ccc2[nH]5)C=C4)C=C3)cc1
REMARK SMILES IDX 16 1 15 2 14 3 1 4 2 5 3 7 4 8 5 9 13 10 6 11 9 12 7 13 8 14
REMARK SMILES IDX 10 15 11 16 12 17 17 18 18 19 19 20 20 22 21 23 22 24 83 25
REMARK SMILES IDX 23 26 82 27 24 28 25 29 26 30 76 31 27 32 81 33 75 34 77 35
REMARK SMILES IDX 28 36 80 37 74 38 73 39 29 41 61 42 41 43 60 44 42 45 45 46
REMARK SMILES IDX 59 47 78 48 43 49 44 50 58 52 79 53 46 54 30 55 31 56 39 57
REMARK SMILES IDX 32 58 38 59 40 60 37 61 33 62 34 63 35 64 36 65 62 66 63 67
REMARK SMILES IDX 71 68 64 69 70 70 72 71 69 72 65 73 66 74 67 75 68 76 47 77
REMARK SMILES IDX 48 78 56 79 49 80 55 81 57 82 54 83 50 84 51 85 52 86 53 87
REMARK H PARENT 14 6 18 21 77 40 45 51
REMARK Flexibility Score: inf
ROOT
ATOM      1  C   UNL A   1      32.541  31.039  26.697  1.00  0.00     0.042 C 
ENDROOT
BRANCH   1   2
ATOM      2  C   UNL A   1      33.292  29.879  26.062  1.00  0.00     0.117 C 
BRANCH   2   3
ATOM      3  N   UNL A   1      32.954  29.679  24.667  1.00  0.00    -0.356 N 
ATOM      4  O   UNL A   1      32.768  27.393  24.823  1.00  0.00    -0.275 OA
ATOM      5  C   UNL A   1      32.654  28.426  24.173  1.00  0.00     0.224 C 
ATOM      6  H   UNL A   1      32.940  30.454  24.060  1.00  0.00     0.163 HD
BRANCH   5   7
ATOM      7  C   UNL A   1      32.068  28.451  22.766  1.00  0.00     0.137 C 
BRANCH   7   8
ATOM      8  C   UNL A   1      30.569  28.594  22.862  1.00  0.00    -0.022 A 
ATOM      9  C   UNL A   1      29.801  27.460  23.333  1.00  0.00     0.011 A 
ATOM     10  C   UNL A   1      29.916  29.726  22.545  1.00  0.00     0.099 A 
ATOM     11  C   UNL A   1      28.470  27.532  23.450  1.00  0.00     0.072 A 
ATOM     12  N   UNL A   1      28.542  29.835  22.673  1.00  0.00    -0.258 N 
ATOM     13  C   UNL A   1      27.745  28.785  23.102  1.00  0.00     0.254 A 
ATOM     14  O   UNL A   1      26.524  28.807  23.215  1.00  0.00    -0.269 OA
BRANCH  12  15
ATOM     15  C   UNL A   1      27.874  31.073  22.356  1.00  0.00     0.451 C 
ATOM     16  F   UNL A   1      27.473  31.708  23.484  1.00  0.00    -0.185 F 
ATOM     17  F   UNL A   1      28.693  31.909  21.672  1.00  0.00    -0.185 F 
ENDBRANCH  12  15
ENDBRANCH   7   8
ENDBRANCH   5   7
ENDBRANCH   2   3
ENDBRANCH   1   2
BRANCH   1  18
ATOM     18  C   UNL A   1      33.379  31.932  27.605  1.00  0.00     0.118 C 
BRANCH  18  19
ATOM     19  N   UNL A   1      32.890  33.297  27.724  1.00  0.00    -0.352 N 
ATOM     20  C   UNL A   1      33.357  34.305  28.544  1.00  0.00     0.251 C 
ATOM     21  H   UNL A   1      32.127  33.533  27.146  1.00  0.00     0.163 HD
ATOM     22  O   UNL A   1      32.794  35.393  28.569  1.00  0.00    -0.269 OA
BRANCH  20  23
ATOM     23  C   UNL A   1      34.508  34.028  29.431  1.00  0.00     0.039 A 
ATOM     24  C   UNL A   1      35.809  34.307  29.007  1.00  0.00     0.014 A 
ATOM     25  C   UNL A   1      34.284  33.371  30.643  1.00  0.00     0.014 A 
ATOM     26  C   UNL A   1      36.885  33.754  29.695  1.00  0.00     0.010 A 
ATOM     27  C   UNL A   1      35.372  32.885  31.374  1.00  0.00     0.010 A 
ATOM     28  C   UNL A   1      36.676  33.010  30.868  1.00  0.00    -0.014 A 
BRANCH  28  29
ATOM     29  C   UNL A   1      37.822  32.324  31.525  1.00  0.00     0.031 A 
ATOM     30  C   UNL A   1      38.250  32.714  32.917  1.00  0.00     0.074 A 
ATOM     31  C   UNL A   1      38.444  31.312  30.892  1.00  0.00     0.049 A 
ATOM     32  N   UNL A   1      39.227  32.234  33.643  1.00  0.00    -0.248 NA
ATOM     33  C   UNL A   1      37.483  33.781  33.582  1.00  0.00     0.031 C 
ATOM     34  C   UNL A   1      38.099  30.826  29.557  1.00  0.00     0.029 A 
ATOM     35  N   UNL A   1      39.482  30.503  31.285  1.00  0.00    -0.354 N 
ATOM     36  C   UNL A   1      39.205  32.949  34.836  1.00  0.00     0.074 A 
ATOM     37  C   UNL A   1      38.138  33.918  34.727  1.00  0.00     0.031 C 
ATOM     38  C   UNL A   1      38.879  29.778  29.257  1.00  0.00     0.029 A 
ATOM     39  C   UNL A   1      39.832  29.562  30.345  1.00  0.00     0.049 A 
ATOM     40  H   UNL A   1      39.931  30.588  32.156  1.00  0.00     0.167 HD
ATOM     41  C   UNL A   1      39.993  32.799  35.928  1.00  0.00     0.034 A 
ATOM     42  C   UNL A   1      40.821  28.644  30.341  1.00  0.00     0.034 A 
ATOM     43  C   UNL A   1      41.036  31.812  36.038  1.00  0.00     0.049 A 
ATOM     44  C   UNL A   1      41.724  28.539  31.542  1.00  0.00     0.074 A 
ATOM     45  C   UNL A   1      41.861  31.559  37.120  1.00  0.00     0.029 A 
ATOM     46  N   UNL A   1      41.398  30.918  35.041  1.00  0.00    -0.354 N 
ATOM     47  N   UNL A   1      41.667  29.198  32.675  1.00  0.00    -0.248 NA
ATOM     48  C   UNL A   1      42.831  27.575  31.466  1.00  0.00     0.031 C 
ATOM     49  C   UNL A   1      42.757  30.552  36.759  1.00  0.00     0.029 A 
ATOM     50  C   UNL A   1      42.455  30.132  35.473  1.00  0.00     0.049 A 
ATOM     51  H   UNL A   1      40.969  30.851  34.158  1.00  0.00     0.167 HD
ATOM     52  C   UNL A   1      42.720  28.724  33.450  1.00  0.00     0.074 A 
ATOM     53  C   UNL A   1      43.383  27.701  32.667  1.00  0.00     0.031 C 
ATOM     54  C   UNL A   1      43.106  29.109  34.692  1.00  0.00     0.034 A 
BRANCH  41  55
ATOM     55  C   UNL A   1      39.769  33.704  37.114  1.00  0.00     0.023 A 
ATOM     56  C   UNL A   1      40.641  34.783  37.353  1.00  0.00     0.031 A 
ATOM     57  C   UNL A   1      38.780  33.422  38.073  1.00  0.00     0.131 A 
ATOM     58  C   UNL A   1      40.525  35.522  38.536  1.00  0.00     0.055 A 
ATOM     59  C   UNL A   1      38.648  34.183  39.235  1.00  0.00     0.041 A 
ATOM     60  F   UNL A   1      37.923  32.404  37.889  1.00  0.00    -0.206 F 
ATOM     61  C   UNL A   1      39.531  35.231  39.477  1.00  0.00     0.022 A 
BRANCH  58  62
ATOM     62  S   UNL A   1      41.693  36.853  38.930  1.00  0.00     0.124 S 
ATOM     63  O   UNL A   1      42.501  36.238  39.982  1.00  0.00    -0.237 OA
ATOM     64  O   UNL A   1      42.375  37.049  37.654  1.00  0.00    -0.237 OA
ATOM     65  O   UNL A   1      40.840  37.952  39.366  1.00  0.00    -0.744 OA
ENDBRANCH  58  62
ENDBRANCH  41  55
BRANCH  42  66
ATOM     66  C   UNL A   1      40.969  27.745  29.160  1.00  0.00     0.023 A 
ATOM     67  C   UNL A   1      41.948  27.996  28.181  1.00  0.00     0.031 A 
ATOM     68  C   UNL A   1      40.059  26.700  28.933  1.00  0.00     0.131 A 
ATOM     69  C   UNL A   1      41.941  27.268  26.984  1.00  0.00     0.055 A 
ATOM     70  C   UNL A   1      40.103  25.927  27.770  1.00  0.00     0.041 A 
ATOM     71  F   UNL A   1      39.102  26.429  29.833  1.00  0.00    -0.206 F 
ATOM     72  C   UNL A   1      41.034  26.224  26.780  1.00  0.00     0.022 A 
BRANCH  69  73
ATOM     73  S   UNL A   1      43.004  27.755  25.597  1.00  0.00     0.124 S 
ATOM     74  O   UNL A   1      44.006  28.584  26.260  1.00  0.00    -0.237 OA
ATOM     75  O   UNL A   1      43.475  26.460  25.114  1.00  0.00    -0.237 OA
ATOM     76  O   UNL A   1      42.096  28.459  24.698  1.00  0.00    -0.744 OA
ENDBRANCH  69  73
ENDBRANCH  42  66
BRANCH  54  77
ATOM     77  C   UNL A   1      44.310  28.445  35.313  1.00  0.00     0.023 A 
ATOM     78  C   UNL A   1      44.139  27.439  36.283  1.00  0.00     0.031 A 
ATOM     79  C   UNL A   1      45.608  28.924  35.071  1.00  0.00     0.131 A 
ATOM     80  C   UNL A   1      45.243  26.980  37.011  1.00  0.00     0.055 A 
ATOM     81  C   UNL A   1      46.712  28.431  35.768  1.00  0.00     0.041 A 
ATOM     82  F   UNL A   1      45.819  29.888  34.160  1.00  0.00    -0.206 F 
ATOM     83  C   UNL A   1      46.529  27.466  36.756  1.00  0.00     0.022 A 
BRANCH  80  84
ATOM     84  S   UNL A   1      45.040  25.802  38.376  1.00  0.00     0.124 S 
ATOM     85  O   UNL A   1      46.400  25.711  38.903  1.00  0.00    -0.237 OA
ATOM     86  O   UNL A   1      44.082  26.489  39.236  1.00  0.00    -0.237 OA
ATOM     87  O   UNL A   1      44.545  24.592  37.726  1.00  0.00    -0.744 OA
ENDBRANCH  80  84
ENDBRANCH  54  77
ENDBRANCH  28  29
ENDBRANCH  20  23
ENDBRANCH  18  19
ENDBRANCH   1  18
TORSDOF 15
ENDMDL
MODEL 3
REMARK VINA RESULT:     -11.3      2.351      8.127
REMARK SMILES O=C(Cc1ccc(=O)n(C(F)F)c1)NCCCNC(=O)c1ccc(-c2c3nc(c(-c4cc(S(=O)(=O)[O-])ccc4F)c4ccc([nH]4)c(-c4cc(S(=O)(=O)[O-])ccc4F)c4nc(c(-c5cc(S(=O)(=O)[O-])ccc5F)c5ccc2[nH]5)C=C4)C=C3)cc1
REMARK SMILES IDX 16 1 15 2 14 3 1 4 2 5 3 7 4 8 5 9 13 10 6 11 9 12 7 13 8 14
REMARK SMILES IDX 10 15 11 16 12 17 17 18 18 19 19 20 20 22 21 23 22 24 83 25
REMARK SMILES IDX 23 26 82 27 24 28 25 29 26 30 76 31 27 32 81 33 75 34 77 35
REMARK SMILES IDX 28 36 80 37 74 38 73 39 29 41 61 42 41 43 60 44 42 45 45 46
REMARK SMILES IDX 59 47 78 48 43 49 44 50 58 52 79 53 46 54 30 55 31 56 39 57
REMARK SMILES IDX 32 58 38 59 40 60 37 61 33 62 34 63 35 64 36 65 62 66 63 67
REMARK SMILES IDX 71 68 64 69 70 70 72 71 69 72 65 73 66 74 67 75 68 76 47 77
REMARK SMILES IDX 48 78 56 79 49 80 55 81 57 82 54 83 50 84 51 85 52 86 53 87
REMARK H PARENT 14 6 18 21 77 40 45 51
REMARK Flexibility Score: inf
ROOT
ATOM      1  C   UNL A   1      31.591  31.853  26.945  1.00  0.00     0.042 C 
ENDROOT
BRANCH   1   2
ATOM      2  C   UNL A   1      32.328  30.523  26.905  1.00  0.00     0.117 C 
BRANCH   2   3
ATOM      3  N   UNL A   1      32.296  29.895  25.600  1.00  0.00    -0.356 N 
ATOM      4  O   UNL A   1      32.192  27.744  26.406  1.00  0.00    -0.275 OA
ATOM      5  C   UNL A   1      32.165  28.528  25.463  1.00  0.00     0.224 C 
ATOM      6  H   UNL A   1      32.372  30.456  24.794  1.00  0.00     0.163 HD
BRANCH   5   7
ATOM      7  C   UNL A   1      31.883  28.083  24.034  1.00  0.00     0.137 C 
BRANCH   7   8
ATOM      8  C   UNL A   1      30.427  28.327  23.723  1.00  0.00    -0.022 A 
ATOM      9  C   UNL A   1      29.510  27.211  23.819  1.00  0.00     0.011 A 
ATOM     10  C   UNL A   1      29.940  29.532  23.376  1.00  0.00     0.099 A 
ATOM     11  C   UNL A   1      28.205  27.370  23.567  1.00  0.00     0.072 A 
ATOM     12  N   UNL A   1      28.593  29.730  23.126  1.00  0.00    -0.258 N 
ATOM     13  C   UNL A   1      27.664  28.703  23.184  1.00  0.00     0.254 A 
ATOM     14  O   UNL A   1      26.463  28.804  22.954  1.00  0.00    -0.269 OA
BRANCH  12  15
ATOM     15  C   UNL A   1      28.097  31.040  22.788  1.00  0.00     0.451 C 
ATOM     16  F   UNL A   1      27.529  31.039  21.558  1.00  0.00    -0.185 F 
ATOM     17  F   UNL A   1      27.166  31.456  23.680  1.00  0.00    -0.185 F 
ENDBRANCH  12  15
ENDBRANCH   7   8
ENDBRANCH   5   7
ENDBRANCH   2   3
ENDBRANCH   1   2
BRANCH   1  18
ATOM     18  C   UNL A   1      32.451  33.078  26.654  1.00  0.00     0.118 C 
BRANCH  18  19
ATOM     19  N   UNL A   1      32.335  34.142  27.640  1.00  0.00    -0.352 N 
ATOM     20  C   UNL A   1      33.177  34.426  28.695  1.00  0.00     0.251 C 
ATOM     21  H   UNL A   1      31.555  34.736  27.541  1.00  0.00     0.163 HD
ATOM     22  O   UNL A   1      32.907  35.330  29.478  1.00  0.00    -0.269 OA
BRANCH  20  23
ATOM     23  C   UNL A   1      34.377  33.583  28.898  1.00  0.00     0.039 A 
ATOM     24  C   UNL A   1      34.247  32.266  29.344  1.00  0.00     0.014 A 
ATOM     25  C   UNL A   1      35.640  34.162  28.757  1.00  0.00     0.014 A 
ATOM     26  C   UNL A   1      35.364  31.599  29.837  1.00  0.00     0.010 A 
ATOM     27  C   UNL A   1      36.771  33.457  29.180  1.00  0.00     0.010 A 
ATOM     28  C   UNL A   1      36.633  32.200  29.790  1.00  0.00    -0.014 A 
BRANCH  28  29
ATOM     29  C   UNL A   1      37.796  31.527  30.430  1.00  0.00     0.031 A 
ATOM     30  C   UNL A   1      38.176  31.848  31.853  1.00  0.00     0.074 A 
ATOM     31  C   UNL A   1      38.481  30.588  29.749  1.00  0.00     0.049 A 
ATOM     32  N   UNL A   1      39.161  31.369  32.570  1.00  0.00    -0.248 NA
ATOM     33  C   UNL A   1      37.344  32.832  32.565  1.00  0.00     0.031 C 
ATOM     34  C   UNL A   1      38.187  30.173  28.379  1.00  0.00     0.029 A 
ATOM     35  N   UNL A   1      39.548  29.806  30.115  1.00  0.00    -0.354 N 
ATOM     36  C   UNL A   1      39.079  32.004  33.806  1.00  0.00     0.074 A 
ATOM     37  C   UNL A   1      37.968  32.926  33.732  1.00  0.00     0.031 C 
ATOM     38  C   UNL A   1      39.023  29.185  28.032  1.00  0.00     0.029 A 
ATOM     39  C   UNL A   1      39.963  28.944  29.126  1.00  0.00     0.049 A 
ATOM     40  H   UNL A   1      39.975  29.856  31.000  1.00  0.00     0.167 HD
ATOM     41  C   UNL A   1      39.851  31.822  34.904  1.00  0.00     0.034 A 
ATOM     42  C   UNL A   1      40.995  28.076  29.088  1.00  0.00     0.034 A 
ATOM     43  C   UNL A   1      40.937  30.881  34.976  1.00  0.00     0.049 A 
ATOM     44  C   UNL A   1      41.878  27.937  30.301  1.00  0.00     0.074 A 
ATOM     45  C   UNL A   1      41.751  30.598  36.060  1.00  0.00     0.029 A 
ATOM     46  N   UNL A   1      41.364  30.070  33.935  1.00  0.00    -0.354 N 
ATOM     47  N   UNL A   1      41.765  28.520  31.472  1.00  0.00    -0.248 NA
ATOM     48  C   UNL A   1      43.032  27.034  30.192  1.00  0.00     0.031 C 
ATOM     49  C   UNL A   1      42.703  29.659  35.658  1.00  0.00     0.029 A 
ATOM     50  C   UNL A   1      42.448  29.309  34.341  1.00  0.00     0.049 A 
ATOM     51  H   UNL A   1      40.956  30.039  33.039  1.00  0.00     0.167 HD
ATOM     52  C   UNL A   1      42.824  28.047  32.240  1.00  0.00     0.074 A 
ATOM     53  C   UNL A   1      43.552  27.109  31.411  1.00  0.00     0.031 C 
ATOM     54  C   UNL A   1      43.164  28.370  33.513  1.00  0.00     0.034 A 
BRANCH  41  55
ATOM     55  C   UNL A   1      39.558  32.638  36.139  1.00  0.00     0.023 A 
ATOM     56  C   UNL A   1      38.628  32.171  37.088  1.00  0.00     0.031 A 
ATOM     57  C   UNL A   1      40.093  33.927  36.309  1.00  0.00     0.131 A 
ATOM     58  C   UNL A   1      38.242  33.000  38.148  1.00  0.00     0.055 A 
ATOM     59  C   UNL A   1      39.729  34.735  37.386  1.00  0.00     0.041 A 
ATOM     60  F   UNL A   1      40.985  34.415  35.430  1.00  0.00    -0.206 F 
ATOM     61  C   UNL A   1      38.789  34.278  38.305  1.00  0.00     0.022 A 
BRANCH  58  62
ATOM     62  S   UNL A   1      36.972  32.478  39.333  1.00  0.00     0.124 S 
ATOM     63  O   UNL A   1      37.301  31.066  39.521  1.00  0.00    -0.237 OA
ATOM     64  O   UNL A   1      37.249  33.341  40.478  1.00  0.00    -0.237 OA
ATOM     65  O   UNL A   1      35.716  32.735  38.638  1.00  0.00    -0.744 OA
ENDBRANCH  58  62
ENDBRANCH  41  55
BRANCH  42  66
ATOM     66  C   UNL A   1      41.211  27.263  27.857  1.00  0.00     0.023 A 
ATOM     67  C   UNL A   1      40.847  25.904  27.817  1.00  0.00     0.031 A 
ATOM     68  C   UNL A   1      41.892  27.798  26.753  1.00  0.00     0.131 A 
ATOM     69  C   UNL A   1      41.241  25.108  26.734  1.00  0.00     0.055 A 
ATOM     70  C   UNL A   1      42.217  27.017  25.640  1.00  0.00     0.041 A 
ATOM     71  F   UNL A   1      42.268  29.086  26.748  1.00  0.00    -0.206 F 
ATOM     72  C   UNL A   1      41.910  25.661  25.637  1.00  0.00     0.022 A 
BRANCH  69  73
ATOM     73  S   UNL A   1      41.034  23.306  26.785  1.00  0.00     0.124 S 
ATOM     74  O   UNL A   1      41.439  22.993  28.151  1.00  0.00    -0.237 OA
ATOM     75  O   UNL A   1      39.610  23.162  26.498  1.00  0.00    -0.237 OA
ATOM     76  O   UNL A   1      41.928  22.828  25.735  1.00  0.00    -0.744 OA
ENDBRANCH  69  73
ENDBRANCH  42  66
BRANCH  54  77
ATOM     77  C   UNL A   1      44.386  27.725  34.120  1.00  0.00     0.023 A 
ATOM     78  C   UNL A   1      44.256  26.553  34.890  1.00  0.00     0.031 A 
ATOM     79  C   UNL A   1      45.638  28.361  34.077  1.00  0.00     0.131 A 
ATOM     80  C   UNL A   1      45.349  26.082  35.627  1.00  0.00     0.055 A 
ATOM     81  C   UNL A   1      46.736  27.861  34.778  1.00  0.00     0.041 A 
ATOM     82  F   UNL A   1      45.807  29.485  33.361  1.00  0.00    -0.206 F 
ATOM     83  C   UNL A   1      46.590  26.725  35.571  1.00  0.00     0.022 A 
BRANCH  80  84
ATOM     84  S   UNL A   1      45.179  24.669  36.753  1.00  0.00     0.124 S 
ATOM     85  O   UNL A   1      44.050  25.080  37.586  1.00  0.00    -0.237 OA
ATOM     86  O   UNL A   1      44.906  23.571  35.830  1.00  0.00    -0.237 OA
ATOM     87  O   UNL A   1      46.465  24.608  37.439  1.00  0.00    -0.744 OA
ENDBRANCH  80  84
ENDBRANCH  54  77
ENDBRANCH  28  29
ENDBRANCH  20  23
ENDBRANCH  18  19
ENDBRANCH   1  18
TORSDOF 15
ENDMDL
