MODEL 1
REMARK VINA RESULT:     -10.1      0.000      0.000
REMARK SMILES Cc1nc([C@H](C)[NH2+]CC(=O)NCCCNC(=O)c2ccc(-c3c4nc(c(-c5cc(S(=O)(=O)[O-])ccc5F)c5ccc([nH]5)c(-c5cc(S(=O)(=O)[O-])ccc5F)c5nc(c(-c6cc(S(=O)(=O)[O-])ccc6F)c6ccc3[nH]6)C=C5)C=C4)cc2)cs1
REMARK SMILES IDX 13 1 12 2 11 3 9 4 10 5 8 7 7 8 5 11 6 12 4 13 1 14 2 15
REMARK SMILES IDX 3 16 82 17 81 18 14 19 15 20 16 21 17 23 18 24 19 25 80 26
REMARK SMILES IDX 20 27 79 28 21 29 22 30 23 31 73 32 24 33 78 34 72 35 74 36
REMARK SMILES IDX 25 37 77 38 71 39 70 40 26 42 58 43 38 44 57 45 39 46 42 47
REMARK SMILES IDX 56 48 75 49 40 50 41 51 55 53 76 54 43 55 27 56 28 57 36 58
REMARK SMILES IDX 29 59 35 60 37 61 34 62 30 63 31 64 32 65 33 66 59 67 60 68
REMARK SMILES IDX 68 69 61 70 67 71 69 72 66 73 62 74 63 75 64 76 65 77 44 78
REMARK SMILES IDX 45 79 53 80 46 81 52 82 54 83 51 84 47 85 48 86 49 87 50 88
REMARK H PARENT 11 6 7 9 7 10 15 22 74 41 42 52
REMARK Flexibility Score: inf
ROOT
ATOM      1  C   UNL A   1      33.503  34.203  28.379  1.00  0.00     0.042 C 
ENDROOT
BRANCH   1   2
ATOM      2  C   UNL A   1      34.090  35.597  28.686  1.00  0.00     0.118 C 
BRANCH   2   3
ATOM      3  N   UNL A   1      33.340  36.521  29.530  1.00  0.00    -0.351 N 
ATOM      4  C   UNL A   1      33.251  36.627  30.893  1.00  0.00     0.275 C 
ATOM      5  O   UNL A   1      32.896  37.715  31.360  1.00  0.00    -0.269 OA
ATOM      6  H   UNL A   1      32.804  37.181  29.034  1.00  0.00     0.163 HD
BRANCH   4   7
ATOM      7  C   UNL A   1      33.438  35.416  31.815  1.00  0.00     0.362 C 
BRANCH   7   8
ATOM      8  N   UNL A   1      34.872  35.079  31.985  1.00  0.00    -0.331 N 
ATOM      9  H   UNL A   1      35.316  35.051  31.067  1.00  0.00     0.347 HD
ATOM     10  H   UNL A   1      35.300  35.792  32.575  1.00  0.00     0.347 HD
BRANCH   8  11
ATOM     11  C   UNL A   1      35.049  33.774  32.639  1.00  0.00     0.230 C 
ATOM     12  C   UNL A   1      34.798  32.638  31.652  1.00  0.00     0.082 C 
BRANCH  11  13
ATOM     13  C   UNL A   1      36.349  33.667  33.415  1.00  0.00     0.108 A 
ATOM     14  C   UNL A   1      37.844  32.661  36.604  1.00  0.00     0.079 C 
ATOM     15  C   UNL A   1      37.515  33.178  35.251  1.00  0.00     0.090 A 
ATOM     16  N   UNL A   1      36.336  33.081  34.676  1.00  0.00    -0.240 NA
ATOM     17  S   UNL A   1      38.712  34.008  34.348  1.00  0.00    -0.127 S 
ATOM     18  C   UNL A   1      37.581  34.211  33.083  1.00  0.00     0.096 A 
ENDBRANCH  11  13
ENDBRANCH   8  11
ENDBRANCH   7   8
ENDBRANCH   4   7
ENDBRANCH   2   3
ENDBRANCH   1   2
BRANCH   1  19
ATOM     19  C   UNL A   1      34.450  33.050  28.019  1.00  0.00     0.118 C 
BRANCH  19  20
ATOM     20  N   UNL A   1      33.754  31.838  27.622  1.00  0.00    -0.352 N 
ATOM     21  C   UNL A   1      34.184  30.534  27.603  1.00  0.00     0.251 C 
ATOM     22  H   UNL A   1      32.827  31.974  27.318  1.00  0.00     0.163 HD
ATOM     23  O   UNL A   1      33.436  29.676  27.120  1.00  0.00    -0.269 OA
BRANCH  21  24
ATOM     24  C   UNL A   1      35.520  30.122  28.106  1.00  0.00     0.039 A 
ATOM     25  C   UNL A   1      35.623  29.701  29.437  1.00  0.00     0.014 A 
ATOM     26  C   UNL A   1      36.681  30.236  27.333  1.00  0.00     0.014 A 
ATOM     27  C   UNL A   1      36.868  29.341  29.974  1.00  0.00     0.010 A 
ATOM     28  C   UNL A   1      37.926  29.854  27.870  1.00  0.00     0.010 A 
ATOM     29  C   UNL A   1      38.033  29.385  29.191  1.00  0.00    -0.014 A 
BRANCH  29  30
ATOM     30  C   UNL A   1      39.326  28.863  29.736  1.00  0.00     0.031 A 
ATOM     31  C   UNL A   1      39.965  29.445  30.971  1.00  0.00     0.074 A 
ATOM     32  C   UNL A   1      39.942  27.845  29.100  1.00  0.00     0.049 A 
ATOM     33  N   UNL A   1      41.081  29.098  31.568  1.00  0.00    -0.248 NA
ATOM     34  C   UNL A   1      39.267  30.566  31.613  1.00  0.00     0.031 C 
ATOM     35  C   UNL A   1      39.445  27.192  27.887  1.00  0.00     0.029 A 
ATOM     36  N   UNL A   1      41.114  27.180  29.374  1.00  0.00    -0.354 N 
ATOM     37  C   UNL A   1      41.220  29.951  32.659  1.00  0.00     0.074 A 
ATOM     38  C   UNL A   1      40.092  30.862  32.610  1.00  0.00     0.031 C 
ATOM     39  C   UNL A   1      40.290  26.212  27.536  1.00  0.00     0.029 A 
ATOM     40  C   UNL A   1      41.417  26.191  28.464  1.00  0.00     0.049 A 
ATOM     41  H   UNL A   1      41.682  27.390  30.150  1.00  0.00     0.167 HD
ATOM     42  C   UNL A   1      42.186  29.966  33.616  1.00  0.00     0.034 A 
ATOM     43  C   UNL A   1      42.485  25.370  28.368  1.00  0.00     0.034 A 
ATOM     44  C   UNL A   1      43.315  29.060  33.652  1.00  0.00     0.049 A 
ATOM     45  C   UNL A   1      43.577  25.454  29.404  1.00  0.00     0.074 A 
ATOM     46  C   UNL A   1      44.313  28.966  34.611  1.00  0.00     0.029 A 
ATOM     47  N   UNL A   1      43.613  28.107  32.687  1.00  0.00    -0.354 N 
ATOM     48  N   UNL A   1      43.662  26.233  30.457  1.00  0.00    -0.248 NA
ATOM     49  C   UNL A   1      44.718  24.541  29.240  1.00  0.00     0.031 C 
ATOM     50  C   UNL A   1      45.254  28.022  34.182  1.00  0.00     0.029 A 
ATOM     51  C   UNL A   1      44.802  27.460  33.001  1.00  0.00     0.049 A 
ATOM     52  H   UNL A   1      43.062  27.918  31.894  1.00  0.00     0.167 HD
ATOM     53  C   UNL A   1      44.851  25.884  31.092  1.00  0.00     0.074 A 
ATOM     54  C   UNL A   1      45.438  24.811  30.318  1.00  0.00     0.031 C 
ATOM     55  C   UNL A   1      45.404  26.406  32.217  1.00  0.00     0.034 A 
BRANCH  42  56
ATOM     56  C   UNL A   1      42.088  31.023  34.694  1.00  0.00     0.023 A 
ATOM     57  C   UNL A   1      42.525  32.342  34.482  1.00  0.00     0.031 A 
ATOM     58  C   UNL A   1      41.539  30.710  35.952  1.00  0.00     0.131 A 
ATOM     59  C   UNL A   1      42.470  33.277  35.527  1.00  0.00     0.055 A 
ATOM     60  C   UNL A   1      41.413  31.667  36.963  1.00  0.00     0.041 A 
ATOM     61  F   UNL A   1      41.116  29.465  36.223  1.00  0.00    -0.206 F 
ATOM     62  C   UNL A   1      41.893  32.956  36.758  1.00  0.00     0.022 A 
BRANCH  59  63
ATOM     63  S   UNL A   1      43.289  34.880  35.302  1.00  0.00     0.124 S 
ATOM     64  O   UNL A   1      42.199  35.698  34.775  1.00  0.00    -0.237 OA
ATOM     65  O   UNL A   1      43.727  35.201  36.659  1.00  0.00    -0.237 OA
ATOM     66  O   UNL A   1      44.358  34.591  34.354  1.00  0.00    -0.744 OA
ENDBRANCH  59  63
ENDBRANCH  42  56
BRANCH  43  67
ATOM     67  C   UNL A   1      42.598  24.414  27.228  1.00  0.00     0.023 A 
ATOM     68  C   UNL A   1      41.999  23.146  27.278  1.00  0.00     0.031 A 
ATOM     69  C   UNL A   1      43.358  24.737  26.089  1.00  0.00     0.131 A 
ATOM     70  C   UNL A   1      42.204  22.231  26.233  1.00  0.00     0.055 A 
ATOM     71  C   UNL A   1      43.511  23.847  25.025  1.00  0.00     0.041 A 
ATOM     72  F   UNL A   1      43.957  25.935  25.989  1.00  0.00    -0.206 F 
ATOM     73  C   UNL A   1      42.944  22.579  25.100  1.00  0.00     0.022 A 
BRANCH  70  74
ATOM     74  S   UNL A   1      41.571  20.541  26.415  1.00  0.00     0.124 S 
ATOM     75  O   UNL A   1      40.144  20.732  26.167  1.00  0.00    -0.237 OA
ATOM     76  O   UNL A   1      42.311  19.828  25.379  1.00  0.00    -0.237 OA
ATOM     77  O   UNL A   1      41.925  20.190  27.786  1.00  0.00    -0.744 OA
ENDBRANCH  70  74
ENDBRANCH  43  67
BRANCH  55  78
ATOM     78  C   UNL A   1      46.704  25.796  32.693  1.00  0.00     0.023 A 
ATOM     79  C   UNL A   1      46.730  24.721  33.601  1.00  0.00     0.031 A 
ATOM     80  C   UNL A   1      47.936  26.312  32.251  1.00  0.00     0.131 A 
ATOM     81  C   UNL A   1      47.958  24.237  34.081  1.00  0.00     0.055 A 
ATOM     82  C   UNL A   1      49.155  25.783  32.683  1.00  0.00     0.041 A 
ATOM     83  F   UNL A   1      47.977  27.341  31.391  1.00  0.00    -0.206 F 
ATOM     84  C   UNL A   1      49.170  24.749  33.613  1.00  0.00     0.022 A 
BRANCH  81  85
ATOM     85  S   UNL A   1      47.949  22.993  35.402  1.00  0.00     0.124 S 
ATOM     86  O   UNL A   1      49.348  22.982  35.817  1.00  0.00    -0.237 OA
ATOM     87  O   UNL A   1      47.005  23.560  36.359  1.00  0.00    -0.237 OA
ATOM     88  O   UNL A   1      47.493  21.779  34.728  1.00  0.00    -0.744 OA
ENDBRANCH  81  85
ENDBRANCH  55  78
ENDBRANCH  29  30
ENDBRANCH  21  24
ENDBRANCH  19  20
ENDBRANCH   1  19
TORSDOF 16
ENDMDL
MODEL 2
REMARK VINA RESULT:     -10.0      6.107     11.952
REMARK SMILES Cc1nc([C@H](C)[NH2+]CC(=O)NCCCNC(=O)c2ccc(-c3c4nc(c(-c5cc(S(=O)(=O)[O-])ccc5F)c5ccc([nH]5)c(-c5cc(S(=O)(=O)[O-])ccc5F)c5nc(c(-c6cc(S(=O)(=O)[O-])ccc6F)c6ccc3[nH]6)C=C5)C=C4)cc2)cs1
REMARK SMILES IDX 13 1 12 2 11 3 9 4 10 5 8 7 7 8 5 11 6 12 4 13 1 14 2 15
REMARK SMILES IDX 3 16 82 17 81 18 14 19 15 20 16 21 17 23 18 24 19 25 80 26
REMARK SMILES IDX 20 27 79 28 21 29 22 30 23 31 73 32 24 33 78 34 72 35 74 36
REMARK SMILES IDX 25 37 77 38 71 39 70 40 26 42 58 43 38 44 57 45 39 46 42 47
REMARK SMILES IDX 56 48 75 49 40 50 41 51 55 53 76 54 43 55 27 56 28 57 36 58
REMARK SMILES IDX 29 59 35 60 37 61 34 62 30 63 31 64 32 65 33 66 59 67 60 68
REMARK SMILES IDX 68 69 61 70 67 71 69 72 66 73 62 74 63 75 64 76 65 77 44 78
REMARK SMILES IDX 45 79 53 80 46 81 52 82 54 83 51 84 47 85 48 86 49 87 50 88
REMARK H PARENT 11 6 7 9 7 10 15 22 74 41 42 52
REMARK Flexibility Score: inf
ROOT
ATOM      1  C   UNL A   1      37.707  20.184  24.994  1.00  0.00     0.042 C 
ENDROOT
BRANCH   1   2
ATOM      2  C   UNL A   1      36.306  20.832  24.997  1.00  0.00     0.118 C 
BRANCH   2   3
ATOM      3  N   UNL A   1      35.940  21.742  26.077  1.00  0.00    -0.351 N 
ATOM      4  C   UNL A   1      34.722  22.045  26.627  1.00  0.00     0.275 C 
ATOM      5  O   UNL A   1      34.712  22.514  27.771  1.00  0.00    -0.269 OA
ATOM      6  H   UNL A   1      36.700  22.223  26.479  1.00  0.00     0.163 HD
BRANCH   4   7
ATOM      7  C   UNL A   1      33.422  21.951  25.820  1.00  0.00     0.362 C 
BRANCH   7   8
ATOM      8  N   UNL A   1      32.703  20.683  26.093  1.00  0.00    -0.331 N 
ATOM      9  H   UNL A   1      33.309  20.070  26.638  1.00  0.00     0.347 HD
ATOM     10  H   UNL A   1      31.850  20.905  26.607  1.00  0.00     0.347 HD
BRANCH   8  11
ATOM     11  C   UNL A   1      32.322  19.996  24.850  1.00  0.00     0.230 C 
ATOM     12  C   UNL A   1      32.609  20.878  23.638  1.00  0.00     0.082 C 
BRANCH  11  13
ATOM     13  C   UNL A   1      32.874  18.585  24.756  1.00  0.00     0.108 A 
ATOM     14  C   UNL A   1      32.302  15.092  25.695  1.00  0.00     0.079 C 
ATOM     15  C   UNL A   1      32.803  16.406  25.218  1.00  0.00     0.090 A 
ATOM     16  N   UNL A   1      32.128  17.534  25.277  1.00  0.00    -0.240 NA
ATOM     17  S   UNL A   1      34.386  16.525  24.572  1.00  0.00    -0.127 S 
ATOM     18  C   UNL A   1      34.129  18.194  24.316  1.00  0.00     0.096 A 
ENDBRANCH  11  13
ENDBRANCH   8  11
ENDBRANCH   7   8
ENDBRANCH   4   7
ENDBRANCH   2   3
ENDBRANCH   1   2
BRANCH   1  19
ATOM     19  C   UNL A   1      38.857  20.870  25.743  1.00  0.00     0.118 C 
BRANCH  19  20
ATOM     20  N   UNL A   1      40.007  20.007  25.946  1.00  0.00    -0.352 N 
ATOM     21  C   UNL A   1      41.279  20.308  26.369  1.00  0.00     0.251 C 
ATOM     22  H   UNL A   1      39.850  19.055  25.747  1.00  0.00     0.163 HD
ATOM     23  O   UNL A   1      42.127  19.408  26.364  1.00  0.00    -0.269 OA
BRANCH  21  24
ATOM     24  C   UNL A   1      41.680  21.672  26.797  1.00  0.00     0.039 A 
ATOM     25  C   UNL A   1      41.937  22.627  25.806  1.00  0.00     0.014 A 
ATOM     26  C   UNL A   1      41.904  22.002  28.138  1.00  0.00     0.014 A 
ATOM     27  C   UNL A   1      42.359  23.918  26.155  1.00  0.00     0.010 A 
ATOM     28  C   UNL A   1      42.309  23.306  28.486  1.00  0.00     0.010 A 
ATOM     29  C   UNL A   1      42.524  24.285  27.501  1.00  0.00    -0.014 A 
BRANCH  29  30
ATOM     30  C   UNL A   1      42.836  25.704  27.861  1.00  0.00     0.031 A 
ATOM     31  C   UNL A   1      44.231  26.268  27.757  1.00  0.00     0.074 A 
ATOM     32  C   UNL A   1      41.840  26.504  28.298  1.00  0.00     0.049 A 
ATOM     33  N   UNL A   1      44.657  27.478  28.028  1.00  0.00    -0.248 NA
ATOM     34  C   UNL A   1      45.282  25.351  27.298  1.00  0.00     0.031 C 
ATOM     35  C   UNL A   1      40.445  26.091  28.460  1.00  0.00     0.029 A 
ATOM     36  N   UNL A   1      41.840  27.822  28.688  1.00  0.00    -0.354 N 
ATOM     37  C   UNL A   1      46.025  27.475  27.769  1.00  0.00     0.074 A 
ATOM     38  C   UNL A   1      46.359  26.123  27.363  1.00  0.00     0.031 C 
ATOM     39  C   UNL A   1      39.723  27.135  28.892  1.00  0.00     0.029 A 
ATOM     40  C   UNL A   1      40.605  28.283  29.089  1.00  0.00     0.049 A 
ATOM     41  H   UNL A   1      42.647  28.386  28.679  1.00  0.00     0.167 HD
ATOM     42  C   UNL A   1      46.913  28.501  27.849  1.00  0.00     0.034 A 
ATOM     43  C   UNL A   1      40.220  29.481  29.578  1.00  0.00     0.034 A 
ATOM     44  C   UNL A   1      46.574  29.846  28.267  1.00  0.00     0.049 A 
ATOM     45  C   UNL A   1      41.239  30.582  29.723  1.00  0.00     0.074 A 
ATOM     46  C   UNL A   1      47.396  30.961  28.328  1.00  0.00     0.029 A 
ATOM     47  N   UNL A   1      45.326  30.258  28.712  1.00  0.00    -0.354 N 
ATOM     48  N   UNL A   1      42.517  30.573  29.422  1.00  0.00    -0.248 NA
ATOM     49  C   UNL A   1      40.762  31.861  30.269  1.00  0.00     0.031 C 
ATOM     50  C   UNL A   1      46.669  32.018  28.888  1.00  0.00     0.029 A 
ATOM     51  C   UNL A   1      45.369  31.593  29.096  1.00  0.00     0.049 A 
ATOM     52  H   UNL A   1      44.524  29.687  28.751  1.00  0.00     0.167 HD
ATOM     53  C   UNL A   1      42.986  31.850  29.720  1.00  0.00     0.074 A 
ATOM     54  C   UNL A   1      41.852  32.609  30.201  1.00  0.00     0.031 C 
ATOM     55  C   UNL A   1      44.245  32.348  29.601  1.00  0.00     0.034 A 
BRANCH  42  56
ATOM     56  C   UNL A   1      48.359  28.205  27.511  1.00  0.00     0.023 A 
ATOM     57  C   UNL A   1      48.857  28.338  26.203  1.00  0.00     0.031 A 
ATOM     58  C   UNL A   1      49.256  27.794  28.514  1.00  0.00     0.131 A 
ATOM     59  C   UNL A   1      50.189  27.999  25.921  1.00  0.00     0.055 A 
ATOM     60  C   UNL A   1      50.602  27.535  28.242  1.00  0.00     0.041 A 
ATOM     61  F   UNL A   1      48.840  27.635  29.781  1.00  0.00    -0.206 F 
ATOM     62  C   UNL A   1      51.072  27.622  26.936  1.00  0.00     0.022 A 
BRANCH  59  63
ATOM     63  S   UNL A   1      50.717  27.921  24.187  1.00  0.00     0.124 S 
ATOM     64  O   UNL A   1      49.435  27.938  23.487  1.00  0.00    -0.237 OA
ATOM     65  O   UNL A   1      51.533  29.125  24.054  1.00  0.00    -0.237 OA
ATOM     66  O   UNL A   1      51.446  26.661  24.106  1.00  0.00    -0.744 OA
ENDBRANCH  59  63
ENDBRANCH  42  56
BRANCH  43  67
ATOM     67  C   UNL A   1      38.806  29.701  30.003  1.00  0.00     0.023 A 
ATOM     68  C   UNL A   1      37.886  30.348  29.164  1.00  0.00     0.031 A 
ATOM     69  C   UNL A   1      38.370  29.313  31.282  1.00  0.00     0.131 A 
ATOM     70  C   UNL A   1      36.591  30.629  29.628  1.00  0.00     0.055 A 
ATOM     71  C   UNL A   1      37.064  29.540  31.718  1.00  0.00     0.041 A 
ATOM     72  F   UNL A   1      39.209  28.694  32.128  1.00  0.00    -0.206 F 
ATOM     73  C   UNL A   1      36.169  30.215  30.894  1.00  0.00     0.022 A 
BRANCH  70  74
ATOM     74  S   UNL A   1      35.489  31.628  28.590  1.00  0.00     0.124 S 
ATOM     75  O   UNL A   1      34.554  32.161  29.577  1.00  0.00    -0.237 OA
ATOM     76  O   UNL A   1      36.417  32.589  28.003  1.00  0.00    -0.237 OA
ATOM     77  O   UNL A   1      34.926  30.657  27.657  1.00  0.00    -0.744 OA
ENDBRANCH  70  74
ENDBRANCH  43  67
BRANCH  55  78
ATOM     78  C   UNL A   1      44.450  33.799  29.976  1.00  0.00     0.023 A 
ATOM     79  C   UNL A   1      44.295  34.836  29.037  1.00  0.00     0.031 A 
ATOM     80  C   UNL A   1      44.829  34.149  31.284  1.00  0.00     0.131 A 
ATOM     81  C   UNL A   1      44.575  36.162  29.403  1.00  0.00     0.055 A 
ATOM     82  C   UNL A   1      45.042  35.477  31.660  1.00  0.00     0.041 A 
ATOM     83  F   UNL A   1      44.999  33.205  32.223  1.00  0.00    -0.206 F 
ATOM     84  C   UNL A   1      44.929  36.491  30.714  1.00  0.00     0.022 A 
BRANCH  81  85
ATOM     85  S   UNL A   1      44.565  37.443  28.118  1.00  0.00     0.124 S 
ATOM     86  O   UNL A   1      43.457  37.015  27.271  1.00  0.00    -0.237 OA
ATOM     87  O   UNL A   1      44.343  38.660  28.892  1.00  0.00    -0.237 OA
ATOM     88  O   UNL A   1      45.890  37.329  27.510  1.00  0.00    -0.744 OA
ENDBRANCH  81  85
ENDBRANCH  55  78
ENDBRANCH  29  30
ENDBRANCH  21  24
ENDBRANCH  19  20
ENDBRANCH   1  19
TORSDOF 16
ENDMDL
MODEL 3
REMARK VINA RESULT:      -9.9      3.427      5.657
REMARK SMILES Cc1nc([C@H](C)[NH2+]CC(=O)NCCCNC(=O)c2ccc(-c3c4nc(c(-c5cc(S(=O)(=O)[O-])ccc5F)c5ccc([nH]5)c(-c5cc(S(=O)(=O)[O-])ccc5F)c5nc(c(-c6cc(S(=O)(=O)[O-])ccc6F)c6ccc3[nH]6)C=C5)C=C4)cc2)cs1
REMARK SMILES IDX 13 1 12 2 11 3 9 4 10 5 8 7 7 8 5 11 6 12 4 13 1 14 2 15
REMARK SMILES IDX 3 16 82 17 81 18 14 19 15 20 16 21 17 23 18 24 19 25 80 26
REMARK SMILES IDX 20 27 79 28 21 29 22 30 23 31 73 32 24 33 78 34 72 35 74 36
REMARK SMILES IDX 25 37 77 38 71 39 70 40 26 42 58 43 38 44 57 45 39 46 42 47
REMARK SMILES IDX 56 48 75 49 40 50 41 51 55 53 76 54 43 55 27 56 28 57 36 58
REMARK SMILES IDX 29 59 35 60 37 61 34 62 30 63 31 64 32 65 33 66 59 67 60 68
REMARK SMILES IDX 68 69 61 70 67 71 69 72 66 73 62 74 63 75 64 76 65 77 44 78
REMARK SMILES IDX 45 79 53 80 46 81 52 82 54 83 51 84 47 85 48 86 49 87 50 88
REMARK H PARENT 11 6 7 9 7 10 15 22 74 41 42 52
REMARK Flexibility Score: inf
ROOT
ATOM      1  C   UNL A   1      31.015  32.193  26.504  1.00  0.00     0.042 C 
ENDROOT
BRANCH   1   2
ATOM      2  C   UNL A   1      30.789  31.065  25.475  1.00  0.00     0.118 C 
BRANCH   2   3
ATOM      3  N   UNL A   1      30.002  31.334  24.277  1.00  0.00    -0.351 N 
ATOM      4  C   UNL A   1      29.492  30.491  23.325  1.00  0.00     0.275 C 
ATOM      5  O   UNL A   1      28.537  30.896  22.654  1.00  0.00    -0.269 OA
ATOM      6  H   UNL A   1      29.803  32.287  24.126  1.00  0.00     0.163 HD
BRANCH   4   7
ATOM      7  C   UNL A   1      30.158  29.152  22.987  1.00  0.00     0.362 C 
BRANCH   7   8
ATOM      8  N   UNL A   1      31.549  29.342  22.507  1.00  0.00    -0.331 N 
ATOM      9  H   UNL A   1      31.551  29.323  21.487  1.00  0.00     0.347 HD
ATOM     10  H   UNL A   1      31.887  30.239  22.856  1.00  0.00     0.347 HD
BRANCH   8  11
ATOM     11  C   UNL A   1      32.445  28.288  23.005  1.00  0.00     0.230 C 
ATOM     12  C   UNL A   1      33.743  28.262  22.203  1.00  0.00     0.082 C 
BRANCH  11  13
ATOM     13  C   UNL A   1      32.627  28.323  24.511  1.00  0.00     0.108 A 
ATOM     14  C   UNL A   1      34.727  29.590  27.232  1.00  0.00     0.079 C 
ATOM     15  C   UNL A   1      33.738  28.919  26.349  1.00  0.00     0.090 A 
ATOM     16  N   UNL A   1      33.649  29.097  25.048  1.00  0.00    -0.240 NA
ATOM     17  S   UNL A   1      32.637  27.789  27.017  1.00  0.00    -0.127 S 
ATOM     18  C   UNL A   1      31.969  27.558  25.461  1.00  0.00     0.096 A 
ENDBRANCH  11  13
ENDBRANCH   8  11
ENDBRANCH   7   8
ENDBRANCH   4   7
ENDBRANCH   2   3
ENDBRANCH   1   2
BRANCH   1  19
ATOM     19  C   UNL A   1      32.448  32.597  26.877  1.00  0.00     0.118 C 
BRANCH  19  20
ATOM     20  N   UNL A   1      32.542  33.942  27.418  1.00  0.00    -0.352 N 
ATOM     21  C   UNL A   1      33.396  34.460  28.361  1.00  0.00     0.251 C 
ATOM     22  H   UNL A   1      31.891  34.583  27.051  1.00  0.00     0.163 HD
ATOM     23  O   UNL A   1      33.215  35.623  28.741  1.00  0.00    -0.269 OA
BRANCH  21  24
ATOM     24  C   UNL A   1      34.501  33.671  28.963  1.00  0.00     0.039 A 
ATOM     25  C   UNL A   1      35.816  34.005  28.619  1.00  0.00     0.014 A 
ATOM     26  C   UNL A   1      34.270  32.554  29.774  1.00  0.00     0.014 A 
ATOM     27  C   UNL A   1      36.894  33.265  29.126  1.00  0.00     0.010 A 
ATOM     28  C   UNL A   1      35.356  31.826  30.299  1.00  0.00     0.010 A 
ATOM     29  C   UNL A   1      36.681  32.183  29.996  1.00  0.00    -0.014 A 
BRANCH  29  30
ATOM     30  C   UNL A   1      37.845  31.496  30.639  1.00  0.00     0.031 A 
ATOM     31  C   UNL A   1      38.306  31.840  32.033  1.00  0.00     0.074 A 
ATOM     32  C   UNL A   1      38.509  30.544  29.950  1.00  0.00     0.049 A 
ATOM     33  N   UNL A   1      39.295  31.331  32.728  1.00  0.00    -0.248 NA
ATOM     34  C   UNL A   1      37.567  32.899  32.732  1.00  0.00     0.031 C 
ATOM     35  C   UNL A   1      38.181  30.116  28.588  1.00  0.00     0.029 A 
ATOM     36  N   UNL A   1      39.589  29.764  30.288  1.00  0.00    -0.354 N 
ATOM     37  C   UNL A   1      39.298  31.999  33.949  1.00  0.00     0.074 A 
ATOM     38  C   UNL A   1      38.235  32.984  33.876  1.00  0.00     0.031 C 
ATOM     39  C   UNL A   1      39.025  29.142  28.217  1.00  0.00     0.029 A 
ATOM     40  C   UNL A   1      39.989  28.904  29.289  1.00  0.00     0.049 A 
ATOM     41  H   UNL A   1      40.036  29.816  31.164  1.00  0.00     0.167 HD
ATOM     42  C   UNL A   1      40.098  31.803  35.030  1.00  0.00     0.034 A 
ATOM     43  C   UNL A   1      41.019  28.034  29.225  1.00  0.00     0.034 A 
ATOM     44  C   UNL A   1      41.164  30.825  35.092  1.00  0.00     0.049 A 
ATOM     45  C   UNL A   1      41.935  27.885  30.413  1.00  0.00     0.074 A 
ATOM     46  C   UNL A   1      41.992  30.520  36.163  1.00  0.00     0.029 A 
ATOM     47  N   UNL A   1      41.569  30.009  34.044  1.00  0.00    -0.354 N 
ATOM     48  N   UNL A   1      41.886  28.490  31.578  1.00  0.00    -0.248 NA
ATOM     49  C   UNL A   1      43.044  26.930  30.280  1.00  0.00     0.031 C 
ATOM     50  C   UNL A   1      42.944  29.587  35.736  1.00  0.00     0.029 A 
ATOM     51  C   UNL A   1      42.661  29.240  34.426  1.00  0.00     0.049 A 
ATOM     52  H   UNL A   1      41.143  29.979  33.157  1.00  0.00     0.167 HD
ATOM     53  C   UNL A   1      42.942  27.968  32.321  1.00  0.00     0.074 A 
ATOM     54  C   UNL A   1      43.595  26.984  31.483  1.00  0.00     0.031 C 
ATOM     55  C   UNL A   1      43.332  28.276  33.585  1.00  0.00     0.034 A 
BRANCH  42  56
ATOM     56  C   UNL A   1      39.878  32.691  36.236  1.00  0.00     0.023 A 
ATOM     57  C   UNL A   1      39.038  32.308  37.296  1.00  0.00     0.031 A 
ATOM     58  C   UNL A   1      40.527  33.936  36.332  1.00  0.00     0.131 A 
ATOM     59  C   UNL A   1      38.816  33.186  38.368  1.00  0.00     0.055 A 
ATOM     60  C   UNL A   1      40.364  34.772  37.440  1.00  0.00     0.041 A 
ATOM     61  F   UNL A   1      41.331  34.367  35.347  1.00  0.00    -0.206 F 
ATOM     62  C   UNL A   1      39.493  34.404  38.461  1.00  0.00     0.022 A 
BRANCH  59  63
ATOM     63  S   UNL A   1      37.523  32.775  39.573  1.00  0.00     0.124 S 
ATOM     64  O   UNL A   1      38.002  31.498  40.097  1.00  0.00    -0.237 OA
ATOM     65  O   UNL A   1      37.585  33.907  40.497  1.00  0.00    -0.237 OA
ATOM     66  O   UNL A   1      36.313  32.696  38.765  1.00  0.00    -0.744 OA
ENDBRANCH  59  63
ENDBRANCH  42  56
BRANCH  43  67
ATOM     67  C   UNL A   1      41.269  27.253  27.978  1.00  0.00     0.023 A 
ATOM     68  C   UNL A   1      40.985  25.880  27.909  1.00  0.00     0.031 A 
ATOM     69  C   UNL A   1      41.849  27.863  26.850  1.00  0.00     0.131 A 
ATOM     70  C   UNL A   1      41.322  25.153  26.756  1.00  0.00     0.055 A 
ATOM     71  C   UNL A   1      42.127  27.148  25.685  1.00  0.00     0.041 A 
ATOM     72  F   UNL A   1      42.145  29.172  26.863  1.00  0.00    -0.206 F 
ATOM     73  C   UNL A   1      41.876  25.781  25.638  1.00  0.00     0.022 A 
BRANCH  70  74
ATOM     74  S   UNL A   1      41.112  23.351  26.770  1.00  0.00     0.124 S 
ATOM     75  O   UNL A   1      42.023  22.939  25.706  1.00  0.00    -0.237 OA
ATOM     76  O   UNL A   1      41.520  23.011  28.130  1.00  0.00    -0.237 OA
ATOM     77  O   UNL A   1      39.693  23.170  26.483  1.00  0.00    -0.744 OA
ENDBRANCH  70  74
ENDBRANCH  43  67
BRANCH  55  78
ATOM     78  C   UNL A   1      44.510  27.512  34.148  1.00  0.00     0.023 A 
ATOM     79  C   UNL A   1      44.339  26.339  34.906  1.00  0.00     0.031 A 
ATOM     80  C   UNL A   1      45.822  27.976  33.944  1.00  0.00     0.131 A 
ATOM     81  C   UNL A   1      45.453  25.706  35.480  1.00  0.00     0.055 A 
ATOM     82  C   UNL A   1      46.931  27.304  34.462  1.00  0.00     0.041 A 
ATOM     83  F   UNL A   1      46.050  29.093  33.234  1.00  0.00    -0.206 F 
ATOM     84  C   UNL A   1      46.750  26.170  35.247  1.00  0.00     0.022 A 
BRANCH  81  85
ATOM     85  S   UNL A   1      45.179  24.320  36.619  1.00  0.00     0.124 S 
ATOM     86  O   UNL A   1      44.154  24.857  37.509  1.00  0.00    -0.237 OA
ATOM     87  O   UNL A   1      44.748  23.256  35.719  1.00  0.00    -0.237 OA
ATOM     88  O   UNL A   1      46.489  24.117  37.235  1.00  0.00    -0.744 OA
ENDBRANCH  81  85
ENDBRANCH  55  78
ENDBRANCH  29  30
ENDBRANCH  21  24
ENDBRANCH  19  20
ENDBRANCH   1  19
TORSDOF 16
ENDMDL
