MODEL 1
REMARK VINA RESULT:     -12.1      0.000      0.000
REMARK SMILES CCc1ccc2nc(NC(=O)/C=C/C(=O)NCCCNC(=O)c3ccc(-c4c5nc(c(-c6cc(S(=O)(=O)[O-])ccc6F)c6ccc([nH]6)c(-c6cc(S(=O)(=O)[O-])ccc6F)c6nc(c(-c7cc(S(=O)(=O)[O-])ccc7F)c7ccc4[nH]7)C=C6)C=C5)cc3)sc2c1
REMARK SMILES IDX 18 1 17 2 16 3 14 4 15 5 13 7 12 8 10 9 9 10 11 12 8 13 3 14
REMARK SMILES IDX 4 15 88 16 5 17 87 18 6 19 86 20 7 21 2 22 1 23 19 24 20 25
REMARK SMILES IDX 21 26 22 28 23 29 24 30 85 31 25 32 84 33 26 34 27 35 28 36
REMARK SMILES IDX 78 37 29 38 83 39 77 40 79 41 30 42 82 43 76 44 75 45 31 47
REMARK SMILES IDX 63 48 43 49 62 50 44 51 47 52 61 53 80 54 45 55 46 56 60 58
REMARK SMILES IDX 81 59 48 60 32 61 33 62 41 63 34 64 40 65 42 66 39 67 35 68
REMARK SMILES IDX 36 69 37 70 38 71 64 72 65 73 73 74 66 75 72 76 74 77 71 78
REMARK SMILES IDX 67 79 68 80 69 81 70 82 49 83 50 84 58 85 51 86 57 87 59 88
REMARK SMILES IDX 56 89 52 90 53 91 54 92 55 93
REMARK H PARENT 16 6 9 11 20 27 79 46 47 57
REMARK Flexibility Score: inf
ROOT
ATOM      1  C   UNL A   1      31.618  32.059  26.494  1.00  0.00     0.042 C 
ENDROOT
BRANCH   1   2
ATOM      2  C   UNL A   1      31.768  30.593  26.100  1.00  0.00     0.118 C 
BRANCH   2   3
ATOM      3  N   UNL A   1      31.627  29.719  27.249  1.00  0.00    -0.352 N 
ATOM      4  C   UNL A   1      31.971  28.411  27.368  1.00  0.00     0.244 C 
ATOM      5  O   UNL A   1      31.464  27.729  28.256  1.00  0.00    -0.270 OA
ATOM      6  H   UNL A   1      31.230  30.129  28.051  1.00  0.00     0.163 HD
BRANCH   4   7
ATOM      7  C   UNL A   1      32.918  27.806  26.412  1.00  0.00     0.077 C 
ATOM      8  C   UNL A   1      32.705  26.563  25.956  1.00  0.00     0.077 C 
BRANCH   8   9
ATOM      9  C   UNL A   1      33.448  26.030  24.793  1.00  0.00     0.250 C 
ATOM     10  N   UNL A   1      33.025  26.288  23.519  1.00  0.00    -0.298 N 
ATOM     11  H   UNL A   1      33.533  25.873  22.785  1.00  0.00     0.172 HD
ATOM     12  O   UNL A   1      34.414  25.294  24.988  1.00  0.00    -0.270 OA
BRANCH  10  13
ATOM     13  C   UNL A   1      31.959  27.069  23.175  1.00  0.00     0.190 A 
ATOM     14  C   UNL A   1      28.512  30.252  22.652  1.00  0.00    -0.047 A 
ATOM     15  C   UNL A   1      27.835  29.070  22.965  1.00  0.00     0.006 A 
ATOM     16  C   UNL A   1      29.920  30.234  22.531  1.00  0.00     0.025 A 
ATOM     17  C   UNL A   1      28.520  27.867  23.128  1.00  0.00     0.030 A 
ATOM     18  C   UNL A   1      30.605  29.024  22.740  1.00  0.00     0.057 A 
ATOM     19  C   UNL A   1      29.917  27.842  23.011  1.00  0.00     0.084 A 
ATOM     20  S   UNL A   1      32.304  28.684  22.758  1.00  0.00    -0.097 S 
ATOM     21  N   UNL A   1      30.704  26.728  23.163  1.00  0.00    -0.220 NA
BRANCH  14  22
ATOM     22  C   UNL A   1      27.792  31.564  22.429  1.00  0.00     0.032 C 
ATOM     23  C   UNL A   1      28.591  32.834  22.704  1.00  0.00     0.009 C 
ENDBRANCH  14  22
ENDBRANCH  10  13
ENDBRANCH   8   9
ENDBRANCH   4   7
ENDBRANCH   2   3
ENDBRANCH   1   2
BRANCH   1  24
ATOM     24  C   UNL A   1      32.813  32.606  27.272  1.00  0.00     0.118 C 
BRANCH  24  25
ATOM     25  N   UNL A   1      32.622  33.996  27.661  1.00  0.00    -0.352 N 
ATOM     26  C   UNL A   1      33.160  34.698  28.710  1.00  0.00     0.251 C 
ATOM     27  H   UNL A   1      32.016  34.513  27.082  1.00  0.00     0.163 HD
ATOM     28  O   UNL A   1      32.656  35.776  29.033  1.00  0.00    -0.269 OA
BRANCH  26  29
ATOM     29  C   UNL A   1      34.321  34.166  29.450  1.00  0.00     0.039 A 
ATOM     30  C   UNL A   1      34.107  33.393  30.595  1.00  0.00     0.014 A 
ATOM     31  C   UNL A   1      35.623  34.460  29.038  1.00  0.00     0.014 A 
ATOM     32  C   UNL A   1      35.198  32.867  31.290  1.00  0.00     0.010 A 
ATOM     33  C   UNL A   1      36.705  33.867  29.681  1.00  0.00     0.010 A 
ATOM     34  C   UNL A   1      36.505  33.075  30.821  1.00  0.00    -0.014 A 
BRANCH  34  35
ATOM     35  C   UNL A   1      37.681  32.488  31.516  1.00  0.00     0.031 A 
ATOM     36  C   UNL A   1      38.432  31.348  30.884  1.00  0.00     0.074 A 
ATOM     37  C   UNL A   1      38.012  32.923  32.746  1.00  0.00     0.049 A 
ATOM     38  N   UNL A   1      39.415  30.632  31.368  1.00  0.00    -0.248 NA
ATOM     39  C   UNL A   1      37.988  30.932  29.546  1.00  0.00     0.031 C 
ATOM     40  C   UNL A   1      37.316  33.980  33.483  1.00  0.00     0.029 A 
ATOM     41  N   UNL A   1      39.002  32.517  33.605  1.00  0.00    -0.354 N 
ATOM     42  C   UNL A   1      39.689  29.666  30.404  1.00  0.00     0.074 A 
ATOM     43  C   UNL A   1      38.724  29.850  29.342  1.00  0.00     0.031 C 
ATOM     44  C   UNL A   1      37.906  34.146  34.677  1.00  0.00     0.029 A 
ATOM     45  C   UNL A   1      38.993  33.180  34.810  1.00  0.00     0.049 A 
ATOM     46  H   UNL A   1      39.657  31.818  33.379  1.00  0.00     0.167 HD
ATOM     47  C   UNL A   1      40.672  28.729  30.397  1.00  0.00     0.034 A 
ATOM     48  C   UNL A   1      39.761  33.017  35.905  1.00  0.00     0.034 A 
ATOM     49  C   UNL A   1      41.632  28.576  31.464  1.00  0.00     0.049 A 
ATOM     50  C   UNL A   1      40.852  31.979  35.877  1.00  0.00     0.074 A 
ATOM     51  C   UNL A   1      42.717  27.719  31.533  1.00  0.00     0.029 A 
ATOM     52  N   UNL A   1      41.615  29.290  32.657  1.00  0.00    -0.354 N 
ATOM     53  N   UNL A   1      41.151  31.122  34.928  1.00  0.00    -0.248 NA
ATOM     54  C   UNL A   1      41.719  31.898  37.058  1.00  0.00     0.031 C 
ATOM     55  C   UNL A   1      43.310  27.864  32.793  1.00  0.00     0.029 A 
ATOM     56  C   UNL A   1      42.648  28.868  33.482  1.00  0.00     0.049 A 
ATOM     57  H   UNL A   1      40.966  29.993  32.884  1.00  0.00     0.167 HD
ATOM     58  C   UNL A   1      42.256  30.412  35.390  1.00  0.00     0.074 A 
ATOM     59  C   UNL A   1      42.579  30.958  36.694  1.00  0.00     0.031 C 
ATOM     60  C   UNL A   1      42.944  29.408  34.791  1.00  0.00     0.034 A 
BRANCH  47  61
ATOM     61  C   UNL A   1      40.723  27.788  29.213  1.00  0.00     0.023 A 
ATOM     62  C   UNL A   1      41.654  27.957  28.172  1.00  0.00     0.031 A 
ATOM     63  C   UNL A   1      39.795  26.739  29.094  1.00  0.00     0.131 A 
ATOM     64  C   UNL A   1      41.570  27.166  27.017  1.00  0.00     0.055 A 
ATOM     65  C   UNL A   1      39.777  25.892  27.982  1.00  0.00     0.041 A 
ATOM     66  F   UNL A   1      38.869  26.533  30.043  1.00  0.00    -0.206 F 
ATOM     67  C   UNL A   1      40.654  26.116  26.925  1.00  0.00     0.022 A 
BRANCH  64  68
ATOM     68  S   UNL A   1      42.550  27.646  25.567  1.00  0.00     0.124 S 
ATOM     69  O   UNL A   1      43.858  27.901  26.166  1.00  0.00    -0.237 OA
ATOM     70  O   UNL A   1      42.455  26.466  24.717  1.00  0.00    -0.237 OA
ATOM     71  O   UNL A   1      41.861  28.834  25.067  1.00  0.00    -0.744 OA
ENDBRANCH  64  68
ENDBRANCH  47  61
BRANCH  48  72
ATOM     72  C   UNL A   1      39.511  33.843  37.120  1.00  0.00     0.023 A 
ATOM     73  C   UNL A   1      38.844  33.318  38.235  1.00  0.00     0.031 A 
ATOM     74  C   UNL A   1      39.940  35.182  37.177  1.00  0.00     0.131 A 
ATOM     75  C   UNL A   1      38.594  34.134  39.351  1.00  0.00     0.055 A 
ATOM     76  C   UNL A   1      39.731  35.977  38.306  1.00  0.00     0.041 A 
ATOM     77  F   UNL A   1      40.592  35.731  36.140  1.00  0.00    -0.206 F 
ATOM     78  C   UNL A   1      39.045  35.455  39.398  1.00  0.00     0.022 A 
BRANCH  75  79
ATOM     79  S   UNL A   1      37.618  33.459  40.723  1.00  0.00     0.124 S 
ATOM     80  O   UNL A   1      36.993  34.661  41.263  1.00  0.00    -0.237 OA
ATOM     81  O   UNL A   1      36.731  32.528  40.034  1.00  0.00    -0.237 OA
ATOM     82  O   UNL A   1      38.625  32.837  41.582  1.00  0.00    -0.744 OA
ENDBRANCH  75  79
ENDBRANCH  48  72
BRANCH  60  83
ATOM     83  C   UNL A   1      44.137  28.858  35.535  1.00  0.00     0.023 A 
ATOM     84  C   UNL A   1      44.019  27.782  36.430  1.00  0.00     0.031 A 
ATOM     85  C   UNL A   1      45.409  29.428  35.348  1.00  0.00     0.131 A 
ATOM     86  C   UNL A   1      45.143  27.345  37.148  1.00  0.00     0.055 A 
ATOM     87  C   UNL A   1      46.535  28.949  36.020  1.00  0.00     0.041 A 
ATOM     88  F   UNL A   1      45.580  30.461  34.507  1.00  0.00    -0.206 F 
ATOM     89  C   UNL A   1      46.402  27.910  36.936  1.00  0.00     0.022 A 
BRANCH  86  90
ATOM     90  S   UNL A   1      44.918  26.087  38.438  1.00  0.00     0.124 S 
ATOM     91  O   UNL A   1      44.013  25.146  37.788  1.00  0.00    -0.237 OA
ATOM     92  O   UNL A   1      46.282  25.615  38.654  1.00  0.00    -0.237 OA
ATOM     93  O   UNL A   1      44.339  26.837  39.550  1.00  0.00    -0.744 OA
ENDBRANCH  86  90
ENDBRANCH  60  83
ENDBRANCH  34  35
ENDBRANCH  26  29
ENDBRANCH  24  25
ENDBRANCH   1  24
TORSDOF 16
ENDMDL
MODEL 2
REMARK VINA RESULT:     -12.0      2.022      3.626
REMARK SMILES CCc1ccc2nc(NC(=O)/C=C/C(=O)NCCCNC(=O)c3ccc(-c4c5nc(c(-c6cc(S(=O)(=O)[O-])ccc6F)c6ccc([nH]6)c(-c6cc(S(=O)(=O)[O-])ccc6F)c6nc(c(-c7cc(S(=O)(=O)[O-])ccc7F)c7ccc4[nH]7)C=C6)C=C5)cc3)sc2c1
REMARK SMILES IDX 18 1 17 2 16 3 14 4 15 5 13 7 12 8 10 9 9 10 11 12 8 13 3 14
REMARK SMILES IDX 4 15 88 16 5 17 87 18 6 19 86 20 7 21 2 22 1 23 19 24 20 25
REMARK SMILES IDX 21 26 22 28 23 29 24 30 85 31 25 32 84 33 26 34 27 35 28 36
REMARK SMILES IDX 78 37 29 38 83 39 77 40 79 41 30 42 82 43 76 44 75 45 31 47
REMARK SMILES IDX 63 48 43 49 62 50 44 51 47 52 61 53 80 54 45 55 46 56 60 58
REMARK SMILES IDX 81 59 48 60 32 61 33 62 41 63 34 64 40 65 42 66 39 67 35 68
REMARK SMILES IDX 36 69 37 70 38 71 64 72 65 73 73 74 66 75 72 76 74 77 71 78
REMARK SMILES IDX 67 79 68 80 69 81 70 82 49 83 50 84 58 85 51 86 57 87 59 88
REMARK SMILES IDX 56 89 52 90 53 91 54 92 55 93
REMARK H PARENT 16 6 9 11 20 27 79 46 47 57
REMARK Flexibility Score: inf
ROOT
ATOM      1  C   UNL A   1      31.480  31.960  26.784  1.00  0.00     0.042 C 
ENDROOT
BRANCH   1   2
ATOM      2  C   UNL A   1      31.591  30.459  26.542  1.00  0.00     0.118 C 
BRANCH   2   3
ATOM      3  N   UNL A   1      32.282  30.172  25.298  1.00  0.00    -0.352 N 
ATOM      4  C   UNL A   1      32.130  29.109  24.467  1.00  0.00     0.244 C 
ATOM      5  O   UNL A   1      33.022  28.831  23.670  1.00  0.00    -0.270 OA
ATOM      6  H   UNL A   1      32.950  30.839  25.019  1.00  0.00     0.163 HD
BRANCH   4   7
ATOM      7  C   UNL A   1      30.916  28.275  24.551  1.00  0.00     0.077 C 
ATOM      8  C   UNL A   1      30.749  27.252  23.699  1.00  0.00     0.077 C 
BRANCH   8   9
ATOM      9  C   UNL A   1      29.712  26.221  23.926  1.00  0.00     0.250 C 
ATOM     10  N   UNL A   1      30.062  24.925  24.183  1.00  0.00    -0.298 N 
ATOM     11  H   UNL A   1      29.330  24.275  24.284  1.00  0.00     0.172 HD
ATOM     12  O   UNL A   1      28.527  26.532  23.811  1.00  0.00    -0.270 OA
BRANCH  10  13
ATOM     13  C   UNL A   1      31.336  24.454  24.313  1.00  0.00     0.190 A 
ATOM     14  C   UNL A   1      35.954  23.647  24.876  1.00  0.00    -0.047 A 
ATOM     15  C   UNL A   1      35.703  23.260  23.556  1.00  0.00     0.006 A 
ATOM     16  C   UNL A   1      34.886  24.105  25.680  1.00  0.00     0.025 A 
ATOM     17  C   UNL A   1      34.412  23.286  23.030  1.00  0.00     0.030 A 
ATOM     18  C   UNL A   1      33.596  24.169  25.126  1.00  0.00     0.057 A 
ATOM     19  C   UNL A   1      33.348  23.741  23.822  1.00  0.00     0.084 A 
ATOM     20  S   UNL A   1      32.112  24.758  25.799  1.00  0.00    -0.097 S 
ATOM     21  N   UNL A   1      32.040  23.828  23.416  1.00  0.00    -0.220 NA
BRANCH  14  22
ATOM     22  C   UNL A   1      37.337  23.591  25.488  1.00  0.00     0.032 C 
ATOM     23  C   UNL A   1      37.938  22.203  25.685  1.00  0.00     0.009 C 
ENDBRANCH  14  22
ENDBRANCH  10  13
ENDBRANCH   8   9
ENDBRANCH   4   7
ENDBRANCH   2   3
ENDBRANCH   1   2
BRANCH   1  24
ATOM     24  C   UNL A   1      32.823  32.632  27.064  1.00  0.00     0.118 C 
BRANCH  24  25
ATOM     25  N   UNL A   1      32.660  33.964  27.631  1.00  0.00    -0.352 N 
ATOM     26  C   UNL A   1      33.235  34.522  28.744  1.00  0.00     0.251 C 
ATOM     27  H   UNL A   1      32.046  34.555  27.140  1.00  0.00     0.163 HD
ATOM     28  O   UNL A   1      32.753  35.555  29.216  1.00  0.00    -0.269 OA
BRANCH  26  29
ATOM     29  C   UNL A   1      34.409  33.890  29.378  1.00  0.00     0.039 A 
ATOM     30  C   UNL A   1      35.691  34.318  29.023  1.00  0.00     0.014 A 
ATOM     31  C   UNL A   1      34.248  32.848  30.295  1.00  0.00     0.014 A 
ATOM     32  C   UNL A   1      36.807  33.741  29.632  1.00  0.00     0.010 A 
ATOM     33  C   UNL A   1      35.355  32.334  30.963  1.00  0.00     0.010 A 
ATOM     34  C   UNL A   1      36.648  32.766  30.630  1.00  0.00    -0.014 A 
BRANCH  34  35
ATOM     35  C   UNL A   1      37.817  32.170  31.327  1.00  0.00     0.031 A 
ATOM     36  C   UNL A   1      38.574  31.038  30.687  1.00  0.00     0.074 A 
ATOM     37  C   UNL A   1      38.136  32.588  32.566  1.00  0.00     0.049 A 
ATOM     38  N   UNL A   1      39.552  30.315  31.170  1.00  0.00    -0.248 NA
ATOM     39  C   UNL A   1      38.142  30.640  29.339  1.00  0.00     0.031 C 
ATOM     40  C   UNL A   1      37.433  33.635  33.310  1.00  0.00     0.029 A 
ATOM     41  N   UNL A   1      39.119  32.170  33.428  1.00  0.00    -0.354 N 
ATOM     42  C   UNL A   1      39.835  29.362  30.196  1.00  0.00     0.074 A 
ATOM     43  C   UNL A   1      38.880  29.561  29.128  1.00  0.00     0.031 C 
ATOM     44  C   UNL A   1      38.013  33.784  34.513  1.00  0.00     0.029 A 
ATOM     45  C   UNL A   1      39.098  32.817  34.642  1.00  0.00     0.049 A 
ATOM     46  H   UNL A   1      39.776  31.474  33.199  1.00  0.00     0.167 HD
ATOM     47  C   UNL A   1      40.818  28.426  30.185  1.00  0.00     0.034 A 
ATOM     48  C   UNL A   1      39.856  32.639  35.743  1.00  0.00     0.034 A 
ATOM     49  C   UNL A   1      41.769  28.258  31.259  1.00  0.00     0.049 A 
ATOM     50  C   UNL A   1      40.947  31.601  35.710  1.00  0.00     0.074 A 
ATOM     51  C   UNL A   1      42.852  27.400  31.327  1.00  0.00     0.029 A 
ATOM     52  N   UNL A   1      41.741  28.956  32.461  1.00  0.00    -0.354 N 
ATOM     53  N   UNL A   1      41.255  30.757  34.752  1.00  0.00    -0.248 NA
ATOM     54  C   UNL A   1      41.803  31.504  36.898  1.00  0.00     0.031 C 
ATOM     55  C   UNL A   1      43.434  27.528  32.594  1.00  0.00     0.029 A 
ATOM     56  C   UNL A   1      42.766  28.523  33.291  1.00  0.00     0.049 A 
ATOM     57  H   UNL A   1      41.089  29.656  32.691  1.00  0.00     0.167 HD
ATOM     58  C   UNL A   1      42.356  30.041  35.215  1.00  0.00     0.074 A 
ATOM     59  C   UNL A   1      42.667  30.569  36.530  1.00  0.00     0.031 C 
ATOM     60  C   UNL A   1      43.049  29.045  34.609  1.00  0.00     0.034 A 
BRANCH  47  61
ATOM     61  C   UNL A   1      40.880  27.500  28.990  1.00  0.00     0.023 A 
ATOM     62  C   UNL A   1      41.826  27.679  27.964  1.00  0.00     0.031 A 
ATOM     63  C   UNL A   1      39.948  26.459  28.843  1.00  0.00     0.131 A 
ATOM     64  C   UNL A   1      41.754  26.904  26.797  1.00  0.00     0.055 A 
ATOM     65  C   UNL A   1      39.940  25.628  27.719  1.00  0.00     0.041 A 
ATOM     66  F   UNL A   1      39.007  26.246  29.776  1.00  0.00    -0.206 F 
ATOM     67  C   UNL A   1      40.833  25.861  26.678  1.00  0.00     0.022 A 
BRANCH  64  68
ATOM     68  S   UNL A   1      42.757  27.398  25.368  1.00  0.00     0.124 S 
ATOM     69  O   UNL A   1      44.052  27.661  25.993  1.00  0.00    -0.237 OA
ATOM     70  O   UNL A   1      42.688  26.220  24.512  1.00  0.00    -0.237 OA
ATOM     71  O   UNL A   1      42.068  28.582  24.859  1.00  0.00    -0.744 OA
ENDBRANCH  64  68
ENDBRANCH  47  61
BRANCH  48  72
ATOM     72  C   UNL A   1      39.595  33.449  36.965  1.00  0.00     0.023 A 
ATOM     73  C   UNL A   1      40.300  34.635  37.218  1.00  0.00     0.031 A 
ATOM     74  C   UNL A   1      38.630  33.042  37.904  1.00  0.00     0.131 A 
ATOM     75  C   UNL A   1      40.054  35.357  38.397  1.00  0.00     0.055 A 
ATOM     76  C   UNL A   1      38.355  33.787  39.052  1.00  0.00     0.041 A 
ATOM     77  F   UNL A   1      37.920  31.920  37.704  1.00  0.00    -0.206 F 
ATOM     78  C   UNL A   1      39.078  34.948  39.309  1.00  0.00     0.022 A 
BRANCH  75  79
ATOM     79  S   UNL A   1      41.073  36.816  38.753  1.00  0.00     0.124 S 
ATOM     80  O   UNL A   1      41.845  36.947  37.523  1.00  0.00    -0.237 OA
ATOM     81  O   UNL A   1      40.061  37.841  38.988  1.00  0.00    -0.237 OA
ATOM     82  O   UNL A   1      41.838  36.417  39.933  1.00  0.00    -0.744 OA
ENDBRANCH  75  79
ENDBRANCH  48  72
BRANCH  60  83
ATOM     83  C   UNL A   1      44.236  28.485  35.356  1.00  0.00     0.023 A 
ATOM     84  C   UNL A   1      44.089  27.495  36.343  1.00  0.00     0.031 A 
ATOM     85  C   UNL A   1      45.530  28.959  35.081  1.00  0.00     0.131 A 
ATOM     86  C   UNL A   1      45.211  27.049  37.057  1.00  0.00     0.055 A 
ATOM     87  C   UNL A   1      46.651  28.467  35.753  1.00  0.00     0.041 A 
ATOM     88  F   UNL A   1      45.730  29.907  34.151  1.00  0.00    -0.206 F 
ATOM     89  C   UNL A   1      46.493  27.516  36.756  1.00  0.00     0.022 A 
BRANCH  86  90
ATOM     90  S   UNL A   1      44.962  25.918  38.454  1.00  0.00     0.124 S 
ATOM     91  O   UNL A   1      43.686  26.376  38.991  1.00  0.00    -0.237 OA
ATOM     92  O   UNL A   1      44.949  24.613  37.800  1.00  0.00    -0.237 OA
ATOM     93  O   UNL A   1      46.120  26.169  39.309  1.00  0.00    -0.744 OA
ENDBRANCH  86  90
ENDBRANCH  60  83
ENDBRANCH  34  35
ENDBRANCH  26  29
ENDBRANCH  24  25
ENDBRANCH   1  24
TORSDOF 16
ENDMDL
MODEL 3
REMARK VINA RESULT:     -11.9      1.602      3.334
REMARK SMILES CCc1ccc2nc(NC(=O)/C=C/C(=O)NCCCNC(=O)c3ccc(-c4c5nc(c(-c6cc(S(=O)(=O)[O-])ccc6F)c6ccc([nH]6)c(-c6cc(S(=O)(=O)[O-])ccc6F)c6nc(c(-c7cc(S(=O)(=O)[O-])ccc7F)c7ccc4[nH]7)C=C6)C=C5)cc3)sc2c1
REMARK SMILES IDX 18 1 17 2 16 3 14 4 15 5 13 7 12 8 10 9 9 10 11 12 8 13 3 14
REMARK SMILES IDX 4 15 88 16 5 17 87 18 6 19 86 20 7 21 2 22 1 23 19 24 20 25
REMARK SMILES IDX 21 26 22 28 23 29 24 30 85 31 25 32 84 33 26 34 27 35 28 36
REMARK SMILES IDX 78 37 29 38 83 39 77 40 79 41 30 42 82 43 76 44 75 45 31 47
REMARK SMILES IDX 63 48 43 49 62 50 44 51 47 52 61 53 80 54 45 55 46 56 60 58
REMARK SMILES IDX 81 59 48 60 32 61 33 62 41 63 34 64 40 65 42 66 39 67 35 68
REMARK SMILES IDX 36 69 37 70 38 71 64 72 65 73 73 74 66 75 72 76 74 77 71 78
REMARK SMILES IDX 67 79 68 80 69 81 70 82 49 83 50 84 58 85 51 86 57 87 59 88
REMARK SMILES IDX 56 89 52 90 53 91 54 92 55 93
REMARK H PARENT 16 6 9 11 20 27 79 46 47 57
REMARK Flexibility Score: inf
ROOT
ATOM      1  C   UNL A   1      31.572  31.885  26.568  1.00  0.00     0.042 C 
ENDROOT
BRANCH   1   2
ATOM      2  C   UNL A   1      31.669  30.380  26.340  1.00  0.00     0.118 C 
BRANCH   2   3
ATOM      3  N   UNL A   1      32.347  30.076  25.094  1.00  0.00    -0.352 N 
ATOM      4  C   UNL A   1      32.127  29.047  24.236  1.00  0.00     0.244 C 
ATOM      5  O   UNL A   1      33.003  28.725  23.437  1.00  0.00    -0.270 OA
ATOM      6  H   UNL A   1      33.063  30.700  24.835  1.00  0.00     0.163 HD
BRANCH   4   7
ATOM      7  C   UNL A   1      30.857  28.298  24.292  1.00  0.00     0.077 C 
ATOM      8  C   UNL A   1      30.752  27.113  23.672  1.00  0.00     0.077 C 
BRANCH   8   9
ATOM      9  C   UNL A   1      29.619  26.200  23.939  1.00  0.00     0.250 C 
ATOM     10  N   UNL A   1      29.835  24.872  24.180  1.00  0.00    -0.298 N 
ATOM     11  H   UNL A   1      29.042  24.305  24.310  1.00  0.00     0.172 HD
ATOM     12  O   UNL A   1      28.471  26.639  23.874  1.00  0.00    -0.270 OA
BRANCH  10  13
ATOM     13  C   UNL A   1      31.055  24.264  24.256  1.00  0.00     0.190 A 
ATOM     14  C   UNL A   1      35.545  22.917  24.814  1.00  0.00    -0.047 A 
ATOM     15  C   UNL A   1      35.340  22.840  23.433  1.00  0.00     0.006 A 
ATOM     16  C   UNL A   1      34.476  23.297  25.654  1.00  0.00     0.025 A 
ATOM     17  C   UNL A   1      34.090  23.100  22.874  1.00  0.00     0.030 A 
ATOM     18  C   UNL A   1      33.230  23.599  25.076  1.00  0.00     0.057 A 
ATOM     19  C   UNL A   1      33.023  23.480  23.703  1.00  0.00     0.084 A 
ATOM     20  S   UNL A   1      31.766  24.175  25.802  1.00  0.00    -0.097 S 
ATOM     21  N   UNL A   1      31.754  23.775  23.274  1.00  0.00    -0.220 NA
BRANCH  14  22
ATOM     22  C   UNL A   1      36.880  22.601  25.453  1.00  0.00     0.032 C 
ATOM     23  C   UNL A   1      37.736  23.794  25.866  1.00  0.00     0.009 C 
ENDBRANCH  14  22
ENDBRANCH  10  13
ENDBRANCH   8   9
ENDBRANCH   4   7
ENDBRANCH   2   3
ENDBRANCH   1   2
BRANCH   1  24
ATOM     24  C   UNL A   1      32.798  32.476  27.260  1.00  0.00     0.118 C 
BRANCH  24  25
ATOM     25  N   UNL A   1      32.609  33.879  27.604  1.00  0.00    -0.352 N 
ATOM     26  C   UNL A   1      33.156  34.616  28.623  1.00  0.00     0.251 C 
ATOM     27  H   UNL A   1      31.996  34.375  27.014  1.00  0.00     0.163 HD
ATOM     28  O   UNL A   1      32.653  35.704  28.915  1.00  0.00    -0.269 OA
BRANCH  26  29
ATOM     29  C   UNL A   1      34.326  34.111  29.368  1.00  0.00     0.039 A 
ATOM     30  C   UNL A   1      34.126  33.273  30.468  1.00  0.00     0.014 A 
ATOM     31  C   UNL A   1      35.619  34.494  29.007  1.00  0.00     0.014 A 
ATOM     32  C   UNL A   1      35.227  32.773  31.167  1.00  0.00     0.010 A 
ATOM     33  C   UNL A   1      36.716  33.930  29.650  1.00  0.00     0.010 A 
ATOM     34  C   UNL A   1      36.532  33.073  30.745  1.00  0.00    -0.014 A 
BRANCH  34  35
ATOM     35  C   UNL A   1      37.721  32.516  31.443  1.00  0.00     0.031 A 
ATOM     36  C   UNL A   1      38.479  31.368  30.832  1.00  0.00     0.074 A 
ATOM     37  C   UNL A   1      38.058  32.985  32.659  1.00  0.00     0.049 A 
ATOM     38  N   UNL A   1      39.474  30.676  31.325  1.00  0.00    -0.248 NA
ATOM     39  C   UNL A   1      38.027  30.915  29.509  1.00  0.00     0.031 C 
ATOM     40  C   UNL A   1      37.357  34.053  33.375  1.00  0.00     0.029 A 
ATOM     41  N   UNL A   1      39.061  32.611  33.518  1.00  0.00    -0.354 N 
ATOM     42  C   UNL A   1      39.750  29.689  30.382  1.00  0.00     0.074 A 
ATOM     43  C   UNL A   1      38.772  29.837  29.325  1.00  0.00     0.031 C 
ATOM     44  C   UNL A   1      37.957  34.254  34.560  1.00  0.00     0.029 A 
ATOM     45  C   UNL A   1      39.055  33.304  34.706  1.00  0.00     0.049 A 
ATOM     46  H   UNL A   1      39.721  31.914  33.303  1.00  0.00     0.167 HD
ATOM     47  C   UNL A   1      40.742  28.763  30.389  1.00  0.00     0.034 A 
ATOM     48  C   UNL A   1      39.835  33.176  35.798  1.00  0.00     0.034 A 
ATOM     49  C   UNL A   1      41.714  28.647  31.450  1.00  0.00     0.049 A 
ATOM     50  C   UNL A   1      40.937  32.150  35.785  1.00  0.00     0.074 A 
ATOM     51  C   UNL A   1      42.809  27.804  31.531  1.00  0.00     0.029 A 
ATOM     52  N   UNL A   1      41.701  29.390  32.626  1.00  0.00    -0.354 N 
ATOM     53  N   UNL A   1      41.237  31.273  34.855  1.00  0.00    -0.248 NA
ATOM     54  C   UNL A   1      41.816  32.108  36.960  1.00  0.00     0.031 C 
ATOM     55  C   UNL A   1      43.412  27.987  32.780  1.00  0.00     0.029 A 
ATOM     56  C   UNL A   1      42.746  29.001  33.451  1.00  0.00     0.049 A 
ATOM     57  H   UNL A   1      41.045  30.092  32.841  1.00  0.00     0.167 HD
ATOM     58  C   UNL A   1      42.354  30.587  35.324  1.00  0.00     0.074 A 
ATOM     59  C   UNL A   1      42.683  31.169  36.611  1.00  0.00     0.031 C 
ATOM     60  C   UNL A   1      43.047  29.576  34.743  1.00  0.00     0.034 A 
BRANCH  47  61
ATOM     61  C   UNL A   1      40.793  27.793  29.229  1.00  0.00     0.023 A 
ATOM     62  C   UNL A   1      41.716  27.944  28.177  1.00  0.00     0.031 A 
ATOM     63  C   UNL A   1      39.873  26.735  29.141  1.00  0.00     0.131 A 
ATOM     64  C   UNL A   1      41.630  27.124  27.043  1.00  0.00     0.055 A 
ATOM     65  C   UNL A   1      39.854  25.861  28.051  1.00  0.00     0.041 A 
ATOM     66  F   UNL A   1      38.954  26.545  30.101  1.00  0.00    -0.206 F 
ATOM     67  C   UNL A   1      40.722  26.065  26.983  1.00  0.00     0.022 A 
BRANCH  64  68
ATOM     68  S   UNL A   1      42.597  27.576  25.575  1.00  0.00     0.124 S 
ATOM     69  O   UNL A   1      42.012  28.868  25.223  1.00  0.00    -0.237 OA
ATOM     70  O   UNL A   1      43.959  27.611  26.093  1.00  0.00    -0.237 OA
ATOM     71  O   UNL A   1      42.314  26.495  24.633  1.00  0.00    -0.744 OA
ENDBRANCH  64  68
ENDBRANCH  47  61
BRANCH  48  72
ATOM     72  C   UNL A   1      39.587  34.030  36.994  1.00  0.00     0.023 A 
ATOM     73  C   UNL A   1      38.959  33.518  38.138  1.00  0.00     0.031 A 
ATOM     74  C   UNL A   1      39.977  35.382  37.004  1.00  0.00     0.131 A 
ATOM     75  C   UNL A   1      38.710  34.359  39.236  1.00  0.00     0.055 A 
ATOM     76  C   UNL A   1      39.770  36.203  38.114  1.00  0.00     0.041 A 
ATOM     77  F   UNL A   1      40.591  35.919  35.937  1.00  0.00    -0.206 F 
ATOM     78  C   UNL A   1      39.123  35.694  39.236  1.00  0.00     0.022 A 
BRANCH  75  79
ATOM     79  S   UNL A   1      37.784  33.696  40.648  1.00  0.00     0.124 S 
ATOM     80  O   UNL A   1      38.763  32.797  41.250  1.00  0.00    -0.237 OA
ATOM     81  O   UNL A   1      37.475  34.906  41.402  1.00  0.00    -0.237 OA
ATOM     82  O   UNL A   1      36.635  33.042  40.024  1.00  0.00    -0.744 OA
ENDBRANCH  75  79
ENDBRANCH  48  72
BRANCH  60  83
ATOM     83  C   UNL A   1      44.254  29.058  35.489  1.00  0.00     0.023 A 
ATOM     84  C   UNL A   1      44.141  28.069  36.481  1.00  0.00     0.031 A 
ATOM     85  C   UNL A   1      45.532  29.570  35.206  1.00  0.00     0.131 A 
ATOM     86  C   UNL A   1      45.280  27.663  37.194  1.00  0.00     0.055 A 
ATOM     87  C   UNL A   1      46.670  29.118  35.876  1.00  0.00     0.041 A 
ATOM     88  F   UNL A   1      45.698  30.519  34.270  1.00  0.00    -0.206 F 
ATOM     89  C   UNL A   1      46.545  28.168  36.886  1.00  0.00     0.022 A 
BRANCH  86  90
ATOM     90  S   UNL A   1      45.072  26.532  38.598  1.00  0.00     0.124 S 
ATOM     91  O   UNL A   1      45.658  25.299  38.083  1.00  0.00    -0.237 OA
ATOM     92  O   UNL A   1      45.824  27.204  39.653  1.00  0.00    -0.237 OA
ATOM     93  O   UNL A   1      43.625  26.495  38.797  1.00  0.00    -0.744 OA
ENDBRANCH  86  90
ENDBRANCH  60  83
ENDBRANCH  34  35
ENDBRANCH  26  29
ENDBRANCH  24  25
ENDBRANCH   1  24
TORSDOF 16
ENDMDL
