MODEL 1
REMARK VINA RESULT:     -14.6      0.000      0.000
REMARK SMILES Cc1ccc(-c2nc(NC(=O)[C@H]3[C@@H](C(=O)NCCCNC(=O)c4ccc(-c5c6nc(c(-c7cc(S(=O)(=O)[O-])ccc7F)c7ccc([nH]7)c(-c7cc(S(=O)(=O)[O-])ccc7F)c7nc(c(-c8cc(S(=O)(=O)[O-])ccc8F)c8ccc5[nH]8)C=C7)C=C6)cc4)[C@@H]4CC[C@H]3O4)sc2C)cc1
REMARK SMILES IDX 18 1 17 2 16 3 14 4 15 5 13 7 12 8 89 9 86 10 88 11 90 12
REMARK SMILES IDX 87 13 10 14 9 15 11 17 8 18 6 19 7 20 92 21 91 22 93 23 5 24
REMARK SMILES IDX 1 25 2 26 3 27 95 28 4 29 94 30 19 31 20 32 21 33 22 35
REMARK SMILES IDX 23 36 24 37 85 38 25 39 84 40 26 41 27 42 28 43 78 44 29 45
REMARK SMILES IDX 83 46 77 47 79 48 30 49 82 50 76 51 75 52 31 54 63 55 43 56
REMARK SMILES IDX 62 57 44 58 47 59 61 60 80 61 45 62 46 63 60 65 81 66 48 67
REMARK SMILES IDX 32 68 33 69 41 70 34 71 40 72 42 73 39 74 35 75 36 76 37 77
REMARK SMILES IDX 38 78 64 79 65 80 73 81 66 82 72 83 74 84 71 85 67 86 68 87
REMARK SMILES IDX 69 88 70 89 49 90 50 91 58 92 51 93 57 94 59 95 56 96 52 97
REMARK SMILES IDX 53 98 54 99 55 100
REMARK H PARENT 16 6 9 16 20 34 79 53 47 64
REMARK Flexibility Score: inf
ROOT
ATOM      1  C   UNL A   1      32.770  30.876  27.090  1.00  0.00     0.042 C 
ENDROOT
BRANCH   1   2
ATOM      2  C   UNL A   1      32.243  30.157  25.868  1.00  0.00     0.117 C 
BRANCH   2   3
ATOM      3  N   UNL A   1      33.264  29.561  25.018  1.00  0.00    -0.356 N 
ATOM      4  C   UNL A   1      33.040  28.867  23.867  1.00  0.00     0.226 C 
ATOM      5  O   UNL A   1      33.567  29.285  22.834  1.00  0.00    -0.275 OA
ATOM      6  H   UNL A   1      34.201  29.668  25.301  1.00  0.00     0.163 HD
BRANCH   4   7
ATOM      7  C   UNL A   1      32.037  27.732  23.852  1.00  0.00     0.122 C 
ATOM      8  C   UNL A   1      32.353  26.271  23.497  1.00  0.00     0.123 C 
ATOM      9  C   UNL A   1      31.049  25.852  22.800  1.00  0.00     0.132 C 
ATOM     10  C   UNL A   1      30.815  28.006  22.925  1.00  0.00     0.132 C 
ATOM     11  C   UNL A   1      29.824  26.030  23.729  1.00  0.00     0.035 C 
ATOM     12  O   UNL A   1      30.888  26.968  21.909  1.00  0.00    -0.373 OA
ATOM     13  C   UNL A   1      29.541  27.533  23.615  1.00  0.00     0.035 C 
BRANCH   8  14
ATOM     14  C   UNL A   1      33.534  25.580  22.790  1.00  0.00     0.232 C 
ATOM     15  N   UNL A   1      34.272  24.484  23.042  1.00  0.00    -0.302 N 
ATOM     16  H   UNL A   1      35.002  24.395  22.387  1.00  0.00     0.172 HD
ATOM     17  O   UNL A   1      33.955  26.213  21.792  1.00  0.00    -0.274 OA
BRANCH  15  18
ATOM     18  C   UNL A   1      34.299  23.461  23.942  1.00  0.00     0.190 A 
ATOM     19  C   UNL A   1      34.007  21.395  24.693  1.00  0.00     0.086 A 
ATOM     20  N   UNL A   1      34.231  22.198  23.572  1.00  0.00    -0.220 NA
ATOM     21  C   UNL A   1      34.033  22.090  25.894  1.00  0.00     0.031 A 
ATOM     22  S   UNL A   1      34.499  23.702  25.587  1.00  0.00    -0.101 S 
ATOM     23  C   UNL A   1      33.754  21.677  27.295  1.00  0.00     0.059 C 
BRANCH  19  24
ATOM     24  C   UNL A   1      33.794  19.948  24.614  1.00  0.00     0.001 A 
ATOM     25  C   UNL A   1      33.151  15.683  25.034  1.00  0.00     0.044 C 
ATOM     26  C   UNL A   1      33.373  17.157  24.855  1.00  0.00    -0.051 A 
ATOM     27  C   UNL A   1      34.665  17.675  24.688  1.00  0.00     0.004 A 
ATOM     28  C   UNL A   1      32.290  18.038  24.822  1.00  0.00     0.004 A 
ATOM     29  C   UNL A   1      34.874  19.060  24.570  1.00  0.00     0.010 A 
ATOM     30  C   UNL A   1      32.499  19.413  24.683  1.00  0.00     0.010 A 
ENDBRANCH  19  24
ENDBRANCH  15  18
ENDBRANCH   8  14
ENDBRANCH   4   7
ENDBRANCH   2   3
ENDBRANCH   1   2
BRANCH   1  31
ATOM     31  C   UNL A   1      34.034  30.244  27.657  1.00  0.00     0.118 C 
BRANCH  31  32
ATOM     32  N   UNL A   1      34.978  31.261  28.076  1.00  0.00    -0.352 N 
ATOM     33  C   UNL A   1      36.026  31.140  28.971  1.00  0.00     0.251 C 
ATOM     34  H   UNL A   1      34.858  32.151  27.675  1.00  0.00     0.163 HD
ATOM     35  O   UNL A   1      36.315  32.021  29.758  1.00  0.00    -0.269 OA
BRANCH  33  36
ATOM     36  C   UNL A   1      36.980  30.025  28.732  1.00  0.00     0.039 A 
ATOM     37  C   UNL A   1      37.167  29.128  29.792  1.00  0.00     0.014 A 
ATOM     38  C   UNL A   1      37.792  29.958  27.605  1.00  0.00     0.014 A 
ATOM     39  C   UNL A   1      38.287  28.299  29.806  1.00  0.00     0.010 A 
ATOM     40  C   UNL A   1      38.940  29.190  27.645  1.00  0.00     0.010 A 
ATOM     41  C   UNL A   1      39.214  28.406  28.769  1.00  0.00    -0.014 A 
BRANCH  41  42
ATOM     42  C   UNL A   1      40.549  27.829  28.834  1.00  0.00     0.031 A 
ATOM     43  C   UNL A   1      40.797  26.433  28.441  1.00  0.00     0.074 A 
ATOM     44  C   UNL A   1      41.579  28.613  29.212  1.00  0.00     0.049 A 
ATOM     45  N   UNL A   1      41.776  25.716  28.879  1.00  0.00    -0.248 NA
ATOM     46  C   UNL A   1      39.914  25.714  27.534  1.00  0.00     0.031 C 
ATOM     47  C   UNL A   1      43.005  28.320  29.131  1.00  0.00     0.029 A 
ATOM     48  N   UNL A   1      41.499  29.757  30.003  1.00  0.00    -0.354 N 
ATOM     49  C   UNL A   1      41.840  24.581  28.104  1.00  0.00     0.074 A 
ATOM     50  C   UNL A   1      40.608  24.587  27.346  1.00  0.00     0.031 C 
ATOM     51  C   UNL A   1      43.648  29.065  30.045  1.00  0.00     0.029 A 
ATOM     52  C   UNL A   1      42.635  29.748  30.832  1.00  0.00     0.049 A 
ATOM     53  H   UNL A   1      40.789  30.438  29.985  1.00  0.00     0.167 HD
ATOM     54  C   UNL A   1      42.994  23.852  28.081  1.00  0.00     0.034 A 
ATOM     55  C   UNL A   1      42.506  29.678  32.188  1.00  0.00     0.034 A 
ATOM     56  C   UNL A   1      43.989  24.388  29.017  1.00  0.00     0.049 A 
ATOM     57  C   UNL A   1      43.193  28.469  32.793  1.00  0.00     0.074 A 
ATOM     58  C   UNL A   1      45.125  25.163  28.842  1.00  0.00     0.029 A 
ATOM     59  N   UNL A   1      43.732  24.378  30.384  1.00  0.00    -0.354 N 
ATOM     60  N   UNL A   1      43.542  27.403  32.123  1.00  0.00    -0.248 NA
ATOM     61  C   UNL A   1      43.536  28.371  34.206  1.00  0.00     0.031 C 
ATOM     62  C   UNL A   1      45.525  25.654  30.113  1.00  0.00     0.029 A 
ATOM     63  C   UNL A   1      44.648  25.160  31.063  1.00  0.00     0.049 A 
ATOM     64  H   UNL A   1      42.996  23.881  30.810  1.00  0.00     0.167 HD
ATOM     65  C   UNL A   1      44.141  26.497  32.966  1.00  0.00     0.074 A 
ATOM     66  C   UNL A   1      44.124  27.162  34.258  1.00  0.00     0.031 C 
ATOM     67  C   UNL A   1      44.594  25.283  32.516  1.00  0.00     0.034 A 
BRANCH  54  68
ATOM     68  C   UNL A   1      43.346  22.853  26.993  1.00  0.00     0.023 A 
ATOM     69  C   UNL A   1      42.780  21.559  27.027  1.00  0.00     0.031 A 
ATOM     70  C   UNL A   1      44.254  23.074  25.939  1.00  0.00     0.131 A 
ATOM     71  C   UNL A   1      43.198  20.542  26.147  1.00  0.00     0.055 A 
ATOM     72  C   UNL A   1      44.718  22.050  25.102  1.00  0.00     0.041 A 
ATOM     73  F   UNL A   1      44.685  24.303  25.627  1.00  0.00    -0.206 F 
ATOM     74  C   UNL A   1      44.203  20.770  25.213  1.00  0.00     0.022 A 
BRANCH  71  75
ATOM     75  S   UNL A   1      42.404  18.913  26.231  1.00  0.00     0.124 S 
ATOM     76  O   UNL A   1      42.515  18.583  27.648  1.00  0.00    -0.237 OA
ATOM     77  O   UNL A   1      41.062  19.196  25.735  1.00  0.00    -0.237 OA
ATOM     78  O   UNL A   1      43.225  18.089  25.342  1.00  0.00    -0.744 OA
ENDBRANCH  71  75
ENDBRANCH  54  68
BRANCH  55  79
ATOM     79  C   UNL A   1      41.252  30.323  32.690  1.00  0.00     0.023 A 
ATOM     80  C   UNL A   1      41.184  31.738  32.659  1.00  0.00     0.031 A 
ATOM     81  C   UNL A   1      40.048  29.616  32.803  1.00  0.00     0.131 A 
ATOM     82  C   UNL A   1      39.945  32.391  32.564  1.00  0.00     0.055 A 
ATOM     83  C   UNL A   1      38.812  30.278  32.789  1.00  0.00     0.041 A 
ATOM     84  F   UNL A   1      40.037  28.275  32.811  1.00  0.00    -0.206 F 
ATOM     85  C   UNL A   1      38.756  31.664  32.623  1.00  0.00     0.022 A 
BRANCH  82  86
ATOM     86  S   UNL A   1      39.887  34.153  32.097  1.00  0.00     0.124 S 
ATOM     87  O   UNL A   1      39.743  34.081  30.647  1.00  0.00    -0.237 OA
ATOM     88  O   UNL A   1      38.725  34.662  32.821  1.00  0.00    -0.237 OA
ATOM     89  O   UNL A   1      41.166  34.685  32.575  1.00  0.00    -0.744 OA
ENDBRANCH  82  86
ENDBRANCH  55  79
BRANCH  67  90
ATOM     90  C   UNL A   1      45.118  24.125  33.360  1.00  0.00     0.023 A 
ATOM     91  C   UNL A   1      46.399  24.077  33.928  1.00  0.00     0.031 A 
ATOM     92  C   UNL A   1      44.285  23.017  33.673  1.00  0.00     0.131 A 
ATOM     93  C   UNL A   1      46.830  22.971  34.689  1.00  0.00     0.055 A 
ATOM     94  C   UNL A   1      44.691  21.949  34.482  1.00  0.00     0.041 A 
ATOM     95  F   UNL A   1      43.027  22.921  33.220  1.00  0.00    -0.206 F 
ATOM     96  C   UNL A   1      45.978  21.913  34.987  1.00  0.00     0.022 A 
BRANCH  93  97
ATOM     97  S   UNL A   1      48.555  22.928  35.247  1.00  0.00     0.124 S 
ATOM     98  O   UNL A   1      49.269  23.370  34.052  1.00  0.00    -0.237 OA
ATOM     99  O   UNL A   1      48.547  23.869  36.362  1.00  0.00    -0.237 OA
ATOM    100  O   UNL A   1      48.767  21.530  35.614  1.00  0.00    -0.744 OA
ENDBRANCH  93  97
ENDBRANCH  67  90
ENDBRANCH  41  42
ENDBRANCH  33  36
ENDBRANCH  31  32
ENDBRANCH   1  31
TORSDOF 16
ENDMDL
MODEL 2
REMARK VINA RESULT:     -14.1      4.002     10.646
REMARK SMILES Cc1ccc(-c2nc(NC(=O)[C@H]3[C@@H](C(=O)NCCCNC(=O)c4ccc(-c5c6nc(c(-c7cc(S(=O)(=O)[O-])ccc7F)c7ccc([nH]7)c(-c7cc(S(=O)(=O)[O-])ccc7F)c7nc(c(-c8cc(S(=O)(=O)[O-])ccc8F)c8ccc5[nH]8)C=C7)C=C6)cc4)[C@@H]4CC[C@H]3O4)sc2C)cc1
REMARK SMILES IDX 18 1 17 2 16 3 14 4 15 5 13 7 12 8 89 9 86 10 88 11 90 12
REMARK SMILES IDX 87 13 10 14 9 15 11 17 8 18 6 19 7 20 92 21 91 22 93 23 5 24
REMARK SMILES IDX 1 25 2 26 3 27 95 28 4 29 94 30 19 31 20 32 21 33 22 35
REMARK SMILES IDX 23 36 24 37 85 38 25 39 84 40 26 41 27 42 28 43 78 44 29 45
REMARK SMILES IDX 83 46 77 47 79 48 30 49 82 50 76 51 75 52 31 54 63 55 43 56
REMARK SMILES IDX 62 57 44 58 47 59 61 60 80 61 45 62 46 63 60 65 81 66 48 67
REMARK SMILES IDX 32 68 33 69 41 70 34 71 40 72 42 73 39 74 35 75 36 76 37 77
REMARK SMILES IDX 38 78 64 79 65 80 73 81 66 82 72 83 74 84 71 85 67 86 68 87
REMARK SMILES IDX 69 88 70 89 49 90 50 91 58 92 51 93 57 94 59 95 56 96 52 97
REMARK SMILES IDX 53 98 54 99 55 100
REMARK H PARENT 16 6 9 16 20 34 79 53 47 64
REMARK Flexibility Score: inf
ROOT
ATOM      1  C   UNL A   1      38.592  21.373  25.730  1.00  0.00     0.042 C 
ENDROOT
BRANCH   1   2
ATOM      2  C   UNL A   1      37.484  21.236  24.709  1.00  0.00     0.117 C 
BRANCH   2   3
ATOM      3  N   UNL A   1      36.963  22.494  24.194  1.00  0.00    -0.356 N 
ATOM      4  C   UNL A   1      35.691  22.957  24.350  1.00  0.00     0.226 C 
ATOM      5  O   UNL A   1      35.541  24.048  24.904  1.00  0.00    -0.275 OA
ATOM      6  H   UNL A   1      37.587  23.063  23.688  1.00  0.00     0.163 HD
BRANCH   4   7
ATOM      7  C   UNL A   1      34.516  22.064  24.006  1.00  0.00     0.122 C 
ATOM      8  C   UNL A   1      33.551  22.280  22.830  1.00  0.00     0.123 C 
ATOM      9  C   UNL A   1      32.235  21.768  23.437  1.00  0.00     0.132 C 
ATOM     10  C   UNL A   1      33.514  21.889  25.186  1.00  0.00     0.132 C 
ATOM     11  C   UNL A   1      32.355  20.296  23.900  1.00  0.00     0.035 C 
ATOM     12  O   UNL A   1      32.269  22.460  24.696  1.00  0.00    -0.373 OA
ATOM     13  C   UNL A   1      33.063  20.435  25.254  1.00  0.00     0.035 C 
BRANCH   8  14
ATOM     14  C   UNL A   1      33.240  23.479  21.916  1.00  0.00     0.232 C 
ATOM     15  N   UNL A   1      32.597  24.649  22.083  1.00  0.00    -0.302 N 
ATOM     16  H   UNL A   1      32.540  25.141  21.232  1.00  0.00     0.172 HD
ATOM     17  O   UNL A   1      33.604  23.306  20.728  1.00  0.00    -0.274 OA
BRANCH  15  18
ATOM     18  C   UNL A   1      32.004  25.349  23.090  1.00  0.00     0.190 A 
ATOM     19  C   UNL A   1      31.876  26.767  24.791  1.00  0.00     0.086 A 
ATOM     20  N   UNL A   1      32.556  26.422  23.620  1.00  0.00    -0.220 NA
ATOM     21  C   UNL A   1      30.750  25.993  25.033  1.00  0.00     0.031 A 
ATOM     22  S   UNL A   1      30.492  24.964  23.697  1.00  0.00    -0.101 S 
ATOM     23  C   UNL A   1      29.802  25.936  26.178  1.00  0.00     0.059 C 
BRANCH  19  24
ATOM     24  C   UNL A   1      32.294  27.863  25.668  1.00  0.00     0.001 A 
ATOM     25  C   UNL A   1      33.887  31.311  27.754  1.00  0.00     0.044 C 
ATOM     26  C   UNL A   1      33.318  30.109  27.058  1.00  0.00    -0.051 A 
ATOM     27  C   UNL A   1      33.916  28.849  27.195  1.00  0.00     0.004 A 
ATOM     28  C   UNL A   1      32.160  30.220  26.285  1.00  0.00     0.004 A 
ATOM     29  C   UNL A   1      33.409  27.734  26.504  1.00  0.00     0.010 A 
ATOM     30  C   UNL A   1      31.646  29.105  25.615  1.00  0.00     0.010 A 
ENDBRANCH  19  24
ENDBRANCH  15  18
ENDBRANCH   8  14
ENDBRANCH   4   7
ENDBRANCH   2   3
ENDBRANCH   1   2
BRANCH   1  31
ATOM     31  C   UNL A   1      38.825  22.812  26.170  1.00  0.00     0.118 C 
BRANCH  31  32
ATOM     32  N   UNL A   1      40.178  22.991  26.658  1.00  0.00    -0.352 N 
ATOM     33  C   UNL A   1      40.964  24.127  26.603  1.00  0.00     0.251 C 
ATOM     34  H   UNL A   1      40.589  22.205  27.083  1.00  0.00     0.163 HD
ATOM     35  O   UNL A   1      42.159  24.081  26.380  1.00  0.00    -0.269 OA
BRANCH  33  36
ATOM     36  C   UNL A   1      40.362  25.381  27.129  1.00  0.00     0.039 A 
ATOM     37  C   UNL A   1      40.616  26.549  26.397  1.00  0.00     0.014 A 
ATOM     38  C   UNL A   1      39.736  25.453  28.369  1.00  0.00     0.014 A 
ATOM     39  C   UNL A   1      40.423  27.793  26.993  1.00  0.00     0.010 A 
ATOM     40  C   UNL A   1      39.609  26.681  28.989  1.00  0.00     0.010 A 
ATOM     41  C   UNL A   1      40.006  27.843  28.323  1.00  0.00    -0.014 A 
BRANCH  41  42
ATOM     42  C   UNL A   1      40.070  29.052  29.131  1.00  0.00     0.031 A 
ATOM     43  C   UNL A   1      39.005  30.066  29.073  1.00  0.00     0.074 A 
ATOM     44  C   UNL A   1      41.103  29.210  29.985  1.00  0.00     0.049 A 
ATOM     45  N   UNL A   1      39.172  31.313  29.358  1.00  0.00    -0.248 NA
ATOM     46  C   UNL A   1      37.653  29.747  28.641  1.00  0.00     0.031 C 
ATOM     47  C   UNL A   1      41.251  30.209  31.036  1.00  0.00     0.029 A 
ATOM     48  N   UNL A   1      42.362  28.625  29.875  1.00  0.00    -0.354 N 
ATOM     49  C   UNL A   1      37.925  31.889  29.450  1.00  0.00     0.074 A 
ATOM     50  C   UNL A   1      37.025  30.896  28.907  1.00  0.00     0.031 C 
ATOM     51  C   UNL A   1      42.560  30.375  31.288  1.00  0.00     0.029 A 
ATOM     52  C   UNL A   1      43.289  29.591  30.305  1.00  0.00     0.049 A 
ATOM     53  H   UNL A   1      42.564  27.715  29.559  1.00  0.00     0.167 HD
ATOM     54  C   UNL A   1      37.784  33.073  30.115  1.00  0.00     0.034 A 
ATOM     55  C   UNL A   1      44.235  30.075  29.451  1.00  0.00     0.034 A 
ATOM     56  C   UNL A   1      39.079  33.600  30.559  1.00  0.00     0.049 A 
ATOM     57  C   UNL A   1      44.155  31.577  29.257  1.00  0.00     0.074 A 
ATOM     58  C   UNL A   1      39.717  33.619  31.790  1.00  0.00     0.029 A 
ATOM     59  N   UNL A   1      40.036  33.971  29.620  1.00  0.00    -0.354 N 
ATOM     60  N   UNL A   1      43.106  32.305  29.536  1.00  0.00    -0.248 NA
ATOM     61  C   UNL A   1      45.255  32.374  28.728  1.00  0.00     0.031 C 
ATOM     62  C   UNL A   1      41.078  33.964  31.577  1.00  0.00     0.029 A 
ATOM     63  C   UNL A   1      41.263  34.179  30.222  1.00  0.00     0.049 A 
ATOM     64  H   UNL A   1      39.862  34.073  28.655  1.00  0.00     0.167 HD
ATOM     65  C   UNL A   1      43.362  33.625  29.246  1.00  0.00     0.074 A 
ATOM     66  C   UNL A   1      44.731  33.612  28.757  1.00  0.00     0.031 C 
ATOM     67  C   UNL A   1      42.419  34.602  29.438  1.00  0.00     0.034 A 
BRANCH  54  68
ATOM     68  C   UNL A   1      36.460  33.597  30.644  1.00  0.00     0.023 A 
ATOM     69  C   UNL A   1      35.558  34.227  29.758  1.00  0.00     0.031 A 
ATOM     70  C   UNL A   1      36.044  33.563  31.989  1.00  0.00     0.131 A 
ATOM     71  C   UNL A   1      34.398  34.879  30.220  1.00  0.00     0.055 A 
ATOM     72  C   UNL A   1      34.924  34.264  32.461  1.00  0.00     0.041 A 
ATOM     73  F   UNL A   1      36.661  32.799  32.899  1.00  0.00    -0.206 F 
ATOM     74  C   UNL A   1      34.102  34.942  31.577  1.00  0.00     0.022 A 
BRANCH  71  75
ATOM     75  S   UNL A   1      33.271  35.642  29.019  1.00  0.00     0.124 S 
ATOM     76  O   UNL A   1      34.179  36.435  28.198  1.00  0.00    -0.237 OA
ATOM     77  O   UNL A   1      32.666  34.479  28.380  1.00  0.00    -0.237 OA
ATOM     78  O   UNL A   1      32.361  36.423  29.858  1.00  0.00    -0.744 OA
ENDBRANCH  71  75
ENDBRANCH  54  68
BRANCH  55  79
ATOM     79  C   UNL A   1      44.661  29.075  28.422  1.00  0.00     0.023 A 
ATOM     80  C   UNL A   1      45.506  28.018  28.845  1.00  0.00     0.031 A 
ATOM     81  C   UNL A   1      43.972  28.914  27.214  1.00  0.00     0.131 A 
ATOM     82  C   UNL A   1      45.504  26.789  28.166  1.00  0.00     0.055 A 
ATOM     83  C   UNL A   1      44.036  27.711  26.495  1.00  0.00     0.041 A 
ATOM     84  F   UNL A   1      43.135  29.862  26.768  1.00  0.00    -0.206 F 
ATOM     85  C   UNL A   1      44.767  26.629  26.993  1.00  0.00     0.022 A 
BRANCH  82  86
ATOM     86  S   UNL A   1      46.250  25.323  28.953  1.00  0.00     0.124 S 
ATOM     87  O   UNL A   1      45.479  24.233  28.364  1.00  0.00    -0.237 OA
ATOM     88  O   UNL A   1      47.652  25.391  28.550  1.00  0.00    -0.237 OA
ATOM     89  O   UNL A   1      46.030  25.543  30.385  1.00  0.00    -0.744 OA
ENDBRANCH  82  86
ENDBRANCH  55  79
BRANCH  67  90
ATOM     90  C   UNL A   1      42.505  36.061  29.006  1.00  0.00     0.023 A 
ATOM     91  C   UNL A   1      43.208  37.053  29.705  1.00  0.00     0.031 A 
ATOM     92  C   UNL A   1      41.901  36.500  27.797  1.00  0.00     0.131 A 
ATOM     93  C   UNL A   1      43.238  38.391  29.261  1.00  0.00     0.055 A 
ATOM     94  C   UNL A   1      41.986  37.815  27.322  1.00  0.00     0.041 A 
ATOM     95  F   UNL A   1      41.206  35.670  27.005  1.00  0.00    -0.206 F 
ATOM     96  C   UNL A   1      42.648  38.777  28.063  1.00  0.00     0.022 A 
BRANCH  93  97
ATOM     97  S   UNL A   1      44.038  39.631  30.317  1.00  0.00     0.124 S 
ATOM     98  O   UNL A   1      43.489  39.307  31.630  1.00  0.00    -0.237 OA
ATOM     99  O   UNL A   1      45.454  39.333  30.132  1.00  0.00    -0.237 OA
ATOM    100  O   UNL A   1      43.592  40.905  29.755  1.00  0.00    -0.744 OA
ENDBRANCH  93  97
ENDBRANCH  67  90
ENDBRANCH  41  42
ENDBRANCH  33  36
ENDBRANCH  31  32
ENDBRANCH   1  31
TORSDOF 16
ENDMDL
MODEL 3
REMARK VINA RESULT:     -14.0      1.702      2.022
REMARK SMILES Cc1ccc(-c2nc(NC(=O)[C@H]3[C@@H](C(=O)NCCCNC(=O)c4ccc(-c5c6nc(c(-c7cc(S(=O)(=O)[O-])ccc7F)c7ccc([nH]7)c(-c7cc(S(=O)(=O)[O-])ccc7F)c7nc(c(-c8cc(S(=O)(=O)[O-])ccc8F)c8ccc5[nH]8)C=C7)C=C6)cc4)[C@@H]4CC[C@H]3O4)sc2C)cc1
REMARK SMILES IDX 18 1 17 2 16 3 14 4 15 5 13 7 12 8 89 9 86 10 88 11 90 12
REMARK SMILES IDX 87 13 10 14 9 15 11 17 8 18 6 19 7 20 92 21 91 22 93 23 5 24
REMARK SMILES IDX 1 25 2 26 3 27 95 28 4 29 94 30 19 31 20 32 21 33 22 35
REMARK SMILES IDX 23 36 24 37 85 38 25 39 84 40 26 41 27 42 28 43 78 44 29 45
REMARK SMILES IDX 83 46 77 47 79 48 30 49 82 50 76 51 75 52 31 54 63 55 43 56
REMARK SMILES IDX 62 57 44 58 47 59 61 60 80 61 45 62 46 63 60 65 81 66 48 67
REMARK SMILES IDX 32 68 33 69 41 70 34 71 40 72 42 73 39 74 35 75 36 76 37 77
REMARK SMILES IDX 38 78 64 79 65 80 73 81 66 82 72 83 74 84 71 85 67 86 68 87
REMARK SMILES IDX 69 88 70 89 49 90 50 91 58 92 51 93 57 94 59 95 56 96 52 97
REMARK SMILES IDX 53 98 54 99 55 100
REMARK H PARENT 16 6 9 16 20 34 79 53 47 64
REMARK Flexibility Score: inf
ROOT
ATOM      1  C   UNL A   1      33.024  30.932  26.827  1.00  0.00     0.042 C 
ENDROOT
BRANCH   1   2
ATOM      2  C   UNL A   1      32.356  30.075  25.774  1.00  0.00     0.117 C 
BRANCH   2   3
ATOM      3  N   UNL A   1      33.248  29.557  24.746  1.00  0.00    -0.356 N 
ATOM      4  C   UNL A   1      32.873  28.847  23.645  1.00  0.00     0.226 C 
ATOM      5  O   UNL A   1      33.171  29.303  22.540  1.00  0.00    -0.275 OA
ATOM      6  H   UNL A   1      34.210  29.736  24.857  1.00  0.00     0.163 HD
BRANCH   4   7
ATOM      7  C   UNL A   1      31.972  27.639  23.798  1.00  0.00     0.122 C 
ATOM      8  C   UNL A   1      32.391  26.181  23.552  1.00  0.00     0.123 C 
ATOM      9  C   UNL A   1      31.088  25.597  22.983  1.00  0.00     0.132 C 
ATOM     10  C   UNL A   1      30.678  27.727  22.934  1.00  0.00     0.132 C 
ATOM     11  C   UNL A   1      29.910  25.761  23.973  1.00  0.00     0.035 C 
ATOM     12  O   UNL A   1      30.779  26.607  22.010  1.00  0.00    -0.373 OA
ATOM     13  C   UNL A   1      29.493  27.220  23.746  1.00  0.00     0.035 C 
BRANCH   8  14
ATOM     14  C   UNL A   1      33.583  25.525  22.832  1.00  0.00     0.232 C 
ATOM     15  N   UNL A   1      34.346  24.442  23.068  1.00  0.00    -0.302 N 
ATOM     16  H   UNL A   1      35.073  24.377  22.408  1.00  0.00     0.172 HD
ATOM     17  O   UNL A   1      33.984  26.177  21.839  1.00  0.00    -0.274 OA
BRANCH  15  18
ATOM     18  C   UNL A   1      34.400  23.410  23.955  1.00  0.00     0.190 A 
ATOM     19  C   UNL A   1      34.100  21.345  24.705  1.00  0.00     0.086 A 
ATOM     20  N   UNL A   1      34.278  22.153  23.580  1.00  0.00    -0.220 NA
ATOM     21  C   UNL A   1      34.214  22.026  25.909  1.00  0.00     0.031 A 
ATOM     22  S   UNL A   1      34.702  23.630  25.588  1.00  0.00    -0.101 S 
ATOM     23  C   UNL A   1      34.008  21.607  27.320  1.00  0.00     0.059 C 
BRANCH  19  24
ATOM     24  C   UNL A   1      33.847  19.904  24.627  1.00  0.00     0.001 A 
ATOM     25  C   UNL A   1      33.081  15.660  25.048  1.00  0.00     0.044 C 
ATOM     26  C   UNL A   1      33.346  17.126  24.869  1.00  0.00    -0.051 A 
ATOM     27  C   UNL A   1      34.653  17.607  24.709  1.00  0.00     0.004 A 
ATOM     28  C   UNL A   1      32.288  18.037  24.828  1.00  0.00     0.004 A 
ATOM     29  C   UNL A   1      34.902  18.986  24.590  1.00  0.00     0.010 A 
ATOM     30  C   UNL A   1      32.537  19.406  24.689  1.00  0.00     0.010 A 
ENDBRANCH  19  24
ENDBRANCH  15  18
ENDBRANCH   8  14
ENDBRANCH   4   7
ENDBRANCH   2   3
ENDBRANCH   1   2
BRANCH   1  31
ATOM     31  C   UNL A   1      34.294  30.306  27.389  1.00  0.00     0.118 C 
BRANCH  31  32
ATOM     32  N   UNL A   1      35.366  31.279  27.453  1.00  0.00    -0.352 N 
ATOM     33  C   UNL A   1      36.536  31.217  28.187  1.00  0.00     0.251 C 
ATOM     34  H   UNL A   1      35.247  32.087  26.905  1.00  0.00     0.163 HD
ATOM     35  O   UNL A   1      37.016  32.194  28.731  1.00  0.00    -0.269 OA
BRANCH  33  36
ATOM     36  C   UNL A   1      37.353  29.985  28.035  1.00  0.00     0.039 A 
ATOM     37  C   UNL A   1      37.418  29.138  29.150  1.00  0.00     0.014 A 
ATOM     38  C   UNL A   1      38.167  29.753  26.930  1.00  0.00     0.014 A 
ATOM     39  C   UNL A   1      38.430  28.185  29.236  1.00  0.00     0.010 A 
ATOM     40  C   UNL A   1      39.214  28.858  27.041  1.00  0.00     0.010 A 
ATOM     41  C   UNL A   1      39.377  28.117  28.214  1.00  0.00    -0.014 A 
BRANCH  41  42
ATOM     42  C   UNL A   1      40.633  27.391  28.341  1.00  0.00     0.031 A 
ATOM     43  C   UNL A   1      40.681  25.925  28.228  1.00  0.00     0.074 A 
ATOM     44  C   UNL A   1      41.774  28.090  28.512  1.00  0.00     0.049 A 
ATOM     45  N   UNL A   1      41.591  25.183  28.763  1.00  0.00    -0.248 NA
ATOM     46  C   UNL A   1      39.659  25.168  27.521  1.00  0.00     0.031 C 
ATOM     47  C   UNL A   1      43.145  27.599  28.435  1.00  0.00     0.029 A 
ATOM     48  N   UNL A   1      41.887  29.366  29.058  1.00  0.00    -0.354 N 
ATOM     49  C   UNL A   1      41.464  23.920  28.231  1.00  0.00     0.074 A 
ATOM     50  C   UNL A   1      40.196  23.943  27.537  1.00  0.00     0.031 C 
ATOM     51  C   UNL A   1      43.933  28.415  29.153  1.00  0.00     0.029 A 
ATOM     52  C   UNL A   1      43.065  29.368  29.826  1.00  0.00     0.049 A 
ATOM     53  H   UNL A   1      41.266  30.119  28.932  1.00  0.00     0.167 HD
ATOM     54  C   UNL A   1      42.516  23.054  28.310  1.00  0.00     0.034 A 
ATOM     55  C   UNL A   1      43.018  29.581  31.172  1.00  0.00     0.034 A 
ATOM     56  C   UNL A   1      43.628  23.625  29.078  1.00  0.00     0.049 A 
ATOM     57  C   UNL A   1      43.589  28.433  31.981  1.00  0.00     0.074 A 
ATOM     58  C   UNL A   1      44.837  24.192  28.705  1.00  0.00     0.029 A 
ATOM     59  N   UNL A   1      43.463  23.916  30.428  1.00  0.00    -0.354 N 
ATOM     60  N   UNL A   1      43.760  27.220  31.527  1.00  0.00    -0.248 NA
ATOM     61  C   UNL A   1      44.009  28.567  33.371  1.00  0.00     0.031 C 
ATOM     62  C   UNL A   1      45.377  24.864  29.833  1.00  0.00     0.029 A 
ATOM     63  C   UNL A   1      44.510  24.686  30.898  1.00  0.00     0.049 A 
ATOM     64  H   UNL A   1      42.701  23.614  30.975  1.00  0.00     0.167 HD
ATOM     65  C   UNL A   1      44.298  26.423  32.511  1.00  0.00     0.074 A 
ATOM     66  C   UNL A   1      44.447  27.325  33.642  1.00  0.00     0.031 C 
ATOM     67  C   UNL A   1      44.568  25.096  32.298  1.00  0.00     0.034 A 
BRANCH  54  68
ATOM     68  C   UNL A   1      42.671  21.824  27.433  1.00  0.00     0.023 A 
ATOM     69  C   UNL A   1      43.729  21.765  26.498  1.00  0.00     0.031 A 
ATOM     70  C   UNL A   1      41.804  20.713  27.418  1.00  0.00     0.131 A 
ATOM     71  C   UNL A   1      43.820  20.731  25.546  1.00  0.00     0.055 A 
ATOM     72  C   UNL A   1      41.856  19.717  26.434  1.00  0.00     0.041 A 
ATOM     73  F   UNL A   1      40.910  20.505  28.392  1.00  0.00    -0.206 F 
ATOM     74  C   UNL A   1      42.858  19.730  25.479  1.00  0.00     0.022 A 
BRANCH  71  75
ATOM     75  S   UNL A   1      45.224  20.706  24.396  1.00  0.00     0.124 S 
ATOM     76  O   UNL A   1      45.204  22.058  23.849  1.00  0.00    -0.237 OA
ATOM     77  O   UNL A   1      46.340  20.378  25.276  1.00  0.00    -0.237 OA
ATOM     78  O   UNL A   1      44.863  19.653  23.445  1.00  0.00    -0.744 OA
ENDBRANCH  71  75
ENDBRANCH  54  68
BRANCH  55  79
ATOM     79  C   UNL A   1      41.888  30.473  31.583  1.00  0.00     0.023 A 
ATOM     80  C   UNL A   1      40.619  29.874  31.784  1.00  0.00     0.031 A 
ATOM     81  C   UNL A   1      42.107  31.738  32.143  1.00  0.00     0.131 A 
ATOM     82  C   UNL A   1      39.689  30.451  32.663  1.00  0.00     0.055 A 
ATOM     83  C   UNL A   1      41.141  32.349  32.957  1.00  0.00     0.041 A 
ATOM     84  F   UNL A   1      43.293  32.351  32.015  1.00  0.00    -0.206 F 
ATOM     85  C   UNL A   1      39.948  31.687  33.256  1.00  0.00     0.022 A 
BRANCH  82  86
ATOM     86  S   UNL A   1      38.263  29.472  33.239  1.00  0.00     0.124 S 
ATOM     87  O   UNL A   1      38.665  28.113  32.893  1.00  0.00    -0.237 OA
ATOM     88  O   UNL A   1      38.200  29.764  34.669  1.00  0.00    -0.237 OA
ATOM     89  O   UNL A   1      37.136  30.007  32.471  1.00  0.00    -0.744 OA
ENDBRANCH  82  86
ENDBRANCH  55  79
BRANCH  67  90
ATOM     90  C   UNL A   1      44.999  24.066  33.336  1.00  0.00     0.023 A 
ATOM     91  C   UNL A   1      46.328  23.844  33.725  1.00  0.00     0.031 A 
ATOM     92  C   UNL A   1      44.037  23.285  34.032  1.00  0.00     0.131 A 
ATOM     93  C   UNL A   1      46.666  22.866  34.683  1.00  0.00     0.055 A 
ATOM     94  C   UNL A   1      44.367  22.359  35.029  1.00  0.00     0.041 A 
ATOM     95  F   UNL A   1      42.723  23.390  33.787  1.00  0.00    -0.206 F 
ATOM     96  C   UNL A   1      45.692  22.133  35.353  1.00  0.00     0.022 A 
BRANCH  93  97
ATOM     97  S   UNL A   1      48.422  22.542  35.003  1.00  0.00     0.124 S 
ATOM     98  O   UNL A   1      48.611  21.247  34.355  1.00  0.00    -0.237 OA
ATOM     99  O   UNL A   1      49.072  23.675  34.353  1.00  0.00    -0.237 OA
ATOM    100  O   UNL A   1      48.512  22.526  36.461  1.00  0.00    -0.744 OA
ENDBRANCH  93  97
ENDBRANCH  67  90
ENDBRANCH  41  42
ENDBRANCH  33  36
ENDBRANCH  31  32
ENDBRANCH   1  31
TORSDOF 16
ENDMDL
