MODEL 1
REMARK VINA RESULT:     -12.9      0.000      0.000
REMARK SMILES Cc1ccc(C2=NN(C(=O)CCC(=O)NCCCNC(=O)c3ccc(-c4c5nc(c(-c6cc(S(=O)(=O)[O-])ccc6F)c6ccc([nH]6)c(-c6cc(S(=O)(=O)[O-])ccc6F)c6nc(c(-c7cc(S(=O)(=O)[O-])ccc7F)c7ccc4[nH]7)C=C6)C=C5)cc3)[C@H](C[C@@H]3C=c4cccc(C)c4=NC3=O)C2)cc1
REMARK SMILES IDX 16 1 15 2 13 3 14 4 12 6 11 7 9 8 10 9 8 10 6 11 7 12 99 13
REMARK SMILES IDX 85 14 5 15 1 16 2 17 3 18 101 19 4 20 100 21 86 22 87 23
REMARK SMILES IDX 88 24 97 25 89 26 96 27 98 28 90 29 95 30 91 31 93 32 92 33
REMARK SMILES IDX 94 34 17 35 18 36 19 37 20 38 21 40 22 41 23 42 84 43 24 44
REMARK SMILES IDX 83 45 25 46 26 47 27 48 77 49 28 50 82 51 76 52 78 53 29 54
REMARK SMILES IDX 81 55 75 56 74 57 30 59 62 60 42 61 61 62 43 63 46 64 60 65
REMARK SMILES IDX 79 66 44 67 45 68 59 70 80 71 47 72 31 73 32 74 40 75 33 76
REMARK SMILES IDX 39 77 41 78 38 79 34 80 35 81 36 82 37 83 63 84 64 85 72 86
REMARK SMILES IDX 65 87 71 88 73 89 70 90 66 91 67 92 68 93 69 94 48 95 49 96
REMARK SMILES IDX 57 97 50 98 56 99 58 100 55 101 51 102 52 103 53 104 54 105
REMARK H PARENT 15 5 19 39 78 58 46 69
REMARK Flexibility Score: inf
ROOT
ATOM      1  C   UNL A   1      45.898  28.183  29.320  1.00  0.00     0.117 C 
ENDROOT
BRANCH   1   2
ATOM      2  N   UNL A   1      46.761  27.007  28.675  1.00  0.00    -0.356 N 
ATOM      3  C   UNL A   1      47.590  26.824  27.604  1.00  0.00     0.220 C 
ATOM      4  O   UNL A   1      47.936  25.660  27.363  1.00  0.00    -0.275 OA
ATOM      5  H   UNL A   1      46.669  26.177  29.196  1.00  0.00     0.163 HD
BRANCH   3   6
ATOM      6  C   UNL A   1      48.105  27.920  26.680  1.00  0.00     0.110 C 
BRANCH   6   7
ATOM      7  C   UNL A   1      47.121  28.845  26.012  1.00  0.00     0.112 C 
BRANCH   7   8
ATOM      8  C   UNL A   1      46.558  28.191  24.785  1.00  0.00     0.243 C 
ATOM      9  O   UNL A   1      46.999  28.420  23.663  1.00  0.00    -0.273 OA
BRANCH   8  10
ATOM     10  N   UNL A   1      45.545  27.303  25.076  1.00  0.00    -0.230 N 
ATOM     11  C   UNL A   1      44.504  24.603  24.770  1.00  0.00     0.070 C 
ATOM     12  N   UNL A   1      45.876  25.475  24.638  1.00  0.00    -0.174 NA
ATOM     13  C   UNL A   1      42.895  25.721  25.082  1.00  0.00     0.086 C 
ATOM     14  C   UNL A   1      43.635  27.499  25.473  1.00  0.00     0.118 C 
BRANCH  11  15
ATOM     15  C   UNL A   1      44.410  23.234  25.327  1.00  0.00    -0.002 A 
ATOM     16  C   UNL A   1      42.019  18.844  26.315  1.00  0.00     0.044 C 
ATOM     17  C   UNL A   1      42.826  20.041  25.862  1.00  0.00    -0.051 A 
ATOM     18  C   UNL A   1      44.546  20.020  25.353  1.00  0.00     0.004 A 
ATOM     19  C   UNL A   1      41.967  21.587  26.121  1.00  0.00     0.004 A 
ATOM     20  C   UNL A   1      45.408  21.609  25.061  1.00  0.00     0.010 A 
ATOM     21  C   UNL A   1      42.735  23.137  25.872  1.00  0.00     0.010 A 
ENDBRANCH  11  15
BRANCH  14  22
ATOM     22  C   UNL A   1      43.075  28.002  26.868  1.00  0.00     0.045 C 
BRANCH  22  23
ATOM     23  C   UNL A   1      41.731  27.373  27.224  1.00  0.00     0.106 C 
ATOM     24  C   UNL A   1      40.711  28.433  27.111  1.00  0.00    -0.003 C 
ATOM     25  C   UNL A   1      41.682  26.680  28.595  1.00  0.00     0.253 C 
ATOM     26  C   UNL A   1      39.721  28.660  27.949  1.00  0.00    -0.003 A 
ATOM     27  N   UNL A   1      40.603  26.908  29.435  1.00  0.00    -0.212 NA
ATOM     28  O   UNL A   1      42.566  25.881  28.900  1.00  0.00    -0.272 OA
ATOM     29  C   UNL A   1      38.718  29.643  27.655  1.00  0.00     0.010 A 
ATOM     30  C   UNL A   1      39.718  27.811  29.151  1.00  0.00     0.077 A 
ATOM     31  C   UNL A   1      37.697  29.798  28.495  1.00  0.00     0.001 A 
ATOM     32  C   UNL A   1      38.580  28.130  30.077  1.00  0.00    -0.025 A 
ATOM     33  C   UNL A   1      37.655  29.048  29.730  1.00  0.00     0.005 A 
ATOM     34  C   UNL A   1      38.613  27.444  31.398  1.00  0.00     0.047 C 
ENDBRANCH  22  23
ENDBRANCH  14  22
ENDBRANCH   8  10
ENDBRANCH   7   8
ENDBRANCH   6   7
ENDBRANCH   3   6
ENDBRANCH   1   2
BRANCH   1  35
ATOM     35  C   UNL A   1      46.087  30.408  29.322  1.00  0.00     0.042 C 
BRANCH  35  36
ATOM     36  C   UNL A   1      47.690  31.294  28.792  1.00  0.00     0.118 C 
BRANCH  36  37
ATOM     37  N   UNL A   1      47.730  32.777  27.900  1.00  0.00    -0.352 N 
ATOM     38  C   UNL A   1      46.676  34.133  27.661  1.00  0.00     0.251 C 
ATOM     39  H   UNL A   1      48.571  32.877  27.398  1.00  0.00     0.163 HD
ATOM     40  O   UNL A   1      47.427  34.801  26.906  1.00  0.00    -0.269 OA
BRANCH  38  41
ATOM     41  C   UNL A   1      44.723  34.315  28.578  1.00  0.00     0.039 A 
ATOM     42  C   UNL A   1      44.118  35.163  29.602  1.00  0.00     0.014 A 
ATOM     43  C   UNL A   1      43.531  33.454  28.262  1.00  0.00     0.014 A 
ATOM     44  C   UNL A   1      43.199  34.713  30.551  1.00  0.00     0.010 A 
ATOM     45  C   UNL A   1      42.900  32.770  29.231  1.00  0.00     0.010 A 
ATOM     46  C   UNL A   1      42.775  33.417  30.423  1.00  0.00    -0.014 A 
BRANCH  46  47
ATOM     47  C   UNL A   1      41.722  32.771  31.143  1.00  0.00     0.031 A 
ATOM     48  C   UNL A   1      40.492  33.605  31.055  1.00  0.00     0.074 A 
ATOM     49  C   UNL A   1      42.038  31.482  31.411  1.00  0.00     0.049 A 
ATOM     50  N   UNL A   1      39.769  34.002  32.043  1.00  0.00    -0.248 NA
ATOM     51  C   UNL A   1      40.122  34.357  29.814  1.00  0.00     0.031 C 
ATOM     52  C   UNL A   1      41.236  30.325  31.747  1.00  0.00     0.029 A 
ATOM     53  N   UNL A   1      43.355  31.011  31.563  1.00  0.00    -0.354 N 
ATOM     54  C   UNL A   1      38.604  34.437  31.435  1.00  0.00     0.074 A 
ATOM     55  C   UNL A   1      39.002  34.982  30.173  1.00  0.00     0.031 C 
ATOM     56  C   UNL A   1      42.012  29.445  32.417  1.00  0.00     0.029 A 
ATOM     57  C   UNL A   1      43.347  30.016  32.557  1.00  0.00     0.049 A 
ATOM     58  H   UNL A   1      44.144  31.321  31.062  1.00  0.00     0.167 HD
ATOM     59  C   UNL A   1      37.436  33.790  31.719  1.00  0.00     0.034 A 
ATOM     60  C   UNL A   1      43.956  30.335  33.740  1.00  0.00     0.034 A 
ATOM     61  C   UNL A   1      37.722  32.640  32.584  1.00  0.00     0.049 A 
ATOM     62  C   UNL A   1      42.951  30.917  34.720  1.00  0.00     0.074 A 
ATOM     63  C   UNL A   1      37.811  31.272  32.390  1.00  0.00     0.029 A 
ATOM     64  N   UNL A   1      38.383  32.886  33.766  1.00  0.00    -0.354 N 
ATOM     65  N   UNL A   1      41.695  31.141  34.437  1.00  0.00    -0.248 NA
ATOM     66  C   UNL A   1      43.302  31.337  36.072  1.00  0.00     0.031 C 
ATOM     67  C   UNL A   1      38.564  30.725  33.485  1.00  0.00     0.029 A 
ATOM     68  C   UNL A   1      38.942  31.761  34.318  1.00  0.00     0.049 A 
ATOM     69  H   UNL A   1      38.446  33.779  34.175  1.00  0.00     0.167 HD
ATOM     70  C   UNL A   1      41.063  31.695  35.510  1.00  0.00     0.074 A 
ATOM     71  C   UNL A   1      42.139  31.865  36.485  1.00  0.00     0.031 C 
ATOM     72  C   UNL A   1      39.715  31.955  35.533  1.00  0.00     0.034 A 
BRANCH  59  73
ATOM     73  C   UNL A   1      36.120  33.992  31.019  1.00  0.00     0.023 A 
ATOM     74  C   UNL A   1      35.155  34.777  31.671  1.00  0.00     0.031 A 
ATOM     75  C   UNL A   1      35.775  33.560  29.719  1.00  0.00     0.131 A 
ATOM     76  C   UNL A   1      33.923  35.081  31.075  1.00  0.00     0.055 A 
ATOM     77  C   UNL A   1      34.527  33.830  29.136  1.00  0.00     0.041 A 
ATOM     78  F   UNL A   1      36.641  32.909  28.931  1.00  0.00    -0.206 F 
ATOM     79  C   UNL A   1      33.592  34.600  29.813  1.00  0.00     0.022 A 
BRANCH  76  80
ATOM     80  S   UNL A   1      32.794  36.173  31.974  1.00  0.00     0.124 S 
ATOM     81  O   UNL A   1      32.571  37.241  31.004  1.00  0.00    -0.237 OA
ATOM     82  O   UNL A   1      31.660  35.292  32.236  1.00  0.00    -0.237 OA
ATOM     83  O   UNL A   1      33.564  36.556  33.155  1.00  0.00    -0.744 OA
ENDBRANCH  76  80
ENDBRANCH  59  73
BRANCH  60  84
ATOM     84  C   UNL A   1      45.329  30.889  33.482  1.00  0.00     0.023 A 
ATOM     85  C   UNL A   1      45.479  32.292  33.606  1.00  0.00     0.031 A 
ATOM     86  C   UNL A   1      46.470  30.088  33.632  1.00  0.00     0.131 A 
ATOM     87  C   UNL A   1      46.686  32.834  34.068  1.00  0.00     0.055 A 
ATOM     88  C   UNL A   1      47.696  30.645  34.001  1.00  0.00     0.041 A 
ATOM     89  F   UNL A   1      46.384  28.751  33.586  1.00  0.00    -0.206 F 
ATOM     90  C   UNL A   1      47.806  32.019  34.240  1.00  0.00     0.022 A 
BRANCH  87  91
ATOM     91  S   UNL A   1      46.635  34.485  34.870  1.00  0.00     0.124 S 
ATOM     92  O   UNL A   1      47.771  34.427  35.779  1.00  0.00    -0.237 OA
ATOM     93  O   UNL A   1      46.756  35.390  33.726  1.00  0.00    -0.237 OA
ATOM     94  O   UNL A   1      45.322  34.514  35.503  1.00  0.00    -0.744 OA
ENDBRANCH  87  91
ENDBRANCH  60  84
BRANCH  72  95
ATOM     95  C   UNL A   1      39.016  32.499  36.753  1.00  0.00     0.023 A 
ATOM     96  C   UNL A   1      38.009  31.754  37.358  1.00  0.00     0.031 A 
ATOM     97  C   UNL A   1      39.281  33.759  37.341  1.00  0.00     0.131 A 
ATOM     98  C   UNL A   1      37.505  32.118  38.607  1.00  0.00     0.055 A 
ATOM     99  C   UNL A   1      38.679  34.187  38.522  1.00  0.00     0.041 A 
ATOM    100  F   UNL A   1      40.152  34.642  36.836  1.00  0.00    -0.206 F 
ATOM    101  C   UNL A   1      37.821  33.339  39.194  1.00  0.00     0.022 A 
BRANCH  98 102
ATOM    102  S   UNL A   1      36.551  30.876  39.494  1.00  0.00     0.124 S 
ATOM    103  O   UNL A   1      37.322  30.698  40.720  1.00  0.00    -0.237 OA
ATOM    104  O   UNL A   1      35.267  31.554  39.650  1.00  0.00    -0.237 OA
ATOM    105  O   UNL A   1      36.549  29.735  38.583  1.00  0.00    -0.744 OA
ENDBRANCH  98 102
ENDBRANCH  72  95
ENDBRANCH  46  47
ENDBRANCH  38  41
ENDBRANCH  36  37
ENDBRANCH  35  36
ENDBRANCH   1  35
TORSDOF 19
ENDMDL
MODEL 2
REMARK VINA RESULT:     -12.6      4.038     11.671
REMARK SMILES Cc1ccc(C2=NN(C(=O)CCC(=O)NCCCNC(=O)c3ccc(-c4c5nc(c(-c6cc(S(=O)(=O)[O-])ccc6F)c6ccc([nH]6)c(-c6cc(S(=O)(=O)[O-])ccc6F)c6nc(c(-c7cc(S(=O)(=O)[O-])ccc7F)c7ccc4[nH]7)C=C6)C=C5)cc3)[C@H](C[C@@H]3C=c4cccc(C)c4=NC3=O)C2)cc1
REMARK SMILES IDX 16 1 15 2 13 3 14 4 12 6 11 7 9 8 10 9 8 10 6 11 7 12 99 13
REMARK SMILES IDX 85 14 5 15 1 16 2 17 3 18 101 19 4 20 100 21 86 22 87 23
REMARK SMILES IDX 88 24 97 25 89 26 96 27 98 28 90 29 95 30 91 31 93 32 92 33
REMARK SMILES IDX 94 34 17 35 18 36 19 37 20 38 21 40 22 41 23 42 84 43 24 44
REMARK SMILES IDX 83 45 25 46 26 47 27 48 77 49 28 50 82 51 76 52 78 53 29 54
REMARK SMILES IDX 81 55 75 56 74 57 30 59 62 60 42 61 61 62 43 63 46 64 60 65
REMARK SMILES IDX 79 66 44 67 45 68 59 70 80 71 47 72 31 73 32 74 40 75 33 76
REMARK SMILES IDX 39 77 41 78 38 79 34 80 35 81 36 82 37 83 63 84 64 85 72 86
REMARK SMILES IDX 65 87 71 88 73 89 70 90 66 91 67 92 68 93 69 94 48 95 49 96
REMARK SMILES IDX 57 97 50 98 56 99 58 100 55 101 51 102 52 103 53 104 54 105
REMARK H PARENT 15 5 19 39 78 58 46 69
REMARK Flexibility Score: inf
ROOT
ATOM      1  C   UNL A   1      42.537  31.044  36.674  1.00  0.00     0.117 C 
ENDROOT
BRANCH   1   2
ATOM      2  N   UNL A   1      41.000  30.629  36.576  1.00  0.00    -0.356 N 
ATOM      3  C   UNL A   1      40.088  30.329  35.604  1.00  0.00     0.220 C 
ATOM      4  O   UNL A   1      38.909  30.217  35.964  1.00  0.00    -0.275 OA
ATOM      5  H   UNL A   1      40.593  30.573  37.471  1.00  0.00     0.163 HD
BRANCH   3   6
ATOM      6  C   UNL A   1      40.395  30.140  34.123  1.00  0.00     0.110 C 
BRANCH   6   7
ATOM      7  C   UNL A   1      39.588  30.896  33.100  1.00  0.00     0.112 C 
BRANCH   7   8
ATOM      8  C   UNL A   1      38.575  29.985  32.474  1.00  0.00     0.243 C 
ATOM      9  O   UNL A   1      37.536  29.672  33.046  1.00  0.00    -0.273 OA
BRANCH   8  10
ATOM     10  N   UNL A   1      38.933  29.591  31.202  1.00  0.00    -0.230 N 
ATOM     11  C   UNL A   1      40.516  27.782  29.561  1.00  0.00     0.070 C 
ATOM     12  N   UNL A   1      39.928  27.967  31.071  1.00  0.00    -0.174 NA
ATOM     13  C   UNL A   1      40.249  29.382  28.419  1.00  0.00     0.086 C 
ATOM     14  C   UNL A   1      39.024  30.504  29.469  1.00  0.00     0.118 C 
BRANCH  11  15
ATOM     15  C   UNL A   1      40.572  26.505  28.816  1.00  0.00    -0.002 A 
ATOM     16  C   UNL A   1      38.626  22.829  25.871  1.00  0.00     0.044 C 
ATOM     17  C   UNL A   1      39.300  23.991  26.566  1.00  0.00    -0.051 A 
ATOM     18  C   UNL A   1      40.982  24.550  26.293  1.00  0.00     0.004 A 
ATOM     19  C   UNL A   1      38.329  24.639  27.921  1.00  0.00     0.004 A 
ATOM     20  C   UNL A   1      41.687  25.829  27.398  1.00  0.00     0.010 A 
ATOM     21  C   UNL A   1      38.946  25.850  29.020  1.00  0.00     0.010 A 
ENDBRANCH  11  15
BRANCH  14  22
ATOM     22  C   UNL A   1      37.752  30.851  28.591  1.00  0.00     0.045 C 
BRANCH  22  23
ATOM     23  C   UNL A   1      37.071  32.145  29.029  1.00  0.00     0.106 C 
ATOM     24  C   UNL A   1      37.934  32.765  30.054  1.00  0.00    -0.003 C 
ATOM     25  C   UNL A   1      35.626  31.982  29.527  1.00  0.00     0.253 C 
ATOM     26  C   UNL A   1      37.538  33.324  31.178  1.00  0.00    -0.003 A 
ATOM     27  N   UNL A   1      35.230  32.621  30.692  1.00  0.00    -0.212 NA
ATOM     28  O   UNL A   1      34.822  31.343  28.849  1.00  0.00    -0.272 OA
ATOM     29  C   UNL A   1      38.470  34.008  32.028  1.00  0.00     0.010 A 
ATOM     30  C   UNL A   1      36.095  33.221  31.448  1.00  0.00     0.077 A 
ATOM     31  C   UNL A   1      38.020  34.618  33.124  1.00  0.00     0.001 A 
ATOM     32  C   UNL A   1      35.708  33.857  32.751  1.00  0.00    -0.025 A 
ATOM     33  C   UNL A   1      36.627  34.508  33.493  1.00  0.00     0.005 A 
ATOM     34  C   UNL A   1      34.300  33.633  33.184  1.00  0.00     0.047 C 
ENDBRANCH  22  23
ENDBRANCH  14  22
ENDBRANCH   8  10
ENDBRANCH   7   8
ENDBRANCH   6   7
ENDBRANCH   3   6
ENDBRANCH   1   2
BRANCH   1  35
ATOM     35  C   UNL A   1      44.452  29.908  36.500  1.00  0.00     0.042 C 
BRANCH  35  36
ATOM     36  C   UNL A   1      44.841  28.396  37.592  1.00  0.00     0.118 C 
BRANCH  36  37
ATOM     37  N   UNL A   1      44.835  26.761  37.024  1.00  0.00    -0.352 N 
ATOM     38  C   UNL A   1      44.740  25.960  35.488  1.00  0.00     0.251 C 
ATOM     39  H   UNL A   1      44.905  26.117  37.766  1.00  0.00     0.163 HD
ATOM     40  O   UNL A   1      44.823  24.777  35.907  1.00  0.00    -0.269 OA
BRANCH  38  41
ATOM     41  C   UNL A   1      44.572  27.002  33.597  1.00  0.00     0.039 A 
ATOM     42  C   UNL A   1      43.496  27.630  32.836  1.00  0.00     0.014 A 
ATOM     43  C   UNL A   1      45.704  27.250  32.639  1.00  0.00     0.014 A 
ATOM     44  C   UNL A   1      43.378  27.569  31.446  1.00  0.00     0.010 A 
ATOM     45  C   UNL A   1      45.629  26.837  31.363  1.00  0.00     0.010 A 
ATOM     46  C   UNL A   1      44.408  26.967  30.773  1.00  0.00    -0.014 A 
BRANCH  46  47
ATOM     47  C   UNL A   1      44.618  26.929  29.359  1.00  0.00     0.031 A 
ATOM     48  C   UNL A   1      44.968  25.540  28.958  1.00  0.00     0.074 A 
ATOM     49  C   UNL A   1      44.137  28.049  28.768  1.00  0.00     0.049 A 
ATOM     50  N   UNL A   1      45.989  25.183  28.259  1.00  0.00    -0.248 NA
ATOM     51  C   UNL A   1      44.340  24.339  29.597  1.00  0.00     0.031 C 
ATOM     52  C   UNL A   1      43.752  28.351  27.406  1.00  0.00     0.029 A 
ATOM     53  N   UNL A   1      44.043  29.298  29.409  1.00  0.00    -0.354 N 
ATOM     54  C   UNL A   1      45.688  23.883  27.890  1.00  0.00     0.074 A 
ATOM     55  C   UNL A   1      44.951  23.327  28.983  1.00  0.00     0.031 C 
ATOM     56  C   UNL A   1      43.847  29.685  27.219  1.00  0.00     0.029 A 
ATOM     57  C   UNL A   1      44.320  30.295  28.456  1.00  0.00     0.049 A 
ATOM     58  H   UNL A   1      43.821  29.449  30.356  1.00  0.00     0.167 HD
ATOM     59  C   UNL A   1      45.531  23.599  26.564  1.00  0.00     0.034 A 
ATOM     60  C   UNL A   1      45.500  30.971  28.611  1.00  0.00     0.034 A 
ATOM     61  C   UNL A   1      45.623  24.843  25.792  1.00  0.00     0.049 A 
ATOM     62  C   UNL A   1      46.608  30.304  27.811  1.00  0.00     0.074 A 
ATOM     63  C   UNL A   1      44.708  25.677  25.173  1.00  0.00     0.029 A 
ATOM     64  N   UNL A   1      46.764  25.598  25.943  1.00  0.00    -0.354 N 
ATOM     65  N   UNL A   1      46.457  29.199  27.129  1.00  0.00    -0.248 NA
ATOM     66  C   UNL A   1      47.975  30.807  27.766  1.00  0.00     0.031 C 
ATOM     67  C   UNL A   1      45.339  26.954  24.987  1.00  0.00     0.029 A 
ATOM     68  C   UNL A   1      46.617  26.892  25.509  1.00  0.00     0.049 A 
ATOM     69  H   UNL A   1      47.600  25.246  26.324  1.00  0.00     0.167 HD
ATOM     70  C   UNL A   1      47.638  28.841  26.550  1.00  0.00     0.074 A 
ATOM     71  C   UNL A   1      48.576  29.846  27.045  1.00  0.00     0.031 C 
ATOM     72  C   UNL A   1      47.759  27.769  25.700  1.00  0.00     0.034 A 
BRANCH  59  73
ATOM     73  C   UNL A   1      45.019  22.305  25.992  1.00  0.00     0.023 A 
ATOM     74  C   UNL A   1      43.877  21.743  26.585  1.00  0.00     0.031 A 
ATOM     75  C   UNL A   1      45.503  21.632  24.848  1.00  0.00     0.131 A 
ATOM     76  C   UNL A   1      43.282  20.576  26.085  1.00  0.00     0.055 A 
ATOM     77  C   UNL A   1      44.934  20.442  24.369  1.00  0.00     0.041 A 
ATOM     78  F   UNL A   1      46.509  22.119  24.108  1.00  0.00    -0.206 F 
ATOM     79  C   UNL A   1      43.811  19.908  24.986  1.00  0.00     0.022 A 
BRANCH  76  80
ATOM     80  S   UNL A   1      41.764  19.992  26.878  1.00  0.00     0.124 S 
ATOM     81  O   UNL A   1      41.045  19.400  25.754  1.00  0.00    -0.237 OA
ATOM     82  O   UNL A   1      42.278  19.062  27.878  1.00  0.00    -0.237 OA
ATOM     83  O   UNL A   1      41.174  21.215  27.418  1.00  0.00    -0.744 OA
ENDBRANCH  76  80
ENDBRANCH  59  73
BRANCH  60  84
ATOM     84  C   UNL A   1      45.633  31.463  30.024  1.00  0.00     0.023 A 
ATOM     85  C   UNL A   1      44.727  32.473  30.432  1.00  0.00     0.031 A 
ATOM     86  C   UNL A   1      46.215  30.660  31.015  1.00  0.00     0.131 A 
ATOM     87  C   UNL A   1      44.276  32.522  31.757  1.00  0.00     0.055 A 
ATOM     88  C   UNL A   1      45.831  30.778  32.353  1.00  0.00     0.041 A 
ATOM     89  F   UNL A   1      47.034  29.650  30.691  1.00  0.00    -0.206 F 
ATOM     90  C   UNL A   1      44.844  31.696  32.727  1.00  0.00     0.022 A 
BRANCH  87  91
ATOM     91  S   UNL A   1      42.654  33.321  32.084  1.00  0.00     0.124 S 
ATOM     92  O   UNL A   1      41.783  32.664  31.120  1.00  0.00    -0.237 OA
ATOM     93  O   UNL A   1      42.430  33.003  33.494  1.00  0.00    -0.237 OA
ATOM     94  O   UNL A   1      42.917  34.734  31.837  1.00  0.00    -0.744 OA
ENDBRANCH  87  91
ENDBRANCH  60  84
BRANCH  72  95
ATOM     95  C   UNL A   1      49.055  27.428  25.008  1.00  0.00     0.023 A 
ATOM     96  C   UNL A   1      50.135  26.971  25.757  1.00  0.00     0.031 A 
ATOM     97  C   UNL A   1      49.289  27.565  23.618  1.00  0.00     0.131 A 
ATOM     98  C   UNL A   1      51.261  26.435  25.131  1.00  0.00     0.055 A 
ATOM     99  C   UNL A   1      50.468  27.153  23.003  1.00  0.00     0.041 A 
ATOM    100  F   UNL A   1      48.392  28.075  22.765  1.00  0.00    -0.206 F 
ATOM    101  C   UNL A   1      51.446  26.532  23.755  1.00  0.00     0.022 A 
BRANCH  98 102
ATOM    102  S   UNL A   1      52.387  25.479  26.159  1.00  0.00     0.124 S 
ATOM    103  O   UNL A   1      51.483  24.827  27.100  1.00  0.00    -0.237 OA
ATOM    104  O   UNL A   1      53.008  24.602  25.170  1.00  0.00    -0.237 OA
ATOM    105  O   UNL A   1      53.266  26.495  26.734  1.00  0.00    -0.744 OA
ENDBRANCH  98 102
ENDBRANCH  72  95
ENDBRANCH  46  47
ENDBRANCH  38  41
ENDBRANCH  36  37
ENDBRANCH  35  36
ENDBRANCH   1  35
TORSDOF 19
ENDMDL
MODEL 3
REMARK VINA RESULT:     -12.6      6.490     11.117
REMARK SMILES Cc1ccc(C2=NN(C(=O)CCC(=O)NCCCNC(=O)c3ccc(-c4c5nc(c(-c6cc(S(=O)(=O)[O-])ccc6F)c6ccc([nH]6)c(-c6cc(S(=O)(=O)[O-])ccc6F)c6nc(c(-c7cc(S(=O)(=O)[O-])ccc7F)c7ccc4[nH]7)C=C6)C=C5)cc3)[C@H](C[C@@H]3C=c4cccc(C)c4=NC3=O)C2)cc1
REMARK SMILES IDX 16 1 15 2 13 3 14 4 12 6 11 7 9 8 10 9 8 10 6 11 7 12 99 13
REMARK SMILES IDX 85 14 5 15 1 16 2 17 3 18 101 19 4 20 100 21 86 22 87 23
REMARK SMILES IDX 88 24 97 25 89 26 96 27 98 28 90 29 95 30 91 31 93 32 92 33
REMARK SMILES IDX 94 34 17 35 18 36 19 37 20 38 21 40 22 41 23 42 84 43 24 44
REMARK SMILES IDX 83 45 25 46 26 47 27 48 77 49 28 50 82 51 76 52 78 53 29 54
REMARK SMILES IDX 81 55 75 56 74 57 30 59 62 60 42 61 61 62 43 63 46 64 60 65
REMARK SMILES IDX 79 66 44 67 45 68 59 70 80 71 47 72 31 73 32 74 40 75 33 76
REMARK SMILES IDX 39 77 41 78 38 79 34 80 35 81 36 82 37 83 63 84 64 85 72 86
REMARK SMILES IDX 65 87 71 88 73 89 70 90 66 91 67 92 68 93 69 94 48 95 49 96
REMARK SMILES IDX 57 97 50 98 56 99 58 100 55 101 51 102 52 103 53 104 54 105
REMARK H PARENT 15 5 19 39 78 58 46 69
REMARK Flexibility Score: inf
ROOT
ATOM      1  C   UNL A   1      42.416  38.314  27.190  1.00  0.00     0.117 C 
ENDROOT
BRANCH   1   2
ATOM      2  N   UNL A   1      41.379  39.435  26.731  1.00  0.00    -0.356 N 
ATOM      3  C   UNL A   1      41.406  40.655  26.115  1.00  0.00     0.220 C 
ATOM      4  O   UNL A   1      40.345  41.292  26.097  1.00  0.00    -0.275 OA
ATOM      5  H   UNL A   1      40.456  39.174  26.954  1.00  0.00     0.163 HD
BRANCH   3   6
ATOM      6  C   UNL A   1      42.627  41.299  25.470  1.00  0.00     0.110 C 
BRANCH   6   7
ATOM      7  C   UNL A   1      43.959  41.221  26.171  1.00  0.00     0.112 C 
BRANCH   7   8
ATOM      8  C   UNL A   1      45.070  41.344  25.172  1.00  0.00     0.243 C 
ATOM      9  O   UNL A   1      45.945  40.491  25.060  1.00  0.00    -0.273 OA
BRANCH   8  10
ATOM     10  N   UNL A   1      44.961  42.479  24.396  1.00  0.00    -0.230 N 
ATOM     11  C   UNL A   1      44.464  43.590  21.753  1.00  0.00     0.070 C 
ATOM     12  N   UNL A   1      44.269  42.232  22.635  1.00  0.00    -0.174 NA
ATOM     13  C   UNL A   1      45.568  44.962  22.668  1.00  0.00     0.086 C 
ATOM     14  C   UNL A   1      45.730  44.280  24.503  1.00  0.00     0.118 C 
BRANCH  11  15
ATOM     15  C   UNL A   1      43.475  44.142  20.801  1.00  0.00    -0.002 A 
ATOM     16  C   UNL A   1      41.858  45.554  16.179  1.00  0.00     0.044 C 
ATOM     17  C   UNL A   1      42.219  44.958  17.522  1.00  0.00    -0.051 A 
ATOM     18  C   UNL A   1      41.095  44.113  18.636  1.00  0.00     0.004 A 
ATOM     19  C   UNL A   1      43.870  45.398  18.048  1.00  0.00     0.004 A 
ATOM     20  C   UNL A   1      41.673  43.666  20.315  1.00  0.00     0.010 A 
ATOM     21  C   UNL A   1      44.479  45.013  19.640  1.00  0.00     0.010 A 
ENDBRANCH  11  15
BRANCH  14  22
ATOM     22  C   UNL A   1      45.230  45.388  25.519  1.00  0.00     0.045 C 
BRANCH  22  23
ATOM     23  C   UNL A   1      46.087  45.459  26.780  1.00  0.00     0.106 C 
ATOM     24  C   UNL A   1      47.477  45.705  26.348  1.00  0.00    -0.003 C 
ATOM     25  C   UNL A   1      45.987  44.234  27.703  1.00  0.00     0.253 C 
ATOM     26  C   UNL A   1      48.559  45.125  26.823  1.00  0.00    -0.003 A 
ATOM     27  N   UNL A   1      47.145  43.675  28.220  1.00  0.00    -0.212 NA
ATOM     28  O   UNL A   1      44.879  43.808  28.022  1.00  0.00    -0.272 OA
ATOM     29  C   UNL A   1      49.865  45.549  26.406  1.00  0.00     0.010 A 
ATOM     30  C   UNL A   1      48.312  44.068  27.817  1.00  0.00     0.077 A 
ATOM     31  C   UNL A   1      50.937  44.983  26.958  1.00  0.00     0.001 A 
ATOM     32  C   UNL A   1      49.580  43.431  28.305  1.00  0.00    -0.025 A 
ATOM     33  C   UNL A   1      50.779  43.894  27.895  1.00  0.00     0.005 A 
ATOM     34  C   UNL A   1      49.407  42.232  29.171  1.00  0.00     0.047 C 
ENDBRANCH  22  23
ENDBRANCH  14  22
ENDBRANCH   8  10
ENDBRANCH   7   8
ENDBRANCH   6   7
ENDBRANCH   3   6
ENDBRANCH   1   2
BRANCH   1  35
ATOM     35  C   UNL A   1      42.543  36.109  26.863  1.00  0.00     0.042 C 
BRANCH  35  36
ATOM     36  C   UNL A   1      44.019  35.071  27.480  1.00  0.00     0.118 C 
BRANCH  36  37
ATOM     37  N   UNL A   1      44.737  33.777  26.583  1.00  0.00    -0.352 N 
ATOM     38  C   UNL A   1      44.693  32.044  26.616  1.00  0.00     0.251 C 
ATOM     39  H   UNL A   1      45.323  34.112  25.866  1.00  0.00     0.163 HD
ATOM     40  O   UNL A   1      45.454  31.835  25.637  1.00  0.00    -0.269 OA
BRANCH  38  41
ATOM     41  C   UNL A   1      43.532  30.897  28.039  1.00  0.00     0.039 A 
ATOM     42  C   UNL A   1      42.637  29.745  27.979  1.00  0.00     0.014 A 
ATOM     43  C   UNL A   1      43.449  31.172  29.516  1.00  0.00     0.014 A 
ATOM     44  C   UNL A   1      41.474  29.613  28.740  1.00  0.00     0.010 A 
ATOM     45  C   UNL A   1      42.263  31.374  30.112  1.00  0.00     0.010 A 
ATOM     46  C   UNL A   1      41.240  30.591  29.670  1.00  0.00    -0.014 A 
BRANCH  46  47
ATOM     47  C   UNL A   1      40.232  30.603  30.684  1.00  0.00     0.031 A 
ATOM     48  C   UNL A   1      39.377  31.808  30.502  1.00  0.00     0.074 A 
ATOM     49  C   UNL A   1      40.143  29.397  31.292  1.00  0.00     0.049 A 
ATOM     50  N   UNL A   1      39.089  32.680  31.405  1.00  0.00    -0.248 NA
ATOM     51  C   UNL A   1      39.004  32.329  29.148  1.00  0.00     0.031 C 
ATOM     52  C   UNL A   1      39.097  28.766  32.070  1.00  0.00     0.029 A 
ATOM     53  N   UNL A   1      41.216  28.495  31.411  1.00  0.00    -0.354 N 
ATOM     54  C   UNL A   1      38.034  33.383  30.848  1.00  0.00     0.074 A 
ATOM     55  C   UNL A   1      38.284  33.411  29.440  1.00  0.00     0.031 C 
ATOM     56  C   UNL A   1      39.661  27.837  32.873  1.00  0.00     0.029 A 
ATOM     57  C   UNL A   1      41.104  27.849  32.656  1.00  0.00     0.049 A 
ATOM     58  H   UNL A   1      41.920  28.340  30.741  1.00  0.00     0.167 HD
ATOM     59  C   UNL A   1      36.818  33.336  31.466  1.00  0.00     0.034 A 
ATOM     60  C   UNL A   1      42.046  28.172  33.593  1.00  0.00     0.034 A 
ATOM     61  C   UNL A   1      36.890  32.407  32.599  1.00  0.00     0.049 A 
ATOM     62  C   UNL A   1      41.563  29.317  34.468  1.00  0.00     0.074 A 
ATOM     63  C   UNL A   1      36.457  31.112  32.827  1.00  0.00     0.029 A 
ATOM     64  N   UNL A   1      37.855  32.644  33.552  1.00  0.00    -0.354 N 
ATOM     65  N   UNL A   1      40.429  29.945  34.294  1.00  0.00    -0.248 NA
ATOM     66  C   UNL A   1      42.345  29.871  35.567  1.00  0.00     0.031 C 
ATOM     67  C   UNL A   1      37.215  30.587  33.930  1.00  0.00     0.029 A 
ATOM     68  C   UNL A   1      38.109  31.555  34.346  1.00  0.00     0.049 A 
ATOM     69  H   UNL A   1      38.314  33.508  33.654  1.00  0.00     0.167 HD
ATOM     70  C   UNL A   1      40.298  30.940  35.216  1.00  0.00     0.074 A 
ATOM     71  C   UNL A   1      41.565  30.897  35.944  1.00  0.00     0.031 C 
ATOM     72  C   UNL A   1      39.166  31.709  35.332  1.00  0.00     0.034 A 
BRANCH  59  73
ATOM     73  C   UNL A   1      35.524  33.870  30.914  1.00  0.00     0.023 A 
ATOM     74  C   UNL A   1      34.865  34.863  31.657  1.00  0.00     0.031 A 
ATOM     75  C   UNL A   1      34.939  33.555  29.668  1.00  0.00     0.131 A 
ATOM     76  C   UNL A   1      33.690  35.473  31.198  1.00  0.00     0.055 A 
ATOM     77  C   UNL A   1      33.741  34.135  29.223  1.00  0.00     0.041 A 
ATOM     78  F   UNL A   1      35.522  32.719  28.798  1.00  0.00    -0.206 F 
ATOM     79  C   UNL A   1      33.110  35.106  29.988  1.00  0.00     0.022 A 
BRANCH  76  80
ATOM     80  S   UNL A   1      32.976  36.800  32.200  1.00  0.00     0.124 S 
ATOM     81  O   UNL A   1      32.951  37.912  31.255  1.00  0.00    -0.237 OA
ATOM     82  O   UNL A   1      31.681  36.239  32.573  1.00  0.00    -0.237 OA
ATOM     83  O   UNL A   1      33.928  36.940  33.300  1.00  0.00    -0.744 OA
ENDBRANCH  76  80
ENDBRANCH  59  73
BRANCH  60  84
ATOM     84  C   UNL A   1      43.423  28.060  33.003  1.00  0.00     0.023 A 
ATOM     85  C   UNL A   1      44.095  29.278  32.728  1.00  0.00     0.031 A 
ATOM     86  C   UNL A   1      44.199  26.908  33.192  1.00  0.00     0.131 A 
ATOM     87  C   UNL A   1      45.488  29.357  32.850  1.00  0.00     0.055 A 
ATOM     88  C   UNL A   1      45.593  26.976  33.219  1.00  0.00     0.041 A 
ATOM     89  F   UNL A   1      43.627  25.739  33.514  1.00  0.00    -0.206 F 
ATOM     90  C   UNL A   1      46.245  28.205  33.068  1.00  0.00     0.022 A 
BRANCH  87  91
ATOM     91  S   UNL A   1      46.228  31.004  33.185  1.00  0.00     0.124 S 
ATOM     92  O   UNL A   1      47.656  30.717  33.159  1.00  0.00    -0.237 OA
ATOM     93  O   UNL A   1      45.702  31.811  32.084  1.00  0.00    -0.237 OA
ATOM     94  O   UNL A   1      45.680  31.363  34.488  1.00  0.00    -0.744 OA
ENDBRANCH  87  91
ENDBRANCH  60  84
BRANCH  72  95
ATOM     95  C   UNL A   1      39.005  32.756  36.404  1.00  0.00     0.023 A 
ATOM     96  C   UNL A   1      38.302  32.449  37.565  1.00  0.00     0.031 A 
ATOM     97  C   UNL A   1      39.495  34.082  36.319  1.00  0.00     0.131 A 
ATOM     98  C   UNL A   1      38.329  33.309  38.663  1.00  0.00     0.055 A 
ATOM     99  C   UNL A   1      39.406  34.992  37.369  1.00  0.00     0.041 A 
ATOM    100  F   UNL A   1      40.112  34.573  35.238  1.00  0.00    -0.206 F 
ATOM    101  C   UNL A   1      38.865  34.590  38.575  1.00  0.00     0.022 A 
BRANCH  98 102
ATOM    102  S   UNL A   1      37.778  32.636  40.239  1.00  0.00     0.124 S 
ATOM    103  O   UNL A   1      36.716  31.719  39.840  1.00  0.00    -0.237 OA
ATOM    104  O   UNL A   1      39.002  32.007  40.729  1.00  0.00    -0.237 OA
ATOM    105  O   UNL A   1      37.343  33.817  40.979  1.00  0.00    -0.744 OA
ENDBRANCH  98 102
ENDBRANCH  72  95
ENDBRANCH  46  47
ENDBRANCH  38  41
ENDBRANCH  36  37
ENDBRANCH  35  36
ENDBRANCH   1  35
TORSDOF 19
ENDMDL
