MODEL 1
REMARK VINA RESULT:     -12.5      0.000      0.000
REMARK SMILES O=C(C[C@@H]1C[N@@H+]([C@H]2CCO[C@]3(CCOC3)C2)CCO1)NCCCNC(=O)c1ccc(-c2c3nc(c(-c4cc(S(=O)(=O)[O-])ccc4F)c4ccc([nH]4)c(-c4cc(S(=O)(=O)[O-])ccc4F)c4nc(c(-c5cc(S(=O)(=O)[O-])ccc5F)c5ccc2[nH]5)C=C4)C=C3)cc1
REMARK SMILES IDX 22 1 21 2 20 3 1 4 2 5 3 7 4 8 5 9 19 10 6 11 18 12 17 13
REMARK SMILES IDX 7 15 8 16 16 17 9 18 11 19 10 20 12 21 15 22 13 23 14 24
REMARK SMILES IDX 23 25 24 26 25 27 26 29 27 30 28 31 89 32 29 33 88 34 30 35
REMARK SMILES IDX 31 36 32 37 82 38 33 39 87 40 81 41 83 42 34 43 86 44 80 45
REMARK SMILES IDX 79 46 35 48 67 49 47 50 66 51 48 52 51 53 65 54 84 55 49 56
REMARK SMILES IDX 50 57 64 59 85 60 52 61 36 62 37 63 45 64 38 65 44 66 46 67
REMARK SMILES IDX 43 68 39 69 40 70 41 71 42 72 68 73 69 74 77 75 70 76 76 77
REMARK SMILES IDX 78 78 75 79 71 80 72 81 73 82 74 83 53 84 54 85 62 86 55 87
REMARK SMILES IDX 61 88 63 89 60 90 56 91 57 92 58 93 59 94
REMARK H PARENT 20 6 6 14 24 28 83 47 51 58
REMARK Flexibility Score: inf
ROOT
ATOM      1  C   UNL A   1      35.176  21.553  24.565  1.00  0.00     0.042 C 
ENDROOT
BRANCH   1   2
ATOM      2  C   UNL A   1      33.921  22.382  24.811  1.00  0.00     0.117 C 
BRANCH   2   3
ATOM      3  N   UNL A   1      34.245  23.773  25.006  1.00  0.00    -0.356 N 
ATOM      4  O   UNL A   1      32.178  24.601  25.591  1.00  0.00    -0.275 OA
ATOM      5  C   UNL A   1      33.366  24.768  25.354  1.00  0.00     0.222 C 
ATOM      6  H   UNL A   1      35.185  24.034  24.877  1.00  0.00     0.163 HD
BRANCH   5   7
ATOM      7  C   UNL A   1      34.024  26.136  25.372  1.00  0.00     0.138 C 
BRANCH   7   8
ATOM      8  C   UNL A   1      32.977  27.240  25.520  1.00  0.00     0.182 C 
ATOM      9  C   UNL A   1      33.166  28.341  24.453  1.00  0.00     0.295 C 
ATOM     10  O   UNL A   1      33.077  27.847  26.828  1.00  0.00    -0.366 OA
ATOM     11  N   UNL A   1      32.194  29.450  24.560  1.00  0.00    -0.328 N 
ATOM     12  C   UNL A   1      32.006  28.784  27.006  1.00  0.00     0.222 C 
ATOM     13  C   UNL A   1      32.090  29.903  25.960  1.00  0.00     0.291 C 
ATOM     14  H   UNL A   1      32.551  30.269  24.068  1.00  0.00     0.348 HD
BRANCH  11  15
ATOM     15  C   UNL A   1      30.961  29.259  23.774  1.00  0.00     0.189 C 
ATOM     16  C   UNL A   1      30.277  27.890  23.888  1.00  0.00     0.093 C 
ATOM     17  C   UNL A   1      29.927  30.382  23.988  1.00  0.00     0.103 C 
ATOM     18  C   UNL A   1      29.018  27.822  23.039  1.00  0.00     0.167 C 
ATOM     19  C   UNL A   1      28.673  30.186  23.115  1.00  0.00     0.099 C 
ATOM     20  O   UNL A   1      28.126  28.884  23.344  1.00  0.00    -0.372 OA
ATOM     21  C   UNL A   1      28.906  30.463  21.633  1.00  0.00     0.066 C 
ATOM     22  C   UNL A   1      27.609  31.229  23.459  1.00  0.00     0.195 C 
ATOM     23  C   UNL A   1      28.422  31.884  21.409  1.00  0.00     0.163 C 
ATOM     24  O   UNL A   1      27.874  32.367  22.635  1.00  0.00    -0.378 OA
ENDBRANCH  11  15
ENDBRANCH   7   8
ENDBRANCH   5   7
ENDBRANCH   2   3
ENDBRANCH   1   2
BRANCH   1  25
ATOM     25  C   UNL A   1      36.380  21.939  25.424  1.00  0.00     0.118 C 
BRANCH  25  26
ATOM     26  N   UNL A   1      37.384  20.891  25.527  1.00  0.00    -0.352 N 
ATOM     27  C   UNL A   1      38.715  20.978  25.863  1.00  0.00     0.251 C 
ATOM     28  H   UNL A   1      37.062  19.983  25.325  1.00  0.00     0.163 HD
ATOM     29  O   UNL A   1      39.427  19.983  25.760  1.00  0.00    -0.269 OA
BRANCH  27  30
ATOM     30  C   UNL A   1      39.295  22.266  26.312  1.00  0.00     0.039 A 
ATOM     31  C   UNL A   1      40.344  22.245  27.236  1.00  0.00     0.014 A 
ATOM     32  C   UNL A   1      38.816  23.489  25.835  1.00  0.00     0.014 A 
ATOM     33  C   UNL A   1      40.956  23.441  27.622  1.00  0.00     0.010 A 
ATOM     34  C   UNL A   1      39.480  24.672  26.158  1.00  0.00     0.010 A 
ATOM     35  C   UNL A   1      40.559  24.664  27.055  1.00  0.00    -0.014 A 
BRANCH  35  36
ATOM     36  C   UNL A   1      41.270  25.931  27.387  1.00  0.00     0.031 A 
ATOM     37  C   UNL A   1      40.591  26.996  28.207  1.00  0.00     0.074 A 
ATOM     38  C   UNL A   1      42.515  26.144  26.911  1.00  0.00     0.049 A 
ATOM     39  N   UNL A   1      41.032  28.177  28.559  1.00  0.00    -0.248 NA
ATOM     40  C   UNL A   1      39.227  26.703  28.670  1.00  0.00     0.031 C 
ATOM     41  C   UNL A   1      43.268  25.207  26.072  1.00  0.00     0.029 A 
ATOM     42  N   UNL A   1      43.367  27.210  27.059  1.00  0.00    -0.354 N 
ATOM     43  C   UNL A   1      39.999  28.771  29.278  1.00  0.00     0.074 A 
ATOM     44  C   UNL A   1      38.887  27.843  29.252  1.00  0.00     0.031 C 
ATOM     45  C   UNL A   1      44.479  25.726  25.810  1.00  0.00     0.029 A 
ATOM     46  C   UNL A   1      44.573  27.052  26.414  1.00  0.00     0.049 A 
ATOM     47  H   UNL A   1      43.137  28.014  27.579  1.00  0.00     0.167 HD
ATOM     48  C   UNL A   1      39.986  29.965  29.920  1.00  0.00     0.034 A 
ATOM     49  C   UNL A   1      45.631  27.881  26.308  1.00  0.00     0.034 A 
ATOM     50  C   UNL A   1      41.104  30.879  29.942  1.00  0.00     0.049 A 
ATOM     51  C   UNL A   1      45.578  29.222  26.998  1.00  0.00     0.074 A 
ATOM     52  C   UNL A   1      41.213  32.091  30.603  1.00  0.00     0.029 A 
ATOM     53  N   UNL A   1      42.302  30.691  29.264  1.00  0.00    -0.354 N 
ATOM     54  N   UNL A   1      44.612  29.745  27.719  1.00  0.00    -0.248 NA
ATOM     55  C   UNL A   1      46.763  30.081  26.869  1.00  0.00     0.031 C 
ATOM     56  C   UNL A   1      42.439  32.671  30.260  1.00  0.00     0.029 A 
ATOM     57  C   UNL A   1      43.138  31.781  29.460  1.00  0.00     0.049 A 
ATOM     58  H   UNL A   1      42.525  29.899  28.723  1.00  0.00     0.167 HD
ATOM     59  C   UNL A   1      45.090  30.977  28.157  1.00  0.00     0.074 A 
ATOM     60  C   UNL A   1      46.434  31.110  27.635  1.00  0.00     0.031 C 
ATOM     61  C   UNL A   1      44.475  31.912  28.927  1.00  0.00     0.034 A 
BRANCH  48  62
ATOM     62  C   UNL A   1      38.711  30.362  30.630  1.00  0.00     0.023 A 
ATOM     63  C   UNL A   1      37.666  31.022  29.960  1.00  0.00     0.031 A 
ATOM     64  C   UNL A   1      38.543  30.092  32.000  1.00  0.00     0.131 A 
ATOM     65  C   UNL A   1      36.539  31.458  30.674  1.00  0.00     0.055 A 
ATOM     66  C   UNL A   1      37.381  30.450  32.687  1.00  0.00     0.041 A 
ATOM     67  F   UNL A   1      39.512  29.484  32.702  1.00  0.00    -0.206 F 
ATOM     68  C   UNL A   1      36.376  31.152  32.027  1.00  0.00     0.022 A 
BRANCH  65  69
ATOM     69  S   UNL A   1      35.363  32.563  29.844  1.00  0.00     0.124 S 
ATOM     70  O   UNL A   1      36.228  33.676  29.457  1.00  0.00    -0.237 OA
ATOM     71  O   UNL A   1      34.864  31.733  28.755  1.00  0.00    -0.237 OA
ATOM     72  O   UNL A   1      34.390  32.874  30.890  1.00  0.00    -0.744 OA
ENDBRANCH  65  69
ENDBRANCH  48  62
BRANCH  49  73
ATOM     73  C   UNL A   1      46.828  27.485  25.510  1.00  0.00     0.023 A 
ATOM     74  C   UNL A   1      46.993  27.918  24.185  1.00  0.00     0.031 A 
ATOM     75  C   UNL A   1      47.803  26.624  26.045  1.00  0.00     0.131 A 
ATOM     76  C   UNL A   1      48.074  27.447  23.423  1.00  0.00     0.055 A 
ATOM     77  C   UNL A   1      48.911  26.208  25.304  1.00  0.00     0.041 A 
ATOM     78  F   UNL A   1      47.696  26.179  27.308  1.00  0.00    -0.206 F 
ATOM     79  C   UNL A   1      49.042  26.609  23.979  1.00  0.00     0.022 A 
BRANCH  76  80
ATOM     80  S   UNL A   1      48.143  27.868  21.659  1.00  0.00     0.124 S 
ATOM     81  O   UNL A   1      46.855  28.522  21.461  1.00  0.00    -0.237 OA
ATOM     82  O   UNL A   1      49.318  28.731  21.599  1.00  0.00    -0.237 OA
ATOM     83  O   UNL A   1      48.292  26.569  21.005  1.00  0.00    -0.744 OA
ENDBRANCH  76  80
ENDBRANCH  49  73
BRANCH  61  84
ATOM     84  C   UNL A   1      45.276  33.141  29.290  1.00  0.00     0.023 A 
ATOM     85  C   UNL A   1      45.243  34.310  28.509  1.00  0.00     0.031 A 
ATOM     86  C   UNL A   1      46.100  33.134  30.430  1.00  0.00     0.131 A 
ATOM     87  C   UNL A   1      46.065  35.397  28.841  1.00  0.00     0.055 A 
ATOM     88  C   UNL A   1      46.862  34.245  30.795  1.00  0.00     0.041 A 
ATOM     89  F   UNL A   1      46.177  32.045  31.213  1.00  0.00    -0.206 F 
ATOM     90  C   UNL A   1      46.860  35.380  29.990  1.00  0.00     0.022 A 
BRANCH  87  91
ATOM     91  S   UNL A   1      46.167  36.796  27.691  1.00  0.00     0.124 S 
ATOM     92  O   UNL A   1      46.604  37.878  28.567  1.00  0.00    -0.237 OA
ATOM     93  O   UNL A   1      47.150  36.329  26.718  1.00  0.00    -0.237 OA
ATOM     94  O   UNL A   1      44.803  36.922  27.182  1.00  0.00    -0.744 OA
ENDBRANCH  87  91
ENDBRANCH  61  84
ENDBRANCH  35  36
ENDBRANCH  27  30
ENDBRANCH  25  26
ENDBRANCH   1  25
TORSDOF 15
ENDMDL
MODEL 2
REMARK VINA RESULT:     -12.5      5.153      8.757
REMARK SMILES O=C(C[C@@H]1C[N@@H+]([C@H]2CCO[C@]3(CCOC3)C2)CCO1)NCCCNC(=O)c1ccc(-c2c3nc(c(-c4cc(S(=O)(=O)[O-])ccc4F)c4ccc([nH]4)c(-c4cc(S(=O)(=O)[O-])ccc4F)c4nc(c(-c5cc(S(=O)(=O)[O-])ccc5F)c5ccc2[nH]5)C=C4)C=C3)cc1
REMARK SMILES IDX 22 1 21 2 20 3 1 4 2 5 3 7 4 8 5 9 19 10 6 11 18 12 17 13
REMARK SMILES IDX 7 15 8 16 16 17 9 18 11 19 10 20 12 21 15 22 13 23 14 24
REMARK SMILES IDX 23 25 24 26 25 27 26 29 27 30 28 31 89 32 29 33 88 34 30 35
REMARK SMILES IDX 31 36 32 37 82 38 33 39 87 40 81 41 83 42 34 43 86 44 80 45
REMARK SMILES IDX 79 46 35 48 67 49 47 50 66 51 48 52 51 53 65 54 84 55 49 56
REMARK SMILES IDX 50 57 64 59 85 60 52 61 36 62 37 63 45 64 38 65 44 66 46 67
REMARK SMILES IDX 43 68 39 69 40 70 41 71 42 72 68 73 69 74 77 75 70 76 76 77
REMARK SMILES IDX 78 78 75 79 71 80 72 81 73 82 74 83 53 84 54 85 62 86 55 87
REMARK SMILES IDX 61 88 63 89 60 90 56 91 57 92 58 93 59 94
REMARK H PARENT 20 6 6 14 24 28 83 47 51 58
REMARK Flexibility Score: inf
ROOT
ATOM      1  C   UNL A   1      32.993  29.055  24.680  1.00  0.00     0.042 C 
ENDROOT
BRANCH   1   2
ATOM      2  C   UNL A   1      32.411  27.673  24.407  1.00  0.00     0.117 C 
BRANCH   2   3
ATOM      3  N   UNL A   1      33.085  26.661  25.180  1.00  0.00    -0.356 N 
ATOM      4  O   UNL A   1      34.037  25.417  23.494  1.00  0.00    -0.275 OA
ATOM      5  C   UNL A   1      33.818  25.614  24.680  1.00  0.00     0.222 C 
ATOM      6  H   UNL A   1      33.013  26.726  26.159  1.00  0.00     0.163 HD
BRANCH   5   7
ATOM      7  C   UNL A   1      34.302  24.677  25.773  1.00  0.00     0.138 C 
BRANCH   7   8
ATOM      8  C   UNL A   1      34.768  23.347  25.180  1.00  0.00     0.182 C 
ATOM      9  C   UNL A   1      34.688  22.209  26.222  1.00  0.00     0.295 C 
ATOM     10  O   UNL A   1      36.135  23.458  24.726  1.00  0.00    -0.366 OA
ATOM     11  N   UNL A   1      35.149  20.900  25.713  1.00  0.00    -0.328 N 
ATOM     12  C   UNL A   1      36.517  22.252  24.051  1.00  0.00     0.222 C 
ATOM     13  C   UNL A   1      36.433  21.052  25.003  1.00  0.00     0.291 C 
ATOM     14  H   UNL A   1      35.377  20.287  26.496  1.00  0.00     0.348 HD
BRANCH  11  15
ATOM     15  C   UNL A   1      34.088  20.073  25.108  1.00  0.00     0.189 C 
ATOM     16  C   UNL A   1      33.231  20.738  24.023  1.00  0.00     0.093 C 
ATOM     17  C   UNL A   1      34.597  18.705  24.609  1.00  0.00     0.103 C 
ATOM     18  C   UNL A   1      32.181  19.784  23.476  1.00  0.00     0.167 C 
ATOM     19  C   UNL A   1      33.459  17.841  24.032  1.00  0.00     0.099 C 
ATOM     20  O   UNL A   1      32.767  18.574  23.017  1.00  0.00    -0.372 OA
ATOM     21  C   UNL A   1      32.512  17.285  25.091  1.00  0.00     0.066 C 
ATOM     22  C   UNL A   1      34.018  16.560  23.414  1.00  0.00     0.195 C 
ATOM     23  C   UNL A   1      32.992  15.869  25.355  1.00  0.00     0.163 C 
ATOM     24  O   UNL A   1      34.074  15.592  24.465  1.00  0.00    -0.378 OA
ENDBRANCH  11  15
ENDBRANCH   7   8
ENDBRANCH   5   7
ENDBRANCH   2   3
ENDBRANCH   1   2
BRANCH   1  25
ATOM     25  C   UNL A   1      33.786  29.172  25.981  1.00  0.00     0.118 C 
BRANCH  25  26
ATOM     26  N   UNL A   1      33.668  30.474  26.621  1.00  0.00    -0.352 N 
ATOM     27  C   UNL A   1      34.446  31.046  27.602  1.00  0.00     0.251 C 
ATOM     28  H   UNL A   1      32.919  31.028  26.305  1.00  0.00     0.163 HD
ATOM     29  O   UNL A   1      34.094  32.109  28.104  1.00  0.00    -0.269 OA
BRANCH  27  30
ATOM     30  C   UNL A   1      35.678  30.371  28.074  1.00  0.00     0.039 A 
ATOM     31  C   UNL A   1      36.826  30.433  27.279  1.00  0.00     0.014 A 
ATOM     32  C   UNL A   1      35.711  29.677  29.287  1.00  0.00     0.014 A 
ATOM     33  C   UNL A   1      38.020  29.866  27.734  1.00  0.00     0.010 A 
ATOM     34  C   UNL A   1      36.922  29.184  29.776  1.00  0.00     0.010 A 
ATOM     35  C   UNL A   1      38.092  29.273  29.006  1.00  0.00    -0.014 A 
BRANCH  35  36
ATOM     36  C   UNL A   1      39.383  28.753  29.539  1.00  0.00     0.031 A 
ATOM     37  C   UNL A   1      40.069  29.445  30.688  1.00  0.00     0.074 A 
ATOM     38  C   UNL A   1      39.964  27.683  28.958  1.00  0.00     0.049 A 
ATOM     39  N   UNL A   1      41.214  29.167  31.257  1.00  0.00    -0.248 NA
ATOM     40  C   UNL A   1      39.388  30.619  31.253  1.00  0.00     0.031 C 
ATOM     41  C   UNL A   1      39.421  26.947  27.814  1.00  0.00     0.029 A 
ATOM     42  N   UNL A   1      41.136  27.026  29.245  1.00  0.00    -0.354 N 
ATOM     43  C   UNL A   1      41.396  30.134  32.242  1.00  0.00     0.074 A 
ATOM     44  C   UNL A   1      40.272  31.043  32.144  1.00  0.00     0.031 C 
ATOM     45  C   UNL A   1      40.239  25.923  27.519  1.00  0.00     0.029 A 
ATOM     46  C   UNL A   1      41.391  25.958  28.415  1.00  0.00     0.049 A 
ATOM     47  H   UNL A   1      41.737  27.295  29.977  1.00  0.00     0.167 HD
ATOM     48  C   UNL A   1      42.390  30.240  33.157  1.00  0.00     0.034 A 
ATOM     49  C   UNL A   1      42.437  25.108  28.370  1.00  0.00     0.034 A 
ATOM     50  C   UNL A   1      43.503  29.323  33.246  1.00  0.00     0.049 A 
ATOM     51  C   UNL A   1      43.552  25.271  29.373  1.00  0.00     0.074 A 
ATOM     52  C   UNL A   1      44.538  29.312  34.167  1.00  0.00     0.029 A 
ATOM     53  N   UNL A   1      43.735  28.263  32.379  1.00  0.00    -0.354 N 
ATOM     54  N   UNL A   1      43.681  26.160  30.332  1.00  0.00    -0.248 NA
ATOM     55  C   UNL A   1      44.659  24.308  29.295  1.00  0.00     0.031 C 
ATOM     56  C   UNL A   1      45.434  28.300  33.808  1.00  0.00     0.029 A 
ATOM     57  C   UNL A   1      44.916  27.617  32.720  1.00  0.00     0.049 A 
ATOM     58  H   UNL A   1      43.149  28.008  31.631  1.00  0.00     0.167 HD
ATOM     59  C   UNL A   1      44.864  25.839  30.991  1.00  0.00     0.074 A 
ATOM     60  C   UNL A   1      45.401  24.666  30.333  1.00  0.00     0.031 C 
ATOM     61  C   UNL A   1      45.451  26.454  32.050  1.00  0.00     0.034 A 
BRANCH  48  62
ATOM     62  C   UNL A   1      42.332  31.406  34.119  1.00  0.00     0.023 A 
ATOM     63  C   UNL A   1      41.485  31.398  35.242  1.00  0.00     0.031 A 
ATOM     64  C   UNL A   1      43.121  32.550  33.902  1.00  0.00     0.131 A 
ATOM     65  C   UNL A   1      41.390  32.536  36.057  1.00  0.00     0.055 A 
ATOM     66  C   UNL A   1      43.087  33.646  34.767  1.00  0.00     0.041 A 
ATOM     67  F   UNL A   1      43.934  32.629  32.836  1.00  0.00    -0.206 F 
ATOM     68  C   UNL A   1      42.205  33.650  35.843  1.00  0.00     0.022 A 
BRANCH  65  69
ATOM     69  S   UNL A   1      40.074  32.598  37.305  1.00  0.00     0.124 S 
ATOM     70  O   UNL A   1      40.834  32.428  38.542  1.00  0.00    -0.237 OA
ATOM     71  O   UNL A   1      39.494  33.918  37.087  1.00  0.00    -0.237 OA
ATOM     72  O   UNL A   1      39.214  31.470  36.951  1.00  0.00    -0.744 OA
ENDBRANCH  65  69
ENDBRANCH  48  62
BRANCH  49  73
ATOM     73  C   UNL A   1      42.498  24.034  27.336  1.00  0.00     0.023 A 
ATOM     74  C   UNL A   1      41.804  22.825  27.504  1.00  0.00     0.031 A 
ATOM     75  C   UNL A   1      43.294  24.178  26.186  1.00  0.00     0.131 A 
ATOM     76  C   UNL A   1      41.960  21.790  26.569  1.00  0.00     0.055 A 
ATOM     77  C   UNL A   1      43.397  23.170  25.225  1.00  0.00     0.041 A 
ATOM     78  F   UNL A   1      43.979  25.314  25.973  1.00  0.00    -0.206 F 
ATOM     79  C   UNL A   1      42.739  21.961  25.422  1.00  0.00     0.022 A 
BRANCH  76  80
ATOM     80  S   UNL A   1      41.209  20.177  26.923  1.00  0.00     0.124 S 
ATOM     81  O   UNL A   1      40.045  20.193  26.045  1.00  0.00    -0.237 OA
ATOM     82  O   UNL A   1      42.279  19.256  26.554  1.00  0.00    -0.237 OA
ATOM     83  O   UNL A   1      40.914  20.246  28.353  1.00  0.00    -0.744 OA
ENDBRANCH  76  80
ENDBRANCH  49  73
BRANCH  61  84
ATOM     84  C   UNL A   1      46.720  25.836  32.591  1.00  0.00     0.023 A 
ATOM     85  C   UNL A   1      46.701  24.852  33.595  1.00  0.00     0.031 A 
ATOM     86  C   UNL A   1      47.971  26.253  32.102  1.00  0.00     0.131 A 
ATOM     87  C   UNL A   1      47.906  24.365  34.122  1.00  0.00     0.055 A 
ATOM     88  C   UNL A   1      49.166  25.713  32.580  1.00  0.00     0.041 A 
ATOM     89  F   UNL A   1      48.055  27.193  31.146  1.00  0.00    -0.206 F 
ATOM     90  C   UNL A   1      49.139  24.775  33.608  1.00  0.00     0.022 A 
BRANCH  87  91
ATOM     91  S   UNL A   1      47.847  23.269  35.566  1.00  0.00     0.124 S 
ATOM     92  O   UNL A   1      48.647  22.134  35.119  1.00  0.00    -0.237 OA
ATOM     93  O   UNL A   1      48.442  24.096  36.611  1.00  0.00    -0.237 OA
ATOM     94  O   UNL A   1      46.420  22.995  35.731  1.00  0.00    -0.744 OA
ENDBRANCH  87  91
ENDBRANCH  61  84
ENDBRANCH  35  36
ENDBRANCH  27  30
ENDBRANCH  25  26
ENDBRANCH   1  25
TORSDOF 15
ENDMDL
MODEL 3
REMARK VINA RESULT:     -12.4      1.016      7.541
REMARK SMILES O=C(C[C@@H]1C[N@@H+]([C@H]2CCO[C@]3(CCOC3)C2)CCO1)NCCCNC(=O)c1ccc(-c2c3nc(c(-c4cc(S(=O)(=O)[O-])ccc4F)c4ccc([nH]4)c(-c4cc(S(=O)(=O)[O-])ccc4F)c4nc(c(-c5cc(S(=O)(=O)[O-])ccc5F)c5ccc2[nH]5)C=C4)C=C3)cc1
REMARK SMILES IDX 22 1 21 2 20 3 1 4 2 5 3 7 4 8 5 9 19 10 6 11 18 12 17 13
REMARK SMILES IDX 7 15 8 16 16 17 9 18 11 19 10 20 12 21 15 22 13 23 14 24
REMARK SMILES IDX 23 25 24 26 25 27 26 29 27 30 28 31 89 32 29 33 88 34 30 35
REMARK SMILES IDX 31 36 32 37 82 38 33 39 87 40 81 41 83 42 34 43 86 44 80 45
REMARK SMILES IDX 79 46 35 48 67 49 47 50 66 51 48 52 51 53 65 54 84 55 49 56
REMARK SMILES IDX 50 57 64 59 85 60 52 61 36 62 37 63 45 64 38 65 44 66 46 67
REMARK SMILES IDX 43 68 39 69 40 70 41 71 42 72 68 73 69 74 77 75 70 76 76 77
REMARK SMILES IDX 78 78 75 79 71 80 72 81 73 82 74 83 53 84 54 85 62 86 55 87
REMARK SMILES IDX 61 88 63 89 60 90 56 91 57 92 58 93 59 94
REMARK H PARENT 20 6 6 14 24 28 83 47 51 58
REMARK Flexibility Score: inf
ROOT
ATOM      1  C   UNL A   1      35.888  22.182  24.342  1.00  0.00     0.042 C 
ENDROOT
BRANCH   1   2
ATOM      2  C   UNL A   1      34.561  22.931  24.314  1.00  0.00     0.117 C 
BRANCH   2   3
ATOM      3  N   UNL A   1      34.740  24.323  24.637  1.00  0.00    -0.356 N 
ATOM      4  O   UNL A   1      32.892  24.683  25.961  1.00  0.00    -0.275 OA
ATOM      5  C   UNL A   1      33.901  25.092  25.404  1.00  0.00     0.222 C 
ATOM      6  H   UNL A   1      35.540  24.766  24.272  1.00  0.00     0.163 HD
BRANCH   5   7
ATOM      7  C   UNL A   1      34.336  26.545  25.453  1.00  0.00     0.138 C 
BRANCH   7   8
ATOM      8  C   UNL A   1      33.130  27.466  25.640  1.00  0.00     0.182 C 
ATOM      9  C   UNL A   1      33.249  28.732  24.763  1.00  0.00     0.295 C 
ATOM     10  O   UNL A   1      33.026  27.875  27.022  1.00  0.00    -0.366 OA
ATOM     11  N   UNL A   1      32.121  29.675  24.917  1.00  0.00    -0.328 N 
ATOM     12  C   UNL A   1      31.819  28.625  27.213  1.00  0.00     0.222 C 
ATOM     13  C   UNL A   1      31.830  29.892  26.348  1.00  0.00     0.291 C 
ATOM     14  H   UNL A   1      32.397  30.599  24.585  1.00  0.00     0.348 HD
BRANCH  11  15
ATOM     15  C   UNL A   1      31.002  29.447  23.984  1.00  0.00     0.189 C 
ATOM     16  C   UNL A   1      30.414  28.030  23.948  1.00  0.00     0.093 C 
ATOM     17  C   UNL A   1      29.869  30.482  24.132  1.00  0.00     0.103 C 
ATOM     18  C   UNL A   1      29.268  27.924  22.956  1.00  0.00     0.167 C 
ATOM     19  C   UNL A   1      28.740  30.251  23.109  1.00  0.00     0.099 C 
ATOM     20  O   UNL A   1      28.270  28.903  23.208  1.00  0.00    -0.372 OA
ATOM     21  C   UNL A   1      29.117  30.629  21.681  1.00  0.00     0.066 C 
ATOM     22  C   UNL A   1      27.569  31.197  23.379  1.00  0.00     0.195 C 
ATOM     23  C   UNL A   1      28.557  32.024  21.473  1.00  0.00     0.163 C 
ATOM     24  O   UNL A   1      27.839  32.396  22.650  1.00  0.00    -0.378 OA
ENDBRANCH  11  15
ENDBRANCH   7   8
ENDBRANCH   5   7
ENDBRANCH   2   3
ENDBRANCH   1   2
BRANCH   1  25
ATOM     25  C   UNL A   1      36.622  22.227  25.682  1.00  0.00     0.118 C 
BRANCH  25  26
ATOM     26  N   UNL A   1      37.717  21.273  25.781  1.00  0.00    -0.352 N 
ATOM     27  C   UNL A   1      39.027  21.472  26.149  1.00  0.00     0.251 C 
ATOM     28  H   UNL A   1      37.484  20.345  25.548  1.00  0.00     0.163 HD
ATOM     29  O   UNL A   1      39.830  20.550  26.036  1.00  0.00    -0.269 OA
BRANCH  27  30
ATOM     30  C   UNL A   1      39.477  22.795  26.644  1.00  0.00     0.039 A 
ATOM     31  C   UNL A   1      40.466  22.842  27.631  1.00  0.00     0.014 A 
ATOM     32  C   UNL A   1      38.934  23.983  26.149  1.00  0.00     0.014 A 
ATOM     33  C   UNL A   1      40.958  24.077  28.065  1.00  0.00     0.010 A 
ATOM     34  C   UNL A   1      39.483  25.210  26.523  1.00  0.00     0.010 A 
ATOM     35  C   UNL A   1      40.502  25.273  27.485  1.00  0.00    -0.014 A 
BRANCH  35  36
ATOM     36  C   UNL A   1      41.092  26.586  27.871  1.00  0.00     0.031 A 
ATOM     37  C   UNL A   1      42.531  26.899  27.558  1.00  0.00     0.074 A 
ATOM     38  C   UNL A   1      40.343  27.482  28.547  1.00  0.00     0.049 A 
ATOM     39  N   UNL A   1      43.229  27.967  27.852  1.00  0.00    -0.248 NA
ATOM     40  C   UNL A   1      43.291  25.865  26.841  1.00  0.00     0.031 C 
ATOM     41  C   UNL A   1      38.947  27.284  28.945  1.00  0.00     0.029 A 
ATOM     42  N   UNL A   1      40.645  28.736  29.020  1.00  0.00    -0.354 N 
ATOM     43  C   UNL A   1      44.512  27.731  27.365  1.00  0.00     0.074 A 
ATOM     44  C   UNL A   1      44.507  26.390  26.816  1.00  0.00     0.031 C 
ATOM     45  C   UNL A   1      38.506  28.388  29.570  1.00  0.00     0.029 A 
ATOM     46  C   UNL A   1      39.597  29.353  29.666  1.00  0.00     0.049 A 
ATOM     47  H   UNL A   1      41.528  29.155  28.906  1.00  0.00     0.167 HD
ATOM     48  C   UNL A   1      45.584  28.560  27.353  1.00  0.00     0.034 A 
ATOM     49  C   UNL A   1      39.523  30.552  30.279  1.00  0.00     0.034 A 
ATOM     50  C   UNL A   1      45.573  29.897  27.900  1.00  0.00     0.049 A 
ATOM     51  C   UNL A   1      40.742  31.442  30.288  1.00  0.00     0.074 A 
ATOM     52  C   UNL A   1      46.589  30.838  27.896  1.00  0.00     0.029 A 
ATOM     53  N   UNL A   1      44.499  30.480  28.561  1.00  0.00    -0.354 N 
ATOM     54  N   UNL A   1      41.931  31.223  29.774  1.00  0.00    -0.248 NA
ATOM     55  C   UNL A   1      40.605  32.746  30.949  1.00  0.00     0.031 C 
ATOM     56  C   UNL A   1      46.159  31.953  28.621  1.00  0.00     0.029 A 
ATOM     57  C   UNL A   1      44.842  31.751  29.001  1.00  0.00     0.049 A 
ATOM     58  H   UNL A   1      43.622  30.054  28.698  1.00  0.00     0.167 HD
ATOM     59  C   UNL A   1      42.669  32.377  30.021  1.00  0.00     0.074 A 
ATOM     60  C   UNL A   1      41.787  33.294  30.713  1.00  0.00     0.031 C 
ATOM     61  C   UNL A   1      43.959  32.656  29.700  1.00  0.00     0.034 A 
BRANCH  48  62
ATOM     62  C   UNL A   1      46.867  28.033  26.751  1.00  0.00     0.023 A 
ATOM     63  C   UNL A   1      47.139  28.143  25.375  1.00  0.00     0.031 A 
ATOM     64  C   UNL A   1      47.826  27.397  27.559  1.00  0.00     0.131 A 
ATOM     65  C   UNL A   1      48.297  27.559  24.839  1.00  0.00     0.055 A 
ATOM     66  C   UNL A   1      49.019  26.895  27.033  1.00  0.00     0.041 A 
ATOM     67  F   UNL A   1      47.617  27.242  28.876  1.00  0.00    -0.206 F 
ATOM     68  C   UNL A   1      49.252  26.959  25.663  1.00  0.00     0.022 A 
BRANCH  65  69
ATOM     69  S   UNL A   1      48.459  27.457  23.035  1.00  0.00     0.124 S 
ATOM     70  O   UNL A   1      48.391  26.014  22.814  1.00  0.00    -0.237 OA
ATOM     71  O   UNL A   1      47.314  28.229  22.571  1.00  0.00    -0.237 OA
ATOM     72  O   UNL A   1      49.766  28.058  22.775  1.00  0.00    -0.744 OA
ENDBRANCH  65  69
ENDBRANCH  48  62
BRANCH  49  73
ATOM     73  C   UNL A   1      38.262  30.986  30.948  1.00  0.00     0.023 A 
ATOM     74  C   UNL A   1      37.246  31.635  30.229  1.00  0.00     0.031 A 
ATOM     75  C   UNL A   1      38.075  30.804  32.330  1.00  0.00     0.131 A 
ATOM     76  C   UNL A   1      36.115  32.126  30.902  1.00  0.00     0.055 A 
ATOM     77  C   UNL A   1      36.920  31.238  32.984  1.00  0.00     0.041 A 
ATOM     78  F   UNL A   1      39.014  30.188  33.067  1.00  0.00    -0.206 F 
ATOM     79  C   UNL A   1      35.939  31.917  32.271  1.00  0.00     0.022 A 
BRANCH  76  80
ATOM     80  S   UNL A   1      34.922  33.133  29.976  1.00  0.00     0.124 S 
ATOM     81  O   UNL A   1      34.059  33.624  31.043  1.00  0.00    -0.237 OA
ATOM     82  O   UNL A   1      35.788  34.122  29.342  1.00  0.00    -0.237 OA
ATOM     83  O   UNL A   1      34.304  32.173  29.064  1.00  0.00    -0.744 OA
ENDBRANCH  76  80
ENDBRANCH  49  73
BRANCH  61  84
ATOM     84  C   UNL A   1      44.475  34.032  30.053  1.00  0.00     0.023 A 
ATOM     85  C   UNL A   1      44.226  35.153  29.242  1.00  0.00     0.031 A 
ATOM     86  C   UNL A   1      45.245  34.220  31.216  1.00  0.00     0.131 A 
ATOM     87  C   UNL A   1      44.793  36.394  29.568  1.00  0.00     0.055 A 
ATOM     88  C   UNL A   1      45.747  35.472  31.573  1.00  0.00     0.041 A 
ATOM     89  F   UNL A   1      45.521  33.187  32.029  1.00  0.00    -0.206 F 
ATOM     90  C   UNL A   1      45.536  36.565  30.738  1.00  0.00     0.022 A 
BRANCH  87  91
ATOM     91  S   UNL A   1      44.641  37.760  28.384  1.00  0.00     0.124 S 
ATOM     92  O   UNL A   1      44.005  37.105  27.245  1.00  0.00    -0.237 OA
ATOM     93  O   UNL A   1      43.812  38.714  29.113  1.00  0.00    -0.237 OA
ATOM     94  O   UNL A   1      46.023  38.181  28.165  1.00  0.00    -0.744 OA
ENDBRANCH  87  91
ENDBRANCH  61  84
ENDBRANCH  35  36
ENDBRANCH  27  30
ENDBRANCH  25  26
ENDBRANCH   1  25
TORSDOF 15
ENDMDL
