MODEL 1
REMARK VINA RESULT:     -11.7      0.000      0.000
REMARK SMILES Cc1ccc(C(N)=O)c(NCc2ccc(C(=O)NCCCNC(=O)c3ccc(-c4c5nc(c(-c6cc(S(=O)(=O)[O-])ccc6F)c6ccc([nH]6)c(-c6cc(S(=O)(=O)[O-])ccc6F)c6nc(c(-c7cc(S(=O)(=O)[O-])ccc7F)c7ccc4[nH]7)C=C6)C=C5)cc3)o2)n1
REMARK SMILES IDX 19 1 18 2 16 3 17 4 15 6 12 7 13 8 88 9 14 10 11 11 10 12
REMARK SMILES IDX 9 14 1 15 2 16 3 17 89 18 4 19 5 20 6 21 7 22 8 23 20 26
REMARK SMILES IDX 21 27 22 28 23 29 24 31 25 32 26 33 87 34 27 35 86 36 28 37
REMARK SMILES IDX 29 38 30 39 80 40 31 41 85 42 79 43 81 44 32 45 84 46 78 47
REMARK SMILES IDX 77 48 33 50 65 51 45 52 64 53 46 54 49 55 63 56 82 57 47 58
REMARK SMILES IDX 48 59 62 61 83 62 50 63 34 64 35 65 43 66 36 67 42 68 44 69
REMARK SMILES IDX 41 70 37 71 38 72 39 73 40 74 66 75 67 76 75 77 68 78 74 79
REMARK SMILES IDX 76 80 73 81 69 82 70 83 71 84 72 85 51 86 52 87 60 88 53 89
REMARK SMILES IDX 59 90 61 91 58 92 54 93 55 94 56 95 57 96
REMARK H PARENT 18 5 10 13 7 24 7 25 22 30 81 49 49 60
REMARK Flexibility Score: inf
ROOT
ATOM      1  C   UNL A   1      33.274  28.296  22.797  1.00  0.00     0.118 C 
ENDROOT
BRANCH   1   2
ATOM      2  N   UNL A   1      31.965  28.615  22.264  1.00  0.00    -0.349 N 
ATOM      3  C   UNL A   1      30.732  28.050  22.498  1.00  0.00     0.286 C 
ATOM      4  O   UNL A   1      29.771  28.635  21.992  1.00  0.00    -0.266 OA
ATOM      5  H   UNL A   1      31.956  29.364  21.625  1.00  0.00     0.163 HD
BRANCH   3   6
ATOM      6  C   UNL A   1      30.589  26.854  23.308  1.00  0.00     0.191 A 
ATOM      7  C   UNL A   1      30.839  24.679  23.651  1.00  0.00     0.124 A 
ATOM      8  C   UNL A   1      30.218  25.179  24.773  1.00  0.00     0.048 A 
ATOM      9  O   UNL A   1      31.060  25.683  22.760  1.00  0.00    -0.454 OA
ATOM     10  C   UNL A   1      30.101  26.574  24.573  1.00  0.00     0.056 A 
BRANCH   7  11
ATOM     11  C   UNL A   1      31.319  23.321  23.259  1.00  0.00     0.190 C 
BRANCH  11  12
ATOM     12  N   UNL A   1      31.869  22.562  24.371  1.00  0.00    -0.362 N 
ATOM     13  H   UNL A   1      31.309  21.889  24.823  1.00  0.00     0.162 HD
BRANCH  12  14
ATOM     14  C   UNL A   1      33.167  22.771  24.805  1.00  0.00     0.139 A 
ATOM     15  C   UNL A   1      36.446  22.998  23.138  1.00  0.00     0.067 C 
ATOM     16  C   UNL A   1      35.427  22.999  24.236  1.00  0.00     0.040 A 
ATOM     17  C   UNL A   1      35.793  23.234  25.551  1.00  0.00     0.024 A 
ATOM     18  N   UNL A   1      34.145  22.756  23.869  1.00  0.00    -0.236 NA
ATOM     19  C   UNL A   1      34.799  23.223  26.522  1.00  0.00     0.019 A 
ATOM     20  C   UNL A   1      33.468  22.981  26.157  1.00  0.00     0.081 A 
BRANCH  20  21
ATOM     21  C   UNL A   1      32.469  22.942  27.258  1.00  0.00     0.252 C 
ATOM     22  N   UNL A   1      32.680  22.064  28.284  1.00  0.00    -0.365 N 
ATOM     23  O   UNL A   1      31.506  23.698  27.271  1.00  0.00    -0.269 OA
ATOM     24  H   UNL A   1      33.457  21.461  28.265  1.00  0.00     0.159 HD
ATOM     25  H   UNL A   1      32.054  22.037  29.044  1.00  0.00     0.159 HD
ENDBRANCH  20  21
ENDBRANCH  12  14
ENDBRANCH  11  12
ENDBRANCH   7  11
ENDBRANCH   3   6
ENDBRANCH   1   2
BRANCH   1  26
ATOM     26  C   UNL A   1      33.734  29.324  23.827  1.00  0.00     0.042 C 
BRANCH  26  27
ATOM     27  C   UNL A   1      33.068  29.151  25.193  1.00  0.00     0.118 C 
BRANCH  27  28
ATOM     28  N   UNL A   1      32.558  30.413  25.712  1.00  0.00    -0.352 N 
ATOM     29  C   UNL A   1      32.939  31.144  26.810  1.00  0.00     0.251 C 
ATOM     30  H   UNL A   1      31.819  30.805  25.193  1.00  0.00     0.163 HD
ATOM     31  O   UNL A   1      32.205  32.047  27.204  1.00  0.00    -0.269 OA
BRANCH  29  32
ATOM     32  C   UNL A   1      34.206  30.854  27.517  1.00  0.00     0.039 A 
ATOM     33  C   UNL A   1      35.150  31.876  27.654  1.00  0.00     0.014 A 
ATOM     34  C   UNL A   1      34.493  29.573  27.997  1.00  0.00     0.014 A 
ATOM     35  C   UNL A   1      36.354  31.628  28.319  1.00  0.00     0.010 A 
ATOM     36  C   UNL A   1      35.662  29.346  28.720  1.00  0.00     0.010 A 
ATOM     37  C   UNL A   1      36.607  30.370  28.887  1.00  0.00    -0.014 A 
BRANCH  37  38
ATOM     38  C   UNL A   1      37.853  30.105  29.654  1.00  0.00     0.031 A 
ATOM     39  C   UNL A   1      38.909  29.192  29.093  1.00  0.00     0.074 A 
ATOM     40  C   UNL A   1      37.998  30.634  30.885  1.00  0.00     0.049 A 
ATOM     41  N   UNL A   1      40.016  28.767  29.645  1.00  0.00    -0.248 NA
ATOM     42  C   UNL A   1      38.673  28.665  27.740  1.00  0.00     0.031 C 
ATOM     43  C   UNL A   1      37.025  31.505  31.551  1.00  0.00     0.029 A 
ATOM     44  N   UNL A   1      39.010  30.509  31.804  1.00  0.00    -0.354 N 
ATOM     45  C   UNL A   1      40.599  27.909  28.718  1.00  0.00     0.074 A 
ATOM     46  C   UNL A   1      39.693  27.834  27.592  1.00  0.00     0.031 C 
ATOM     47  C   UNL A   1      37.497  31.849  32.759  1.00  0.00     0.029 A 
ATOM     48  C   UNL A   1      38.778  31.188  32.978  1.00  0.00     0.049 A 
ATOM     49  H   UNL A   1      39.827  29.984  31.638  1.00  0.00     0.167 HD
ATOM     50  C   UNL A   1      41.788  27.259  28.794  1.00  0.00     0.034 A 
ATOM     51  C   UNL A   1      39.508  31.255  34.110  1.00  0.00     0.034 A 
ATOM     52  C   UNL A   1      42.686  27.360  29.920  1.00  0.00     0.049 A 
ATOM     53  C   UNL A   1      40.817  30.510  34.178  1.00  0.00     0.074 A 
ATOM     54  C   UNL A   1      43.942  26.799  30.074  1.00  0.00     0.029 A 
ATOM     55  N   UNL A   1      42.421  28.062  31.089  1.00  0.00    -0.354 N 
ATOM     56  N   UNL A   1      41.379  29.746  33.270  1.00  0.00    -0.248 NA
ATOM     57  C   UNL A   1      41.593  30.646  35.417  1.00  0.00     0.031 C 
ATOM     58  C   UNL A   1      44.404  27.100  31.361  1.00  0.00     0.029 A 
ATOM     59  C   UNL A   1      43.474  27.918  31.981  1.00  0.00     0.049 A 
ATOM     60  H   UNL A   1      41.604  28.585  31.261  1.00  0.00     0.167 HD
ATOM     61  C   UNL A   1      42.592  29.337  33.819  1.00  0.00     0.074 A 
ATOM     62  C   UNL A   1      42.683  29.950  35.127  1.00  0.00     0.031 C 
ATOM     63  C   UNL A   1      43.546  28.529  33.288  1.00  0.00     0.034 A 
BRANCH  50  64
ATOM     64  C   UNL A   1      42.168  26.362  27.640  1.00  0.00     0.023 A 
ATOM     65  C   UNL A   1      41.731  25.027  27.562  1.00  0.00     0.031 A 
ATOM     66  C   UNL A   1      42.999  26.839  26.610  1.00  0.00     0.131 A 
ATOM     67  C   UNL A   1      42.186  24.198  26.525  1.00  0.00     0.055 A 
ATOM     68  C   UNL A   1      43.380  26.034  25.536  1.00  0.00     0.041 A 
ATOM     69  F   UNL A   1      43.465  28.099  26.637  1.00  0.00    -0.206 F 
ATOM     70  C   UNL A   1      42.987  24.700  25.497  1.00  0.00     0.022 A 
BRANCH  67  71
ATOM     71  S   UNL A   1      41.834  22.422  26.618  1.00  0.00     0.124 S 
ATOM     72  O   UNL A   1      42.491  22.057  27.873  1.00  0.00    -0.237 OA
ATOM     73  O   UNL A   1      40.377  22.388  26.627  1.00  0.00    -0.237 OA
ATOM     74  O   UNL A   1      42.465  21.883  25.415  1.00  0.00    -0.744 OA
ENDBRANCH  67  71
ENDBRANCH  50  64
BRANCH  51  75
ATOM     75  C   UNL A   1      39.019  32.044  35.278  1.00  0.00     0.023 A 
ATOM     76  C   UNL A   1      38.453  31.410  36.394  1.00  0.00     0.031 A 
ATOM     77  C   UNL A   1      39.071  33.450  35.276  1.00  0.00     0.131 A 
ATOM     78  C   UNL A   1      37.916  32.177  37.439  1.00  0.00     0.055 A 
ATOM     79  C   UNL A   1      38.585  34.208  36.342  1.00  0.00     0.041 A 
ATOM     80  F   UNL A   1      39.607  34.108  34.237  1.00  0.00    -0.206 F 
ATOM     81  C   UNL A   1      37.990  33.572  37.427  1.00  0.00     0.022 A 
BRANCH  78  82
ATOM     82  S   UNL A   1      37.035  31.325  38.776  1.00  0.00     0.124 S 
ATOM     83  O   UNL A   1      36.919  29.973  38.242  1.00  0.00    -0.237 OA
ATOM     84  O   UNL A   1      37.950  31.497  39.899  1.00  0.00    -0.237 OA
ATOM     85  O   UNL A   1      35.779  32.065  38.880  1.00  0.00    -0.744 OA
ENDBRANCH  78  82
ENDBRANCH  51  75
BRANCH  63  86
ATOM     86  C   UNL A   1      44.791  28.308  34.112  1.00  0.00     0.023 A 
ATOM     87  C   UNL A   1      44.904  27.234  35.012  1.00  0.00     0.031 A 
ATOM     88  C   UNL A   1      45.876  29.196  34.003  1.00  0.00     0.131 A 
ATOM     89  C   UNL A   1      46.052  27.107  35.808  1.00  0.00     0.055 A 
ATOM     90  C   UNL A   1      47.041  29.029  34.752  1.00  0.00     0.041 A 
ATOM     91  F   UNL A   1      45.821  30.241  33.162  1.00  0.00    -0.206 F 
ATOM     92  C   UNL A   1      47.129  27.988  35.672  1.00  0.00     0.022 A 
BRANCH  89  93
ATOM     93  S   UNL A   1      46.083  25.829  37.095  1.00  0.00     0.124 S 
ATOM     94  O   UNL A   1      46.395  24.629  36.324  1.00  0.00    -0.237 OA
ATOM     95  O   UNL A   1      47.136  26.307  37.985  1.00  0.00    -0.237 OA
ATOM     96  O   UNL A   1      44.733  25.872  37.654  1.00  0.00    -0.744 OA
ENDBRANCH  89  93
ENDBRANCH  63  86
ENDBRANCH  37  38
ENDBRANCH  29  32
ENDBRANCH  27  28
ENDBRANCH  26  27
ENDBRANCH   1  26
TORSDOF 17
ENDMDL
MODEL 2
REMARK VINA RESULT:     -11.5      1.454      2.316
REMARK SMILES Cc1ccc(C(N)=O)c(NCc2ccc(C(=O)NCCCNC(=O)c3ccc(-c4c5nc(c(-c6cc(S(=O)(=O)[O-])ccc6F)c6ccc([nH]6)c(-c6cc(S(=O)(=O)[O-])ccc6F)c6nc(c(-c7cc(S(=O)(=O)[O-])ccc7F)c7ccc4[nH]7)C=C6)C=C5)cc3)o2)n1
REMARK SMILES IDX 19 1 18 2 16 3 17 4 15 6 12 7 13 8 88 9 14 10 11 11 10 12
REMARK SMILES IDX 9 14 1 15 2 16 3 17 89 18 4 19 5 20 6 21 7 22 8 23 20 26
REMARK SMILES IDX 21 27 22 28 23 29 24 31 25 32 26 33 87 34 27 35 86 36 28 37
REMARK SMILES IDX 29 38 30 39 80 40 31 41 85 42 79 43 81 44 32 45 84 46 78 47
REMARK SMILES IDX 77 48 33 50 65 51 45 52 64 53 46 54 49 55 63 56 82 57 47 58
REMARK SMILES IDX 48 59 62 61 83 62 50 63 34 64 35 65 43 66 36 67 42 68 44 69
REMARK SMILES IDX 41 70 37 71 38 72 39 73 40 74 66 75 67 76 75 77 68 78 74 79
REMARK SMILES IDX 76 80 73 81 69 82 70 83 71 84 72 85 51 86 52 87 60 88 53 89
REMARK SMILES IDX 59 90 61 91 58 92 54 93 55 94 56 95 57 96
REMARK H PARENT 18 5 10 13 7 24 7 25 22 30 81 49 49 60
REMARK Flexibility Score: inf
ROOT
ATOM      1  C   UNL A   1      31.910  27.801  23.718  1.00  0.00     0.118 C 
ENDROOT
BRANCH   1   2
ATOM      2  N   UNL A   1      31.195  27.477  24.936  1.00  0.00    -0.349 N 
ATOM      3  C   UNL A   1      31.496  26.603  25.956  1.00  0.00     0.286 C 
ATOM      4  O   UNL A   1      30.750  26.647  26.936  1.00  0.00    -0.266 OA
ATOM      5  H   UNL A   1      30.349  27.966  25.055  1.00  0.00     0.163 HD
BRANCH   3   6
ATOM      6  C   UNL A   1      32.636  25.708  25.872  1.00  0.00     0.191 A 
ATOM      7  C   UNL A   1      33.589  23.720  26.106  1.00  0.00     0.124 A 
ATOM      8  C   UNL A   1      34.574  24.570  25.657  1.00  0.00     0.048 A 
ATOM      9  O   UNL A   1      32.419  24.401  26.244  1.00  0.00    -0.454 OA
ATOM     10  C   UNL A   1      33.954  25.827  25.464  1.00  0.00     0.056 A 
BRANCH   7  11
ATOM     11  C   UNL A   1      33.554  22.263  26.425  1.00  0.00     0.190 C 
BRANCH  11  12
ATOM     12  N   UNL A   1      32.326  21.610  25.996  1.00  0.00    -0.362 N 
ATOM     13  H   UNL A   1      31.472  21.856  26.421  1.00  0.00     0.162 HD
BRANCH  12  14
ATOM     14  C   UNL A   1      32.339  20.648  25.001  1.00  0.00     0.139 A 
ATOM     15  C   UNL A   1      32.708  16.980  24.955  1.00  0.00     0.067 C 
ATOM     16  C   UNL A   1      32.515  18.378  24.451  1.00  0.00     0.040 A 
ATOM     17  C   UNL A   1      32.328  18.633  23.103  1.00  0.00     0.024 A 
ATOM     18  N   UNL A   1      32.537  19.363  25.381  1.00  0.00    -0.236 NA
ATOM     19  C   UNL A   1      32.153  19.950  22.700  1.00  0.00     0.019 A 
ATOM     20  C   UNL A   1      32.166  20.980  23.651  1.00  0.00     0.081 A 
BRANCH  20  21
ATOM     21  C   UNL A   1      32.015  22.367  23.138  1.00  0.00     0.252 C 
ATOM     22  N   UNL A   1      32.890  22.794  22.179  1.00  0.00    -0.365 N 
ATOM     23  O   UNL A   1      31.113  23.096  23.530  1.00  0.00    -0.269 OA
ATOM     24  H   UNL A   1      33.611  22.200  21.870  1.00  0.00     0.159 HD
ATOM     25  H   UNL A   1      32.796  23.697  21.795  1.00  0.00     0.159 HD
ENDBRANCH  20  21
ENDBRANCH  12  14
ENDBRANCH  11  12
ENDBRANCH   7  11
ENDBRANCH   3   6
ENDBRANCH   1   2
BRANCH   1  26
ATOM     26  C   UNL A   1      32.743  29.071  23.868  1.00  0.00     0.042 C 
BRANCH  26  27
ATOM     27  C   UNL A   1      33.197  29.329  25.305  1.00  0.00     0.118 C 
BRANCH  27  28
ATOM     28  N   UNL A   1      32.745  30.626  25.792  1.00  0.00    -0.352 N 
ATOM     29  C   UNL A   1      33.138  31.352  26.890  1.00  0.00     0.251 C 
ATOM     30  H   UNL A   1      32.044  31.050  25.246  1.00  0.00     0.163 HD
ATOM     31  O   UNL A   1      32.446  32.301  27.249  1.00  0.00    -0.269 OA
BRANCH  29  32
ATOM     32  C   UNL A   1      34.366  31.002  27.636  1.00  0.00     0.039 A 
ATOM     33  C   UNL A   1      35.317  31.999  27.873  1.00  0.00     0.014 A 
ATOM     34  C   UNL A   1      34.612  29.692  28.056  1.00  0.00     0.014 A 
ATOM     35  C   UNL A   1      36.485  31.695  28.577  1.00  0.00     0.010 A 
ATOM     36  C   UNL A   1      35.744  29.406  28.818  1.00  0.00     0.010 A 
ATOM     37  C   UNL A   1      36.694  30.403  29.084  1.00  0.00    -0.014 A 
BRANCH  37  38
ATOM     38  C   UNL A   1      37.900  30.075  29.891  1.00  0.00     0.031 A 
ATOM     39  C   UNL A   1      38.948  29.145  29.344  1.00  0.00     0.074 A 
ATOM     40  C   UNL A   1      38.012  30.563  31.142  1.00  0.00     0.049 A 
ATOM     41  N   UNL A   1      40.018  28.668  29.926  1.00  0.00    -0.248 NA
ATOM     42  C   UNL A   1      38.749  28.665  27.968  1.00  0.00     0.031 C 
ATOM     43  C   UNL A   1      37.042  31.446  31.795  1.00  0.00     0.029 A 
ATOM     44  N   UNL A   1      38.983  30.379  32.096  1.00  0.00    -0.354 N 
ATOM     45  C   UNL A   1      40.610  27.818  28.997  1.00  0.00     0.074 A 
ATOM     46  C   UNL A   1      39.748  27.806  27.834  1.00  0.00     0.031 C 
ATOM     47  C   UNL A   1      37.475  31.740  33.031  1.00  0.00     0.029 A 
ATOM     48  C   UNL A   1      38.725  31.031  33.280  1.00  0.00     0.049 A 
ATOM     49  H   UNL A   1      39.788  29.832  31.945  1.00  0.00     0.167 HD
ATOM     50  C   UNL A   1      41.774  27.128  29.099  1.00  0.00     0.034 A 
ATOM     51  C   UNL A   1      39.411  31.042  34.441  1.00  0.00     0.034 A 
ATOM     52  C   UNL A   1      42.629  27.167  30.262  1.00  0.00     0.049 A 
ATOM     53  C   UNL A   1      40.692  30.253  34.537  1.00  0.00     0.074 A 
ATOM     54  C   UNL A   1      43.859  26.561  30.449  1.00  0.00     0.029 A 
ATOM     55  N   UNL A   1      42.340  27.843  31.441  1.00  0.00    -0.354 N 
ATOM     56  N   UNL A   1      41.266  29.497  33.629  1.00  0.00    -0.248 NA
ATOM     57  C   UNL A   1      41.422  30.327  35.809  1.00  0.00     0.031 C 
ATOM     58  C   UNL A   1      44.279  26.810  31.760  1.00  0.00     0.029 A 
ATOM     59  C   UNL A   1      43.351  27.639  32.368  1.00  0.00     0.049 A 
ATOM     60  H   UNL A   1      41.534  28.387  31.596  1.00  0.00     0.167 HD
ATOM     61  C   UNL A   1      42.442  29.032  34.213  1.00  0.00     0.074 A 
ATOM     62  C   UNL A   1      42.500  29.605  35.541  1.00  0.00     0.031 C 
ATOM     63  C   UNL A   1      43.390  28.210  33.695  1.00  0.00     0.034 A 
BRANCH  50  64
ATOM     64  C   UNL A   1      42.171  26.252  27.934  1.00  0.00     0.023 A 
ATOM     65  C   UNL A   1      41.692  24.937  27.797  1.00  0.00     0.031 A 
ATOM     66  C   UNL A   1      43.061  26.730  26.955  1.00  0.00     0.131 A 
ATOM     67  C   UNL A   1      42.161  24.124  26.755  1.00  0.00     0.055 A 
ATOM     68  C   UNL A   1      43.459  25.943  25.873  1.00  0.00     0.041 A 
ATOM     69  F   UNL A   1      43.569  27.970  27.041  1.00  0.00    -0.206 F 
ATOM     70  C   UNL A   1      43.022  24.627  25.776  1.00  0.00     0.022 A 
BRANCH  67  71
ATOM     71  S   UNL A   1      41.745  22.359  26.778  1.00  0.00     0.124 S 
ATOM     72  O   UNL A   1      40.325  22.396  27.126  1.00  0.00    -0.237 OA
ATOM     73  O   UNL A   1      42.057  21.943  25.415  1.00  0.00    -0.237 OA
ATOM     74  O   UNL A   1      42.618  21.813  27.814  1.00  0.00    -0.744 OA
ENDBRANCH  67  71
ENDBRANCH  50  64
BRANCH  51  75
ATOM     75  C   UNL A   1      38.901  31.812  35.612  1.00  0.00     0.023 A 
ATOM     76  C   UNL A   1      38.294  31.162  36.697  1.00  0.00     0.031 A 
ATOM     77  C   UNL A   1      38.974  33.217  35.643  1.00  0.00     0.131 A 
ATOM     78  C   UNL A   1      37.739  31.915  37.744  1.00  0.00     0.055 A 
ATOM     79  C   UNL A   1      38.470  33.958  36.712  1.00  0.00     0.041 A 
ATOM     80  F   UNL A   1      39.550  33.890  34.634  1.00  0.00    -0.206 F 
ATOM     81  C   UNL A   1      37.835  33.308  37.765  1.00  0.00     0.022 A 
BRANCH  78  82
ATOM     82  S   UNL A   1      36.807  31.048  39.036  1.00  0.00     0.124 S 
ATOM     83  O   UNL A   1      35.561  31.805  39.062  1.00  0.00    -0.237 OA
ATOM     84  O   UNL A   1      36.726  29.696  38.494  1.00  0.00    -0.237 OA
ATOM     85  O   UNL A   1      37.652  31.194  40.219  1.00  0.00    -0.744 OA
ENDBRANCH  78  82
ENDBRANCH  51  75
BRANCH  63  86
ATOM     86  C   UNL A   1      44.594  27.924  34.560  1.00  0.00     0.023 A 
ATOM     87  C   UNL A   1      44.638  26.820  35.429  1.00  0.00     0.031 A 
ATOM     88  C   UNL A   1      45.709  28.780  34.522  1.00  0.00     0.131 A 
ATOM     89  C   UNL A   1      45.748  26.632  36.265  1.00  0.00     0.055 A 
ATOM     90  C   UNL A   1      46.837  28.553  35.311  1.00  0.00     0.041 A 
ATOM     91  F   UNL A   1      45.720  29.852  33.712  1.00  0.00    -0.206 F 
ATOM     92  C   UNL A   1      46.856  27.482  36.199  1.00  0.00     0.022 A 
BRANCH  89  93
ATOM     93  S   UNL A   1      45.688  25.316  37.511  1.00  0.00     0.124 S 
ATOM     94  O   UNL A   1      46.876  25.599  38.310  1.00  0.00    -0.237 OA
ATOM     95  O   UNL A   1      44.407  25.561  38.163  1.00  0.00    -0.237 OA
ATOM     96  O   UNL A   1      45.754  24.089  36.717  1.00  0.00    -0.744 OA
ENDBRANCH  89  93
ENDBRANCH  63  86
ENDBRANCH  37  38
ENDBRANCH  29  32
ENDBRANCH  27  28
ENDBRANCH  26  27
ENDBRANCH   1  26
TORSDOF 17
ENDMDL
MODEL 3
REMARK VINA RESULT:     -11.5      4.981      7.549
REMARK SMILES Cc1ccc(C(N)=O)c(NCc2ccc(C(=O)NCCCNC(=O)c3ccc(-c4c5nc(c(-c6cc(S(=O)(=O)[O-])ccc6F)c6ccc([nH]6)c(-c6cc(S(=O)(=O)[O-])ccc6F)c6nc(c(-c7cc(S(=O)(=O)[O-])ccc7F)c7ccc4[nH]7)C=C6)C=C5)cc3)o2)n1
REMARK SMILES IDX 19 1 18 2 16 3 17 4 15 6 12 7 13 8 88 9 14 10 11 11 10 12
REMARK SMILES IDX 9 14 1 15 2 16 3 17 89 18 4 19 5 20 6 21 7 22 8 23 20 26
REMARK SMILES IDX 21 27 22 28 23 29 24 31 25 32 26 33 87 34 27 35 86 36 28 37
REMARK SMILES IDX 29 38 30 39 80 40 31 41 85 42 79 43 81 44 32 45 84 46 78 47
REMARK SMILES IDX 77 48 33 50 65 51 45 52 64 53 46 54 49 55 63 56 82 57 47 58
REMARK SMILES IDX 48 59 62 61 83 62 50 63 34 64 35 65 43 66 36 67 42 68 44 69
REMARK SMILES IDX 41 70 37 71 38 72 39 73 40 74 66 75 67 76 75 77 68 78 74 79
REMARK SMILES IDX 76 80 73 81 69 82 70 83 71 84 72 85 51 86 52 87 60 88 53 89
REMARK SMILES IDX 59 90 61 91 58 92 54 93 55 94 56 95 57 96
REMARK H PARENT 18 5 10 13 7 24 7 25 22 30 81 49 49 60
REMARK Flexibility Score: inf
ROOT
ATOM      1  C   UNL A   1      34.519  22.459  24.002  1.00  0.00     0.118 C 
ENDROOT
BRANCH   1   2
ATOM      2  N   UNL A   1      33.669  21.340  24.353  1.00  0.00    -0.349 N 
ATOM      3  C   UNL A   1      32.415  21.300  24.919  1.00  0.00     0.286 C 
ATOM      4  O   UNL A   1      31.887  20.187  24.973  1.00  0.00    -0.266 OA
ATOM      5  H   UNL A   1      34.055  20.456  24.155  1.00  0.00     0.163 HD
BRANCH   3   6
ATOM      6  C   UNL A   1      31.762  22.506  25.396  1.00  0.00     0.191 A 
ATOM      7  C   UNL A   1      30.705  24.426  25.063  1.00  0.00     0.124 A 
ATOM      8  C   UNL A   1      30.826  24.282  26.427  1.00  0.00     0.048 A 
ATOM      9  O   UNL A   1      31.274  23.361  24.435  1.00  0.00    -0.454 OA
ATOM     10  C   UNL A   1      31.458  23.035  26.639  1.00  0.00     0.056 A 
BRANCH   7  11
ATOM     11  C   UNL A   1      30.077  25.459  24.188  1.00  0.00     0.190 C 
BRANCH  11  12
ATOM     12  N   UNL A   1      31.020  26.455  23.707  1.00  0.00    -0.362 N 
ATOM     13  H   UNL A   1      31.528  26.283  22.880  1.00  0.00     0.162 HD
BRANCH  12  14
ATOM     14  C   UNL A   1      31.218  27.642  24.392  1.00  0.00     0.139 A 
ATOM     15  C   UNL A   1      32.507  28.514  27.734  1.00  0.00     0.067 C 
ATOM     16  C   UNL A   1      31.948  28.691  26.354  1.00  0.00     0.040 A 
ATOM     17  C   UNL A   1      31.705  29.952  25.838  1.00  0.00     0.024 A 
ATOM     18  N   UNL A   1      31.696  27.557  25.656  1.00  0.00    -0.236 NA
ATOM     19  C   UNL A   1      31.187  30.048  24.552  1.00  0.00     0.019 A 
ATOM     20  C   UNL A   1      30.928  28.885  23.815  1.00  0.00     0.081 A 
BRANCH  20  21
ATOM     21  C   UNL A   1      30.335  29.068  22.464  1.00  0.00     0.252 C 
ATOM     22  N   UNL A   1      30.774  30.117  21.707  1.00  0.00    -0.365 N 
ATOM     23  O   UNL A   1      29.506  28.281  22.021  1.00  0.00    -0.269 OA
ATOM     24  H   UNL A   1      31.440  30.743  22.072  1.00  0.00     0.159 HD
ATOM     25  H   UNL A   1      30.423  30.246  20.795  1.00  0.00     0.159 HD
ENDBRANCH  20  21
ENDBRANCH  12  14
ENDBRANCH  11  12
ENDBRANCH   7  11
ENDBRANCH   3   6
ENDBRANCH   1   2
BRANCH   1  26
ATOM     26  C   UNL A   1      35.995  22.146  24.231  1.00  0.00     0.042 C 
BRANCH  26  27
ATOM     27  C   UNL A   1      36.345  21.931  25.704  1.00  0.00     0.118 C 
BRANCH  27  28
ATOM     28  N   UNL A   1      37.400  20.940  25.872  1.00  0.00    -0.352 N 
ATOM     29  C   UNL A   1      38.751  21.100  26.062  1.00  0.00     0.251 C 
ATOM     30  H   UNL A   1      37.096  20.004  25.844  1.00  0.00     0.163 HD
ATOM     31  O   UNL A   1      39.487  20.126  25.925  1.00  0.00    -0.269 OA
BRANCH  29  32
ATOM     32  C   UNL A   1      39.320  22.418  26.418  1.00  0.00     0.039 A 
ATOM     33  C   UNL A   1      40.376  22.470  27.333  1.00  0.00     0.014 A 
ATOM     34  C   UNL A   1      38.789  23.602  25.901  1.00  0.00     0.014 A 
ATOM     35  C   UNL A   1      40.933  23.702  27.685  1.00  0.00     0.010 A 
ATOM     36  C   UNL A   1      39.390  24.824  26.199  1.00  0.00     0.010 A 
ATOM     37  C   UNL A   1      40.466  24.888  27.096  1.00  0.00    -0.014 A 
BRANCH  37  38
ATOM     38  C   UNL A   1      41.088  26.202  27.408  1.00  0.00     0.031 A 
ATOM     39  C   UNL A   1      42.485  26.509  26.942  1.00  0.00     0.074 A 
ATOM     40  C   UNL A   1      40.417  27.089  28.171  1.00  0.00     0.049 A 
ATOM     41  N   UNL A   1      43.231  27.556  27.189  1.00  0.00    -0.248 NA
ATOM     42  C   UNL A   1      43.140  25.489  26.109  1.00  0.00     0.031 C 
ATOM     43  C   UNL A   1      39.071  26.888  28.713  1.00  0.00     0.029 A 
ATOM     44  N   UNL A   1      40.777  28.330  28.635  1.00  0.00    -0.354 N 
ATOM     45  C   UNL A   1      44.448  27.313  26.560  1.00  0.00     0.074 A 
ATOM     46  C   UNL A   1      44.356  25.996  25.968  1.00  0.00     0.031 C 
ATOM     47  C   UNL A   1      38.713  27.974  29.417  1.00  0.00     0.029 A 
ATOM     48  C   UNL A   1      39.818  28.926  29.421  1.00  0.00     0.049 A 
ATOM     49  H   UNL A   1      41.641  28.754  28.424  1.00  0.00     0.167 HD
ATOM     50  C   UNL A   1      45.533  28.122  26.472  1.00  0.00     0.034 A 
ATOM     51  C   UNL A   1      39.834  30.100  30.084  1.00  0.00     0.034 A 
ATOM     52  C   UNL A   1      45.599  29.442  27.057  1.00  0.00     0.049 A 
ATOM     53  C   UNL A   1      41.058  30.974  29.985  1.00  0.00     0.074 A 
ATOM     54  C   UNL A   1      46.621  30.371  26.974  1.00  0.00     0.029 A 
ATOM     55  N   UNL A   1      44.606  30.015  27.841  1.00  0.00    -0.354 N 
ATOM     56  N   UNL A   1      42.181  30.753  29.341  1.00  0.00    -0.248 NA
ATOM     57  C   UNL A   1      41.013  32.260  30.694  1.00  0.00     0.031 C 
ATOM     58  C   UNL A   1      46.278  31.474  27.764  1.00  0.00     0.029 A 
ATOM     59  C   UNL A   1      45.007  31.270  28.276  1.00  0.00     0.049 A 
ATOM     60  H   UNL A   1      43.743  29.592  28.058  1.00  0.00     0.167 HD
ATOM     61  C   UNL A   1      42.962  31.889  29.542  1.00  0.00     0.074 A 
ATOM     62  C   UNL A   1      42.176  32.794  30.353  1.00  0.00     0.031 C 
ATOM     63  C   UNL A   1      44.215  32.159  29.093  1.00  0.00     0.034 A 
BRANCH  50  64
ATOM     64  C   UNL A   1      46.744  27.591  25.741  1.00  0.00     0.023 A 
ATOM     65  C   UNL A   1      47.039  27.972  24.420  1.00  0.00     0.031 A 
ATOM     66  C   UNL A   1      47.606  26.672  26.366  1.00  0.00     0.131 A 
ATOM     67  C   UNL A   1      48.116  27.381  23.742  1.00  0.00     0.055 A 
ATOM     68  C   UNL A   1      48.726  26.152  25.715  1.00  0.00     0.041 A 
ATOM     69  F   UNL A   1      47.368  26.255  27.620  1.00  0.00    -0.206 F 
ATOM     70  C   UNL A   1      48.978  26.493  24.390  1.00  0.00     0.022 A 
BRANCH  67  71
ATOM     71  S   UNL A   1      48.290  27.679  21.962  1.00  0.00     0.124 S 
ATOM     72  O   UNL A   1      49.428  28.597  21.927  1.00  0.00    -0.237 OA
ATOM     73  O   UNL A   1      48.533  26.340  21.440  1.00  0.00    -0.237 OA
ATOM     74  O   UNL A   1      47.009  28.274  21.587  1.00  0.00    -0.744 OA
ENDBRANCH  67  71
ENDBRANCH  50  64
BRANCH  51  75
ATOM     75  C   UNL A   1      38.664  30.517  30.910  1.00  0.00     0.023 A 
ATOM     76  C   UNL A   1      37.577  31.194  30.335  1.00  0.00     0.031 A 
ATOM     77  C   UNL A   1      38.637  30.285  32.297  1.00  0.00     0.131 A 
ATOM     78  C   UNL A   1      36.532  31.658  31.148  1.00  0.00     0.055 A 
ATOM     79  C   UNL A   1      37.568  30.700  33.093  1.00  0.00     0.041 A 
ATOM     80  F   UNL A   1      39.647  29.637  32.897  1.00  0.00    -0.206 F 
ATOM     81  C   UNL A   1      36.514  31.405  32.521  1.00  0.00     0.022 A 
BRANCH  78  82
ATOM     82  S   UNL A   1      35.237  32.682  30.396  1.00  0.00     0.124 S 
ATOM     83  O   UNL A   1      34.334  32.892  31.521  1.00  0.00    -0.237 OA
ATOM     84  O   UNL A   1      35.994  33.847  29.952  1.00  0.00    -0.237 OA
ATOM     85  O   UNL A   1      34.715  31.835  29.325  1.00  0.00    -0.744 OA
ENDBRANCH  78  82
ENDBRANCH  51  75
BRANCH  63  86
ATOM     86  C   UNL A   1      44.786  33.514  29.435  1.00  0.00     0.023 A 
ATOM     87  C   UNL A   1      44.614  34.626  28.594  1.00  0.00     0.031 A 
ATOM     88  C   UNL A   1      45.527  33.688  30.618  1.00  0.00     0.131 A 
ATOM     89  C   UNL A   1      45.222  35.848  28.918  1.00  0.00     0.055 A 
ATOM     90  C   UNL A   1      46.077  34.922  30.966  1.00  0.00     0.041 A 
ATOM     91  F   UNL A   1      45.725  32.658  31.458  1.00  0.00    -0.206 F 
ATOM     92  C   UNL A   1      45.938  36.008  30.107  1.00  0.00     0.022 A 
BRANCH  89  93
ATOM     93  S   UNL A   1      45.145  37.205  27.716  1.00  0.00     0.124 S 
ATOM     94  O   UNL A   1      45.592  38.343  28.514  1.00  0.00    -0.237 OA
ATOM     95  O   UNL A   1      46.065  36.754  26.677  1.00  0.00    -0.237 OA
ATOM     96  O   UNL A   1      43.737  37.238  27.325  1.00  0.00    -0.744 OA
ENDBRANCH  89  93
ENDBRANCH  63  86
ENDBRANCH  37  38
ENDBRANCH  29  32
ENDBRANCH  27  28
ENDBRANCH  26  27
ENDBRANCH   1  26
TORSDOF 17
ENDMDL
