MODEL 1
REMARK VINA RESULT:     -12.6      0.000      0.000
REMARK SMILES Cc1cc(S(=O)(=O)N2CC(CC(=O)NCCCNC(=O)c3ccc(-c4c5nc(c(-c6cc(S(=O)(=O)[O-])ccc6F)c6ccc([nH]6)c(-c6cc(S(=O)(=O)[O-])ccc6F)c6nc(c(-c7cc(S(=O)(=O)[O-])ccc7F)c7ccc4[nH]7)C=C6)C=C5)cc3)C2)sc1Br
REMARK SMILES IDX 16 1 15 2 14 3 12 4 13 5 11 7 10 8 8 9 9 10 84 11 5 12 6 13
REMARK SMILES IDX 7 14 4 15 1 16 2 17 3 18 86 19 85 20 87 21 17 22 18 23 19 24
REMARK SMILES IDX 20 26 21 27 22 28 83 29 23 30 82 31 24 32 25 33 26 34 76 35
REMARK SMILES IDX 27 36 81 37 75 38 77 39 28 40 80 41 74 42 73 43 29 45 61 46
REMARK SMILES IDX 41 47 60 48 42 49 45 50 59 51 78 52 43 53 44 54 58 56 79 57
REMARK SMILES IDX 46 58 30 59 31 60 39 61 32 62 38 63 40 64 37 65 33 66 34 67
REMARK SMILES IDX 35 68 36 69 62 70 63 71 71 72 64 73 70 74 72 75 69 76 65 77
REMARK SMILES IDX 66 78 67 79 68 80 47 81 48 82 56 83 49 84 55 85 57 86 54 87
REMARK SMILES IDX 50 88 51 89 52 90 53 91
REMARK H PARENT 14 6 18 25 77 44 45 55
REMARK Flexibility Score: inf
ROOT
ATOM      1  C   UNL A   1      33.796  29.443  27.023  1.00  0.00     0.042 C 
ENDROOT
BRANCH   1   2
ATOM      2  C   UNL A   1      33.705  29.128  25.525  1.00  0.00     0.117 C 
BRANCH   2   3
ATOM      3  N   UNL A   1      32.466  29.613  24.928  1.00  0.00    -0.356 N 
ATOM      4  C   UNL A   1      31.436  28.952  24.329  1.00  0.00     0.220 C 
ATOM      5  O   UNL A   1      30.511  29.606  23.848  1.00  0.00    -0.275 OA
ATOM      6  H   UNL A   1      32.354  30.591  24.965  1.00  0.00     0.163 HD
BRANCH   4   7
ATOM      7  C   UNL A   1      31.421  27.442  24.250  1.00  0.00     0.106 C 
BRANCH   7   8
ATOM      8  C   UNL A   1      30.789  26.758  25.457  1.00  0.00     0.029 C 
ATOM      9  N   UNL A   1      31.121  24.845  26.403  1.00  0.00    -0.196 NA
ATOM     10  C   UNL A   1      31.753  26.181  26.528  1.00  0.00     0.108 C 
ATOM     11  C   UNL A   1      30.332  25.309  25.247  1.00  0.00     0.108 C 
BRANCH   9  12
ATOM     12  S   UNL A   1      31.820  23.314  26.520  1.00  0.00     0.252 S 
ATOM     13  O   UNL A   1      31.162  22.460  25.541  1.00  0.00    -0.206 OA
ATOM     14  O   UNL A   1      31.914  22.967  27.912  1.00  0.00    -0.206 OA
BRANCH  12  15
ATOM     15  C   UNL A   1      33.506  23.412  25.944  1.00  0.00     0.136 A 
ATOM     16  C   UNL A   1      37.249  23.745  26.191  1.00  0.00     0.046 C 
ATOM     17  C   UNL A   1      35.849  23.558  25.703  1.00  0.00    -0.025 A 
ATOM     18  C   UNL A   1      34.704  23.735  26.551  1.00  0.00     0.038 A 
ATOM     19  C   UNL A   1      35.431  23.198  24.439  1.00  0.00     0.074 A 
ATOM     20  S   UNL A   1      33.749  23.033  24.293  1.00  0.00    -0.115 S 
ATOM     21  Br  UNL A   1      36.573  22.892  22.978  1.00  0.00    -0.039 Br
ENDBRANCH  12  15
ENDBRANCH   9  12
ENDBRANCH   7   8
ENDBRANCH   4   7
ENDBRANCH   2   3
ENDBRANCH   1   2
BRANCH   1  22
ATOM     22  C   UNL A   1      35.194  29.346  27.584  1.00  0.00     0.118 C 
BRANCH  22  23
ATOM     23  N   UNL A   1      35.369  30.035  28.857  1.00  0.00    -0.352 N 
ATOM     24  C   UNL A   1      36.414  29.859  29.752  1.00  0.00     0.251 C 
ATOM     25  H   UNL A   1      34.676  30.689  29.107  1.00  0.00     0.163 HD
ATOM     26  O   UNL A   1      36.296  30.211  30.920  1.00  0.00    -0.269 OA
BRANCH  24  27
ATOM     27  C   UNL A   1      37.651  29.213  29.265  1.00  0.00     0.039 A 
ATOM     28  C   UNL A   1      38.311  29.645  28.113  1.00  0.00     0.014 A 
ATOM     29  C   UNL A   1      38.193  28.201  30.047  1.00  0.00     0.014 A 
ATOM     30  C   UNL A   1      39.565  29.106  27.815  1.00  0.00     0.010 A 
ATOM     31  C   UNL A   1      39.501  27.841  29.878  1.00  0.00     0.010 A 
ATOM     32  C   UNL A   1      40.167  28.219  28.720  1.00  0.00    -0.014 A 
BRANCH  32  33
ATOM     33  C   UNL A   1      41.534  27.732  28.539  1.00  0.00     0.031 A 
ATOM     34  C   UNL A   1      41.656  26.473  27.761  1.00  0.00     0.074 A 
ATOM     35  C   UNL A   1      42.619  28.486  28.832  1.00  0.00     0.049 A 
ATOM     36  N   UNL A   1      42.047  25.322  28.193  1.00  0.00    -0.248 NA
ATOM     37  C   UNL A   1      41.147  26.441  26.381  1.00  0.00     0.031 C 
ATOM     38  C   UNL A   1      42.654  29.863  29.342  1.00  0.00     0.029 A 
ATOM     39  N   UNL A   1      43.935  28.229  28.599  1.00  0.00    -0.354 N 
ATOM     40  C   UNL A   1      42.079  24.483  27.084  1.00  0.00     0.074 A 
ATOM     41  C   UNL A   1      41.311  25.153  26.070  1.00  0.00     0.031 C 
ATOM     42  C   UNL A   1      43.875  30.397  29.130  1.00  0.00     0.029 A 
ATOM     43  C   UNL A   1      44.758  29.354  28.643  1.00  0.00     0.049 A 
ATOM     44  H   UNL A   1      44.278  27.325  28.415  1.00  0.00     0.167 HD
ATOM     45  C   UNL A   1      42.946  23.431  27.026  1.00  0.00     0.034 A 
ATOM     46  C   UNL A   1      46.067  29.441  28.287  1.00  0.00     0.034 A 
ATOM     47  C   UNL A   1      43.503  23.157  28.336  1.00  0.00     0.049 A 
ATOM     48  C   UNL A   1      46.616  28.064  28.373  1.00  0.00     0.074 A 
ATOM     49  C   UNL A   1      42.960  22.863  29.573  1.00  0.00     0.029 A 
ATOM     50  N   UNL A   1      44.794  23.570  28.593  1.00  0.00    -0.354 N 
ATOM     51  N   UNL A   1      46.709  27.407  29.498  1.00  0.00    -0.248 NA
ATOM     52  C   UNL A   1      46.581  27.233  27.179  1.00  0.00     0.031 C 
ATOM     53  C   UNL A   1      43.743  23.611  30.501  1.00  0.00     0.029 A 
ATOM     54  C   UNL A   1      44.779  24.230  29.799  1.00  0.00     0.049 A 
ATOM     55  H   UNL A   1      45.580  23.421  28.021  1.00  0.00     0.167 HD
ATOM     56  C   UNL A   1      46.282  26.123  29.199  1.00  0.00     0.074 A 
ATOM     57  C   UNL A   1      46.332  26.043  27.739  1.00  0.00     0.031 C 
ATOM     58  C   UNL A   1      45.647  25.348  30.129  1.00  0.00     0.034 A 
BRANCH  45  59
ATOM     59  C   UNL A   1      43.583  22.883  25.764  1.00  0.00     0.023 A 
ATOM     60  C   UNL A   1      43.668  21.480  25.653  1.00  0.00     0.031 A 
ATOM     61  C   UNL A   1      44.348  23.614  24.829  1.00  0.00     0.131 A 
ATOM     62  C   UNL A   1      44.569  20.876  24.761  1.00  0.00     0.055 A 
ATOM     63  C   UNL A   1      45.189  23.004  23.891  1.00  0.00     0.041 A 
ATOM     64  F   UNL A   1      44.405  24.949  24.818  1.00  0.00    -0.206 F 
ATOM     65  C   UNL A   1      45.334  21.629  23.878  1.00  0.00     0.022 A 
BRANCH  62  66
ATOM     66  S   UNL A   1      44.867  19.097  24.925  1.00  0.00     0.124 S 
ATOM     67  O   UNL A   1      46.118  19.080  25.677  1.00  0.00    -0.237 OA
ATOM     68  O   UNL A   1      43.676  18.660  25.644  1.00  0.00    -0.237 OA
ATOM     69  O   UNL A   1      44.965  18.641  23.541  1.00  0.00    -0.744 OA
ENDBRANCH  62  66
ENDBRANCH  45  59
BRANCH  46  70
ATOM     70  C   UNL A   1      46.765  30.594  27.650  1.00  0.00     0.023 A 
ATOM     71  C   UNL A   1      46.087  31.623  26.961  1.00  0.00     0.031 A 
ATOM     72  C   UNL A   1      48.137  30.816  27.918  1.00  0.00     0.131 A 
ATOM     73  C   UNL A   1      46.776  32.799  26.573  1.00  0.00     0.055 A 
ATOM     74  C   UNL A   1      48.812  31.973  27.527  1.00  0.00     0.041 A 
ATOM     75  F   UNL A   1      48.852  29.945  28.647  1.00  0.00    -0.206 F 
ATOM     76  C   UNL A   1      48.131  32.977  26.860  1.00  0.00     0.022 A 
BRANCH  73  77
ATOM     77  S   UNL A   1      45.888  34.176  25.771  1.00  0.00     0.124 S 
ATOM     78  O   UNL A   1      46.924  34.771  24.936  1.00  0.00    -0.237 OA
ATOM     79  O   UNL A   1      44.806  33.489  25.073  1.00  0.00    -0.237 OA
ATOM     80  O   UNL A   1      45.455  35.005  26.897  1.00  0.00    -0.744 OA
ENDBRANCH  73  77
ENDBRANCH  46  70
BRANCH  58  81
ATOM     81  C   UNL A   1      45.654  25.799  31.580  1.00  0.00     0.023 A 
ATOM     82  C   UNL A   1      44.511  26.209  32.306  1.00  0.00     0.031 A 
ATOM     83  C   UNL A   1      46.861  25.673  32.292  1.00  0.00     0.131 A 
ATOM     84  C   UNL A   1      44.608  26.485  33.685  1.00  0.00     0.055 A 
ATOM     85  C   UNL A   1      46.948  25.923  33.660  1.00  0.00     0.041 A 
ATOM     86  F   UNL A   1      47.978  25.260  31.670  1.00  0.00    -0.206 F 
ATOM     87  C   UNL A   1      45.823  26.337  34.362  1.00  0.00     0.022 A 
BRANCH  84  88
ATOM     88  S   UNL A   1      43.156  27.060  34.626  1.00  0.00     0.124 S 
ATOM     89  O   UNL A   1      43.727  27.954  35.627  1.00  0.00    -0.237 OA
ATOM     90  O   UNL A   1      42.340  27.696  33.594  1.00  0.00    -0.237 OA
ATOM     91  O   UNL A   1      42.590  25.824  35.169  1.00  0.00    -0.744 OA
ENDBRANCH  84  88
ENDBRANCH  58  81
ENDBRANCH  32  33
ENDBRANCH  24  27
ENDBRANCH  22  23
ENDBRANCH   1  22
TORSDOF 16
ENDMDL
MODEL 2
REMARK VINA RESULT:     -12.6      1.423      1.728
REMARK SMILES Cc1cc(S(=O)(=O)N2CC(CC(=O)NCCCNC(=O)c3ccc(-c4c5nc(c(-c6cc(S(=O)(=O)[O-])ccc6F)c6ccc([nH]6)c(-c6cc(S(=O)(=O)[O-])ccc6F)c6nc(c(-c7cc(S(=O)(=O)[O-])ccc7F)c7ccc4[nH]7)C=C6)C=C5)cc3)C2)sc1Br
REMARK SMILES IDX 16 1 15 2 14 3 12 4 13 5 11 7 10 8 8 9 9 10 84 11 5 12 6 13
REMARK SMILES IDX 7 14 4 15 1 16 2 17 3 18 86 19 85 20 87 21 17 22 18 23 19 24
REMARK SMILES IDX 20 26 21 27 22 28 83 29 23 30 82 31 24 32 25 33 26 34 76 35
REMARK SMILES IDX 27 36 81 37 75 38 77 39 28 40 80 41 74 42 73 43 29 45 61 46
REMARK SMILES IDX 41 47 60 48 42 49 45 50 59 51 78 52 43 53 44 54 58 56 79 57
REMARK SMILES IDX 46 58 30 59 31 60 39 61 32 62 38 63 40 64 37 65 33 66 34 67
REMARK SMILES IDX 35 68 36 69 62 70 63 71 71 72 64 73 70 74 72 75 69 76 65 77
REMARK SMILES IDX 66 78 67 79 68 80 47 81 48 82 56 83 49 84 55 85 57 86 54 87
REMARK SMILES IDX 50 88 51 89 52 90 53 91
REMARK H PARENT 14 6 18 25 77 44 45 55
REMARK Flexibility Score: inf
ROOT
ATOM      1  C   UNL A   1      34.002  29.058  27.148  1.00  0.00     0.042 C 
ENDROOT
BRANCH   1   2
ATOM      2  C   UNL A   1      33.135  30.081  26.405  1.00  0.00     0.117 C 
BRANCH   2   3
ATOM      3  N   UNL A   1      33.084  29.830  24.969  1.00  0.00    -0.356 N 
ATOM      4  C   UNL A   1      32.287  29.013  24.226  1.00  0.00     0.220 C 
ATOM      5  O   UNL A   1      32.481  28.936  23.013  1.00  0.00    -0.275 OA
ATOM      6  H   UNL A   1      33.743  30.341  24.445  1.00  0.00     0.163 HD
BRANCH   4   7
ATOM      7  C   UNL A   1      31.179  28.209  24.871  1.00  0.00     0.106 C 
BRANCH   7   8
ATOM      8  C   UNL A   1      30.919  26.861  24.210  1.00  0.00     0.029 C 
ATOM      9  N   UNL A   1      31.082  24.824  24.912  1.00  0.00    -0.196 NA
ATOM     10  C   UNL A   1      30.020  25.857  24.981  1.00  0.00     0.108 C 
ATOM     11  C   UNL A   1      32.028  25.812  24.361  1.00  0.00     0.108 C 
BRANCH   9  12
ATOM     12  S   UNL A   1      31.499  23.638  26.037  1.00  0.00     0.252 S 
ATOM     13  O   UNL A   1      30.809  22.415  25.653  1.00  0.00    -0.206 OA
ATOM     14  O   UNL A   1      31.393  24.209  27.352  1.00  0.00    -0.206 OA
BRANCH  12  15
ATOM     15  C   UNL A   1      33.227  23.243  25.833  1.00  0.00     0.136 A 
ATOM     16  C   UNL A   1      36.954  23.702  26.118  1.00  0.00     0.046 C 
ATOM     17  C   UNL A   1      35.585  23.165  25.849  1.00  0.00    -0.025 A 
ATOM     18  C   UNL A   1      34.398  23.949  26.032  1.00  0.00     0.038 A 
ATOM     19  C   UNL A   1      35.239  21.904  25.411  1.00  0.00     0.074 A 
ATOM     20  S   UNL A   1      33.564  21.660  25.278  1.00  0.00    -0.115 S 
ATOM     21  Br  UNL A   1      36.460  20.537  25.000  1.00  0.00    -0.039 Br
ENDBRANCH  12  15
ENDBRANCH   9  12
ENDBRANCH   7   8
ENDBRANCH   4   7
ENDBRANCH   2   3
ENDBRANCH   1   2
BRANCH   1  22
ATOM     22  C   UNL A   1      35.365  29.578  27.535  1.00  0.00     0.118 C 
BRANCH  22  23
ATOM     23  N   UNL A   1      35.462  30.007  28.925  1.00  0.00    -0.352 N 
ATOM     24  C   UNL A   1      36.413  29.601  29.849  1.00  0.00     0.251 C 
ATOM     25  H   UNL A   1      34.784  30.649  29.239  1.00  0.00     0.163 HD
ATOM     26  O   UNL A   1      36.211  29.739  31.050  1.00  0.00    -0.269 OA
BRANCH  24  27
ATOM     27  C   UNL A   1      37.653  28.973  29.346  1.00  0.00     0.039 A 
ATOM     28  C   UNL A   1      38.316  29.443  28.209  1.00  0.00     0.014 A 
ATOM     29  C   UNL A   1      38.196  27.939  30.098  1.00  0.00     0.014 A 
ATOM     30  C   UNL A   1      39.572  28.917  27.899  1.00  0.00     0.010 A 
ATOM     31  C   UNL A   1      39.506  27.588  29.921  1.00  0.00     0.010 A 
ATOM     32  C   UNL A   1      40.175  28.004  28.778  1.00  0.00    -0.014 A 
BRANCH  32  33
ATOM     33  C   UNL A   1      41.543  27.527  28.586  1.00  0.00     0.031 A 
ATOM     34  C   UNL A   1      41.668  26.272  27.802  1.00  0.00     0.074 A 
ATOM     35  C   UNL A   1      42.625  28.287  28.874  1.00  0.00     0.049 A 
ATOM     36  N   UNL A   1      42.070  25.121  28.227  1.00  0.00    -0.248 NA
ATOM     37  C   UNL A   1      41.151  26.242  26.425  1.00  0.00     0.031 C 
ATOM     38  C   UNL A   1      42.654  29.662  29.389  1.00  0.00     0.029 A 
ATOM     39  N   UNL A   1      43.941  28.040  28.632  1.00  0.00    -0.354 N 
ATOM     40  C   UNL A   1      42.101  24.287  27.115  1.00  0.00     0.074 A 
ATOM     41  C   UNL A   1      41.321  24.956  26.109  1.00  0.00     0.031 C 
ATOM     42  C   UNL A   1      43.871  30.206  29.171  1.00  0.00     0.029 A 
ATOM     43  C   UNL A   1      44.757  29.170  28.674  1.00  0.00     0.049 A 
ATOM     44  H   UNL A   1      44.289  27.139  28.442  1.00  0.00     0.167 HD
ATOM     45  C   UNL A   1      42.975  23.241  27.048  1.00  0.00     0.034 A 
ATOM     46  C   UNL A   1      46.063  29.268  28.310  1.00  0.00     0.034 A 
ATOM     47  C   UNL A   1      43.542  22.966  28.353  1.00  0.00     0.049 A 
ATOM     48  C   UNL A   1      46.622  27.894  28.388  1.00  0.00     0.074 A 
ATOM     49  C   UNL A   1      43.009  22.664  29.593  1.00  0.00     0.029 A 
ATOM     50  N   UNL A   1      44.832  23.387  28.603  1.00  0.00    -0.354 N 
ATOM     51  N   UNL A   1      46.727  27.234  29.510  1.00  0.00    -0.248 NA
ATOM     52  C   UNL A   1      46.585  27.067  27.191  1.00  0.00     0.031 C 
ATOM     53  C   UNL A   1      43.793  23.414  30.518  1.00  0.00     0.029 A 
ATOM     54  C   UNL A   1      44.821  24.043  29.812  1.00  0.00     0.049 A 
ATOM     55  H   UNL A   1      45.615  23.245  28.025  1.00  0.00     0.167 HD
ATOM     56  C   UNL A   1      46.307  25.948  29.208  1.00  0.00     0.074 A 
ATOM     57  C   UNL A   1      46.347  25.873  27.747  1.00  0.00     0.031 C 
ATOM     58  C   UNL A   1      45.683  25.166  30.140  1.00  0.00     0.034 A 
BRANCH  45  59
ATOM     59  C   UNL A   1      43.607  22.702  25.779  1.00  0.00     0.023 A 
ATOM     60  C   UNL A   1      43.706  21.301  25.666  1.00  0.00     0.031 A 
ATOM     61  C   UNL A   1      44.356  23.442  24.839  1.00  0.00     0.131 A 
ATOM     62  C   UNL A   1      44.606  20.707  24.765  1.00  0.00     0.055 A 
ATOM     63  C   UNL A   1      45.195  22.843  23.893  1.00  0.00     0.041 A 
ATOM     64  F   UNL A   1      44.398  24.778  24.830  1.00  0.00    -0.206 F 
ATOM     65  C   UNL A   1      45.355  21.470  23.877  1.00  0.00     0.022 A 
BRANCH  62  66
ATOM     66  S   UNL A   1      44.925  18.932  24.924  1.00  0.00     0.124 S 
ATOM     67  O   UNL A   1      43.812  18.511  25.769  1.00  0.00    -0.237 OA
ATOM     68  O   UNL A   1      44.881  18.494  23.534  1.00  0.00    -0.237 OA
ATOM     69  O   UNL A   1      46.242  18.879  25.555  1.00  0.00    -0.744 OA
ENDBRANCH  62  66
ENDBRANCH  45  59
BRANCH  46  70
ATOM     70  C   UNL A   1      46.749  30.428  27.672  1.00  0.00     0.023 A 
ATOM     71  C   UNL A   1      46.062  31.434  26.960  1.00  0.00     0.031 A 
ATOM     72  C   UNL A   1      48.111  30.680  27.962  1.00  0.00     0.131 A 
ATOM     73  C   UNL A   1      46.735  32.620  26.571  1.00  0.00     0.055 A 
ATOM     74  C   UNL A   1      48.770  31.847  27.571  1.00  0.00     0.041 A 
ATOM     75  F   UNL A   1      48.830  29.833  28.714  1.00  0.00    -0.206 F 
ATOM     76  C   UNL A   1      48.080  32.829  26.880  1.00  0.00     0.022 A 
BRANCH  73  77
ATOM     77  S   UNL A   1      45.834  33.970  25.737  1.00  0.00     0.124 S 
ATOM     78  O   UNL A   1      45.253  34.697  26.859  1.00  0.00    -0.237 OA
ATOM     79  O   UNL A   1      46.895  34.650  25.001  1.00  0.00    -0.237 OA
ATOM     80  O   UNL A   1      44.866  33.264  24.895  1.00  0.00    -0.744 OA
ENDBRANCH  73  77
ENDBRANCH  46  70
BRANCH  58  81
ATOM     81  C   UNL A   1      45.696  25.611  31.593  1.00  0.00     0.023 A 
ATOM     82  C   UNL A   1      46.786  25.447  32.480  1.00  0.00     0.031 A 
ATOM     83  C   UNL A   1      44.597  26.360  32.050  1.00  0.00     0.131 A 
ATOM     84  C   UNL A   1      46.740  26.012  33.771  1.00  0.00     0.055 A 
ATOM     85  C   UNL A   1      44.566  26.939  33.318  1.00  0.00     0.041 A 
ATOM     86  F   UNL A   1      43.542  26.580  31.249  1.00  0.00    -0.206 F 
ATOM     87  C   UNL A   1      45.636  26.761  34.187  1.00  0.00     0.022 A 
BRANCH  84  88
ATOM     88  S   UNL A   1      48.115  25.769  34.944  1.00  0.00     0.124 S 
ATOM     89  O   UNL A   1      48.350  27.105  35.479  1.00  0.00    -0.237 OA
ATOM     90  O   UNL A   1      47.564  24.793  35.881  1.00  0.00    -0.237 OA
ATOM     91  O   UNL A   1      49.196  25.254  34.101  1.00  0.00    -0.744 OA
ENDBRANCH  84  88
ENDBRANCH  58  81
ENDBRANCH  32  33
ENDBRANCH  24  27
ENDBRANCH  22  23
ENDBRANCH   1  22
TORSDOF 16
ENDMDL
MODEL 3
REMARK VINA RESULT:     -12.2      3.339      8.609
REMARK SMILES Cc1cc(S(=O)(=O)N2CC(CC(=O)NCCCNC(=O)c3ccc(-c4c5nc(c(-c6cc(S(=O)(=O)[O-])ccc6F)c6ccc([nH]6)c(-c6cc(S(=O)(=O)[O-])ccc6F)c6nc(c(-c7cc(S(=O)(=O)[O-])ccc7F)c7ccc4[nH]7)C=C6)C=C5)cc3)C2)sc1Br
REMARK SMILES IDX 16 1 15 2 14 3 12 4 13 5 11 7 10 8 8 9 9 10 84 11 5 12 6 13
REMARK SMILES IDX 7 14 4 15 1 16 2 17 3 18 86 19 85 20 87 21 17 22 18 23 19 24
REMARK SMILES IDX 20 26 21 27 22 28 83 29 23 30 82 31 24 32 25 33 26 34 76 35
REMARK SMILES IDX 27 36 81 37 75 38 77 39 28 40 80 41 74 42 73 43 29 45 61 46
REMARK SMILES IDX 41 47 60 48 42 49 45 50 59 51 78 52 43 53 44 54 58 56 79 57
REMARK SMILES IDX 46 58 30 59 31 60 39 61 32 62 38 63 40 64 37 65 33 66 34 67
REMARK SMILES IDX 35 68 36 69 62 70 63 71 71 72 64 73 70 74 72 75 69 76 65 77
REMARK SMILES IDX 66 78 67 79 68 80 47 81 48 82 56 83 49 84 55 85 57 86 54 87
REMARK SMILES IDX 50 88 51 89 52 90 53 91
REMARK H PARENT 14 6 18 25 77 44 45 55
REMARK Flexibility Score: inf
ROOT
ATOM      1  C   UNL A   1      37.835  19.947  24.909  1.00  0.00     0.042 C 
ENDROOT
BRANCH   1   2
ATOM      2  C   UNL A   1      36.627  20.863  25.144  1.00  0.00     0.117 C 
BRANCH   2   3
ATOM      3  N   UNL A   1      36.389  21.769  24.027  1.00  0.00    -0.356 N 
ATOM      4  C   UNL A   1      36.139  23.107  23.990  1.00  0.00     0.220 C 
ATOM      5  O   UNL A   1      35.915  23.640  22.904  1.00  0.00    -0.275 OA
ATOM      6  H   UNL A   1      36.414  21.336  23.142  1.00  0.00     0.163 HD
BRANCH   4   7
ATOM      7  C   UNL A   1      36.134  23.933  25.258  1.00  0.00     0.106 C 
BRANCH   7   8
ATOM      8  C   UNL A   1      34.742  24.240  25.799  1.00  0.00     0.029 C 
ATOM      9  N   UNL A   1      32.921  24.930  24.862  1.00  0.00    -0.196 NA
ATOM     10  C   UNL A   1      33.539  23.596  25.060  1.00  0.00     0.108 C 
ATOM     11  C   UNL A   1      34.138  25.586  25.376  1.00  0.00     0.108 C 
BRANCH   9  12
ATOM     12  S   UNL A   1      32.009  25.507  23.566  1.00  0.00     0.252 S 
ATOM     13  O   UNL A   1      30.789  24.715  23.508  1.00  0.00    -0.206 OA
ATOM     14  O   UNL A   1      32.883  25.669  22.437  1.00  0.00    -0.206 OA
BRANCH  12  15
ATOM     15  C   UNL A   1      31.438  27.151  23.960  1.00  0.00     0.136 A 
ATOM     16  C   UNL A   1      31.461  30.534  25.615  1.00  0.00     0.046 C 
ATOM     17  C   UNL A   1      31.135  29.348  24.766  1.00  0.00    -0.025 A 
ATOM     18  C   UNL A   1      31.807  28.088  24.906  1.00  0.00     0.038 A 
ATOM     19  C   UNL A   1      30.198  29.258  23.758  1.00  0.00     0.074 A 
ATOM     20  S   UNL A   1      30.164  27.747  22.985  1.00  0.00    -0.115 S 
ATOM     21  Br  UNL A   1      29.046  30.648  23.234  1.00  0.00    -0.039 Br
ENDBRANCH  12  15
ENDBRANCH   9  12
ENDBRANCH   7   8
ENDBRANCH   4   7
ENDBRANCH   2   3
ENDBRANCH   1   2
BRANCH   1  22
ATOM     22  C   UNL A   1      39.044  20.304  25.740  1.00  0.00     0.118 C 
BRANCH  22  23
ATOM     23  N   UNL A   1      40.042  19.244  25.817  1.00  0.00    -0.352 N 
ATOM     24  C   UNL A   1      41.404  19.407  26.024  1.00  0.00     0.251 C 
ATOM     25  H   UNL A   1      39.717  18.320  25.710  1.00  0.00     0.163 HD
ATOM     26  O   UNL A   1      42.188  18.512  25.731  1.00  0.00    -0.269 OA
BRANCH  24  27
ATOM     27  C   UNL A   1      41.877  20.694  26.576  1.00  0.00     0.039 A 
ATOM     28  C   UNL A   1      42.330  21.732  25.759  1.00  0.00     0.014 A 
ATOM     29  C   UNL A   1      41.778  20.874  27.950  1.00  0.00     0.014 A 
ATOM     30  C   UNL A   1      42.592  22.977  26.337  1.00  0.00     0.010 A 
ATOM     31  C   UNL A   1      41.820  22.137  28.472  1.00  0.00     0.010 A 
ATOM     32  C   UNL A   1      42.308  23.180  27.696  1.00  0.00    -0.014 A 
BRANCH  32  33
ATOM     33  C   UNL A   1      42.423  24.493  28.327  1.00  0.00     0.031 A 
ATOM     34  C   UNL A   1      41.306  25.430  28.040  1.00  0.00     0.074 A 
ATOM     35  C   UNL A   1      43.332  24.758  29.295  1.00  0.00     0.049 A 
ATOM     36  N   UNL A   1      41.360  26.526  27.362  1.00  0.00    -0.248 NA
ATOM     37  C   UNL A   1      39.939  25.039  28.419  1.00  0.00     0.031 C 
ATOM     38  C   UNL A   1      44.317  23.843  29.886  1.00  0.00     0.029 A 
ATOM     39  N   UNL A   1      43.475  25.874  30.061  1.00  0.00    -0.354 N 
ATOM     40  C   UNL A   1      40.093  27.095  27.443  1.00  0.00     0.074 A 
ATOM     41  C   UNL A   1      39.227  26.042  27.900  1.00  0.00     0.031 C 
ATOM     42  C   UNL A   1      44.754  24.341  31.062  1.00  0.00     0.029 A 
ATOM     43  C   UNL A   1      44.226  25.684  31.220  1.00  0.00     0.049 A 
ATOM     44  H   UNL A   1      43.080  26.742  29.818  1.00  0.00     0.167 HD
ATOM     45  C   UNL A   1      39.926  28.447  27.366  1.00  0.00     0.034 A 
ATOM     46  C   UNL A   1      44.395  26.551  32.253  1.00  0.00     0.034 A 
ATOM     47  C   UNL A   1      41.130  29.082  26.868  1.00  0.00     0.049 A 
ATOM     48  C   UNL A   1      44.118  27.905  31.711  1.00  0.00     0.074 A 
ATOM     49  C   UNL A   1      41.894  28.938  25.724  1.00  0.00     0.029 A 
ATOM     50  N   UNL A   1      41.945  29.730  27.772  1.00  0.00    -0.354 N 
ATOM     51  N   UNL A   1      44.859  28.467  30.794  1.00  0.00    -0.248 NA
ATOM     52  C   UNL A   1      42.759  28.418  31.801  1.00  0.00     0.031 C 
ATOM     53  C   UNL A   1      43.244  29.012  26.178  1.00  0.00     0.029 A 
ATOM     54  C   UNL A   1      43.232  29.301  27.544  1.00  0.00     0.049 A 
ATOM     55  H   UNL A   1      41.660  30.378  28.455  1.00  0.00     0.167 HD
ATOM     56  C   UNL A   1      43.958  29.043  29.912  1.00  0.00     0.074 A 
ATOM     57  C   UNL A   1      42.692  29.085  30.643  1.00  0.00     0.031 C 
ATOM     58  C   UNL A   1      44.241  29.158  28.579  1.00  0.00     0.034 A 
BRANCH  45  59
ATOM     59  C   UNL A   1      38.844  29.242  28.071  1.00  0.00     0.023 A 
ATOM     60  C   UNL A   1      38.920  29.307  29.477  1.00  0.00     0.031 A 
ATOM     61  C   UNL A   1      37.626  29.678  27.507  1.00  0.00     0.131 A 
ATOM     62  C   UNL A   1      37.797  29.651  30.249  1.00  0.00     0.055 A 
ATOM     63  C   UNL A   1      36.535  30.091  28.279  1.00  0.00     0.041 A 
ATOM     64  F   UNL A   1      37.379  29.650  26.193  1.00  0.00    -0.206 F 
ATOM     65  C   UNL A   1      36.601  30.042  29.659  1.00  0.00     0.022 A 
BRANCH  62  66
ATOM     66  S   UNL A   1      37.876  29.376  32.037  1.00  0.00     0.124 S 
ATOM     67  O   UNL A   1      39.063  30.145  32.398  1.00  0.00    -0.237 OA
ATOM     68  O   UNL A   1      36.597  29.918  32.480  1.00  0.00    -0.237 OA
ATOM     69  O   UNL A   1      38.014  27.926  32.150  1.00  0.00    -0.744 OA
ENDBRANCH  62  66
ENDBRANCH  45  59
BRANCH  46  70
ATOM     70  C   UNL A   1      44.532  26.228  33.702  1.00  0.00     0.023 A 
ATOM     71  C   UNL A   1      43.480  26.381  34.631  1.00  0.00     0.031 A 
ATOM     72  C   UNL A   1      45.675  25.530  34.158  1.00  0.00     0.131 A 
ATOM     73  C   UNL A   1      43.599  25.851  35.940  1.00  0.00     0.055 A 
ATOM     74  C   UNL A   1      45.790  25.016  35.451  1.00  0.00     0.041 A 
ATOM     75  F   UNL A   1      46.694  25.247  33.330  1.00  0.00    -0.206 F 
ATOM     76  C   UNL A   1      44.746  25.167  36.347  1.00  0.00     0.022 A 
BRANCH  73  77
ATOM     77  S   UNL A   1      42.208  25.956  37.116  1.00  0.00     0.124 S 
ATOM     78  O   UNL A   1      41.598  24.638  36.996  1.00  0.00    -0.237 OA
ATOM     79  O   UNL A   1      42.882  26.248  38.377  1.00  0.00    -0.237 OA
ATOM     80  O   UNL A   1      41.399  27.057  36.590  1.00  0.00    -0.744 OA
ENDBRANCH  73  77
ENDBRANCH  46  70
BRANCH  58  81
ATOM     81  C   UNL A   1      45.664  28.899  28.111  1.00  0.00     0.023 A 
ATOM     82  C   UNL A   1      46.185  27.629  27.768  1.00  0.00     0.031 A 
ATOM     83  C   UNL A   1      46.481  30.018  27.874  1.00  0.00     0.131 A 
ATOM     84  C   UNL A   1      47.480  27.517  27.223  1.00  0.00     0.055 A 
ATOM     85  C   UNL A   1      47.752  29.907  27.311  1.00  0.00     0.041 A 
ATOM     86  F   UNL A   1      46.037  31.256  28.149  1.00  0.00    -0.206 F 
ATOM     87  C   UNL A   1      48.260  28.654  26.990  1.00  0.00     0.022 A 
BRANCH  84  88
ATOM     88  S   UNL A   1      48.185  25.885  26.821  1.00  0.00     0.124 S 
ATOM     89  O   UNL A   1      47.356  24.956  27.579  1.00  0.00    -0.237 OA
ATOM     90  O   UNL A   1      48.045  25.827  25.368  1.00  0.00    -0.237 OA
ATOM     91  O   UNL A   1      49.568  25.986  27.292  1.00  0.00    -0.744 OA
ENDBRANCH  84  88
ENDBRANCH  58  81
ENDBRANCH  32  33
ENDBRANCH  24  27
ENDBRANCH  22  23
ENDBRANCH   1  22
TORSDOF 16
ENDMDL
