MODEL 1
REMARK VINA RESULT:     -10.5      0.000      0.000
REMARK SMILES COCCN(CC(=O)NCCCNC(=O)c1ccc(-c2c3nc(c(-c4cc(S(=O)(=O)[O-])ccc4F)c4ccc([nH]4)c(-c4cc(S(=O)(=O)[O-])ccc4F)c4nc(c(-c5cc(S(=O)(=O)[O-])ccc5F)c5ccc2[nH]5)C=C4)C=C3)cc1)C(=O)N1CCC[C@@H]1C
REMARK SMILES IDX 10 1 9 2 7 3 8 4 6 6 5 7 4 8 3 9 2 10 1 11 79 12 80 13 81 14
REMARK SMILES IDX 82 15 85 16 83 17 84 18 86 19 11 20 12 21 13 22 14 23 15 25
REMARK SMILES IDX 16 26 17 27 78 28 18 29 77 30 19 31 20 32 21 33 71 34 22 35
REMARK SMILES IDX 76 36 70 37 72 38 23 39 75 40 69 41 68 42 24 44 56 45 36 46
REMARK SMILES IDX 55 47 37 48 40 49 54 50 73 51 38 52 39 53 53 55 74 56 41 57
REMARK SMILES IDX 25 58 26 59 34 60 27 61 33 62 35 63 32 64 28 65 29 66 30 67
REMARK SMILES IDX 31 68 57 69 58 70 66 71 59 72 65 73 67 74 64 75 60 76 61 77
REMARK SMILES IDX 62 78 63 79 42 80 43 81 51 82 44 83 50 84 52 85 49 86 45 87
REMARK SMILES IDX 46 88 47 89 48 90
REMARK H PARENT 9 5 13 24 72 43 40 54
REMARK Flexibility Score: inf
ROOT
ATOM      1  C   UNL A   1      31.570  30.386  26.189  1.00  0.00     0.117 C 
ENDROOT
BRANCH   1   2
ATOM      2  N   UNL A   1      31.274  30.032  24.817  1.00  0.00    -0.354 N 
ATOM      3  C   UNL A   1      30.936  28.830  24.276  1.00  0.00     0.239 C 
ATOM      4  O   UNL A   1      30.305  28.868  23.211  1.00  0.00    -0.273 OA
ATOM      5  H   UNL A   1      31.324  30.777  24.175  1.00  0.00     0.163 HD
BRANCH   3   6
ATOM      6  C   UNL A   1      31.157  27.482  24.991  1.00  0.00     0.221 C 
BRANCH   6   7
ATOM      7  N   UNL A   1      31.685  26.362  24.207  1.00  0.00    -0.313 N 
BRANCH   7   8
ATOM      8  C   UNL A   1      33.124  26.409  23.869  1.00  0.00     0.150 C 
BRANCH   8   9
ATOM      9  C   UNL A   1      33.450  26.143  22.384  1.00  0.00     0.181 C 
BRANCH   9  10
ATOM     10  O   UNL A   1      33.845  27.322  21.692  1.00  0.00    -0.383 OA
ATOM     11  C   UNL A   1      34.090  28.432  22.540  1.00  0.00     0.194 C 
ENDBRANCH   9  10
ENDBRANCH   8   9
ENDBRANCH   7   8
BRANCH   7  12
ATOM     12  C   UNL A   1      31.049  25.145  24.009  1.00  0.00     0.320 C 
ATOM     13  O   UNL A   1      30.003  25.067  23.362  1.00  0.00    -0.248 OA
BRANCH  12  14
ATOM     14  N   UNL A   1      31.678  23.988  24.399  1.00  0.00    -0.322 N 
ATOM     15  C   UNL A   1      31.729  22.885  23.459  1.00  0.00     0.122 C 
ATOM     16  C   UNL A   1      31.846  23.473  25.761  1.00  0.00     0.083 C 
ATOM     17  C   UNL A   1      32.682  21.906  24.112  1.00  0.00     0.024 C 
ATOM     18  C   UNL A   1      32.297  22.008  25.581  1.00  0.00     0.027 C 
ATOM     19  C   UNL A   1      30.553  23.529  26.570  1.00  0.00     0.031 C 
ENDBRANCH  12  14
ENDBRANCH   7  12
ENDBRANCH   6   7
ENDBRANCH   3   6
ENDBRANCH   1   2
BRANCH   1  20
ATOM     20  C   UNL A   1      31.495  31.878  26.492  1.00  0.00     0.042 C 
BRANCH  20  21
ATOM     21  C   UNL A   1      32.728  32.459  27.180  1.00  0.00     0.118 C 
BRANCH  21  22
ATOM     22  N   UNL A   1      32.548  33.841  27.596  1.00  0.00    -0.352 N 
ATOM     23  C   UNL A   1      33.167  34.577  28.573  1.00  0.00     0.251 C 
ATOM     24  H   UNL A   1      31.863  34.333  27.089  1.00  0.00     0.163 HD
ATOM     25  O   UNL A   1      32.692  35.679  28.865  1.00  0.00    -0.269 OA
BRANCH  23  26
ATOM     26  C   UNL A   1      34.363  34.079  29.289  1.00  0.00     0.039 A 
ATOM     27  C   UNL A   1      34.179  33.338  30.462  1.00  0.00     0.014 A 
ATOM     28  C   UNL A   1      35.659  34.377  28.860  1.00  0.00     0.014 A 
ATOM     29  C   UNL A   1      35.285  32.842  31.160  1.00  0.00     0.010 A 
ATOM     30  C   UNL A   1      36.759  33.824  29.518  1.00  0.00     0.010 A 
ATOM     31  C   UNL A   1      36.586  33.047  30.673  1.00  0.00    -0.014 A 
BRANCH  31  32
ATOM     32  C   UNL A   1      37.765  32.436  31.346  1.00  0.00     0.031 A 
ATOM     33  C   UNL A   1      38.525  31.315  30.686  1.00  0.00     0.074 A 
ATOM     34  C   UNL A   1      38.105  32.847  32.584  1.00  0.00     0.049 A 
ATOM     35  N   UNL A   1      39.521  30.606  31.153  1.00  0.00    -0.248 NA
ATOM     36  C   UNL A   1      38.094  30.926  29.334  1.00  0.00     0.031 C 
ATOM     37  C   UNL A   1      37.420  33.897  33.344  1.00  0.00     0.029 A 
ATOM     38  N   UNL A   1      39.098  32.423  33.434  1.00  0.00    -0.354 N 
ATOM     39  C   UNL A   1      39.820  29.672  30.166  1.00  0.00     0.074 A 
ATOM     40  C   UNL A   1      38.878  29.884  29.088  1.00  0.00     0.031 C 
ATOM     41  C   UNL A   1      38.018  34.040  34.538  1.00  0.00     0.029 A 
ATOM     42  C   UNL A   1      39.095  33.063  34.653  1.00  0.00     0.049 A 
ATOM     43  H   UNL A   1      39.752  31.727  33.194  1.00  0.00     0.167 HD
ATOM     44  C   UNL A   1      40.797  28.731  30.161  1.00  0.00     0.034 A 
ATOM     45  C   UNL A   1      39.856  32.870  35.751  1.00  0.00     0.034 A 
ATOM     46  C   UNL A   1      41.749  28.551  31.230  1.00  0.00     0.049 A 
ATOM     47  C   UNL A   1      40.927  31.808  35.715  1.00  0.00     0.074 A 
ATOM     48  C   UNL A   1      42.837  27.695  31.277  1.00  0.00     0.029 A 
ATOM     49  N   UNL A   1      41.722  29.224  32.443  1.00  0.00    -0.354 N 
ATOM     50  N   UNL A   1      41.249  30.991  34.738  1.00  0.00    -0.248 NA
ATOM     51  C   UNL A   1      41.747  31.650  36.924  1.00  0.00     0.031 C 
ATOM     52  C   UNL A   1      43.421  27.797  32.543  1.00  0.00     0.029 A 
ATOM     53  C   UNL A   1      42.748  28.772  33.260  1.00  0.00     0.049 A 
ATOM     54  H   UNL A   1      41.071  29.921  32.688  1.00  0.00     0.167 HD
ATOM     55  C   UNL A   1      42.328  30.247  35.208  1.00  0.00     0.074 A 
ATOM     56  C   UNL A   1      42.615  30.725  36.543  1.00  0.00     0.031 C 
ATOM     57  C   UNL A   1      43.021  29.255  34.592  1.00  0.00     0.034 A 
BRANCH  44  58
ATOM     58  C   UNL A   1      40.875  27.796  28.978  1.00  0.00     0.023 A 
ATOM     59  C   UNL A   1      41.840  27.950  27.968  1.00  0.00     0.031 A 
ATOM     60  C   UNL A   1      39.985  26.712  28.880  1.00  0.00     0.131 A 
ATOM     61  C   UNL A   1      41.864  27.060  26.883  1.00  0.00     0.055 A 
ATOM     62  C   UNL A   1      40.056  25.791  27.834  1.00  0.00     0.041 A 
ATOM     63  F   UNL A   1      39.031  26.525  29.807  1.00  0.00    -0.206 F 
ATOM     64  C   UNL A   1      40.995  25.966  26.823  1.00  0.00     0.022 A 
BRANCH  61  65
ATOM     65  S   UNL A   1      42.988  27.400  25.502  1.00  0.00     0.124 S 
ATOM     66  O   UNL A   1      43.175  26.065  24.938  1.00  0.00    -0.237 OA
ATOM     67  O   UNL A   1      42.219  28.335  24.689  1.00  0.00    -0.237 OA
ATOM     68  O   UNL A   1      44.170  27.963  26.152  1.00  0.00    -0.744 OA
ENDBRANCH  61  65
ENDBRANCH  44  58
BRANCH  45  69
ATOM     69  C   UNL A   1      39.623  33.664  36.994  1.00  0.00     0.023 A 
ATOM     70  C   UNL A   1      40.385  34.808  37.275  1.00  0.00     0.031 A 
ATOM     71  C   UNL A   1      38.690  33.242  37.959  1.00  0.00     0.131 A 
ATOM     72  C   UNL A   1      40.254  35.451  38.516  1.00  0.00     0.055 A 
ATOM     73  C   UNL A   1      38.515  33.925  39.165  1.00  0.00     0.041 A 
ATOM     74  F   UNL A   1      37.933  32.155  37.743  1.00  0.00    -0.206 F 
ATOM     75  C   UNL A   1      39.314  35.025  39.457  1.00  0.00     0.022 A 
BRANCH  72  76
ATOM     76  S   UNL A   1      41.422  36.774  38.934  1.00  0.00     0.124 S 
ATOM     77  O   UNL A   1      42.145  36.190  40.057  1.00  0.00    -0.237 OA
ATOM     78  O   UNL A   1      42.173  36.917  37.691  1.00  0.00    -0.237 OA
ATOM     79  O   UNL A   1      40.554  37.901  39.269  1.00  0.00    -0.744 OA
ENDBRANCH  72  76
ENDBRANCH  45  69
BRANCH  57  80
ATOM     80  C   UNL A   1      44.186  28.663  35.346  1.00  0.00     0.023 A 
ATOM     81  C   UNL A   1      44.025  27.577  36.223  1.00  0.00     0.031 A 
ATOM     82  C   UNL A   1      45.474  29.206  35.194  1.00  0.00     0.131 A 
ATOM     83  C   UNL A   1      45.122  27.104  36.958  1.00  0.00     0.055 A 
ATOM     84  C   UNL A   1      46.574  28.692  35.881  1.00  0.00     0.041 A 
ATOM     85  F   UNL A   1      45.686  30.246  34.371  1.00  0.00    -0.206 F 
ATOM     86  C   UNL A   1      46.399  27.644  36.780  1.00  0.00     0.022 A 
BRANCH  83  87
ATOM     87  S   UNL A   1      44.842  25.831  38.219  1.00  0.00     0.124 S 
ATOM     88  O   UNL A   1      46.161  25.717  38.834  1.00  0.00    -0.237 OA
ATOM     89  O   UNL A   1      43.803  26.433  39.047  1.00  0.00    -0.237 OA
ATOM     90  O   UNL A   1      44.417  24.666  37.444  1.00  0.00    -0.744 OA
ENDBRANCH  83  87
ENDBRANCH  57  80
ENDBRANCH  31  32
ENDBRANCH  23  26
ENDBRANCH  21  22
ENDBRANCH  20  21
ENDBRANCH   1  20
TORSDOF 19
ENDMDL
MODEL 2
REMARK VINA RESULT:     -10.3      2.006      2.647
REMARK SMILES COCCN(CC(=O)NCCCNC(=O)c1ccc(-c2c3nc(c(-c4cc(S(=O)(=O)[O-])ccc4F)c4ccc([nH]4)c(-c4cc(S(=O)(=O)[O-])ccc4F)c4nc(c(-c5cc(S(=O)(=O)[O-])ccc5F)c5ccc2[nH]5)C=C4)C=C3)cc1)C(=O)N1CCC[C@@H]1C
REMARK SMILES IDX 10 1 9 2 7 3 8 4 6 6 5 7 4 8 3 9 2 10 1 11 79 12 80 13 81 14
REMARK SMILES IDX 82 15 85 16 83 17 84 18 86 19 11 20 12 21 13 22 14 23 15 25
REMARK SMILES IDX 16 26 17 27 78 28 18 29 77 30 19 31 20 32 21 33 71 34 22 35
REMARK SMILES IDX 76 36 70 37 72 38 23 39 75 40 69 41 68 42 24 44 56 45 36 46
REMARK SMILES IDX 55 47 37 48 40 49 54 50 73 51 38 52 39 53 53 55 74 56 41 57
REMARK SMILES IDX 25 58 26 59 34 60 27 61 33 62 35 63 32 64 28 65 29 66 30 67
REMARK SMILES IDX 31 68 57 69 58 70 66 71 59 72 65 73 67 74 64 75 60 76 61 77
REMARK SMILES IDX 62 78 63 79 42 80 43 81 51 82 44 83 50 84 52 85 49 86 45 87
REMARK SMILES IDX 46 88 47 89 48 90
REMARK H PARENT 9 5 13 24 72 43 40 54
REMARK Flexibility Score: inf
ROOT
ATOM      1  C   UNL A   1      32.004  28.045  27.003  1.00  0.00     0.117 C 
ENDROOT
BRANCH   1   2
ATOM      2  N   UNL A   1      30.955  27.056  26.879  1.00  0.00    -0.354 N 
ATOM      3  C   UNL A   1      30.726  26.141  25.898  1.00  0.00     0.239 C 
ATOM      4  O   UNL A   1      30.072  25.141  26.225  1.00  0.00    -0.273 OA
ATOM      5  H   UNL A   1      30.308  27.041  27.621  1.00  0.00     0.163 HD
BRANCH   3   6
ATOM      6  C   UNL A   1      31.359  26.220  24.495  1.00  0.00     0.221 C 
BRANCH   6   7
ATOM      7  N   UNL A   1      32.800  25.987  24.373  1.00  0.00    -0.313 N 
BRANCH   7   8
ATOM      8  C   UNL A   1      33.605  27.089  23.804  1.00  0.00     0.150 C 
BRANCH   8   9
ATOM      9  C   UNL A   1      33.618  27.155  22.262  1.00  0.00     0.181 C 
BRANCH   9  10
ATOM     10  O   UNL A   1      33.619  25.865  21.660  1.00  0.00    -0.383 OA
ATOM     11  C   UNL A   1      32.544  25.650  20.761  1.00  0.00     0.194 C 
ENDBRANCH   9  10
ENDBRANCH   8   9
ENDBRANCH   7   8
BRANCH   7  12
ATOM     12  C   UNL A   1      33.511  24.971  24.996  1.00  0.00     0.320 C 
ATOM     13  O   UNL A   1      34.358  25.217  25.856  1.00  0.00    -0.248 OA
BRANCH  12  14
ATOM     14  N   UNL A   1      33.151  23.664  24.770  1.00  0.00    -0.322 N 
ATOM     15  C   UNL A   1      32.944  22.803  25.918  1.00  0.00     0.122 C 
ATOM     16  C   UNL A   1      33.448  22.843  23.593  1.00  0.00     0.083 C 
ATOM     17  C   UNL A   1      32.335  21.554  25.317  1.00  0.00     0.024 C 
ATOM     18  C   UNL A   1      33.122  21.397  24.024  1.00  0.00     0.027 C 
ATOM     19  C   UNL A   1      34.908  22.946  23.161  1.00  0.00     0.031 C 
ENDBRANCH  12  14
ENDBRANCH   7  12
ENDBRANCH   6   7
ENDBRANCH   3   6
ENDBRANCH   1   2
BRANCH   1  20
ATOM     20  C   UNL A   1      31.521  29.491  26.998  1.00  0.00     0.042 C 
BRANCH  20  21
ATOM     21  C   UNL A   1      32.314  30.432  26.094  1.00  0.00     0.118 C 
BRANCH  21  22
ATOM     22  N   UNL A   1      32.162  31.832  26.460  1.00  0.00    -0.352 N 
ATOM     23  C   UNL A   1      32.872  32.620  27.329  1.00  0.00     0.251 C 
ATOM     24  H   UNL A   1      31.422  32.294  26.005  1.00  0.00     0.163 HD
ATOM     25  O   UNL A   1      32.418  33.731  27.615  1.00  0.00    -0.269 OA
BRANCH  23  26
ATOM     26  C   UNL A   1      34.144  32.166  27.937  1.00  0.00     0.039 A 
ATOM     27  C   UNL A   1      35.193  33.085  28.053  1.00  0.00     0.014 A 
ATOM     28  C   UNL A   1      34.339  30.843  28.339  1.00  0.00     0.014 A 
ATOM     29  C   UNL A   1      36.406  32.696  28.631  1.00  0.00     0.010 A 
ATOM     30  C   UNL A   1      35.525  30.473  28.978  1.00  0.00     0.010 A 
ATOM     31  C   UNL A   1      36.570  31.396  29.136  1.00  0.00    -0.014 A 
BRANCH  31  32
ATOM     32  C   UNL A   1      37.815  30.997  29.848  1.00  0.00     0.031 A 
ATOM     33  C   UNL A   1      38.772  30.016  29.224  1.00  0.00     0.074 A 
ATOM     34  C   UNL A   1      38.044  31.468  31.092  1.00  0.00     0.049 A 
ATOM     35  N   UNL A   1      39.859  29.489  29.727  1.00  0.00    -0.248 NA
ATOM     36  C   UNL A   1      38.454  29.551  27.864  1.00  0.00     0.031 C 
ATOM     37  C   UNL A   1      37.169  32.392  31.819  1.00  0.00     0.029 A 
ATOM     38  N   UNL A   1      39.068  31.223  31.974  1.00  0.00    -0.354 N 
ATOM     39  C   UNL A   1      40.341  28.612  28.760  1.00  0.00     0.074 A 
ATOM     40  C   UNL A   1      39.409  28.655  27.653  1.00  0.00     0.031 C 
ATOM     41  C   UNL A   1      37.698  32.642  33.028  1.00  0.00     0.029 A 
ATOM     42  C   UNL A   1      38.920  31.861  33.185  1.00  0.00     0.049 A 
ATOM     43  H   UNL A   1      39.836  30.646  31.760  1.00  0.00     0.167 HD
ATOM     44  C   UNL A   1      41.462  27.849  28.793  1.00  0.00     0.034 A 
ATOM     45  C   UNL A   1      39.669  31.807  34.306  1.00  0.00     0.034 A 
ATOM     46  C   UNL A   1      42.398  27.839  29.891  1.00  0.00     0.049 A 
ATOM     47  C   UNL A   1      40.905  30.941  34.313  1.00  0.00     0.074 A 
ATOM     48  C   UNL A   1      43.613  27.180  29.978  1.00  0.00     0.029 A 
ATOM     49  N   UNL A   1      42.222  28.507  31.095  1.00  0.00    -0.354 N 
ATOM     50  N   UNL A   1      41.389  30.184  33.355  1.00  0.00    -0.248 NA
ATOM     51  C   UNL A   1      41.703  30.931  35.546  1.00  0.00     0.031 C 
ATOM     52  C   UNL A   1      44.133  27.388  31.260  1.00  0.00     0.029 A 
ATOM     53  C   UNL A   1      43.285  28.239  31.946  1.00  0.00     0.049 A 
ATOM     54  H   UNL A   1      41.456  29.085  31.314  1.00  0.00     0.167 HD
ATOM     55  C   UNL A   1      42.564  29.635  33.864  1.00  0.00     0.074 A 
ATOM     56  C   UNL A   1      42.726  30.164  35.201  1.00  0.00     0.031 C 
ATOM     57  C   UNL A   1      43.432  28.771  33.279  1.00  0.00     0.034 A 
BRANCH  44  58
ATOM     58  C   UNL A   1      41.732  26.934  27.624  1.00  0.00     0.023 A 
ATOM     59  C   UNL A   1      41.359  25.579  27.635  1.00  0.00     0.031 A 
ATOM     60  C   UNL A   1      42.345  27.439  26.463  1.00  0.00     0.131 A 
ATOM     61  C   UNL A   1      41.641  24.766  26.526  1.00  0.00     0.055 A 
ATOM     62  C   UNL A   1      42.563  26.643  25.338  1.00  0.00     0.041 A 
ATOM     63  F   UNL A   1      42.739  28.721  26.402  1.00  0.00    -0.206 F 
ATOM     64  C   UNL A   1      42.217  25.295  25.368  1.00  0.00     0.022 A 
BRANCH  61  65
ATOM     65  S   UNL A   1      41.327  22.985  26.649  1.00  0.00     0.124 S 
ATOM     66  O   UNL A   1      41.869  22.679  27.971  1.00  0.00    -0.237 OA
ATOM     67  O   UNL A   1      39.876  22.909  26.520  1.00  0.00    -0.237 OA
ATOM     68  O   UNL A   1      42.082  22.424  25.530  1.00  0.00    -0.744 OA
ENDBRANCH  61  65
ENDBRANCH  44  58
BRANCH  45  69
ATOM     69  C   UNL A   1      39.269  32.558  35.533  1.00  0.00     0.023 A 
ATOM     70  C   UNL A   1      39.625  33.904  35.705  1.00  0.00     0.031 A 
ATOM     71  C   UNL A   1      38.594  31.916  36.588  1.00  0.00     0.131 A 
ATOM     72  C   UNL A   1      39.370  34.546  36.927  1.00  0.00     0.055 A 
ATOM     73  C   UNL A   1      38.283  32.579  37.777  1.00  0.00     0.041 A 
ATOM     74  F   UNL A   1      38.228  30.629  36.477  1.00  0.00    -0.206 F 
ATOM     75  C   UNL A   1      38.689  33.897  37.959  1.00  0.00     0.022 A 
BRANCH  72  76
ATOM     76  S   UNL A   1      40.057  36.203  37.195  1.00  0.00     0.124 S 
ATOM     77  O   UNL A   1      39.821  36.836  35.902  1.00  0.00    -0.237 OA
ATOM     78  O   UNL A   1      39.246  36.691  38.305  1.00  0.00    -0.237 OA
ATOM     79  O   UNL A   1      41.459  35.943  37.516  1.00  0.00    -0.744 OA
ENDBRANCH  72  76
ENDBRANCH  45  69
BRANCH  57  80
ATOM     80  C   UNL A   1      44.657  28.389  34.073  1.00  0.00     0.023 A 
ATOM     81  C   UNL A   1      44.636  27.340  35.008  1.00  0.00     0.031 A 
ATOM     82  C   UNL A   1      45.859  29.098  33.900  1.00  0.00     0.131 A 
ATOM     83  C   UNL A   1      45.777  27.065  35.776  1.00  0.00     0.055 A 
ATOM     84  C   UNL A   1      47.010  28.779  34.622  1.00  0.00     0.041 A 
ATOM     85  F   UNL A   1      45.936  30.110  33.022  1.00  0.00    -0.206 F 
ATOM     86  C   UNL A   1      46.969  27.767  35.577  1.00  0.00     0.022 A 
BRANCH  83  87
ATOM     87  S   UNL A   1      45.659  25.835  37.104  1.00  0.00     0.124 S 
ATOM     88  O   UNL A   1      46.929  26.017  37.800  1.00  0.00    -0.237 OA
ATOM     89  O   UNL A   1      44.468  26.268  37.826  1.00  0.00    -0.237 OA
ATOM     90  O   UNL A   1      45.521  24.568  36.387  1.00  0.00    -0.744 OA
ENDBRANCH  83  87
ENDBRANCH  57  80
ENDBRANCH  31  32
ENDBRANCH  23  26
ENDBRANCH  21  22
ENDBRANCH  20  21
ENDBRANCH   1  20
TORSDOF 19
ENDMDL
MODEL 3
REMARK VINA RESULT:     -10.3      1.683      2.187
REMARK SMILES COCCN(CC(=O)NCCCNC(=O)c1ccc(-c2c3nc(c(-c4cc(S(=O)(=O)[O-])ccc4F)c4ccc([nH]4)c(-c4cc(S(=O)(=O)[O-])ccc4F)c4nc(c(-c5cc(S(=O)(=O)[O-])ccc5F)c5ccc2[nH]5)C=C4)C=C3)cc1)C(=O)N1CCC[C@@H]1C
REMARK SMILES IDX 10 1 9 2 7 3 8 4 6 6 5 7 4 8 3 9 2 10 1 11 79 12 80 13 81 14
REMARK SMILES IDX 82 15 85 16 83 17 84 18 86 19 11 20 12 21 13 22 14 23 15 25
REMARK SMILES IDX 16 26 17 27 78 28 18 29 77 30 19 31 20 32 21 33 71 34 22 35
REMARK SMILES IDX 76 36 70 37 72 38 23 39 75 40 69 41 68 42 24 44 56 45 36 46
REMARK SMILES IDX 55 47 37 48 40 49 54 50 73 51 38 52 39 53 53 55 74 56 41 57
REMARK SMILES IDX 25 58 26 59 34 60 27 61 33 62 35 63 32 64 28 65 29 66 30 67
REMARK SMILES IDX 31 68 57 69 58 70 66 71 59 72 65 73 67 74 64 75 60 76 61 77
REMARK SMILES IDX 62 78 63 79 42 80 43 81 51 82 44 83 50 84 52 85 49 86 45 87
REMARK SMILES IDX 46 88 47 89 48 90
REMARK H PARENT 9 5 13 24 72 43 40 54
REMARK Flexibility Score: inf
ROOT
ATOM      1  C   UNL A   1      31.134  30.684  25.880  1.00  0.00     0.117 C 
ENDROOT
BRANCH   1   2
ATOM      2  N   UNL A   1      30.724  30.564  24.497  1.00  0.00    -0.354 N 
ATOM      3  C   UNL A   1      30.494  29.454  23.745  1.00  0.00     0.239 C 
ATOM      4  O   UNL A   1      29.737  29.598  22.775  1.00  0.00    -0.273 OA
ATOM      5  H   UNL A   1      30.590  31.419  24.028  1.00  0.00     0.163 HD
BRANCH   3   6
ATOM      6  C   UNL A   1      30.987  28.046  24.132  1.00  0.00     0.221 C 
BRANCH   6   7
ATOM      7  N   UNL A   1      32.370  27.685  23.812  1.00  0.00    -0.313 N 
BRANCH   7   8
ATOM      8  C   UNL A   1      33.427  28.314  24.634  1.00  0.00     0.150 C 
BRANCH   8   9
ATOM      9  C   UNL A   1      33.557  27.750  26.065  1.00  0.00     0.181 C 
BRANCH   9  10
ATOM     10  O   UNL A   1      34.677  28.283  26.762  1.00  0.00    -0.383 OA
ATOM     11  C   UNL A   1      34.374  29.425  27.548  1.00  0.00     0.194 C 
ENDBRANCH   9  10
ENDBRANCH   8   9
ENDBRANCH   7   8
BRANCH   7  12
ATOM     12  C   UNL A   1      32.765  26.611  23.027  1.00  0.00     0.320 C 
ATOM     13  O   UNL A   1      33.140  26.772  21.865  1.00  0.00    -0.248 OA
BRANCH  12  14
ATOM     14  N   UNL A   1      32.894  25.370  23.603  1.00  0.00    -0.322 N 
ATOM     15  C   UNL A   1      33.963  24.507  23.138  1.00  0.00     0.122 C 
ATOM     16  C   UNL A   1      31.844  24.555  24.221  1.00  0.00     0.083 C 
ATOM     17  C   UNL A   1      33.956  23.368  24.135  1.00  0.00     0.024 C 
ATOM     18  C   UNL A   1      32.468  23.151  24.372  1.00  0.00     0.027 C 
ATOM     19  C   UNL A   1      30.583  24.480  23.367  1.00  0.00     0.031 C 
ENDBRANCH  12  14
ENDBRANCH   7  12
ENDBRANCH   6   7
ENDBRANCH   3   6
ENDBRANCH   1   2
BRANCH   1  20
ATOM     20  C   UNL A   1      31.182  32.112  26.409  1.00  0.00     0.042 C 
BRANCH  20  21
ATOM     21  C   UNL A   1      32.495  32.507  27.081  1.00  0.00     0.118 C 
BRANCH  21  22
ATOM     22  N   UNL A   1      32.486  33.870  27.589  1.00  0.00    -0.352 N 
ATOM     23  C   UNL A   1      33.224  34.470  28.576  1.00  0.00     0.251 C 
ATOM     24  H   UNL A   1      31.837  34.465  27.148  1.00  0.00     0.163 HD
ATOM     25  O   UNL A   1      32.886  35.595  28.958  1.00  0.00    -0.269 OA
BRANCH  23  26
ATOM     26  C   UNL A   1      34.389  33.802  29.198  1.00  0.00     0.039 A 
ATOM     27  C   UNL A   1      35.673  34.224  28.835  1.00  0.00     0.014 A 
ATOM     28  C   UNL A   1      34.241  32.732  30.085  1.00  0.00     0.014 A 
ATOM     29  C   UNL A   1      36.798  33.623  29.409  1.00  0.00     0.010 A 
ATOM     30  C   UNL A   1      35.362  32.180  30.708  1.00  0.00     0.010 A 
ATOM     31  C   UNL A   1      36.653  32.621  30.382  1.00  0.00    -0.014 A 
BRANCH  31  32
ATOM     32  C   UNL A   1      37.836  32.046  31.079  1.00  0.00     0.031 A 
ATOM     33  C   UNL A   1      38.627  30.931  30.448  1.00  0.00     0.074 A 
ATOM     34  C   UNL A   1      38.152  32.484  32.315  1.00  0.00     0.049 A 
ATOM     35  N   UNL A   1      39.632  30.251  30.938  1.00  0.00    -0.248 NA
ATOM     36  C   UNL A   1      38.222  30.511  29.097  1.00  0.00     0.031 C 
ATOM     37  C   UNL A   1      37.435  33.531  33.049  1.00  0.00     0.029 A 
ATOM     38  N   UNL A   1      39.142  32.095  33.184  1.00  0.00    -0.354 N 
ATOM     39  C   UNL A   1      39.963  29.307  29.971  1.00  0.00     0.074 A 
ATOM     40  C   UNL A   1      39.031  29.482  28.878  1.00  0.00     0.031 C 
ATOM     41  C   UNL A   1      38.014  33.707  34.247  1.00  0.00     0.029 A 
ATOM     42  C   UNL A   1      39.110  32.754  34.392  1.00  0.00     0.049 A 
ATOM     43  H   UNL A   1      39.813  31.409  32.963  1.00  0.00     0.167 HD
ATOM     44  C   UNL A   1      40.959  28.387  29.993  1.00  0.00     0.034 A 
ATOM     45  C   UNL A   1      39.861  32.595  35.502  1.00  0.00     0.034 A 
ATOM     46  C   UNL A   1      41.901  28.244  31.077  1.00  0.00     0.049 A 
ATOM     47  C   UNL A   1      40.955  31.556  35.497  1.00  0.00     0.074 A 
ATOM     48  C   UNL A   1      43.006  27.413  31.151  1.00  0.00     0.029 A 
ATOM     49  N   UNL A   1      41.845  28.937  32.278  1.00  0.00    -0.354 N 
ATOM     50  N   UNL A   1      41.306  30.730  34.538  1.00  0.00    -0.248 NA
ATOM     51  C   UNL A   1      41.761  31.434  36.719  1.00  0.00     0.031 C 
ATOM     52  C   UNL A   1      43.572  27.547  32.423  1.00  0.00     0.029 A 
ATOM     53  C   UNL A   1      42.870  28.519  33.115  1.00  0.00     0.049 A 
ATOM     54  H   UNL A   1      41.176  29.623  32.504  1.00  0.00     0.167 HD
ATOM     55  C   UNL A   1      42.394  30.016  35.034  1.00  0.00     0.074 A 
ATOM     56  C   UNL A   1      42.654  30.522  36.364  1.00  0.00     0.031 C 
ATOM     57  C   UNL A   1      43.115  29.029  34.442  1.00  0.00     0.034 A 
BRANCH  44  58
ATOM     58  C   UNL A   1      41.072  27.435  28.827  1.00  0.00     0.023 A 
ATOM     59  C   UNL A   1      42.043  27.596  27.824  1.00  0.00     0.031 A 
ATOM     60  C   UNL A   1      40.209  26.328  28.738  1.00  0.00     0.131 A 
ATOM     61  C   UNL A   1      42.100  26.689  26.754  1.00  0.00     0.055 A 
ATOM     62  C   UNL A   1      40.314  25.392  27.708  1.00  0.00     0.041 A 
ATOM     63  F   UNL A   1      39.251  26.133  29.658  1.00  0.00    -0.206 F 
ATOM     64  C   UNL A   1      41.259  25.574  26.704  1.00  0.00     0.022 A 
BRANCH  61  65
ATOM     65  S   UNL A   1      43.230  27.033  25.379  1.00  0.00     0.124 S 
ATOM     66  O   UNL A   1      44.348  27.674  26.069  1.00  0.00    -0.237 OA
ATOM     67  O   UNL A   1      43.490  25.703  24.841  1.00  0.00    -0.237 OA
ATOM     68  O   UNL A   1      42.456  27.918  24.510  1.00  0.00    -0.744 OA
ENDBRANCH  61  65
ENDBRANCH  44  58
BRANCH  45  69
ATOM     69  C   UNL A   1      39.595  33.403  36.729  1.00  0.00     0.023 A 
ATOM     70  C   UNL A   1      38.911  32.852  37.824  1.00  0.00     0.031 A 
ATOM     71  C   UNL A   1      39.949  34.764  36.792  1.00  0.00     0.131 A 
ATOM     72  C   UNL A   1      38.540  33.671  38.903  1.00  0.00     0.055 A 
ATOM     73  C   UNL A   1      39.636  35.557  37.898  1.00  0.00     0.041 A 
ATOM     74  F   UNL A   1      40.605  35.343  35.775  1.00  0.00    -0.206 F 
ATOM     75  C   UNL A   1      38.910  35.016  38.953  1.00  0.00     0.022 A 
BRANCH  72  76
ATOM     76  S   UNL A   1      37.454  32.979  40.181  1.00  0.00     0.124 S 
ATOM     77  O   UNL A   1      37.339  34.096  41.111  1.00  0.00    -0.237 OA
ATOM     78  O   UNL A   1      36.254  32.656  39.415  1.00  0.00    -0.237 OA
ATOM     79  O   UNL A   1      38.203  31.827  40.678  1.00  0.00    -0.744 OA
ENDBRANCH  72  76
ENDBRANCH  45  69
BRANCH  57  80
ATOM     80  C   UNL A   1      44.282  28.474  35.220  1.00  0.00     0.023 A 
ATOM     81  C   UNL A   1      44.119  27.452  36.171  1.00  0.00     0.031 A 
ATOM     82  C   UNL A   1      45.575  28.989  35.017  1.00  0.00     0.131 A 
ATOM     83  C   UNL A   1      45.220  27.015  36.923  1.00  0.00     0.055 A 
ATOM     84  C   UNL A   1      46.678  28.507  35.724  1.00  0.00     0.041 A 
ATOM     85  F   UNL A   1      45.789  29.968  34.122  1.00  0.00    -0.206 F 
ATOM     86  C   UNL A   1      46.501  27.525  36.693  1.00  0.00     0.022 A 
BRANCH  83  87
ATOM     87  S   UNL A   1      44.941  25.834  38.271  1.00  0.00     0.124 S 
ATOM     88  O   UNL A   1      44.121  24.818  37.619  1.00  0.00    -0.237 OA
ATOM     89  O   UNL A   1      46.299  25.429  38.617  1.00  0.00    -0.237 OA
ATOM     90  O   UNL A   1      44.254  26.628  39.288  1.00  0.00    -0.744 OA
ENDBRANCH  83  87
ENDBRANCH  57  80
ENDBRANCH  31  32
ENDBRANCH  23  26
ENDBRANCH  21  22
ENDBRANCH  20  21
ENDBRANCH   1  20
TORSDOF 19
ENDMDL
