MODEL 1
REMARK VINA RESULT:     -13.6      0.000      0.000
REMARK SMILES O=C(NCCCNC(=O)c1ccc(-c2c3nc(c(-c4cc(S(=O)(=O)[O-])ccc4F)c4ccc([nH]4)c(-c4cc(S(=O)(=O)[O-])ccc4F)c4nc(c(-c5cc(S(=O)(=O)[O-])ccc5F)c5ccc2[nH]5)C=C4)C=C3)cc1)c1ccc(NC(=O)[C@@H]2CC=CC[C@H]2C(=O)Nc2cccc([N+](=O)[O-])c2)cc1
REMARK SMILES IDX 4 1 3 2 1 3 2 4 73 6 74 7 99 8 75 9 98 10 76 11 77 12 78 13
REMARK SMILES IDX 79 15 80 16 81 17 85 18 82 19 84 20 83 21 86 22 87 23 88 24
REMARK SMILES IDX 89 26 90 27 97 28 91 29 93 30 92 31 94 32 95 33 96 34 5 35
REMARK SMILES IDX 6 36 7 37 8 38 9 40 10 41 11 42 72 43 12 44 71 45 13 46
REMARK SMILES IDX 14 47 15 48 65 49 16 50 70 51 64 52 66 53 17 54 69 55 63 56
REMARK SMILES IDX 62 57 18 59 50 60 30 61 49 62 31 63 34 64 48 65 67 66 32 67
REMARK SMILES IDX 33 68 47 70 68 71 35 72 19 73 20 74 28 75 21 76 27 77 29 78
REMARK SMILES IDX 26 79 22 80 23 81 24 82 25 83 51 84 52 85 60 86 53 87 59 88
REMARK SMILES IDX 61 89 58 90 54 91 55 92 56 93 57 94 36 95 37 96 45 97 38 98
REMARK SMILES IDX 44 99 46 100 43 101 39 102 40 103 41 104 42 105
REMARK H PARENT 3 5 77 14 88 25 7 39 66 58 34 69
REMARK Flexibility Score: inf
ROOT
ATOM      1  C   UNL A   1      32.645  29.519  25.566  1.00  0.00     0.118 C 
ENDROOT
BRANCH   1   2
ATOM      2  N   UNL A   1      31.406  29.905  24.888  1.00  0.00    -0.352 N 
ATOM      3  O   UNL A   1      29.684  29.769  23.419  1.00  0.00    -0.269 OA
ATOM      4  C   UNL A   1      30.629  29.218  23.978  1.00  0.00     0.251 C 
ATOM      5  H   UNL A   1      31.073  30.802  25.118  1.00  0.00     0.163 HD
BRANCH   4   6
ATOM      6  C   UNL A   1      30.944  27.809  23.670  1.00  0.00     0.039 A 
ATOM      7  C   UNL A   1      31.783  27.533  22.605  1.00  0.00     0.016 A 
ATOM      8  C   UNL A   1      30.363  26.755  24.377  1.00  0.00     0.016 A 
ATOM      9  C   UNL A   1      31.802  26.260  22.081  1.00  0.00     0.027 A 
ATOM     10  C   UNL A   1      30.588  25.434  23.955  1.00  0.00     0.027 A 
ATOM     11  C   UNL A   1      31.324  25.182  22.790  1.00  0.00     0.041 A 
BRANCH  11  12
ATOM     12  N   UNL A   1      31.591  23.865  22.415  1.00  0.00    -0.326 N 
ATOM     13  C   UNL A   1      32.476  22.924  22.839  1.00  0.00     0.228 C 
ATOM     14  H   UNL A   1      31.013  23.547  21.684  1.00  0.00     0.169 HD
ATOM     15  O   UNL A   1      32.362  21.814  22.295  1.00  0.00    -0.274 OA
BRANCH  13  16
ATOM     16  C   UNL A   1      33.592  23.085  23.890  1.00  0.00     0.095 C 
ATOM     17  C   UNL A   1      34.717  24.098  23.583  1.00  0.00     0.041 C 
ATOM     18  C   UNL A   1      33.980  21.722  24.502  1.00  0.00     0.095 C 
ATOM     19  C   UNL A   1      36.119  23.671  23.921  1.00  0.00    -0.030 C 
ATOM     20  C   UNL A   1      35.437  21.502  24.960  1.00  0.00     0.041 C 
ATOM     21  C   UNL A   1      36.436  22.519  24.521  1.00  0.00    -0.030 C 
BRANCH  18  22
ATOM     22  C   UNL A   1      33.007  21.279  25.610  1.00  0.00     0.228 C 
ATOM     23  O   UNL A   1      32.577  22.124  26.404  1.00  0.00    -0.274 OA
ATOM     24  N   UNL A   1      32.483  20.014  25.709  1.00  0.00    -0.326 N 
ATOM     25  H   UNL A   1      31.815  19.899  26.421  1.00  0.00     0.169 HD
BRANCH  24  26
ATOM     26  C   UNL A   1      32.748  18.861  24.958  1.00  0.00     0.048 A 
ATOM     27  C   UNL A   1      32.389  18.848  23.609  1.00  0.00     0.026 A 
ATOM     28  C   UNL A   1      33.321  17.724  25.519  1.00  0.00     0.111 A 
ATOM     29  C   UNL A   1      32.754  17.771  22.794  1.00  0.00     0.009 A 
ATOM     30  C   UNL A   1      33.727  16.667  24.698  1.00  0.00     0.271 A 
ATOM     31  C   UNL A   1      33.459  16.691  23.328  1.00  0.00     0.086 A 
BRANCH  30  32
ATOM     32  N   UNL A   1      34.468  15.545  25.285  1.00  0.00     0.062 N 
ATOM     33  O   UNL A   1      33.872  14.466  25.412  1.00  0.00    -0.258 OA
ATOM     34  O   UNL A   1      35.651  15.736  25.602  1.00  0.00    -0.258 OA
ENDBRANCH  30  32
ENDBRANCH  24  26
ENDBRANCH  18  22
ENDBRANCH  13  16
ENDBRANCH  11  12
ENDBRANCH   4   6
ENDBRANCH   1   2
BRANCH   1  35
ATOM     35  C   UNL A   1      32.754  30.054  26.975  1.00  0.00     0.042 C 
BRANCH  35  36
ATOM     36  C   UNL A   1      34.100  30.676  27.263  1.00  0.00     0.118 C 
BRANCH  36  37
ATOM     37  N   UNL A   1      34.007  31.809  28.177  1.00  0.00    -0.352 N 
ATOM     38  C   UNL A   1      34.798  32.151  29.247  1.00  0.00     0.251 C 
ATOM     39  H   UNL A   1      33.258  32.425  28.000  1.00  0.00     0.163 HD
ATOM     40  O   UNL A   1      34.425  33.032  30.015  1.00  0.00    -0.269 OA
BRANCH  38  41
ATOM     41  C   UNL A   1      36.072  31.436  29.480  1.00  0.00     0.039 A 
ATOM     42  C   UNL A   1      37.251  31.938  28.924  1.00  0.00     0.014 A 
ATOM     43  C   UNL A   1      36.107  30.278  30.259  1.00  0.00     0.014 A 
ATOM     44  C   UNL A   1      38.469  31.318  29.214  1.00  0.00     0.010 A 
ATOM     45  C   UNL A   1      37.325  29.744  30.651  1.00  0.00     0.010 A 
ATOM     46  C   UNL A   1      38.519  30.242  30.115  1.00  0.00    -0.014 A 
BRANCH  46  47
ATOM     47  C   UNL A   1      39.796  29.578  30.477  1.00  0.00     0.031 A 
ATOM     48  C   UNL A   1      40.619  30.129  31.613  1.00  0.00     0.074 A 
ATOM     49  C   UNL A   1      40.251  28.545  29.742  1.00  0.00     0.049 A 
ATOM     50  N   UNL A   1      41.816  29.787  32.014  1.00  0.00    -0.248 NA
ATOM     51  C   UNL A   1      40.034  31.249  32.367  1.00  0.00     0.031 C 
ATOM     52  C   UNL A   1      39.567  27.960  28.587  1.00  0.00     0.029 A 
ATOM     53  N   UNL A   1      41.404  27.810  29.851  1.00  0.00    -0.354 N 
ATOM     54  C   UNL A   1      42.136  30.666  33.044  1.00  0.00     0.074 A 
ATOM     55  C   UNL A   1      41.039  31.602  33.153  1.00  0.00     0.031 C 
ATOM     56  C   UNL A   1      40.299  26.938  28.113  1.00  0.00     0.029 A 
ATOM     57  C   UNL A   1      41.524  26.825  28.898  1.00  0.00     0.049 A 
ATOM     58  H   UNL A   1      42.082  27.972  30.546  1.00  0.00     0.167 HD
ATOM     59  C   UNL A   1      43.229  30.673  33.846  1.00  0.00     0.034 A 
ATOM     60  C   UNL A   1      42.515  25.939  28.679  1.00  0.00     0.034 A 
ATOM     61  C   UNL A   1      44.295  29.709  33.743  1.00  0.00     0.049 A 
ATOM     62  C   UNL A   1      43.716  25.956  29.589  1.00  0.00     0.074 A 
ATOM     63  C   UNL A   1      45.422  29.580  34.536  1.00  0.00     0.029 A 
ATOM     64  N   UNL A   1      44.367  28.704  32.786  1.00  0.00    -0.354 N 
ATOM     65  N   UNL A   1      43.983  26.765  30.590  1.00  0.00    -0.248 NA
ATOM     66  C   UNL A   1      44.740  24.932  29.351  1.00  0.00     0.031 C 
ATOM     67  C   UNL A   1      46.200  28.536  34.023  1.00  0.00     0.029 A 
ATOM     68  C   UNL A   1      45.526  27.965  32.956  1.00  0.00     0.049 A 
ATOM     69  H   UNL A   1      43.690  28.541  32.088  1.00  0.00     0.167 HD
ATOM     70  C   UNL A   1      45.192  26.324  31.120  1.00  0.00     0.074 A 
ATOM     71  C   UNL A   1      45.591  25.171  30.338  1.00  0.00     0.031 C 
ATOM     72  C   UNL A   1      45.907  26.821  32.161  1.00  0.00     0.034 A 
BRANCH  59  73
ATOM     73  C   UNL A   1      43.318  31.766  34.884  1.00  0.00     0.023 A 
ATOM     74  C   UNL A   1      42.675  31.658  36.130  1.00  0.00     0.031 A 
ATOM     75  C   UNL A   1      44.018  32.954  34.610  1.00  0.00     0.131 A 
ATOM     76  C   UNL A   1      42.668  32.746  37.015  1.00  0.00     0.055 A 
ATOM     77  C   UNL A   1      44.083  34.001  35.533  1.00  0.00     0.041 A 
ATOM     78  F   UNL A   1      44.635  33.128  33.430  1.00  0.00    -0.206 F 
ATOM     79  C   UNL A   1      43.390  33.908  36.736  1.00  0.00     0.022 A 
BRANCH  76  80
ATOM     80  S   UNL A   1      41.571  32.680  38.458  1.00  0.00     0.124 S 
ATOM     81  O   UNL A   1      42.245  31.689  39.294  1.00  0.00    -0.237 OA
ATOM     82  O   UNL A   1      41.606  34.055  38.943  1.00  0.00    -0.237 OA
ATOM     83  O   UNL A   1      40.293  32.248  37.898  1.00  0.00    -0.744 OA
ENDBRANCH  76  80
ENDBRANCH  59  73
BRANCH  60  84
ATOM     84  C   UNL A   1      42.419  24.961  27.559  1.00  0.00     0.023 A 
ATOM     85  C   UNL A   1      41.613  23.816  27.668  1.00  0.00     0.031 A 
ATOM     86  C   UNL A   1      43.161  25.134  26.377  1.00  0.00     0.131 A 
ATOM     87  C   UNL A   1      41.604  22.865  26.638  1.00  0.00     0.055 A 
ATOM     88  C   UNL A   1      43.110  24.209  25.332  1.00  0.00     0.041 A 
ATOM     89  F   UNL A   1      43.940  26.216  26.217  1.00  0.00    -0.206 F 
ATOM     90  C   UNL A   1      42.339  23.059  25.465  1.00  0.00     0.022 A 
BRANCH  87  91
ATOM     91  S   UNL A   1      40.679  21.325  26.887  1.00  0.00     0.124 S 
ATOM     92  O   UNL A   1      40.799  21.135  28.327  1.00  0.00    -0.237 OA
ATOM     93  O   UNL A   1      39.354  21.686  26.395  1.00  0.00    -0.237 OA
ATOM     94  O   UNL A   1      41.403  20.357  26.067  1.00  0.00    -0.744 OA
ENDBRANCH  87  91
ENDBRANCH  60  84
BRANCH  72  95
ATOM     95  C   UNL A   1      47.165  26.081  32.541  1.00  0.00     0.023 A 
ATOM     96  C   UNL A   1      47.162  25.063  33.511  1.00  0.00     0.031 A 
ATOM     97  C   UNL A   1      48.388  26.413  31.932  1.00  0.00     0.131 A 
ATOM     98  C   UNL A   1      48.370  24.456  33.887  1.00  0.00     0.055 A 
ATOM     99  C   UNL A   1      49.576  25.762  32.265  1.00  0.00     0.041 A 
ATOM    100  F   UNL A   1      48.447  27.378  30.999  1.00  0.00    -0.206 F 
ATOM    101  C   UNL A   1      49.573  24.786  33.258  1.00  0.00     0.022 A 
BRANCH  98 102
ATOM    102  S   UNL A   1      48.362  23.292  35.278  1.00  0.00     0.124 S 
ATOM    103  O   UNL A   1      47.587  24.020  36.277  1.00  0.00    -0.237 OA
ATOM    104  O   UNL A   1      47.714  22.119  34.699  1.00  0.00    -0.237 OA
ATOM    105  O   UNL A   1      49.779  23.124  35.594  1.00  0.00    -0.744 OA
ENDBRANCH  98 102
ENDBRANCH  72  95
ENDBRANCH  46  47
ENDBRANCH  38  41
ENDBRANCH  36  37
ENDBRANCH  35  36
ENDBRANCH   1  35
TORSDOF 18
ENDMDL
MODEL 2
REMARK VINA RESULT:     -13.5      3.922     10.103
REMARK SMILES O=C(NCCCNC(=O)c1ccc(-c2c3nc(c(-c4cc(S(=O)(=O)[O-])ccc4F)c4ccc([nH]4)c(-c4cc(S(=O)(=O)[O-])ccc4F)c4nc(c(-c5cc(S(=O)(=O)[O-])ccc5F)c5ccc2[nH]5)C=C4)C=C3)cc1)c1ccc(NC(=O)[C@@H]2CC=CC[C@H]2C(=O)Nc2cccc([N+](=O)[O-])c2)cc1
REMARK SMILES IDX 4 1 3 2 1 3 2 4 73 6 74 7 99 8 75 9 98 10 76 11 77 12 78 13
REMARK SMILES IDX 79 15 80 16 81 17 85 18 82 19 84 20 83 21 86 22 87 23 88 24
REMARK SMILES IDX 89 26 90 27 97 28 91 29 93 30 92 31 94 32 95 33 96 34 5 35
REMARK SMILES IDX 6 36 7 37 8 38 9 40 10 41 11 42 72 43 12 44 71 45 13 46
REMARK SMILES IDX 14 47 15 48 65 49 16 50 70 51 64 52 66 53 17 54 69 55 63 56
REMARK SMILES IDX 62 57 18 59 50 60 30 61 49 62 31 63 34 64 48 65 67 66 32 67
REMARK SMILES IDX 33 68 47 70 68 71 35 72 19 73 20 74 28 75 21 76 27 77 29 78
REMARK SMILES IDX 26 79 22 80 23 81 24 82 25 83 51 84 52 85 60 86 53 87 59 88
REMARK SMILES IDX 61 89 58 90 54 91 55 92 56 93 57 94 36 95 37 96 45 97 38 98
REMARK SMILES IDX 44 99 46 100 43 101 39 102 40 103 41 104 42 105
REMARK H PARENT 3 5 77 14 88 25 7 39 66 58 34 69
REMARK Flexibility Score: inf
ROOT
ATOM      1  C   UNL A   1      35.623  21.548  25.808  1.00  0.00     0.118 C 
ENDROOT
BRANCH   1   2
ATOM      2  N   UNL A   1      35.132  20.339  25.144  1.00  0.00    -0.352 N 
ATOM      3  O   UNL A   1      33.632  18.900  24.239  1.00  0.00    -0.269 OA
ATOM      4  C   UNL A   1      33.881  20.030  24.651  1.00  0.00     0.251 C 
ATOM      5  H   UNL A   1      35.805  19.630  25.031  1.00  0.00     0.163 HD
BRANCH   4   6
ATOM      6  C   UNL A   1      32.832  21.068  24.627  1.00  0.00     0.039 A 
ATOM      7  C   UNL A   1      32.648  21.800  23.468  1.00  0.00     0.016 A 
ATOM      8  C   UNL A   1      32.075  21.374  25.759  1.00  0.00     0.016 A 
ATOM      9  C   UNL A   1      31.950  22.986  23.529  1.00  0.00     0.027 A 
ATOM     10  C   UNL A   1      31.187  22.461  25.722  1.00  0.00     0.027 A 
ATOM     11  C   UNL A   1      31.120  23.278  24.586  1.00  0.00     0.041 A 
BRANCH  11  12
ATOM     12  N   UNL A   1      30.191  24.319  24.540  1.00  0.00    -0.326 N 
ATOM     13  C   UNL A   1      30.287  25.673  24.618  1.00  0.00     0.228 C 
ATOM     14  H   UNL A   1      29.266  24.005  24.426  1.00  0.00     0.169 HD
ATOM     15  O   UNL A   1      29.217  26.284  24.460  1.00  0.00    -0.274 OA
BRANCH  13  16
ATOM     16  C   UNL A   1      31.549  26.516  24.887  1.00  0.00     0.095 C 
ATOM     17  C   UNL A   1      32.283  26.288  26.227  1.00  0.00     0.041 C 
ATOM     18  C   UNL A   1      31.366  27.965  24.389  1.00  0.00     0.095 C 
ATOM     19  C   UNL A   1      32.777  27.516  26.941  1.00  0.00    -0.030 C 
ATOM     20  C   UNL A   1      32.086  29.105  25.140  1.00  0.00     0.041 C 
ATOM     21  C   UNL A   1      32.681  28.760  26.464  1.00  0.00    -0.030 C 
BRANCH  18  22
ATOM     22  C   UNL A   1      31.606  28.100  22.874  1.00  0.00     0.228 C 
ATOM     23  O   UNL A   1      32.568  27.512  22.365  1.00  0.00    -0.274 OA
ATOM     24  N   UNL A   1      30.746  28.739  22.015  1.00  0.00    -0.326 N 
ATOM     25  H   UNL A   1      30.991  28.677  21.065  1.00  0.00     0.169 HD
BRANCH  24  26
ATOM     26  C   UNL A   1      29.578  29.467  22.276  1.00  0.00     0.048 A 
ATOM     27  C   UNL A   1      28.503  28.808  22.876  1.00  0.00     0.026 A 
ATOM     28  C   UNL A   1      29.443  30.806  21.927  1.00  0.00     0.111 A 
ATOM     29  C   UNL A   1      27.371  29.526  23.273  1.00  0.00     0.009 A 
ATOM     30  C   UNL A   1      28.332  31.535  22.363  1.00  0.00     0.271 A 
ATOM     31  C   UNL A   1      27.296  30.902  23.052  1.00  0.00     0.086 A 
BRANCH  30  32
ATOM     32  N   UNL A   1      28.279  32.981  22.119  1.00  0.00     0.062 N 
ATOM     33  O   UNL A   1      27.714  33.370  21.087  1.00  0.00    -0.258 OA
ATOM     34  O   UNL A   1      28.786  33.729  22.967  1.00  0.00    -0.258 OA
ENDBRANCH  30  32
ENDBRANCH  24  26
ENDBRANCH  18  22
ENDBRANCH  13  16
ENDBRANCH  11  12
ENDBRANCH   4   6
ENDBRANCH   1   2
BRANCH   1  35
ATOM     35  C   UNL A   1      36.391  22.472  24.890  1.00  0.00     0.042 C 
BRANCH  35  36
ATOM     36  C   UNL A   1      37.576  23.118  25.568  1.00  0.00     0.118 C 
BRANCH  36  37
ATOM     37  N   UNL A   1      38.515  22.138  26.104  1.00  0.00    -0.352 N 
ATOM     38  C   UNL A   1      39.753  22.318  26.670  1.00  0.00     0.251 C 
ATOM     39  H   UNL A   1      38.214  21.202  26.049  1.00  0.00     0.163 HD
ATOM     40  O   UNL A   1      40.472  21.342  26.868  1.00  0.00    -0.269 OA
BRANCH  38  41
ATOM     41  C   UNL A   1      40.220  23.680  27.008  1.00  0.00     0.039 A 
ATOM     42  C   UNL A   1      40.071  24.707  26.074  1.00  0.00     0.014 A 
ATOM     43  C   UNL A   1      40.794  23.947  28.253  1.00  0.00     0.014 A 
ATOM     44  C   UNL A   1      40.428  26.012  26.422  1.00  0.00     0.010 A 
ATOM     45  C   UNL A   1      41.024  25.258  28.641  1.00  0.00     0.010 A 
ATOM     46  C   UNL A   1      40.868  26.304  27.723  1.00  0.00    -0.014 A 
BRANCH  46  47
ATOM     47  C   UNL A   1      41.223  27.683  28.142  1.00  0.00     0.031 A 
ATOM     48  C   UNL A   1      42.670  28.104  28.146  1.00  0.00     0.074 A 
ATOM     49  C   UNL A   1      40.267  28.517  28.595  1.00  0.00     0.049 A 
ATOM     50  N   UNL A   1      43.213  29.208  28.591  1.00  0.00    -0.248 NA
ATOM     51  C   UNL A   1      43.641  27.131  27.620  1.00  0.00     0.031 C 
ATOM     52  C   UNL A   1      38.840  28.201  28.689  1.00  0.00     0.029 A 
ATOM     53  N   UNL A   1      40.354  29.800  29.071  1.00  0.00    -0.354 N 
ATOM     54  C   UNL A   1      44.585  29.048  28.426  1.00  0.00     0.074 A 
ATOM     55  C   UNL A   1      44.793  27.713  27.911  1.00  0.00     0.031 C 
ATOM     56  C   UNL A   1      38.183  29.271  29.164  1.00  0.00     0.029 A 
ATOM     57  C   UNL A   1      39.143  30.331  29.453  1.00  0.00     0.049 A 
ATOM     58  H   UNL A   1      41.202  30.294  29.135  1.00  0.00     0.167 HD
ATOM     59  C   UNL A   1      45.577  29.943  28.652  1.00  0.00     0.034 A 
ATOM     60  C   UNL A   1      38.846  31.533  29.984  1.00  0.00     0.034 A 
ATOM     61  C   UNL A   1      45.345  31.281  29.134  1.00  0.00     0.049 A 
ATOM     62  C   UNL A   1      39.962  32.517  30.217  1.00  0.00     0.074 A 
ATOM     63  C   UNL A   1      46.264  32.294  29.345  1.00  0.00     0.029 A 
ATOM     64  N   UNL A   1      44.101  31.796  29.478  1.00  0.00    -0.354 N 
ATOM     65  N   UNL A   1      41.252  32.368  30.013  1.00  0.00    -0.248 NA
ATOM     66  C   UNL A   1      39.583  33.836  30.738  1.00  0.00     0.031 C 
ATOM     67  C   UNL A   1      45.583  33.399  29.870  1.00  0.00     0.029 A 
ATOM     68  C   UNL A   1      44.230  33.103  29.918  1.00  0.00     0.049 A 
ATOM     69  H   UNL A   1      43.250  31.303  29.417  1.00  0.00     0.167 HD
ATOM     70  C   UNL A   1      41.832  33.588  30.350  1.00  0.00     0.074 A 
ATOM     71  C   UNL A   1      40.750  34.463  30.756  1.00  0.00     0.031 C 
ATOM     72  C   UNL A   1      43.138  33.957  30.323  1.00  0.00     0.034 A 
BRANCH  59  73
ATOM     73  C   UNL A   1      46.993  29.486  28.395  1.00  0.00     0.023 A 
ATOM     74  C   UNL A   1      47.772  28.887  29.401  1.00  0.00     0.031 A 
ATOM     75  C   UNL A   1      47.592  29.689  27.139  1.00  0.00     0.131 A 
ATOM     76  C   UNL A   1      49.124  28.598  29.166  1.00  0.00     0.055 A 
ATOM     77  C   UNL A   1      48.913  29.315  26.883  1.00  0.00     0.041 A 
ATOM     78  F   UNL A   1      46.909  30.275  26.142  1.00  0.00    -0.206 F 
ATOM     79  C   UNL A   1      49.694  28.783  27.905  1.00  0.00     0.022 A 
BRANCH  76  80
ATOM     80  S   UNL A   1      50.165  28.126  30.575  1.00  0.00     0.124 S 
ATOM     81  O   UNL A   1      50.119  26.668  30.499  1.00  0.00    -0.237 OA
ATOM     82  O   UNL A   1      51.444  28.743  30.242  1.00  0.00    -0.237 OA
ATOM     83  O   UNL A   1      49.472  28.706  31.723  1.00  0.00    -0.744 OA
ENDBRANCH  76  80
ENDBRANCH  59  73
BRANCH  60  84
ATOM     84  C   UNL A   1      37.438  31.879  30.329  1.00  0.00     0.023 A 
ATOM     85  C   UNL A   1      36.530  32.280  29.335  1.00  0.00     0.031 A 
ATOM     86  C   UNL A   1      36.987  31.851  31.660  1.00  0.00     0.131 A 
ATOM     87  C   UNL A   1      35.235  32.684  29.691  1.00  0.00     0.055 A 
ATOM     88  C   UNL A   1      35.682  32.206  32.004  1.00  0.00     0.041 A 
ATOM     89  F   UNL A   1      37.812  31.465  32.647  1.00  0.00    -0.206 F 
ATOM     90  C   UNL A   1      34.801  32.639  31.019  1.00  0.00     0.022 A 
BRANCH  87  91
ATOM     91  S   UNL A   1      34.148  33.350  28.401  1.00  0.00     0.124 S 
ATOM     92  O   UNL A   1      35.087  34.108  27.583  1.00  0.00    -0.237 OA
ATOM     93  O   UNL A   1      33.611  32.133  27.802  1.00  0.00    -0.237 OA
ATOM     94  O   UNL A   1      33.183  34.151  29.150  1.00  0.00    -0.744 OA
ENDBRANCH  87  91
ENDBRANCH  60  84
BRANCH  72  95
ATOM     95  C   UNL A   1      43.453  35.384  30.694  1.00  0.00     0.023 A 
ATOM     96  C   UNL A   1      43.660  35.775  32.028  1.00  0.00     0.031 A 
ATOM     97  C   UNL A   1      43.528  36.370  29.694  1.00  0.00     0.131 A 
ATOM     98  C   UNL A   1      43.875  37.128  32.332  1.00  0.00     0.055 A 
ATOM     99  C   UNL A   1      43.804  37.704  29.997  1.00  0.00     0.041 A 
ATOM    100  F   UNL A   1      43.338  36.051  28.404  1.00  0.00    -0.206 F 
ATOM    101  C   UNL A   1      43.964  38.091  31.324  1.00  0.00     0.022 A 
BRANCH  98 102
ATOM    102  S   UNL A   1      43.939  37.627  34.074  1.00  0.00     0.124 S 
ATOM    103  O   UNL A   1      45.106  38.503  34.096  1.00  0.00    -0.237 OA
ATOM    104  O   UNL A   1      42.648  38.280  34.260  1.00  0.00    -0.237 OA
ATOM    105  O   UNL A   1      44.101  36.362  34.788  1.00  0.00    -0.744 OA
ENDBRANCH  98 102
ENDBRANCH  72  95
ENDBRANCH  46  47
ENDBRANCH  38  41
ENDBRANCH  36  37
ENDBRANCH  35  36
ENDBRANCH   1  35
TORSDOF 18
ENDMDL
MODEL 3
REMARK VINA RESULT:     -13.4      2.241      7.411
REMARK SMILES O=C(NCCCNC(=O)c1ccc(-c2c3nc(c(-c4cc(S(=O)(=O)[O-])ccc4F)c4ccc([nH]4)c(-c4cc(S(=O)(=O)[O-])ccc4F)c4nc(c(-c5cc(S(=O)(=O)[O-])ccc5F)c5ccc2[nH]5)C=C4)C=C3)cc1)c1ccc(NC(=O)[C@@H]2CC=CC[C@H]2C(=O)Nc2cccc([N+](=O)[O-])c2)cc1
REMARK SMILES IDX 4 1 3 2 1 3 2 4 73 6 74 7 99 8 75 9 98 10 76 11 77 12 78 13
REMARK SMILES IDX 79 15 80 16 81 17 85 18 82 19 84 20 83 21 86 22 87 23 88 24
REMARK SMILES IDX 89 26 90 27 97 28 91 29 93 30 92 31 94 32 95 33 96 34 5 35
REMARK SMILES IDX 6 36 7 37 8 38 9 40 10 41 11 42 72 43 12 44 71 45 13 46
REMARK SMILES IDX 14 47 15 48 65 49 16 50 70 51 64 52 66 53 17 54 69 55 63 56
REMARK SMILES IDX 62 57 18 59 50 60 30 61 49 62 31 63 34 64 48 65 67 66 32 67
REMARK SMILES IDX 33 68 47 70 68 71 35 72 19 73 20 74 28 75 21 76 27 77 29 78
REMARK SMILES IDX 26 79 22 80 23 81 24 82 25 83 51 84 52 85 60 86 53 87 59 88
REMARK SMILES IDX 61 89 58 90 54 91 55 92 56 93 57 94 36 95 37 96 45 97 38 98
REMARK SMILES IDX 44 99 46 100 43 101 39 102 40 103 41 104 42 105
REMARK H PARENT 3 5 77 14 88 25 7 39 66 58 34 69
REMARK Flexibility Score: inf
ROOT
ATOM      1  C   UNL A   1      32.897  29.182  22.757  1.00  0.00     0.118 C 
ENDROOT
BRANCH   1   2
ATOM      2  N   UNL A   1      31.592  29.559  22.211  1.00  0.00    -0.352 N 
ATOM      3  O   UNL A   1      29.452  29.297  21.510  1.00  0.00    -0.269 OA
ATOM      4  C   UNL A   1      30.414  28.846  22.126  1.00  0.00     0.251 C 
ATOM      5  H   UNL A   1      31.547  30.471  21.843  1.00  0.00     0.163 HD
BRANCH   4   6
ATOM      6  C   UNL A   1      30.314  27.525  22.777  1.00  0.00     0.039 A 
ATOM      7  C   UNL A   1      29.547  27.405  23.922  1.00  0.00     0.016 A 
ATOM      8  C   UNL A   1      31.026  26.420  22.309  1.00  0.00     0.016 A 
ATOM      9  C   UNL A   1      29.724  26.307  24.735  1.00  0.00     0.027 A 
ATOM     10  C   UNL A   1      31.005  25.224  23.046  1.00  0.00     0.027 A 
ATOM     11  C   UNL A   1      30.339  25.165  24.276  1.00  0.00     0.041 A 
BRANCH  11  12
ATOM     12  N   UNL A   1      30.275  23.954  24.968  1.00  0.00    -0.326 N 
ATOM     13  C   UNL A   1      31.118  23.305  25.813  1.00  0.00     0.228 C 
ATOM     14  H   UNL A   1      29.437  23.464  24.809  1.00  0.00     0.169 HD
ATOM     15  O   UNL A   1      30.668  22.253  26.297  1.00  0.00    -0.274 OA
BRANCH  13  16
ATOM     16  C   UNL A   1      32.547  23.715  26.221  1.00  0.00     0.095 C 
ATOM     17  C   UNL A   1      32.957  25.186  25.990  1.00  0.00     0.041 C 
ATOM     18  C   UNL A   1      33.564  22.607  25.872  1.00  0.00     0.095 C 
ATOM     19  C   UNL A   1      34.340  25.423  25.447  1.00  0.00    -0.030 C 
ATOM     20  C   UNL A   1      35.004  23.014  25.497  1.00  0.00     0.041 C 
ATOM     21  C   UNL A   1      35.239  24.461  25.221  1.00  0.00    -0.030 C 
BRANCH  18  22
ATOM     22  C   UNL A   1      33.591  21.484  26.925  1.00  0.00     0.228 C 
ATOM     23  O   UNL A   1      33.780  21.779  28.111  1.00  0.00    -0.274 OA
ATOM     24  N   UNL A   1      33.300  20.171  26.652  1.00  0.00    -0.326 N 
ATOM     25  H   UNL A   1      33.281  19.580  27.439  1.00  0.00     0.169 HD
BRANCH  24  26
ATOM     26  C   UNL A   1      33.025  19.536  25.434  1.00  0.00     0.048 A 
ATOM     27  C   UNL A   1      32.384  20.267  24.433  1.00  0.00     0.026 A 
ATOM     28  C   UNL A   1      33.336  18.201  25.205  1.00  0.00     0.111 A 
ATOM     29  C   UNL A   1      32.211  19.715  23.159  1.00  0.00     0.009 A 
ATOM     30  C   UNL A   1      33.205  17.661  23.921  1.00  0.00     0.271 A 
ATOM     31  C   UNL A   1      32.656  18.421  22.887  1.00  0.00     0.086 A 
BRANCH  30  32
ATOM     32  N   UNL A   1      33.683  16.298  23.662  1.00  0.00     0.062 N 
ATOM     33  O   UNL A   1      33.418  15.426  24.502  1.00  0.00    -0.258 OA
ATOM     34  O   UNL A   1      34.305  16.094  22.610  1.00  0.00    -0.258 OA
ENDBRANCH  30  32
ENDBRANCH  24  26
ENDBRANCH  18  22
ENDBRANCH  13  16
ENDBRANCH  11  12
ENDBRANCH   4   6
ENDBRANCH   1   2
BRANCH   1  35
ATOM     35  C   UNL A   1      32.819  28.553  24.128  1.00  0.00     0.042 C 
BRANCH  35  36
ATOM     36  C   UNL A   1      33.706  29.240  25.140  1.00  0.00     0.118 C 
BRANCH  36  37
ATOM     37  N   UNL A   1      33.059  30.392  25.757  1.00  0.00    -0.352 N 
ATOM     38  C   UNL A   1      33.380  31.077  26.905  1.00  0.00     0.251 C 
ATOM     39  H   UNL A   1      32.268  30.731  25.279  1.00  0.00     0.163 HD
ATOM     40  O   UNL A   1      32.582  31.890  27.364  1.00  0.00    -0.269 OA
BRANCH  38  41
ATOM     41  C   UNL A   1      34.662  30.808  27.590  1.00  0.00     0.039 A 
ATOM     42  C   UNL A   1      35.577  31.848  27.764  1.00  0.00     0.014 A 
ATOM     43  C   UNL A   1      34.957  29.532  28.074  1.00  0.00     0.014 A 
ATOM     44  C   UNL A   1      36.750  31.622  28.489  1.00  0.00     0.010 A 
ATOM     45  C   UNL A   1      36.054  29.342  28.901  1.00  0.00     0.010 A 
ATOM     46  C   UNL A   1      36.976  30.378  29.099  1.00  0.00    -0.014 A 
BRANCH  46  47
ATOM     47  C   UNL A   1      38.192  30.106  29.906  1.00  0.00     0.031 A 
ATOM     48  C   UNL A   1      39.237  29.160  29.374  1.00  0.00     0.074 A 
ATOM     49  C   UNL A   1      38.315  30.638  31.138  1.00  0.00     0.049 A 
ATOM     50  N   UNL A   1      40.305  28.686  29.961  1.00  0.00    -0.248 NA
ATOM     51  C   UNL A   1      39.024  28.641  28.014  1.00  0.00     0.031 C 
ATOM     52  C   UNL A   1      37.343  31.525  31.781  1.00  0.00     0.029 A 
ATOM     53  N   UNL A   1      39.307  30.501  32.075  1.00  0.00    -0.354 N 
ATOM     54  C   UNL A   1      40.871  27.795  29.055  1.00  0.00     0.074 A 
ATOM     55  C   UNL A   1      39.986  27.739  27.913  1.00  0.00     0.031 C 
ATOM     56  C   UNL A   1      37.801  31.875  32.994  1.00  0.00     0.029 A 
ATOM     57  C   UNL A   1      39.073  31.202  33.235  1.00  0.00     0.049 A 
ATOM     58  H   UNL A   1      40.111  29.951  31.932  1.00  0.00     0.167 HD
ATOM     59  C   UNL A   1      42.037  27.110  29.153  1.00  0.00     0.034 A 
ATOM     60  C   UNL A   1      39.799  31.284  34.367  1.00  0.00     0.034 A 
ATOM     61  C   UNL A   1      42.921  27.206  30.287  1.00  0.00     0.049 A 
ATOM     62  C   UNL A   1      41.098  30.524  34.451  1.00  0.00     0.074 A 
ATOM     63  C   UNL A   1      44.155  26.607  30.473  1.00  0.00     0.029 A 
ATOM     64  N   UNL A   1      42.667  27.954  31.431  1.00  0.00    -0.354 N 
ATOM     65  N   UNL A   1      41.643  29.720  33.566  1.00  0.00    -0.248 NA
ATOM     66  C   UNL A   1      41.885  30.694  35.678  1.00  0.00     0.031 C 
ATOM     67  C   UNL A   1      44.617  26.946  31.750  1.00  0.00     0.029 A 
ATOM     68  C   UNL A   1      43.709  27.815  32.333  1.00  0.00     0.049 A 
ATOM     69  H   UNL A   1      41.862  28.503  31.578  1.00  0.00     0.167 HD
ATOM     70  C   UNL A   1      42.855  29.316  34.119  1.00  0.00     0.074 A 
ATOM     71  C   UNL A   1      42.964  29.976  35.405  1.00  0.00     0.031 C 
ATOM     72  C   UNL A   1      43.796  28.480  33.612  1.00  0.00     0.034 A 
BRANCH  59  73
ATOM     73  C   UNL A   1      42.398  26.193  28.009  1.00  0.00     0.023 A 
ATOM     74  C   UNL A   1      41.832  24.912  27.881  1.00  0.00     0.031 A 
ATOM     75  C   UNL A   1      43.355  26.584  27.056  1.00  0.00     0.131 A 
ATOM     76  C   UNL A   1      42.290  24.037  26.885  1.00  0.00     0.055 A 
ATOM     77  C   UNL A   1      43.742  25.741  26.011  1.00  0.00     0.041 A 
ATOM     78  F   UNL A   1      43.949  27.786  27.135  1.00  0.00    -0.206 F 
ATOM     79  C   UNL A   1      43.222  24.452  25.931  1.00  0.00     0.022 A 
BRANCH  76  80
ATOM     80  S   UNL A   1      41.767  22.301  26.950  1.00  0.00     0.124 S 
ATOM     81  O   UNL A   1      42.585  21.789  28.047  1.00  0.00    -0.237 OA
ATOM     82  O   UNL A   1      40.338  22.413  27.218  1.00  0.00    -0.237 OA
ATOM     83  O   UNL A   1      42.117  21.788  25.628  1.00  0.00    -0.744 OA
ENDBRANCH  76  80
ENDBRANCH  59  73
BRANCH  60  84
ATOM     84  C   UNL A   1      39.325  32.115  35.510  1.00  0.00     0.023 A 
ATOM     85  C   UNL A   1      38.624  31.536  36.580  1.00  0.00     0.031 A 
ATOM     86  C   UNL A   1      39.532  33.506  35.533  1.00  0.00     0.131 A 
ATOM     87  C   UNL A   1      38.112  32.348  37.603  1.00  0.00     0.055 A 
ATOM     88  C   UNL A   1      39.065  34.303  36.579  1.00  0.00     0.041 A 
ATOM     89  F   UNL A   1      40.206  34.108  34.540  1.00  0.00    -0.206 F 
ATOM     90  C   UNL A   1      38.337  33.727  37.615  1.00  0.00     0.022 A 
BRANCH  87  91
ATOM     91  S   UNL A   1      37.073  31.584  38.879  1.00  0.00     0.124 S 
ATOM     92  O   UNL A   1      35.906  32.457  38.874  1.00  0.00    -0.237 OA
ATOM     93  O   UNL A   1      36.874  30.242  38.341  1.00  0.00    -0.237 OA
ATOM     94  O   UNL A   1      37.903  31.655  40.079  1.00  0.00    -0.744 OA
ENDBRANCH  87  91
ENDBRANCH  60  84
BRANCH  72  95
ATOM     95  C   UNL A   1      45.046  28.280  34.432  1.00  0.00     0.023 A 
ATOM     96  C   UNL A   1      45.156  27.243  35.375  1.00  0.00     0.031 A 
ATOM     97  C   UNL A   1      46.136  29.155  34.276  1.00  0.00     0.131 A 
ATOM     98  C   UNL A   1      46.309  27.143  36.169  1.00  0.00     0.055 A 
ATOM     99  C   UNL A   1      47.305  29.012  35.025  1.00  0.00     0.041 A 
ATOM    100  F   UNL A   1      46.083  30.162  33.390  1.00  0.00    -0.206 F 
ATOM    101  C   UNL A   1      47.390  28.010  35.988  1.00  0.00     0.022 A 
BRANCH  98 102
ATOM    102  S   UNL A   1      46.338  25.922  37.509  1.00  0.00     0.124 S 
ATOM    103  O   UNL A   1      47.069  26.634  38.552  1.00  0.00    -0.237 OA
ATOM    104  O   UNL A   1      44.918  25.703  37.762  1.00  0.00    -0.237 OA
ATOM    105  O   UNL A   1      47.045  24.785  36.922  1.00  0.00    -0.744 OA
ENDBRANCH  98 102
ENDBRANCH  72  95
ENDBRANCH  46  47
ENDBRANCH  38  41
ENDBRANCH  36  37
ENDBRANCH  35  36
ENDBRANCH   1  35
TORSDOF 18
ENDMDL
