MODEL 1
REMARK VINA RESULT:     -10.4      0.000      0.000
REMARK SMILES C[C@@H](C(=O)[C@H](C)[C@@H](C)C(=O)NCCCNC(=O)c1ccc(-c2c3nc(c(-c4cc(S(=O)(=O)[O-])ccc4F)c4ccc([nH]4)c(-c4cc(S(=O)(=O)[O-])ccc4F)c4nc(c(-c5cc(S(=O)(=O)[O-])ccc5F)c5ccc2[nH]5)C=C4)C=C3)cc1)c1ccccc1
REMARK SMILES IDX 12 1 11 2 9 3 10 4 7 6 8 7 5 8 6 9 3 10 4 11 2 12 1 13 81 14
REMARK SMILES IDX 82 15 86 16 83 17 85 18 84 19 13 20 14 21 15 22 16 23 17 25
REMARK SMILES IDX 18 26 19 27 80 28 20 29 79 30 21 31 22 32 23 33 73 34 24 35
REMARK SMILES IDX 78 36 72 37 74 38 25 39 77 40 71 41 70 42 26 44 58 45 38 46
REMARK SMILES IDX 57 47 39 48 42 49 56 50 75 51 40 52 41 53 55 55 76 56 43 57
REMARK SMILES IDX 27 58 28 59 36 60 29 61 35 62 37 63 34 64 30 65 31 66 32 67
REMARK SMILES IDX 33 68 59 69 60 70 68 71 61 72 67 73 69 74 66 75 62 76 63 77
REMARK SMILES IDX 64 78 65 79 44 80 45 81 53 82 46 83 52 84 54 85 51 86 47 87
REMARK SMILES IDX 48 88 49 89 50 90
REMARK H PARENT 11 5 15 24 74 43 42 54
REMARK Flexibility Score: inf
ROOT
ATOM      1  C   UNL A   1      34.552  35.486  28.611  1.00  0.00     0.117 C 
ENDROOT
BRANCH   1   2
ATOM      2  N   UNL A   1      33.849  36.625  29.170  1.00  0.00    -0.356 N 
ATOM      3  C   UNL A   1      33.341  36.858  30.407  1.00  0.00     0.223 C 
ATOM      4  O   UNL A   1      32.889  37.984  30.635  1.00  0.00    -0.275 OA
ATOM      5  H   UNL A   1      33.717  37.365  28.535  1.00  0.00     0.163 HD
BRANCH   3   6
ATOM      6  C   UNL A   1      33.437  35.832  31.539  1.00  0.00     0.085 C 
ATOM      7  C   UNL A   1      32.015  35.646  32.097  1.00  0.00     0.019 C 
BRANCH   6   8
ATOM      8  C   UNL A   1      34.554  36.076  32.599  1.00  0.00     0.066 C 
ATOM      9  C   UNL A   1      33.993  36.789  33.840  1.00  0.00     0.017 C 
BRANCH   8  10
ATOM     10  C   UNL A   1      35.324  34.759  32.923  1.00  0.00     0.143 C 
ATOM     11  O   UNL A   1      35.630  34.513  34.093  1.00  0.00    -0.299 OA
BRANCH  10  12
ATOM     12  C   UNL A   1      35.579  33.716  31.808  1.00  0.00     0.083 C 
ATOM     13  C   UNL A   1      35.299  32.319  32.374  1.00  0.00     0.021 C 
BRANCH  12  14
ATOM     14  C   UNL A   1      36.954  33.838  31.127  1.00  0.00    -0.038 A 
ATOM     15  C   UNL A   1      37.169  33.257  29.863  1.00  0.00     0.004 A 
ATOM     16  C   UNL A   1      38.056  34.454  31.749  1.00  0.00     0.004 A 
ATOM     17  C   UNL A   1      38.422  33.313  29.241  1.00  0.00     0.000 A 
ATOM     18  C   UNL A   1      39.310  34.503  31.130  1.00  0.00     0.000 A 
ATOM     19  C   UNL A   1      39.493  33.933  29.875  1.00  0.00     0.000 A 
ENDBRANCH  12  14
ENDBRANCH  10  12
ENDBRANCH   8  10
ENDBRANCH   6   8
ENDBRANCH   3   6
ENDBRANCH   1   2
BRANCH   1  20
ATOM     20  C   UNL A   1      33.603  34.383  28.159  1.00  0.00     0.042 C 
BRANCH  20  21
ATOM     21  C   UNL A   1      34.012  32.991  28.627  1.00  0.00     0.118 C 
BRANCH  21  22
ATOM     22  N   UNL A   1      33.499  31.940  27.756  1.00  0.00    -0.352 N 
ATOM     23  C   UNL A   1      34.080  30.774  27.329  1.00  0.00     0.251 C 
ATOM     24  H   UNL A   1      32.586  32.092  27.420  1.00  0.00     0.163 HD
ATOM     25  O   UNL A   1      33.551  30.150  26.404  1.00  0.00    -0.269 OA
BRANCH  23  26
ATOM     26  C   UNL A   1      35.327  30.272  27.944  1.00  0.00     0.039 A 
ATOM     27  C   UNL A   1      36.524  30.373  27.230  1.00  0.00     0.014 A 
ATOM     28  C   UNL A   1      35.320  29.661  29.200  1.00  0.00     0.014 A 
ATOM     29  C   UNL A   1      37.716  29.918  27.799  1.00  0.00     0.010 A 
ATOM     30  C   UNL A   1      36.519  29.292  29.805  1.00  0.00     0.010 A 
ATOM     31  C   UNL A   1      37.730  29.403  29.105  1.00  0.00    -0.014 A 
BRANCH  31  32
ATOM     32  C   UNL A   1      38.994  28.949  29.742  1.00  0.00     0.031 A 
ATOM     33  C   UNL A   1      39.436  29.547  31.052  1.00  0.00     0.074 A 
ATOM     34  C   UNL A   1      39.768  28.038  29.118  1.00  0.00     0.049 A 
ATOM     35  N   UNL A   1      40.532  29.332  31.734  1.00  0.00    -0.248 NA
ATOM     36  C   UNL A   1      38.540  30.543  31.659  1.00  0.00     0.031 C 
ATOM     37  C   UNL A   1      39.466  27.416  27.826  1.00  0.00     0.029 A 
ATOM     38  N   UNL A   1      40.967  27.477  29.481  1.00  0.00    -0.354 N 
ATOM     39  C   UNL A   1      40.463  30.173  32.840  1.00  0.00     0.074 A 
ATOM     40  C   UNL A   1      39.252  30.952  32.698  1.00  0.00     0.031 C 
ATOM     41  C   UNL A   1      40.436  26.540  27.523  1.00  0.00     0.029 A 
ATOM     42  C   UNL A   1      41.454  26.570  28.568  1.00  0.00     0.049 A 
ATOM     43  H   UNL A   1      41.436  27.703  30.317  1.00  0.00     0.167 HD
ATOM     44  C   UNL A   1      41.317  30.270  33.890  1.00  0.00     0.034 A 
ATOM     45  C   UNL A   1      42.596  25.854  28.565  1.00  0.00     0.034 A 
ATOM     46  C   UNL A   1      42.515  29.475  34.021  1.00  0.00     0.049 A 
ATOM     47  C   UNL A   1      43.543  25.996  29.732  1.00  0.00     0.074 A 
ATOM     48  C   UNL A   1      43.422  29.451  35.065  1.00  0.00     0.029 A 
ATOM     49  N   UNL A   1      42.976  28.570  33.074  1.00  0.00    -0.354 N 
ATOM     50  N   UNL A   1      43.437  26.760  30.795  1.00  0.00    -0.248 NA
ATOM     51  C   UNL A   1      44.758  25.173  29.700  1.00  0.00     0.031 C 
ATOM     52  C   UNL A   1      44.468  28.589  34.718  1.00  0.00     0.029 A 
ATOM     53  C   UNL A   1      44.173  28.008  33.496  1.00  0.00     0.049 A 
ATOM     54  H   UNL A   1      42.521  28.357  32.227  1.00  0.00     0.167 HD
ATOM     55  C   UNL A   1      44.555  26.479  31.577  1.00  0.00     0.074 A 
ATOM     56  C   UNL A   1      45.312  25.467  30.867  1.00  0.00     0.031 C 
ATOM     57  C   UNL A   1      44.922  27.005  32.774  1.00  0.00     0.034 A 
BRANCH  44  58
ATOM     58  C   UNL A   1      40.992  31.285  34.960  1.00  0.00     0.023 A 
ATOM     59  C   UNL A   1      39.904  31.117  35.835  1.00  0.00     0.031 A 
ATOM     60  C   UNL A   1      41.764  32.454  35.092  1.00  0.00     0.131 A 
ATOM     61  C   UNL A   1      39.569  32.132  36.744  1.00  0.00     0.055 A 
ATOM     62  C   UNL A   1      41.477  33.422  36.058  1.00  0.00     0.041 A 
ATOM     63  F   UNL A   1      42.802  32.684  34.274  1.00  0.00    -0.206 F 
ATOM     64  C   UNL A   1      40.363  33.271  36.880  1.00  0.00     0.022 A 
BRANCH  61  65
ATOM     65  S   UNL A   1      37.993  32.010  37.634  1.00  0.00     0.124 S 
ATOM     66  O   UNL A   1      37.599  30.632  37.351  1.00  0.00    -0.237 OA
ATOM     67  O   UNL A   1      38.385  32.292  39.010  1.00  0.00    -0.237 OA
ATOM     68  O   UNL A   1      37.161  33.031  37.000  1.00  0.00    -0.744 OA
ENDBRANCH  61  65
ENDBRANCH  44  58
BRANCH  45  69
ATOM     69  C   UNL A   1      42.919  24.945  27.429  1.00  0.00     0.023 A 
ATOM     70  C   UNL A   1      42.338  23.670  27.333  1.00  0.00     0.031 A 
ATOM     71  C   UNL A   1      43.848  25.320  26.441  1.00  0.00     0.131 A 
ATOM     72  C   UNL A   1      42.730  22.797  26.307  1.00  0.00     0.055 A 
ATOM     73  C   UNL A   1      44.191  24.469  25.389  1.00  0.00     0.041 A 
ATOM     74  F   UNL A   1      44.430  26.529  26.480  1.00  0.00    -0.206 F 
ATOM     75  C   UNL A   1      43.642  23.193  25.325  1.00  0.00     0.022 A 
BRANCH  72  76
ATOM     76  S   UNL A   1      42.099  21.096  26.325  1.00  0.00     0.124 S 
ATOM     77  O   UNL A   1      42.333  20.707  27.710  1.00  0.00    -0.237 OA
ATOM     78  O   UNL A   1      40.705  21.286  25.936  1.00  0.00    -0.237 OA
ATOM     79  O   UNL A   1      42.932  20.414  25.335  1.00  0.00    -0.744 OA
ENDBRANCH  72  76
ENDBRANCH  45  69
BRANCH  57  80
ATOM     80  C   UNL A   1      46.175  26.455  33.411  1.00  0.00     0.023 A 
ATOM     81  C   UNL A   1      47.439  27.026  33.179  1.00  0.00     0.031 A 
ATOM     82  C   UNL A   1      46.102  25.335  34.258  1.00  0.00     0.131 A 
ATOM     83  C   UNL A   1      48.584  26.438  33.737  1.00  0.00     0.055 A 
ATOM     84  C   UNL A   1      47.236  24.795  34.866  1.00  0.00     0.041 A 
ATOM     85  F   UNL A   1      44.922  24.746  34.513  1.00  0.00    -0.206 F 
ATOM     86  C   UNL A   1      48.489  25.339  34.595  1.00  0.00     0.022 A 
BRANCH  83  87
ATOM     87  S   UNL A   1      50.213  27.069  33.249  1.00  0.00     0.124 S 
ATOM     88  O   UNL A   1      50.371  26.498  31.915  1.00  0.00    -0.237 OA
ATOM     89  O   UNL A   1      50.019  28.514  33.305  1.00  0.00    -0.237 OA
ATOM     90  O   UNL A   1      51.111  26.525  34.266  1.00  0.00    -0.744 OA
ENDBRANCH  83  87
ENDBRANCH  57  80
ENDBRANCH  31  32
ENDBRANCH  23  26
ENDBRANCH  21  22
ENDBRANCH  20  21
ENDBRANCH   1  20
TORSDOF 17
ENDMDL
MODEL 2
REMARK VINA RESULT:     -10.1      3.992     10.152
REMARK SMILES C[C@@H](C(=O)[C@H](C)[C@@H](C)C(=O)NCCCNC(=O)c1ccc(-c2c3nc(c(-c4cc(S(=O)(=O)[O-])ccc4F)c4ccc([nH]4)c(-c4cc(S(=O)(=O)[O-])ccc4F)c4nc(c(-c5cc(S(=O)(=O)[O-])ccc5F)c5ccc2[nH]5)C=C4)C=C3)cc1)c1ccccc1
REMARK SMILES IDX 12 1 11 2 9 3 10 4 7 6 8 7 5 8 6 9 3 10 4 11 2 12 1 13 81 14
REMARK SMILES IDX 82 15 86 16 83 17 85 18 84 19 13 20 14 21 15 22 16 23 17 25
REMARK SMILES IDX 18 26 19 27 80 28 20 29 79 30 21 31 22 32 23 33 73 34 24 35
REMARK SMILES IDX 78 36 72 37 74 38 25 39 77 40 71 41 70 42 26 44 58 45 38 46
REMARK SMILES IDX 57 47 39 48 42 49 56 50 75 51 40 52 41 53 55 55 76 56 43 57
REMARK SMILES IDX 27 58 28 59 36 60 29 61 35 62 37 63 34 64 30 65 31 66 32 67
REMARK SMILES IDX 33 68 59 69 60 70 68 71 61 72 67 73 69 74 66 75 62 76 63 77
REMARK SMILES IDX 64 78 65 79 44 80 45 81 53 82 46 83 52 84 54 85 51 86 47 87
REMARK SMILES IDX 48 88 49 89 50 90
REMARK H PARENT 11 5 15 24 74 43 42 54
REMARK Flexibility Score: inf
ROOT
ATOM      1  C   UNL A   1      31.482  30.919  26.033  1.00  0.00     0.117 C 
ENDROOT
BRANCH   1   2
ATOM      2  N   UNL A   1      32.581  30.065  26.444  1.00  0.00    -0.356 N 
ATOM      3  C   UNL A   1      32.988  28.843  26.014  1.00  0.00     0.223 C 
ATOM      4  O   UNL A   1      34.044  28.399  26.476  1.00  0.00    -0.275 OA
ATOM      5  H   UNL A   1      33.132  30.441  27.167  1.00  0.00     0.163 HD
BRANCH   3   6
ATOM      6  C   UNL A   1      32.265  28.083  24.900  1.00  0.00     0.085 C 
ATOM      7  C   UNL A   1      32.976  26.727  24.749  1.00  0.00     0.019 C 
BRANCH   6   8
ATOM      8  C   UNL A   1      32.018  28.869  23.576  1.00  0.00     0.066 C 
ATOM      9  C   UNL A   1      33.256  28.823  22.666  1.00  0.00     0.017 C 
BRANCH   8  10
ATOM     10  C   UNL A   1      30.704  28.402  22.878  1.00  0.00     0.143 C 
ATOM     11  O   UNL A   1      30.765  27.545  21.990  1.00  0.00    -0.299 OA
BRANCH  10  12
ATOM     12  C   UNL A   1      29.332  28.908  23.386  1.00  0.00     0.083 C 
ATOM     13  C   UNL A   1      28.307  27.779  23.229  1.00  0.00     0.021 C 
BRANCH  12  14
ATOM     14  C   UNL A   1      28.878  30.241  22.766  1.00  0.00    -0.038 A 
ATOM     15  C   UNL A   1      28.404  30.278  21.441  1.00  0.00     0.004 A 
ATOM     16  C   UNL A   1      28.984  31.469  23.447  1.00  0.00     0.004 A 
ATOM     17  C   UNL A   1      28.028  31.484  20.837  1.00  0.00     0.000 A 
ATOM     18  C   UNL A   1      28.616  32.674  22.840  1.00  0.00     0.000 A 
ATOM     19  C   UNL A   1      28.137  32.682  21.535  1.00  0.00     0.000 A 
ENDBRANCH  12  14
ENDBRANCH  10  12
ENDBRANCH   8  10
ENDBRANCH   6   8
ENDBRANCH   3   6
ENDBRANCH   1   2
BRANCH   1  20
ATOM     20  C   UNL A   1      31.424  32.215  26.830  1.00  0.00     0.042 C 
BRANCH  20  21
ATOM     21  C   UNL A   1      32.794  32.765  27.209  1.00  0.00     0.118 C 
BRANCH  21  22
ATOM     22  N   UNL A   1      32.727  34.143  27.682  1.00  0.00    -0.352 N 
ATOM     23  C   UNL A   1      33.375  34.761  28.720  1.00  0.00     0.251 C 
ATOM     24  H   UNL A   1      32.118  34.725  27.172  1.00  0.00     0.163 HD
ATOM     25  O   UNL A   1      32.986  35.874  29.085  1.00  0.00    -0.269 OA
BRANCH  23  26
ATOM     26  C   UNL A   1      34.508  34.109  29.410  1.00  0.00     0.039 A 
ATOM     27  C   UNL A   1      35.813  34.425  29.018  1.00  0.00     0.014 A 
ATOM     28  C   UNL A   1      34.297  33.158  30.410  1.00  0.00     0.014 A 
ATOM     29  C   UNL A   1      36.898  33.831  29.668  1.00  0.00     0.010 A 
ATOM     30  C   UNL A   1      35.377  32.637  31.119  1.00  0.00     0.010 A 
ATOM     31  C   UNL A   1      36.691  32.956  30.747  1.00  0.00    -0.014 A 
BRANCH  31  32
ATOM     32  C   UNL A   1      37.833  32.344  31.474  1.00  0.00     0.031 A 
ATOM     33  C   UNL A   1      38.621  31.227  30.838  1.00  0.00     0.074 A 
ATOM     34  C   UNL A   1      38.129  32.755  32.723  1.00  0.00     0.049 A 
ATOM     35  N   UNL A   1      39.607  30.524  31.332  1.00  0.00    -0.248 NA
ATOM     36  C   UNL A   1      38.225  30.831  29.478  1.00  0.00     0.031 C 
ATOM     37  C   UNL A   1      37.413  33.800  33.460  1.00  0.00     0.029 A 
ATOM     38  N   UNL A   1      39.105  32.346  33.598  1.00  0.00    -0.354 N 
ATOM     39  C   UNL A   1      39.939  29.595  30.351  1.00  0.00     0.074 A 
ATOM     40  C   UNL A   1      39.002  29.781  29.265  1.00  0.00     0.031 C 
ATOM     41  C   UNL A   1      37.993  33.968  34.659  1.00  0.00     0.029 A 
ATOM     42  C   UNL A   1      39.089  33.014  34.800  1.00  0.00     0.049 A 
ATOM     43  H   UNL A   1      39.756  31.638  33.384  1.00  0.00     0.167 HD
ATOM     44  C   UNL A   1      40.948  28.688  30.344  1.00  0.00     0.034 A 
ATOM     45  C   UNL A   1      39.859  32.868  35.896  1.00  0.00     0.034 A 
ATOM     46  C   UNL A   1      41.882  28.525  31.433  1.00  0.00     0.049 A 
ATOM     47  C   UNL A   1      40.960  31.835  35.876  1.00  0.00     0.074 A 
ATOM     48  C   UNL A   1      42.973  27.677  31.512  1.00  0.00     0.029 A 
ATOM     49  N   UNL A   1      41.832  29.218  32.635  1.00  0.00    -0.354 N 
ATOM     50  N   UNL A   1      41.293  31.000  34.919  1.00  0.00    -0.248 NA
ATOM     51  C   UNL A   1      41.793  31.735  37.081  1.00  0.00     0.031 C 
ATOM     52  C   UNL A   1      43.536  27.804  32.786  1.00  0.00     0.029 A 
ATOM     53  C   UNL A   1      42.852  28.793  33.474  1.00  0.00     0.049 A 
ATOM     54  H   UNL A   1      41.169  29.911  32.860  1.00  0.00     0.167 HD
ATOM     55  C   UNL A   1      42.399  30.300  35.395  1.00  0.00     0.074 A 
ATOM     56  C   UNL A   1      42.682  30.823  36.715  1.00  0.00     0.031 C 
ATOM     57  C   UNL A   1      43.118  29.317  34.793  1.00  0.00     0.034 A 
BRANCH  44  58
ATOM     58  C   UNL A   1      41.072  27.792  29.134  1.00  0.00     0.023 A 
ATOM     59  C   UNL A   1      42.083  27.980  28.174  1.00  0.00     0.031 A 
ATOM     60  C   UNL A   1      40.151  26.751  28.919  1.00  0.00     0.131 A 
ATOM     61  C   UNL A   1      42.101  27.199  27.009  1.00  0.00     0.055 A 
ATOM     62  C   UNL A   1      40.226  25.919  27.799  1.00  0.00     0.041 A 
ATOM     63  F   UNL A   1      39.151  26.533  29.786  1.00  0.00    -0.206 F 
ATOM     64  C   UNL A   1      41.196  26.152  26.827  1.00  0.00     0.022 A 
BRANCH  61  65
ATOM     65  S   UNL A   1      43.226  27.672  25.668  1.00  0.00     0.124 S 
ATOM     66  O   UNL A   1      44.036  26.464  25.521  1.00  0.00    -0.237 OA
ATOM     67  O   UNL A   1      42.308  27.962  24.573  1.00  0.00    -0.237 OA
ATOM     68  O   UNL A   1      43.938  28.828  26.208  1.00  0.00    -0.744 OA
ENDBRANCH  61  65
ENDBRANCH  44  58
BRANCH  45  69
ATOM     69  C   UNL A   1      39.623  33.707  37.106  1.00  0.00     0.023 A 
ATOM     70  C   UNL A   1      38.964  33.186  38.231  1.00  0.00     0.031 A 
ATOM     71  C   UNL A   1      40.017  35.057  37.141  1.00  0.00     0.131 A 
ATOM     72  C   UNL A   1      38.669  34.022  39.319  1.00  0.00     0.055 A 
ATOM     73  C   UNL A   1      39.773  35.869  38.250  1.00  0.00     0.041 A 
ATOM     74  F   UNL A   1      40.656  35.606  36.095  1.00  0.00    -0.206 F 
ATOM     75  C   UNL A   1      39.083  35.356  39.343  1.00  0.00     0.022 A 
BRANCH  72  76
ATOM     76  S   UNL A   1      37.653  33.363  40.670  1.00  0.00     0.124 S 
ATOM     77  O   UNL A   1      37.545  34.520  41.551  1.00  0.00    -0.237 OA
ATOM     78  O   UNL A   1      36.434  32.973  39.969  1.00  0.00    -0.237 OA
ATOM     79  O   UNL A   1      38.454  32.255  41.188  1.00  0.00    -0.744 OA
ENDBRANCH  72  76
ENDBRANCH  45  69
BRANCH  57  80
ATOM     80  C   UNL A   1      44.312  28.781  35.546  1.00  0.00     0.023 A 
ATOM     81  C   UNL A   1      44.212  27.677  36.409  1.00  0.00     0.031 A 
ATOM     82  C   UNL A   1      45.569  29.395  35.401  1.00  0.00     0.131 A 
ATOM     83  C   UNL A   1      45.334  27.258  37.141  1.00  0.00     0.055 A 
ATOM     84  C   UNL A   1      46.697  28.932  36.080  1.00  0.00     0.041 A 
ATOM     85  F   UNL A   1      45.724  30.457  34.593  1.00  0.00    -0.206 F 
ATOM     86  C   UNL A   1      46.580  27.866  36.967  1.00  0.00     0.022 A 
BRANCH  83  87
ATOM     87  S   UNL A   1      45.121  25.969  38.399  1.00  0.00     0.124 S 
ATOM     88  O   UNL A   1      43.919  26.419  39.093  1.00  0.00    -0.237 OA
ATOM     89  O   UNL A   1      44.977  24.763  37.591  1.00  0.00    -0.237 OA
ATOM     90  O   UNL A   1      46.354  26.047  39.181  1.00  0.00    -0.744 OA
ENDBRANCH  83  87
ENDBRANCH  57  80
ENDBRANCH  31  32
ENDBRANCH  23  26
ENDBRANCH  21  22
ENDBRANCH  20  21
ENDBRANCH   1  20
TORSDOF 17
ENDMDL
MODEL 3
REMARK VINA RESULT:     -10.0      3.996     10.069
REMARK SMILES C[C@@H](C(=O)[C@H](C)[C@@H](C)C(=O)NCCCNC(=O)c1ccc(-c2c3nc(c(-c4cc(S(=O)(=O)[O-])ccc4F)c4ccc([nH]4)c(-c4cc(S(=O)(=O)[O-])ccc4F)c4nc(c(-c5cc(S(=O)(=O)[O-])ccc5F)c5ccc2[nH]5)C=C4)C=C3)cc1)c1ccccc1
REMARK SMILES IDX 12 1 11 2 9 3 10 4 7 6 8 7 5 8 6 9 3 10 4 11 2 12 1 13 81 14
REMARK SMILES IDX 82 15 86 16 83 17 85 18 84 19 13 20 14 21 15 22 16 23 17 25
REMARK SMILES IDX 18 26 19 27 80 28 20 29 79 30 21 31 22 32 23 33 73 34 24 35
REMARK SMILES IDX 78 36 72 37 74 38 25 39 77 40 71 41 70 42 26 44 58 45 38 46
REMARK SMILES IDX 57 47 39 48 42 49 56 50 75 51 40 52 41 53 55 55 76 56 43 57
REMARK SMILES IDX 27 58 28 59 36 60 29 61 35 62 37 63 34 64 30 65 31 66 32 67
REMARK SMILES IDX 33 68 59 69 60 70 68 71 61 72 67 73 69 74 66 75 62 76 63 77
REMARK SMILES IDX 64 78 65 79 44 80 45 81 53 82 46 83 52 84 54 85 51 86 47 87
REMARK SMILES IDX 48 88 49 89 50 90
REMARK H PARENT 11 5 15 24 74 43 42 54
REMARK Flexibility Score: inf
ROOT
ATOM      1  C   UNL A   1      31.666  30.486  25.966  1.00  0.00     0.117 C 
ENDROOT
BRANCH   1   2
ATOM      2  N   UNL A   1      30.938  30.317  24.723  1.00  0.00    -0.356 N 
ATOM      3  C   UNL A   1      30.756  29.237  23.919  1.00  0.00     0.223 C 
ATOM      4  O   UNL A   1      29.979  29.360  22.967  1.00  0.00    -0.275 OA
ATOM      5  H   UNL A   1      30.496  31.135  24.403  1.00  0.00     0.163 HD
BRANCH   3   6
ATOM      6  C   UNL A   1      31.364  27.869  24.235  1.00  0.00     0.085 C 
ATOM      7  C   UNL A   1      32.068  27.386  22.955  1.00  0.00     0.019 C 
BRANCH   6   8
ATOM      8  C   UNL A   1      30.419  26.834  24.919  1.00  0.00     0.066 C 
ATOM      9  C   UNL A   1      29.616  26.043  23.875  1.00  0.00     0.017 C 
BRANCH   8  10
ATOM     10  C   UNL A   1      31.200  25.937  25.928  1.00  0.00     0.143 C 
ATOM     11  O   UNL A   1      31.464  26.381  27.049  1.00  0.00    -0.299 OA
BRANCH  10  12
ATOM     12  C   UNL A   1      31.519  24.464  25.572  1.00  0.00     0.083 C 
ATOM     13  C   UNL A   1      31.030  23.569  26.716  1.00  0.00     0.021 C 
BRANCH  12  14
ATOM     14  C   UNL A   1      32.984  24.210  25.175  1.00  0.00    -0.038 A 
ATOM     15  C   UNL A   1      33.324  24.011  23.824  1.00  0.00     0.004 A 
ATOM     16  C   UNL A   1      34.016  24.090  26.124  1.00  0.00     0.004 A 
ATOM     17  C   UNL A   1      34.641  23.731  23.440  1.00  0.00     0.000 A 
ATOM     18  C   UNL A   1      35.330  23.803  25.740  1.00  0.00     0.000 A 
ATOM     19  C   UNL A   1      35.644  23.624  24.397  1.00  0.00     0.000 A 
ENDBRANCH  12  14
ENDBRANCH  10  12
ENDBRANCH   8  10
ENDBRANCH   6   8
ENDBRANCH   3   6
ENDBRANCH   1   2
BRANCH   1  20
ATOM     20  C   UNL A   1      31.506  31.885  26.547  1.00  0.00     0.042 C 
BRANCH  20  21
ATOM     21  C   UNL A   1      32.765  32.417  27.222  1.00  0.00     0.118 C 
BRANCH  21  22
ATOM     22  N   UNL A   1      32.635  33.816  27.614  1.00  0.00    -0.352 N 
ATOM     23  C   UNL A   1      33.249  34.520  28.617  1.00  0.00     0.251 C 
ATOM     24  H   UNL A   1      32.005  34.340  27.069  1.00  0.00     0.163 HD
ATOM     25  O   UNL A   1      32.809  35.634  28.916  1.00  0.00    -0.269 OA
BRANCH  23  26
ATOM     26  C   UNL A   1      34.405  33.959  29.348  1.00  0.00     0.039 A 
ATOM     27  C   UNL A   1      34.173  33.140  30.457  1.00  0.00     0.014 A 
ATOM     28  C   UNL A   1      35.715  34.268  28.977  1.00  0.00     0.014 A 
ATOM     29  C   UNL A   1      35.252  32.588  31.154  1.00  0.00     0.010 A 
ATOM     30  C   UNL A   1      36.787  33.644  29.613  1.00  0.00     0.010 A 
ATOM     31  C   UNL A   1      36.568  32.808  30.717  1.00  0.00    -0.014 A 
BRANCH  31  32
ATOM     32  C   UNL A   1      37.727  32.199  31.422  1.00  0.00     0.031 A 
ATOM     33  C   UNL A   1      38.498  31.078  30.776  1.00  0.00     0.074 A 
ATOM     34  C   UNL A   1      38.052  32.617  32.662  1.00  0.00     0.049 A 
ATOM     35  N   UNL A   1      39.495  30.376  31.250  1.00  0.00    -0.248 NA
ATOM     36  C   UNL A   1      38.070  30.673  29.428  1.00  0.00     0.031 C 
ATOM     37  C   UNL A   1      37.354  33.668  33.408  1.00  0.00     0.029 A 
ATOM     38  N   UNL A   1      39.047  32.213  33.516  1.00  0.00    -0.354 N 
ATOM     39  C   UNL A   1      39.803  29.440  30.268  1.00  0.00     0.074 A 
ATOM     40  C   UNL A   1      38.841  29.621  29.203  1.00  0.00     0.031 C 
ATOM     41  C   UNL A   1      37.962  33.843  34.592  1.00  0.00     0.029 A 
ATOM     42  C   UNL A   1      39.059  32.889  34.714  1.00  0.00     0.049 A 
ATOM     43  H   UNL A   1      39.692  31.503  33.291  1.00  0.00     0.167 HD
ATOM     44  C   UNL A   1      40.810  28.532  30.244  1.00  0.00     0.034 A 
ATOM     45  C   UNL A   1      39.855  32.749  35.792  1.00  0.00     0.034 A 
ATOM     46  C   UNL A   1      41.770  28.375  31.311  1.00  0.00     0.049 A 
ATOM     47  C   UNL A   1      40.954  31.715  35.754  1.00  0.00     0.074 A 
ATOM     48  C   UNL A   1      42.861  27.527  31.370  1.00  0.00     0.029 A 
ATOM     49  N   UNL A   1      41.747  29.076  32.510  1.00  0.00    -0.354 N 
ATOM     50  N   UNL A   1      41.264  30.873  34.794  1.00  0.00    -0.248 NA
ATOM     51  C   UNL A   1      41.814  31.621  36.939  1.00  0.00     0.031 C 
ATOM     52  C   UNL A   1      43.453  27.661  32.630  1.00  0.00     0.029 A 
ATOM     53  C   UNL A   1      42.787  28.655  33.327  1.00  0.00     0.049 A 
ATOM     54  H   UNL A   1      41.091  29.771  32.746  1.00  0.00     0.167 HD
ATOM     55  C   UNL A   1      42.380  30.174  35.249  1.00  0.00     0.074 A 
ATOM     56  C   UNL A   1      42.694  30.705  36.559  1.00  0.00     0.031 C 
ATOM     57  C   UNL A   1      43.084  29.187  34.637  1.00  0.00     0.034 A 
BRANCH  44  58
ATOM     58  C   UNL A   1      40.905  27.629  29.036  1.00  0.00     0.023 A 
ATOM     59  C   UNL A   1      41.900  27.804  28.057  1.00  0.00     0.031 A 
ATOM     60  C   UNL A   1      39.973  26.594  28.844  1.00  0.00     0.131 A 
ATOM     61  C   UNL A   1      41.891  27.016  26.896  1.00  0.00     0.055 A 
ATOM     62  C   UNL A   1      40.021  25.755  27.728  1.00  0.00     0.041 A 
ATOM     63  F   UNL A   1      38.987  26.388  29.732  1.00  0.00    -0.206 F 
ATOM     64  C   UNL A   1      40.974  25.975  26.738  1.00  0.00     0.022 A 
BRANCH  61  65
ATOM     65  S   UNL A   1      42.994  27.472  25.532  1.00  0.00     0.124 S 
ATOM     66  O   UNL A   1      43.331  26.165  24.973  1.00  0.00    -0.237 OA
ATOM     67  O   UNL A   1      42.142  28.319  24.706  1.00  0.00    -0.237 OA
ATOM     68  O   UNL A   1      44.099  28.160  26.199  1.00  0.00    -0.744 OA
ENDBRANCH  61  65
ENDBRANCH  44  58
BRANCH  45  69
ATOM     69  C   UNL A   1      39.648  33.595  37.003  1.00  0.00     0.023 A 
ATOM     70  C   UNL A   1      38.966  33.100  38.125  1.00  0.00     0.031 A 
ATOM     71  C   UNL A   1      40.093  34.930  37.039  1.00  0.00     0.131 A 
ATOM     72  C   UNL A   1      38.701  33.946  39.213  1.00  0.00     0.055 A 
ATOM     73  C   UNL A   1      39.878  35.750  38.148  1.00  0.00     0.041 A 
ATOM     74  F   UNL A   1      40.756  35.454  35.995  1.00  0.00    -0.206 F 
ATOM     75  C   UNL A   1      39.165  35.264  39.239  1.00  0.00     0.022 A 
BRANCH  72  76
ATOM     76  S   UNL A   1      37.656  33.327  40.561  1.00  0.00     0.124 S 
ATOM     77  O   UNL A   1      37.482  34.523  41.375  1.00  0.00    -0.237 OA
ATOM     78  O   UNL A   1      36.476  32.861  39.839  1.00  0.00    -0.237 OA
ATOM     79  O   UNL A   1      38.471  32.273  41.164  1.00  0.00    -0.744 OA
ENDBRANCH  72  76
ENDBRANCH  45  69
BRANCH  57  80
ATOM     80  C   UNL A   1      44.295  28.654  35.365  1.00  0.00     0.023 A 
ATOM     81  C   UNL A   1      44.213  27.555  36.237  1.00  0.00     0.031 A 
ATOM     82  C   UNL A   1      45.549  29.265  35.187  1.00  0.00     0.131 A 
ATOM     83  C   UNL A   1      45.352  27.140  36.946  1.00  0.00     0.055 A 
ATOM     84  C   UNL A   1      46.692  28.805  35.843  1.00  0.00     0.041 A 
ATOM     85  F   UNL A   1      45.686  30.322  34.369  1.00  0.00    -0.206 F 
ATOM     86  C   UNL A   1      46.594  27.745  36.739  1.00  0.00     0.022 A 
BRANCH  83  87
ATOM     87  S   UNL A   1      45.166  25.860  38.217  1.00  0.00     0.124 S 
ATOM     88  O   UNL A   1      43.941  25.189  37.795  1.00  0.00    -0.237 OA
ATOM     89  O   UNL A   1      46.398  25.090  38.068  1.00  0.00    -0.237 OA
ATOM     90  O   UNL A   1      45.059  26.623  39.459  1.00  0.00    -0.744 OA
ENDBRANCH  83  87
ENDBRANCH  57  80
ENDBRANCH  31  32
ENDBRANCH  23  26
ENDBRANCH  21  22
ENDBRANCH  20  21
ENDBRANCH   1  20
TORSDOF 17
ENDMDL
