MODEL 1
REMARK VINA RESULT:     -12.4      0.000      0.000
REMARK SMILES O=C(CCCCCN1C(=O)/C(=C2\C(=O)Nc3ccccc32)SC1=S)NCCCNC(=O)c1ccc(-c2c3nc(c(-c4cc(S(=O)(=O)[O-])ccc4F)c4ccc([nH]4)c(-c4cc(S(=O)(=O)[O-])ccc4F)c4nc(c(-c5cc(S(=O)(=O)[O-])ccc5F)c5ccc2[nH]5)C=C4)C=C3)cc1
REMARK SMILES IDX 26 1 25 2 1 3 2 4 3 6 4 7 5 8 6 9 7 10 8 11 9 12 23 13 10 14
REMARK SMILES IDX 11 15 22 16 24 17 12 18 13 19 21 20 14 21 15 22 16 23 20 24
REMARK SMILES IDX 17 26 19 27 18 28 27 29 28 30 29 31 30 32 31 34 32 35 33 36
REMARK SMILES IDX 94 37 34 38 93 39 35 40 36 41 37 42 87 43 38 44 92 45 86 46
REMARK SMILES IDX 88 47 39 48 91 49 85 50 84 51 40 53 72 54 52 55 71 56 53 57
REMARK SMILES IDX 56 58 70 59 89 60 54 61 55 62 69 64 90 65 57 66 41 67 42 68
REMARK SMILES IDX 50 69 43 70 49 71 51 72 48 73 44 74 45 75 46 76 47 77 73 78
REMARK SMILES IDX 74 79 82 80 75 81 81 82 83 83 80 84 76 85 77 86 78 87 79 88
REMARK SMILES IDX 58 89 59 90 67 91 60 92 66 93 68 94 65 95 61 96 62 97 63 98
REMARK SMILES IDX 64 99
REMARK H PARENT 25 5 15 25 29 33 88 52 56 63
REMARK Flexibility Score: inf
ROOT
ATOM      1  C   UNL A   1      31.240  30.535  25.560  1.00  0.00     0.117 C 
ENDROOT
BRANCH   1   2
ATOM      2  N   UNL A   1      31.528  29.497  24.592  1.00  0.00    -0.356 N 
ATOM      3  O   UNL A   1      29.568  29.652  23.401  1.00  0.00    -0.275 OA
ATOM      4  C   UNL A   1      30.690  29.180  23.552  1.00  0.00     0.219 C 
ATOM      5  H   UNL A   1      32.368  28.993  24.684  1.00  0.00     0.163 HD
BRANCH   4   6
ATOM      6  C   UNL A   1      31.299  28.204  22.562  1.00  0.00     0.100 C 
BRANCH   6   7
ATOM      7  C   UNL A   1      32.737  27.830  22.925  1.00  0.00     0.010 C 
BRANCH   7   8
ATOM      8  C   UNL A   1      33.354  26.675  22.131  1.00  0.00     0.002 C 
BRANCH   8   9
ATOM      9  C   UNL A   1      34.046  25.578  22.959  1.00  0.00     0.022 C 
BRANCH   9  10
ATOM     10  C   UNL A   1      33.648  25.521  24.445  1.00  0.00     0.127 C 
BRANCH  10  11
ATOM     11  N   UNL A   1      33.067  24.235  24.822  1.00  0.00    -0.293 N 
ATOM     12  C   UNL A   1      33.817  23.354  25.592  1.00  0.00     0.267 C 
ATOM     13  C   UNL A   1      31.791  23.817  24.527  1.00  0.00     0.148 C 
ATOM     14  O   UNL A   1      34.699  23.664  26.372  1.00  0.00    -0.268 OA
ATOM     15  C   UNL A   1      33.298  21.980  25.349  1.00  0.00     0.093 C 
ATOM     16  S   UNL A   1      31.604  22.145  25.035  1.00  0.00    -0.053 SA
ATOM     17  S   UNL A   1      30.561  24.652  23.776  1.00  0.00    -0.052 S 
ATOM     18  C   UNL A   1      34.047  20.885  25.155  1.00  0.00     0.069 C 
ATOM     19  C   UNL A   1      35.548  20.826  25.322  1.00  0.00     0.257 C 
ATOM     20  C   UNL A   1      33.643  19.553  24.652  1.00  0.00     0.012 A 
ATOM     21  O   UNL A   1      36.331  21.727  25.557  1.00  0.00    -0.269 OA
ATOM     22  N   UNL A   1      35.899  19.517  25.050  1.00  0.00    -0.321 N 
ATOM     23  C   UNL A   1      34.805  18.774  24.630  1.00  0.00     0.049 A 
ATOM     24  C   UNL A   1      32.468  19.026  24.141  1.00  0.00     0.011 A 
ATOM     25  H   UNL A   1      36.811  19.156  25.144  1.00  0.00     0.170 HD
ATOM     26  C   UNL A   1      34.835  17.475  24.160  1.00  0.00     0.027 A 
ATOM     27  C   UNL A   1      32.475  17.720  23.638  1.00  0.00     0.001 A 
ATOM     28  C   UNL A   1      33.646  16.947  23.657  1.00  0.00     0.002 A 
ENDBRANCH  10  11
ENDBRANCH   9  10
ENDBRANCH   8   9
ENDBRANCH   7   8
ENDBRANCH   6   7
ENDBRANCH   4   6
ENDBRANCH   1   2
BRANCH   1  29
ATOM     29  C   UNL A   1      32.002  30.323  26.859  1.00  0.00     0.042 C 
BRANCH  29  30
ATOM     30  C   UNL A   1      33.163  31.286  27.083  1.00  0.00     0.118 C 
BRANCH  30  31
ATOM     31  N   UNL A   1      32.758  32.669  27.297  1.00  0.00    -0.352 N 
ATOM     32  C   UNL A   1      33.307  33.613  28.143  1.00  0.00     0.251 C 
ATOM     33  H   UNL A   1      31.988  32.973  26.765  1.00  0.00     0.163 HD
ATOM     34  O   UNL A   1      32.751  34.697  28.294  1.00  0.00    -0.269 OA
BRANCH  32  35
ATOM     35  C   UNL A   1      34.532  33.285  28.909  1.00  0.00     0.039 A 
ATOM     36  C   UNL A   1      35.794  33.550  28.378  1.00  0.00     0.014 A 
ATOM     37  C   UNL A   1      34.418  32.638  30.143  1.00  0.00     0.014 A 
ATOM     38  C   UNL A   1      36.916  32.968  28.955  1.00  0.00     0.010 A 
ATOM     39  C   UNL A   1      35.566  32.154  30.784  1.00  0.00     0.010 A 
ATOM     40  C   UNL A   1      36.820  32.252  30.160  1.00  0.00    -0.014 A 
BRANCH  40  41
ATOM     41  C   UNL A   1      38.040  31.612  30.732  1.00  0.00     0.031 A 
ATOM     42  C   UNL A   1      38.500  31.924  32.135  1.00  0.00     0.074 A 
ATOM     43  C   UNL A   1      38.701  30.692  30.002  1.00  0.00     0.049 A 
ATOM     44  N   UNL A   1      39.503  31.413  32.803  1.00  0.00    -0.248 NA
ATOM     45  C   UNL A   1      37.745  32.939  32.887  1.00  0.00     0.031 C 
ATOM     46  C   UNL A   1      38.351  30.307  28.635  1.00  0.00     0.029 A 
ATOM     47  N   UNL A   1      39.778  29.894  30.306  1.00  0.00    -0.354 N 
ATOM     48  C   UNL A   1      39.512  32.052  34.039  1.00  0.00     0.074 A 
ATOM     49  C   UNL A   1      38.438  33.021  34.014  1.00  0.00     0.031 C 
ATOM     50  C   UNL A   1      39.150  29.306  28.242  1.00  0.00     0.029 A 
ATOM     51  C   UNL A   1      40.128  29.032  29.291  1.00  0.00     0.049 A 
ATOM     52  H   UNL A   1      40.253  29.935  31.167  1.00  0.00     0.167 HD
ATOM     53  C   UNL A   1      40.326  31.837  35.100  1.00  0.00     0.034 A 
ATOM     54  C   UNL A   1      41.129  28.132  29.199  1.00  0.00     0.034 A 
ATOM     55  C   UNL A   1      41.376  30.849  35.117  1.00  0.00     0.049 A 
ATOM     56  C   UNL A   1      42.040  27.933  30.381  1.00  0.00     0.074 A 
ATOM     57  C   UNL A   1      42.229  30.532  36.160  1.00  0.00     0.029 A 
ATOM     58  N   UNL A   1      41.722  30.021  34.057  1.00  0.00    -0.354 N 
ATOM     59  N   UNL A   1      41.993  28.507  31.561  1.00  0.00    -0.248 NA
ATOM     60  C   UNL A   1      43.135  26.965  30.231  1.00  0.00     0.031 C 
ATOM     61  C   UNL A   1      43.139  29.578  35.708  1.00  0.00     0.029 A 
ATOM     62  C   UNL A   1      42.796  29.222  34.414  1.00  0.00     0.049 A 
ATOM     63  H   UNL A   1      41.271  30.006  33.183  1.00  0.00     0.167 HD
ATOM     64  C   UNL A   1      43.033  27.950  32.300  1.00  0.00     0.074 A 
ATOM     65  C   UNL A   1      43.674  26.975  31.443  1.00  0.00     0.031 C 
ATOM     66  C   UNL A   1      43.421  28.229  33.569  1.00  0.00     0.034 A 
BRANCH  53  67
ATOM     67  C   UNL A   1      40.130  32.657  36.356  1.00  0.00     0.023 A 
ATOM     68  C   UNL A   1      39.181  32.252  37.317  1.00  0.00     0.031 A 
ATOM     69  C   UNL A   1      40.748  33.908  36.525  1.00  0.00     0.131 A 
ATOM     70  C   UNL A   1      38.844  33.109  38.371  1.00  0.00     0.055 A 
ATOM     71  C   UNL A   1      40.447  34.736  37.608  1.00  0.00     0.041 A 
ATOM     72  F   UNL A   1      41.654  34.347  35.637  1.00  0.00    -0.206 F 
ATOM     73  C   UNL A   1      39.479  34.345  38.528  1.00  0.00     0.022 A 
BRANCH  70  74
ATOM     74  S   UNL A   1      37.508  32.696  39.527  1.00  0.00     0.124 S 
ATOM     75  O   UNL A   1      36.333  32.752  38.658  1.00  0.00    -0.237 OA
ATOM     76  O   UNL A   1      37.891  31.358  39.970  1.00  0.00    -0.237 OA
ATOM     77  O   UNL A   1      37.582  33.743  40.539  1.00  0.00    -0.744 OA
ENDBRANCH  70  74
ENDBRANCH  53  67
BRANCH  54  78
ATOM     78  C   UNL A   1      41.272  27.334  27.944  1.00  0.00     0.023 A 
ATOM     79  C   UNL A   1      40.886  25.981  27.904  1.00  0.00     0.031 A 
ATOM     80  C   UNL A   1      41.904  27.871  26.810  1.00  0.00     0.131 A 
ATOM     81  C   UNL A   1      41.214  25.193  26.795  1.00  0.00     0.055 A 
ATOM     82  C   UNL A   1      42.151  27.103  25.671  1.00  0.00     0.041 A 
ATOM     83  F   UNL A   1      42.303  29.152  26.801  1.00  0.00    -0.206 F 
ATOM     84  C   UNL A   1      41.825  25.750  25.669  1.00  0.00     0.022 A 
BRANCH  81  85
ATOM     85  S   UNL A   1      40.999  23.392  26.842  1.00  0.00     0.124 S 
ATOM     86  O   UNL A   1      41.883  22.950  25.767  1.00  0.00    -0.237 OA
ATOM     87  O   UNL A   1      41.447  23.075  28.196  1.00  0.00    -0.237 OA
ATOM     88  O   UNL A   1      39.572  23.208  26.602  1.00  0.00    -0.744 OA
ENDBRANCH  81  85
ENDBRANCH  54  78
BRANCH  66  89
ATOM     89  C   UNL A   1      44.587  27.471  34.163  1.00  0.00     0.023 A 
ATOM     90  C   UNL A   1      44.348  26.331  34.955  1.00  0.00     0.031 A 
ATOM     91  C   UNL A   1      45.900  27.968  34.096  1.00  0.00     0.131 A 
ATOM     92  C   UNL A   1      45.392  25.761  35.694  1.00  0.00     0.055 A 
ATOM     93  C   UNL A   1      46.950  27.359  34.785  1.00  0.00     0.041 A 
ATOM     94  F   UNL A   1      46.181  29.060  33.366  1.00  0.00    -0.206 F 
ATOM     95  C   UNL A   1      46.694  26.263  35.605  1.00  0.00     0.022 A 
BRANCH  92  96
ATOM     96  S   UNL A   1      45.078  24.425  36.881  1.00  0.00     0.124 S 
ATOM     97  O   UNL A   1      43.979  24.976  37.671  1.00  0.00    -0.237 OA
ATOM     98  O   UNL A   1      44.719  23.314  36.003  1.00  0.00    -0.237 OA
ATOM     99  O   UNL A   1      46.343  24.281  37.593  1.00  0.00    -0.744 OA
ENDBRANCH  92  96
ENDBRANCH  66  89
ENDBRANCH  40  41
ENDBRANCH  32  35
ENDBRANCH  30  31
ENDBRANCH  29  30
ENDBRANCH   1  29
TORSDOF 18
ENDMDL
MODEL 2
REMARK VINA RESULT:     -12.2      1.962      2.266
REMARK SMILES O=C(CCCCCN1C(=O)/C(=C2\C(=O)Nc3ccccc32)SC1=S)NCCCNC(=O)c1ccc(-c2c3nc(c(-c4cc(S(=O)(=O)[O-])ccc4F)c4ccc([nH]4)c(-c4cc(S(=O)(=O)[O-])ccc4F)c4nc(c(-c5cc(S(=O)(=O)[O-])ccc5F)c5ccc2[nH]5)C=C4)C=C3)cc1
REMARK SMILES IDX 26 1 25 2 1 3 2 4 3 6 4 7 5 8 6 9 7 10 8 11 9 12 23 13 10 14
REMARK SMILES IDX 11 15 22 16 24 17 12 18 13 19 21 20 14 21 15 22 16 23 20 24
REMARK SMILES IDX 17 26 19 27 18 28 27 29 28 30 29 31 30 32 31 34 32 35 33 36
REMARK SMILES IDX 94 37 34 38 93 39 35 40 36 41 37 42 87 43 38 44 92 45 86 46
REMARK SMILES IDX 88 47 39 48 91 49 85 50 84 51 40 53 72 54 52 55 71 56 53 57
REMARK SMILES IDX 56 58 70 59 89 60 54 61 55 62 69 64 90 65 57 66 41 67 42 68
REMARK SMILES IDX 50 69 43 70 49 71 51 72 48 73 44 74 45 75 46 76 47 77 73 78
REMARK SMILES IDX 74 79 82 80 75 81 81 82 83 83 80 84 76 85 77 86 78 87 79 88
REMARK SMILES IDX 58 89 59 90 67 91 60 92 66 93 68 94 65 95 61 96 62 97 63 98
REMARK SMILES IDX 64 99
REMARK H PARENT 25 5 15 25 29 33 88 52 56 63
REMARK Flexibility Score: inf
ROOT
ATOM      1  C   UNL A   1      31.430  30.814  25.732  1.00  0.00     0.117 C 
ENDROOT
BRANCH   1   2
ATOM      2  N   UNL A   1      31.612  29.711  24.811  1.00  0.00    -0.356 N 
ATOM      3  O   UNL A   1      29.661  29.988  23.629  1.00  0.00    -0.275 OA
ATOM      4  C   UNL A   1      30.736  29.423  23.793  1.00  0.00     0.219 C 
ATOM      5  H   UNL A   1      32.404  29.137  24.921  1.00  0.00     0.163 HD
BRANCH   4   6
ATOM      6  C   UNL A   1      31.244  28.352  22.846  1.00  0.00     0.100 C 
BRANCH   6   7
ATOM      7  C   UNL A   1      32.677  27.925  23.166  1.00  0.00     0.010 C 
BRANCH   7   8
ATOM      8  C   UNL A   1      33.319  26.933  22.192  1.00  0.00     0.002 C 
BRANCH   8   9
ATOM      9  C   UNL A   1      33.878  25.640  22.811  1.00  0.00     0.022 C 
BRANCH   9  10
ATOM     10  C   UNL A   1      33.690  25.500  24.332  1.00  0.00     0.127 C 
BRANCH  10  11
ATOM     11  N   UNL A   1      33.096  24.221  24.711  1.00  0.00    -0.293 N 
ATOM     12  C   UNL A   1      33.825  23.346  25.506  1.00  0.00     0.267 C 
ATOM     13  C   UNL A   1      31.826  23.805  24.391  1.00  0.00     0.148 C 
ATOM     14  O   UNL A   1      34.690  23.662  26.303  1.00  0.00    -0.268 OA
ATOM     15  C   UNL A   1      33.307  21.971  25.267  1.00  0.00     0.093 C 
ATOM     16  S   UNL A   1      31.621  22.139  24.913  1.00  0.00    -0.053 SA
ATOM     17  S   UNL A   1      30.616  24.635  23.603  1.00  0.00    -0.052 S 
ATOM     18  C   UNL A   1      34.056  20.871  25.102  1.00  0.00     0.069 C 
ATOM     19  C   UNL A   1      35.553  20.810  25.303  1.00  0.00     0.257 C 
ATOM     20  C   UNL A   1      33.659  19.535  24.604  1.00  0.00     0.012 A 
ATOM     21  O   UNL A   1      36.333  21.710  25.546  1.00  0.00    -0.269 OA
ATOM     22  N   UNL A   1      35.905  19.496  25.054  1.00  0.00    -0.321 N 
ATOM     23  C   UNL A   1      34.818  18.753  24.617  1.00  0.00     0.049 A 
ATOM     24  C   UNL A   1      32.494  19.007  24.073  1.00  0.00     0.011 A 
ATOM     25  H   UNL A   1      36.813  19.133  25.172  1.00  0.00     0.170 HD
ATOM     26  C   UNL A   1      34.854  17.449  24.162  1.00  0.00     0.027 A 
ATOM     27  C   UNL A   1      32.508  17.695  23.584  1.00  0.00     0.001 A 
ATOM     28  C   UNL A   1      33.675  16.919  23.638  1.00  0.00     0.002 A 
ENDBRANCH  10  11
ENDBRANCH   9  10
ENDBRANCH   8   9
ENDBRANCH   7   8
ENDBRANCH   6   7
ENDBRANCH   4   6
ENDBRANCH   1   2
BRANCH   1  29
ATOM     29  C   UNL A   1      32.199  30.604  27.026  1.00  0.00     0.042 C 
BRANCH  29  30
ATOM     30  C   UNL A   1      33.304  31.622  27.286  1.00  0.00     0.118 C 
BRANCH  30  31
ATOM     31  N   UNL A   1      32.825  32.985  27.475  1.00  0.00    -0.352 N 
ATOM     32  C   UNL A   1      33.258  33.940  28.374  1.00  0.00     0.251 C 
ATOM     33  H   UNL A   1      32.093  33.264  26.880  1.00  0.00     0.163 HD
ATOM     34  O   UNL A   1      32.648  34.999  28.484  1.00  0.00    -0.269 OA
BRANCH  32  35
ATOM     35  C   UNL A   1      34.424  33.652  29.243  1.00  0.00     0.039 A 
ATOM     36  C   UNL A   1      35.694  34.112  28.902  1.00  0.00     0.014 A 
ATOM     37  C   UNL A   1      34.254  32.851  30.376  1.00  0.00     0.014 A 
ATOM     38  C   UNL A   1      36.809  33.586  29.544  1.00  0.00     0.010 A 
ATOM     39  C   UNL A   1      35.375  32.417  31.095  1.00  0.00     0.010 A 
ATOM     40  C   UNL A   1      36.669  32.722  30.643  1.00  0.00    -0.014 A 
BRANCH  40  41
ATOM     41  C   UNL A   1      37.887  32.150  31.285  1.00  0.00     0.031 A 
ATOM     42  C   UNL A   1      38.345  32.617  32.645  1.00  0.00     0.074 A 
ATOM     43  C   UNL A   1      38.548  31.152  30.666  1.00  0.00     0.049 A 
ATOM     44  N   UNL A   1      39.347  32.184  33.368  1.00  0.00    -0.248 NA
ATOM     45  C   UNL A   1      37.590  33.712  33.276  1.00  0.00     0.031 C 
ATOM     46  C   UNL A   1      38.200  30.615  29.350  1.00  0.00     0.029 A 
ATOM     47  N   UNL A   1      39.624  30.392  31.059  1.00  0.00    -0.354 N 
ATOM     48  C   UNL A   1      39.354  32.959  34.524  1.00  0.00     0.074 A 
ATOM     49  C   UNL A   1      38.281  33.919  34.388  1.00  0.00     0.031 C 
ATOM     50  C   UNL A   1      38.999  29.576  29.074  1.00  0.00     0.029 A 
ATOM     51  C   UNL A   1      39.974  29.421  30.149  1.00  0.00     0.049 A 
ATOM     52  H   UNL A   1      40.097  30.530  31.912  1.00  0.00     0.167 HD
ATOM     53  C   UNL A   1      40.166  32.864  35.604  1.00  0.00     0.034 A 
ATOM     54  C   UNL A   1      40.974  28.515  30.161  1.00  0.00     0.034 A 
ATOM     55  C   UNL A   1      41.215  31.883  35.735  1.00  0.00     0.049 A 
ATOM     56  C   UNL A   1      41.884  28.450  31.360  1.00  0.00     0.074 A 
ATOM     57  C   UNL A   1      42.065  31.685  36.809  1.00  0.00     0.029 A 
ATOM     58  N   UNL A   1      41.562  30.941  34.776  1.00  0.00    -0.354 N 
ATOM     59  N   UNL A   1      41.835  29.153  32.467  1.00  0.00    -0.248 NA
ATOM     60  C   UNL A   1      42.977  27.471  31.322  1.00  0.00     0.031 C 
ATOM     61  C   UNL A   1      42.975  30.685  36.469  1.00  0.00     0.029 A 
ATOM     62  C   UNL A   1      42.634  30.186  35.223  1.00  0.00     0.049 A 
ATOM     63  H   UNL A   1      41.112  30.828  33.908  1.00  0.00     0.167 HD
ATOM     64  C   UNL A   1      42.873  28.683  33.267  1.00  0.00     0.074 A 
ATOM     65  C   UNL A   1      43.515  27.617  32.526  1.00  0.00     0.031 C 
ATOM     66  C   UNL A   1      43.259  29.103  34.497  1.00  0.00     0.034 A 
BRANCH  53  67
ATOM     67  C   UNL A   1      39.969  33.821  36.759  1.00  0.00     0.023 A 
ATOM     68  C   UNL A   1      40.906  34.850  36.985  1.00  0.00     0.031 A 
ATOM     69  C   UNL A   1      38.963  33.621  37.720  1.00  0.00     0.131 A 
ATOM     70  C   UNL A   1      40.847  35.601  38.165  1.00  0.00     0.055 A 
ATOM     71  C   UNL A   1      38.877  34.409  38.870  1.00  0.00     0.041 A 
ATOM     72  F   UNL A   1      38.048  32.651  37.559  1.00  0.00    -0.206 F 
ATOM     73  C   UNL A   1      39.832  35.393  39.104  1.00  0.00     0.022 A 
BRANCH  70  74
ATOM     74  S   UNL A   1      42.134  36.815  38.571  1.00  0.00     0.124 S 
ATOM     75  O   UNL A   1      41.367  37.840  39.277  1.00  0.00    -0.237 OA
ATOM     76  O   UNL A   1      43.040  36.029  39.405  1.00  0.00    -0.237 OA
ATOM     77  O   UNL A   1      42.660  37.218  37.271  1.00  0.00    -0.744 OA
ENDBRANCH  70  74
ENDBRANCH  53  67
BRANCH  54  78
ATOM     78  C   UNL A   1      41.119  27.580  29.005  1.00  0.00     0.023 A 
ATOM     79  C   UNL A   1      42.106  27.795  28.025  1.00  0.00     0.031 A 
ATOM     80  C   UNL A   1      40.203  26.536  28.797  1.00  0.00     0.131 A 
ATOM     81  C   UNL A   1      42.099  27.038  26.848  1.00  0.00     0.055 A 
ATOM     82  C   UNL A   1      40.253  25.726  27.662  1.00  0.00     0.041 A 
ATOM     83  F   UNL A   1      39.234  26.297  29.695  1.00  0.00    -0.206 F 
ATOM     84  C   UNL A   1      41.191  25.990  26.669  1.00  0.00     0.022 A 
BRANCH  81  85
ATOM     85  S   UNL A   1      43.162  27.489  25.449  1.00  0.00     0.124 S 
ATOM     86  O   UNL A   1      43.549  26.183  24.925  1.00  0.00    -0.237 OA
ATOM     87  O   UNL A   1      42.242  28.257  24.613  1.00  0.00    -0.237 OA
ATOM     88  O   UNL A   1      44.233  28.265  26.066  1.00  0.00    -0.744 OA
ENDBRANCH  81  85
ENDBRANCH  54  78
BRANCH  66  89
ATOM     89  C   UNL A   1      44.423  28.416  35.174  1.00  0.00     0.023 A 
ATOM     90  C   UNL A   1      44.187  27.320  36.027  1.00  0.00     0.031 A 
ATOM     91  C   UNL A   1      45.724  28.945  35.120  1.00  0.00     0.131 A 
ATOM     92  C   UNL A   1      45.219  26.826  36.834  1.00  0.00     0.055 A 
ATOM     93  C   UNL A   1      46.765  28.409  35.880  1.00  0.00     0.041 A 
ATOM     94  F   UNL A   1      46.002  29.998  34.334  1.00  0.00    -0.206 F 
ATOM     95  C   UNL A   1      46.510  27.358  36.757  1.00  0.00     0.022 A 
BRANCH  92  96
ATOM     96  S   UNL A   1      44.899  25.556  38.090  1.00  0.00     0.124 S 
ATOM     97  O   UNL A   1      44.707  26.364  39.293  1.00  0.00    -0.237 OA
ATOM     98  O   UNL A   1      43.695  24.911  37.574  1.00  0.00    -0.237 OA
ATOM     99  O   UNL A   1      46.105  24.737  38.080  1.00  0.00    -0.744 OA
ENDBRANCH  92  96
ENDBRANCH  66  89
ENDBRANCH  40  41
ENDBRANCH  32  35
ENDBRANCH  30  31
ENDBRANCH  29  30
ENDBRANCH   1  29
TORSDOF 18
ENDMDL
MODEL 3
REMARK VINA RESULT:     -12.1      1.289      1.901
REMARK SMILES O=C(CCCCCN1C(=O)/C(=C2\C(=O)Nc3ccccc32)SC1=S)NCCCNC(=O)c1ccc(-c2c3nc(c(-c4cc(S(=O)(=O)[O-])ccc4F)c4ccc([nH]4)c(-c4cc(S(=O)(=O)[O-])ccc4F)c4nc(c(-c5cc(S(=O)(=O)[O-])ccc5F)c5ccc2[nH]5)C=C4)C=C3)cc1
REMARK SMILES IDX 26 1 25 2 1 3 2 4 3 6 4 7 5 8 6 9 7 10 8 11 9 12 23 13 10 14
REMARK SMILES IDX 11 15 22 16 24 17 12 18 13 19 21 20 14 21 15 22 16 23 20 24
REMARK SMILES IDX 17 26 19 27 18 28 27 29 28 30 29 31 30 32 31 34 32 35 33 36
REMARK SMILES IDX 94 37 34 38 93 39 35 40 36 41 37 42 87 43 38 44 92 45 86 46
REMARK SMILES IDX 88 47 39 48 91 49 85 50 84 51 40 53 72 54 52 55 71 56 53 57
REMARK SMILES IDX 56 58 70 59 89 60 54 61 55 62 69 64 90 65 57 66 41 67 42 68
REMARK SMILES IDX 50 69 43 70 49 71 51 72 48 73 44 74 45 75 46 76 47 77 73 78
REMARK SMILES IDX 74 79 82 80 75 81 81 82 83 83 80 84 76 85 77 86 78 87 79 88
REMARK SMILES IDX 58 89 59 90 67 91 60 92 66 93 68 94 65 95 61 96 62 97 63 98
REMARK SMILES IDX 64 99
REMARK H PARENT 25 5 15 25 29 33 88 52 56 63
REMARK Flexibility Score: inf
ROOT
ATOM      1  C   UNL A   1      31.062  31.335  25.750  1.00  0.00     0.117 C 
ENDROOT
BRANCH   1   2
ATOM      2  N   UNL A   1      30.605  30.457  24.692  1.00  0.00    -0.356 N 
ATOM      3  O   UNL A   1      28.922  31.805  23.897  1.00  0.00    -0.275 OA
ATOM      4  C   UNL A   1      29.606  30.792  23.811  1.00  0.00     0.219 C 
ATOM      5  H   UNL A   1      31.033  29.576  24.599  1.00  0.00     0.163 HD
BRANCH   4   6
ATOM      6  C   UNL A   1      29.445  29.798  22.675  1.00  0.00     0.100 C 
BRANCH   6   7
ATOM      7  C   UNL A   1      28.747  28.513  23.123  1.00  0.00     0.010 C 
BRANCH   7   8
ATOM      8  C   UNL A   1      29.620  27.256  23.178  1.00  0.00     0.002 C 
BRANCH   8   9
ATOM      9  C   UNL A   1      29.397  26.329  24.386  1.00  0.00     0.022 C 
BRANCH   9  10
ATOM     10  C   UNL A   1      30.649  26.029  25.229  1.00  0.00     0.127 C 
BRANCH  10  11
ATOM     11  N   UNL A   1      31.728  25.433  24.443  1.00  0.00    -0.293 N 
ATOM     12  C   UNL A   1      31.640  24.095  24.082  1.00  0.00     0.267 C 
ATOM     13  C   UNL A   1      32.831  26.100  23.967  1.00  0.00     0.148 C 
ATOM     14  O   UNL A   1      30.610  23.465  23.930  1.00  0.00    -0.268 OA
ATOM     15  C   UNL A   1      33.021  23.596  23.839  1.00  0.00     0.093 C 
ATOM     16  S   UNL A   1      33.927  24.940  23.230  1.00  0.00    -0.053 SA
ATOM     17  S   UNL A   1      33.195  27.723  24.054  1.00  0.00    -0.052 S 
ATOM     18  C   UNL A   1      33.513  22.422  24.259  1.00  0.00     0.069 C 
ATOM     19  C   UNL A   1      32.696  21.326  24.904  1.00  0.00     0.257 C 
ATOM     20  C   UNL A   1      34.918  21.957  24.302  1.00  0.00     0.012 A 
ATOM     21  O   UNL A   1      31.525  21.332  25.232  1.00  0.00    -0.269 OA
ATOM     22  N   UNL A   1      33.587  20.298  25.152  1.00  0.00    -0.321 N 
ATOM     23  C   UNL A   1      34.887  20.665  24.835  1.00  0.00     0.049 A 
ATOM     24  C   UNL A   1      36.142  22.552  24.045  1.00  0.00     0.011 A 
ATOM     25  H   UNL A   1      33.332  19.416  25.508  1.00  0.00     0.170 HD
ATOM     26  C   UNL A   1      36.026  19.922  25.082  1.00  0.00     0.027 A 
ATOM     27  C   UNL A   1      37.313  21.831  24.307  1.00  0.00     0.001 A 
ATOM     28  C   UNL A   1      37.255  20.523  24.812  1.00  0.00     0.002 A 
ENDBRANCH  10  11
ENDBRANCH   9  10
ENDBRANCH   8   9
ENDBRANCH   7   8
ENDBRANCH   6   7
ENDBRANCH   4   6
ENDBRANCH   1   2
BRANCH   1  29
ATOM     29  C   UNL A   1      32.025  30.630  26.692  1.00  0.00     0.042 C 
BRANCH  29  30
ATOM     30  C   UNL A   1      33.176  31.496  27.195  1.00  0.00     0.118 C 
BRANCH  30  31
ATOM     31  N   UNL A   1      32.818  32.890  27.422  1.00  0.00    -0.352 N 
ATOM     32  C   UNL A   1      33.380  33.798  28.297  1.00  0.00     0.251 C 
ATOM     33  H   UNL A   1      32.074  33.230  26.876  1.00  0.00     0.163 HD
ATOM     34  O   UNL A   1      32.862  34.900  28.452  1.00  0.00    -0.269 OA
BRANCH  32  35
ATOM     35  C   UNL A   1      34.572  33.412  29.088  1.00  0.00     0.039 A 
ATOM     36  C   UNL A   1      35.841  33.856  28.722  1.00  0.00     0.014 A 
ATOM     37  C   UNL A   1      34.425  32.535  30.168  1.00  0.00     0.014 A 
ATOM     38  C   UNL A   1      36.965  33.250  29.273  1.00  0.00     0.010 A 
ATOM     39  C   UNL A   1      35.561  32.015  30.801  1.00  0.00     0.010 A 
ATOM     40  C   UNL A   1      36.843  32.312  30.313  1.00  0.00    -0.014 A 
BRANCH  40  41
ATOM     41  C   UNL A   1      38.068  31.657  30.856  1.00  0.00     0.031 A 
ATOM     42  C   UNL A   1      38.559  31.956  32.251  1.00  0.00     0.074 A 
ATOM     43  C   UNL A   1      38.705  30.735  30.107  1.00  0.00     0.049 A 
ATOM     44  N   UNL A   1      39.571  31.432  32.895  1.00  0.00    -0.248 NA
ATOM     45  C   UNL A   1      37.830  32.974  33.023  1.00  0.00     0.031 C 
ATOM     46  C   UNL A   1      38.323  30.361  28.745  1.00  0.00     0.029 A 
ATOM     47  N   UNL A   1      39.780  29.924  30.384  1.00  0.00    -0.354 N 
ATOM     48  C   UNL A   1      39.611  32.063  34.134  1.00  0.00     0.074 A 
ATOM     49  C   UNL A   1      38.547  33.042  34.137  1.00  0.00     0.031 C 
ATOM     50  C   UNL A   1      39.105  29.355  28.330  1.00  0.00     0.029 A 
ATOM     51  C   UNL A   1      40.100  29.065  29.357  1.00  0.00     0.049 A 
ATOM     52  H   UNL A   1      40.273  29.956  31.236  1.00  0.00     0.167 HD
ATOM     53  C   UNL A   1      40.445  31.834  35.177  1.00  0.00     0.034 A 
ATOM     54  C   UNL A   1      41.090  28.156  29.239  1.00  0.00     0.034 A 
ATOM     55  C   UNL A   1      41.485  30.835  35.167  1.00  0.00     0.049 A 
ATOM     56  C   UNL A   1      42.024  27.941  30.402  1.00  0.00     0.074 A 
ATOM     57  C   UNL A   1      42.355  30.503  36.191  1.00  0.00     0.029 A 
ATOM     58  N   UNL A   1      41.801  30.011  34.096  1.00  0.00    -0.354 N 
ATOM     59  N   UNL A   1      42.006  28.508  31.586  1.00  0.00    -0.248 NA
ATOM     60  C   UNL A   1      43.105  26.964  30.224  1.00  0.00     0.031 C 
ATOM     61  C   UNL A   1      43.247  29.543  35.714  1.00  0.00     0.029 A 
ATOM     62  C   UNL A   1      42.874  29.198  34.426  1.00  0.00     0.049 A 
ATOM     63  H   UNL A   1      41.332  30.005  33.231  1.00  0.00     0.167 HD
ATOM     64  C   UNL A   1      43.055  27.937  32.300  1.00  0.00     0.074 A 
ATOM     65  C   UNL A   1      43.669  26.961  31.424  1.00  0.00     0.031 C 
ATOM     66  C   UNL A   1      43.472  28.204  33.563  1.00  0.00     0.034 A 
BRANCH  53  67
ATOM     67  C   UNL A   1      40.282  32.648  36.441  1.00  0.00     0.023 A 
ATOM     68  C   UNL A   1      39.323  32.268  37.402  1.00  0.00     0.031 A 
ATOM     69  C   UNL A   1      40.946  33.874  36.620  1.00  0.00     0.131 A 
ATOM     70  C   UNL A   1      39.021  33.126  38.465  1.00  0.00     0.055 A 
ATOM     71  C   UNL A   1      40.678  34.702  37.712  1.00  0.00     0.041 A 
ATOM     72  F   UNL A   1      41.864  34.289  35.733  1.00  0.00    -0.206 F 
ATOM     73  C   UNL A   1      39.699  34.337  38.631  1.00  0.00     0.022 A 
BRANCH  70  74
ATOM     74  S   UNL A   1      37.674  32.750  39.622  1.00  0.00     0.124 S 
ATOM     75  O   UNL A   1      36.566  32.468  38.711  1.00  0.00    -0.237 OA
ATOM     76  O   UNL A   1      38.202  31.591  40.338  1.00  0.00    -0.237 OA
ATOM     77  O   UNL A   1      37.535  33.970  40.409  1.00  0.00    -0.744 OA
ENDBRANCH  70  74
ENDBRANCH  53  67
BRANCH  54  78
ATOM     78  C   UNL A   1      41.200  27.364  27.978  1.00  0.00     0.023 A 
ATOM     79  C   UNL A   1      40.844  26.003  27.950  1.00  0.00     0.031 A 
ATOM     80  C   UNL A   1      41.772  27.918  26.820  1.00  0.00     0.131 A 
ATOM     81  C   UNL A   1      41.144  25.224  26.826  1.00  0.00     0.055 A 
ATOM     82  C   UNL A   1      41.989  27.158  25.670  1.00  0.00     0.041 A 
ATOM     83  F   UNL A   1      42.140  29.208  26.799  1.00  0.00    -0.206 F 
ATOM     84  C   UNL A   1      41.695  25.798  25.676  1.00  0.00     0.022 A 
BRANCH  81  85
ATOM     85  S   UNL A   1      40.974  23.419  26.876  1.00  0.00     0.124 S 
ATOM     86  O   UNL A   1      41.368  23.112  28.247  1.00  0.00    -0.237 OA
ATOM     87  O   UNL A   1      39.554  23.247  26.574  1.00  0.00    -0.237 OA
ATOM     88  O   UNL A   1      41.888  22.957  25.836  1.00  0.00    -0.744 OA
ENDBRANCH  81  85
ENDBRANCH  54  78
BRANCH  66  89
ATOM     89  C   UNL A   1      44.642  27.432  34.128  1.00  0.00     0.023 A 
ATOM     90  C   UNL A   1      44.416  26.211  34.795  1.00  0.00     0.031 A 
ATOM     91  C   UNL A   1      45.937  27.976  34.164  1.00  0.00     0.131 A 
ATOM     92  C   UNL A   1      45.452  25.608  35.518  1.00  0.00     0.055 A 
ATOM     93  C   UNL A   1      46.982  27.338  34.834  1.00  0.00     0.041 A 
ATOM     94  F   UNL A   1      46.204  29.144  33.557  1.00  0.00    -0.206 F 
ATOM     95  C   UNL A   1      46.736  26.159  35.532  1.00  0.00     0.022 A 
BRANCH  92  96
ATOM     96  S   UNL A   1      45.143  24.151  36.555  1.00  0.00     0.124 S 
ATOM     97  O   UNL A   1      44.609  24.756  37.773  1.00  0.00    -0.237 OA
ATOM     98  O   UNL A   1      44.178  23.403  35.754  1.00  0.00    -0.237 OA
ATOM     99  O   UNL A   1      46.457  23.532  36.695  1.00  0.00    -0.744 OA
ENDBRANCH  92  96
ENDBRANCH  66  89
ENDBRANCH  40  41
ENDBRANCH  32  35
ENDBRANCH  30  31
ENDBRANCH  29  30
ENDBRANCH   1  29
TORSDOF 18
ENDMDL
