MODEL 1
REMARK VINA RESULT:     -12.6      0.000      0.000
REMARK SMILES O=C(NCCCNC(=O)[C@H]1C[C@](O)(c2ccc(F)cc2)[C@@H](c2ccc(F)cc2)O1)c1ccc(-c2c3nc(c(-c4cc(S(=O)(=O)[O-])ccc4F)c4ccc([nH]4)c(-c4cc(S(=O)(=O)[O-])ccc4F)c4nc(c(-c5cc(S(=O)(=O)[O-])ccc5F)c5ccc2[nH]5)C=C4)C=C3)cc1
REMARK SMILES IDX 4 1 3 2 1 3 2 4 30 6 31 7 92 8 32 9 91 10 33 11 34 12 35 13
REMARK SMILES IDX 85 14 36 15 90 16 84 17 86 18 37 19 89 20 83 21 82 22 38 24
REMARK SMILES IDX 70 25 50 26 69 27 51 28 54 29 68 30 87 31 52 32 53 33 67 35
REMARK SMILES IDX 88 36 55 37 39 38 40 39 48 40 41 41 47 42 49 43 46 44 42 45
REMARK SMILES IDX 43 46 44 47 45 48 71 49 72 50 80 51 73 52 79 53 81 54 78 55
REMARK SMILES IDX 74 56 75 57 76 58 77 59 56 60 57 61 65 62 58 63 64 64 66 65
REMARK SMILES IDX 63 66 59 67 60 68 61 69 62 70 5 71 6 72 7 73 8 74 9 76 10 77
REMARK SMILES IDX 11 78 29 79 12 80 21 81 14 82 15 83 20 84 16 85 19 86 17 87
REMARK SMILES IDX 18 88 13 89 22 91 23 92 28 93 24 94 27 95 25 96 26 97
REMARK H PARENT 3 5 86 23 54 34 7 75 13 90
REMARK Flexibility Score: inf
ROOT
ATOM      1  C   UNL A   1      33.144  28.863  25.451  1.00  0.00     0.118 C 
ENDROOT
BRANCH   1   2
ATOM      2  N   UNL A   1      32.598  30.151  25.862  1.00  0.00    -0.352 N 
ATOM      3  O   UNL A   1      32.331  32.016  27.096  1.00  0.00    -0.269 OA
ATOM      4  C   UNL A   1      33.026  31.047  26.820  1.00  0.00     0.251 C 
ATOM      5  H   UNL A   1      31.789  30.429  25.374  1.00  0.00     0.163 HD
BRANCH   4   6
ATOM      6  C   UNL A   1      34.301  30.818  27.535  1.00  0.00     0.039 A 
ATOM      7  C   UNL A   1      34.633  29.550  28.003  1.00  0.00     0.014 A 
ATOM      8  C   UNL A   1      35.188  31.883  27.730  1.00  0.00     0.014 A 
ATOM      9  C   UNL A   1      35.721  29.387  28.844  1.00  0.00     0.010 A 
ATOM     10  C   UNL A   1      36.369  31.682  28.456  1.00  0.00     0.010 A 
ATOM     11  C   UNL A   1      36.629  30.437  29.046  1.00  0.00    -0.014 A 
BRANCH  11  12
ATOM     12  C   UNL A   1      37.883  30.151  29.785  1.00  0.00     0.031 A 
ATOM     13  C   UNL A   1      38.090  30.613  31.199  1.00  0.00     0.074 A 
ATOM     14  C   UNL A   1      38.814  29.388  29.175  1.00  0.00     0.049 A 
ATOM     15  N   UNL A   1      39.119  30.418  31.982  1.00  0.00    -0.248 NA
ATOM     16  C   UNL A   1      37.011  31.402  31.809  1.00  0.00     0.031 C 
ATOM     17  C   UNL A   1      38.706  28.870  27.807  1.00  0.00     0.029 A 
ATOM     18  N   UNL A   1      39.997  28.869  29.629  1.00  0.00    -0.354 N 
ATOM     19  C   UNL A   1      38.825  31.074  33.172  1.00  0.00     0.074 A 
ATOM     20  C   UNL A   1      37.527  31.693  32.996  1.00  0.00     0.031 C 
ATOM     21  C   UNL A   1      39.716  28.025  27.574  1.00  0.00     0.029 A 
ATOM     22  C   UNL A   1      40.601  28.023  28.730  1.00  0.00     0.049 A 
ATOM     23  H   UNL A   1      40.376  29.081  30.512  1.00  0.00     0.167 HD
ATOM     24  C   UNL A   1      39.573  31.148  34.301  1.00  0.00     0.034 A 
ATOM     25  C   UNL A   1      41.753  27.332  28.811  1.00  0.00     0.034 A 
ATOM     26  C   UNL A   1      40.866  30.521  34.451  1.00  0.00     0.049 A 
ATOM     27  C   UNL A   1      42.586  27.471  30.046  1.00  0.00     0.074 A 
ATOM     28  C   UNL A   1      41.717  30.546  35.543  1.00  0.00     0.029 A 
ATOM     29  N   UNL A   1      41.497  29.752  33.479  1.00  0.00    -0.354 N 
ATOM     30  N   UNL A   1      42.330  28.160  31.134  1.00  0.00    -0.248 NA
ATOM     31  C   UNL A   1      43.871  26.765  30.059  1.00  0.00     0.031 C 
ATOM     32  C   UNL A   1      42.881  29.842  35.212  1.00  0.00     0.029 A 
ATOM     33  C   UNL A   1      42.731  29.317  33.939  1.00  0.00     0.049 A 
ATOM     34  H   UNL A   1      41.122  29.546  32.592  1.00  0.00     0.167 HD
ATOM     35  C   UNL A   1      43.423  27.968  31.968  1.00  0.00     0.074 A 
ATOM     36  C   UNL A   1      44.337  27.090  31.259  1.00  0.00     0.031 C 
ATOM     37  C   UNL A   1      43.644  28.469  33.208  1.00  0.00     0.034 A 
BRANCH  24  38
ATOM     38  C   UNL A   1      39.034  31.980  35.439  1.00  0.00     0.023 A 
ATOM     39  C   UNL A   1      38.466  31.394  36.584  1.00  0.00     0.031 A 
ATOM     40  C   UNL A   1      39.078  33.385  35.372  1.00  0.00     0.131 A 
ATOM     41  C   UNL A   1      37.913  32.207  37.587  1.00  0.00     0.055 A 
ATOM     42  C   UNL A   1      38.590  34.188  36.404  1.00  0.00     0.041 A 
ATOM     43  F   UNL A   1      39.589  34.001  34.295  1.00  0.00    -0.206 F 
ATOM     44  C   UNL A   1      37.993  33.600  37.516  1.00  0.00     0.022 A 
BRANCH  41  45
ATOM     45  S   UNL A   1      36.987  31.420  38.933  1.00  0.00     0.124 S 
ATOM     46  O   UNL A   1      35.790  32.255  38.994  1.00  0.00    -0.237 OA
ATOM     47  O   UNL A   1      36.794  30.063  38.435  1.00  0.00    -0.237 OA
ATOM     48  O   UNL A   1      37.881  31.541  40.083  1.00  0.00    -0.744 OA
ENDBRANCH  41  45
ENDBRANCH  24  38
BRANCH  25  49
ATOM     49  C   UNL A   1      42.172  26.485  27.664  1.00  0.00     0.023 A 
ATOM     50  C   UNL A   1      41.924  25.106  27.659  1.00  0.00     0.031 A 
ATOM     51  C   UNL A   1      42.740  27.066  26.516  1.00  0.00     0.131 A 
ATOM     52  C   UNL A   1      42.240  24.349  26.521  1.00  0.00     0.055 A 
ATOM     53  C   UNL A   1      43.021  26.316  25.375  1.00  0.00     0.041 A 
ATOM     54  F   UNL A   1      42.972  28.388  26.470  1.00  0.00    -0.206 F 
ATOM     55  C   UNL A   1      42.769  24.947  25.373  1.00  0.00     0.022 A 
BRANCH  52  56
ATOM     56  S   UNL A   1      41.924  22.562  26.543  1.00  0.00     0.124 S 
ATOM     57  O   UNL A   1      42.434  22.156  25.239  1.00  0.00    -0.237 OA
ATOM     58  O   UNL A   1      42.698  22.127  27.701  1.00  0.00    -0.237 OA
ATOM     59  O   UNL A   1      40.474  22.477  26.703  1.00  0.00    -0.744 OA
ENDBRANCH  52  56
ENDBRANCH  25  49
BRANCH  37  60
ATOM     60  C   UNL A   1      44.921  28.054  33.887  1.00  0.00     0.023 A 
ATOM     61  C   UNL A   1      45.009  26.860  34.621  1.00  0.00     0.031 A 
ATOM     62  C   UNL A   1      46.065  28.864  33.787  1.00  0.00     0.131 A 
ATOM     63  C   UNL A   1      46.212  26.525  35.261  1.00  0.00     0.055 A 
ATOM     64  C   UNL A   1      47.271  28.504  34.387  1.00  0.00     0.041 A 
ATOM     65  F   UNL A   1      46.028  30.016  33.097  1.00  0.00    -0.206 F 
ATOM     66  C   UNL A   1      47.347  27.332  35.135  1.00  0.00     0.022 A 
BRANCH  63  67
ATOM     67  S   UNL A   1      46.264  25.042  36.303  1.00  0.00     0.124 S 
ATOM     68  O   UNL A   1      47.021  24.115  35.469  1.00  0.00    -0.237 OA
ATOM     69  O   UNL A   1      46.942  25.521  37.502  1.00  0.00    -0.237 OA
ATOM     70  O   UNL A   1      44.854  24.702  36.485  1.00  0.00    -0.744 OA
ENDBRANCH  63  67
ENDBRANCH  37  60
ENDBRANCH  11  12
ENDBRANCH   4   6
ENDBRANCH   1   2
BRANCH   1  71
ATOM     71  C   UNL A   1      32.158  27.709  25.600  1.00  0.00     0.042 C 
BRANCH  71  72
ATOM     72  C   UNL A   1      32.596  26.723  26.665  1.00  0.00     0.117 C 
BRANCH  72  73
ATOM     73  N   UNL A   1      31.660  25.625  26.851  1.00  0.00    -0.354 N 
ATOM     74  C   UNL A   1      31.853  24.283  26.962  1.00  0.00     0.249 C 
ATOM     75  H   UNL A   1      30.717  25.903  26.907  1.00  0.00     0.163 HD
ATOM     76  O   UNL A   1      30.850  23.618  27.245  1.00  0.00    -0.272 OA
BRANCH  74  77
ATOM     77  C   UNL A   1      33.218  23.602  26.688  1.00  0.00     0.211 C 
ATOM     78  C   UNL A   1      33.220  22.275  25.954  1.00  0.00     0.085 C 
ATOM     79  O   UNL A   1      34.088  24.483  25.953  1.00  0.00    -0.357 OA
ATOM     80  C   UNL A   1      34.048  22.451  24.689  1.00  0.00     0.123 C 
ATOM     81  C   UNL A   1      34.235  23.989  24.611  1.00  0.00     0.186 C 
BRANCH  80  82
ATOM     82  C   UNL A   1      35.275  21.541  24.790  1.00  0.00    -0.013 A 
ATOM     83  C   UNL A   1      36.555  22.149  24.774  1.00  0.00     0.010 A 
ATOM     84  C   UNL A   1      35.218  20.142  24.855  1.00  0.00     0.010 A 
ATOM     85  C   UNL A   1      37.725  21.394  24.812  1.00  0.00     0.039 A 
ATOM     86  C   UNL A   1      36.394  19.384  24.913  1.00  0.00     0.039 A 
ATOM     87  C   UNL A   1      37.632  20.014  24.887  1.00  0.00     0.123 A 
ATOM     88  F   UNL A   1      38.750  19.278  24.928  1.00  0.00    -0.207 F 
ENDBRANCH  80  82
BRANCH  80  89
ATOM     89  O   UNL A   1      33.293  21.943  23.576  1.00  0.00    -0.382 OA
ATOM     90  H   UNL A   1      32.433  21.623  23.889  1.00  0.00     0.212 HD
ENDBRANCH  80  89
BRANCH  81  91
ATOM     91  C   UNL A   1      33.321  24.783  23.676  1.00  0.00    -0.016 A 
ATOM     92  C   UNL A   1      31.946  24.521  23.544  1.00  0.00     0.009 A 
ATOM     93  C   UNL A   1      33.865  25.844  22.927  1.00  0.00     0.009 A 
ATOM     94  C   UNL A   1      31.138  25.302  22.713  1.00  0.00     0.039 A 
ATOM     95  C   UNL A   1      33.060  26.613  22.080  1.00  0.00     0.039 A 
ATOM     96  C   UNL A   1      31.703  26.340  21.988  1.00  0.00     0.123 A 
ATOM     97  F   UNL A   1      30.932  27.087  21.186  1.00  0.00    -0.207 F 
ENDBRANCH  81  91
ENDBRANCH  74  77
ENDBRANCH  72  73
ENDBRANCH  71  72
ENDBRANCH   1  71
TORSDOF 16
ENDMDL
MODEL 2
REMARK VINA RESULT:     -12.5      2.744      3.552
REMARK SMILES O=C(NCCCNC(=O)[C@H]1C[C@](O)(c2ccc(F)cc2)[C@@H](c2ccc(F)cc2)O1)c1ccc(-c2c3nc(c(-c4cc(S(=O)(=O)[O-])ccc4F)c4ccc([nH]4)c(-c4cc(S(=O)(=O)[O-])ccc4F)c4nc(c(-c5cc(S(=O)(=O)[O-])ccc5F)c5ccc2[nH]5)C=C4)C=C3)cc1
REMARK SMILES IDX 4 1 3 2 1 3 2 4 30 6 31 7 92 8 32 9 91 10 33 11 34 12 35 13
REMARK SMILES IDX 85 14 36 15 90 16 84 17 86 18 37 19 89 20 83 21 82 22 38 24
REMARK SMILES IDX 70 25 50 26 69 27 51 28 54 29 68 30 87 31 52 32 53 33 67 35
REMARK SMILES IDX 88 36 55 37 39 38 40 39 48 40 41 41 47 42 49 43 46 44 42 45
REMARK SMILES IDX 43 46 44 47 45 48 71 49 72 50 80 51 73 52 79 53 81 54 78 55
REMARK SMILES IDX 74 56 75 57 76 58 77 59 56 60 57 61 65 62 58 63 64 64 66 65
REMARK SMILES IDX 63 66 59 67 60 68 61 69 62 70 5 71 6 72 7 73 8 74 9 76 10 77
REMARK SMILES IDX 11 78 29 79 12 80 21 81 14 82 15 83 20 84 16 85 19 86 17 87
REMARK SMILES IDX 18 88 13 89 22 91 23 92 28 93 24 94 27 95 25 96 26 97
REMARK H PARENT 3 5 86 23 54 34 7 75 13 90
REMARK Flexibility Score: inf
ROOT
ATOM      1  C   UNL A   1      32.994  32.833  27.028  1.00  0.00     0.118 C 
ENDROOT
BRANCH   1   2
ATOM      2  N   UNL A   1      32.673  34.086  27.701  1.00  0.00    -0.352 N 
ATOM      3  O   UNL A   1      32.671  35.655  29.316  1.00  0.00    -0.269 OA
ATOM      4  C   UNL A   1      33.187  34.648  28.851  1.00  0.00     0.251 C 
ATOM      5  H   UNL A   1      31.974  34.621  27.261  1.00  0.00     0.163 HD
BRANCH   4   6
ATOM      6  C   UNL A   1      34.333  34.014  29.540  1.00  0.00     0.039 A 
ATOM      7  C   UNL A   1      35.634  34.444  29.294  1.00  0.00     0.014 A 
ATOM      8  C   UNL A   1      34.107  32.984  30.459  1.00  0.00     0.014 A 
ATOM      9  C   UNL A   1      36.706  33.717  29.780  1.00  0.00     0.010 A 
ATOM     10  C   UNL A   1      35.193  32.344  31.070  1.00  0.00     0.010 A 
ATOM     11  C   UNL A   1      36.504  32.686  30.711  1.00  0.00    -0.014 A 
BRANCH  11  12
ATOM     12  C   UNL A   1      37.693  32.078  31.357  1.00  0.00     0.031 A 
ATOM     13  C   UNL A   1      38.067  32.391  32.777  1.00  0.00     0.074 A 
ATOM     14  C   UNL A   1      38.394  31.164  30.654  1.00  0.00     0.049 A 
ATOM     15  N   UNL A   1      39.061  31.920  33.485  1.00  0.00    -0.248 NA
ATOM     16  C   UNL A   1      37.228  33.364  33.491  1.00  0.00     0.031 C 
ATOM     17  C   UNL A   1      38.105  30.771  29.270  1.00  0.00     0.029 A 
ATOM     18  N   UNL A   1      39.447  30.365  31.008  1.00  0.00    -0.354 N 
ATOM     19  C   UNL A   1      38.981  32.549  34.723  1.00  0.00     0.074 A 
ATOM     20  C   UNL A   1      37.853  33.455  34.658  1.00  0.00     0.031 C 
ATOM     21  C   UNL A   1      38.883  29.736  28.934  1.00  0.00     0.029 A 
ATOM     22  C   UNL A   1      39.799  29.462  30.033  1.00  0.00     0.049 A 
ATOM     23  H   UNL A   1      39.906  30.429  31.877  1.00  0.00     0.167 HD
ATOM     24  C   UNL A   1      39.779  32.381  35.807  1.00  0.00     0.034 A 
ATOM     25  C   UNL A   1      40.764  28.525  30.009  1.00  0.00     0.034 A 
ATOM     26  C   UNL A   1      40.900  31.470  35.846  1.00  0.00     0.049 A 
ATOM     27  C   UNL A   1      41.665  28.394  31.197  1.00  0.00     0.074 A 
ATOM     28  C   UNL A   1      41.786  31.233  36.884  1.00  0.00     0.029 A 
ATOM     29  N   UNL A   1      41.291  30.641  34.800  1.00  0.00    -0.354 N 
ATOM     30  N   UNL A   1      41.625  29.053  32.331  1.00  0.00    -0.248 NA
ATOM     31  C   UNL A   1      42.753  27.417  31.096  1.00  0.00     0.031 C 
ATOM     32  C   UNL A   1      42.741  30.308  36.448  1.00  0.00     0.029 A 
ATOM     33  C   UNL A   1      42.414  29.911  35.161  1.00  0.00     0.049 A 
ATOM     34  H   UNL A   1      40.837  30.582  33.928  1.00  0.00     0.167 HD
ATOM     35  C   UNL A   1      42.683  28.567  33.086  1.00  0.00     0.074 A 
ATOM     36  C   UNL A   1      43.338  27.553  32.280  1.00  0.00     0.031 C 
ATOM     37  C   UNL A   1      43.073  28.927  34.335  1.00  0.00     0.034 A 
BRANCH  24  38
ATOM     38  C   UNL A   1      39.501  33.240  37.016  1.00  0.00     0.023 A 
ATOM     39  C   UNL A   1      40.144  34.475  37.213  1.00  0.00     0.031 A 
ATOM     40  C   UNL A   1      38.587  32.811  37.995  1.00  0.00     0.131 A 
ATOM     41  C   UNL A   1      39.908  35.209  38.387  1.00  0.00     0.055 A 
ATOM     42  C   UNL A   1      38.303  33.578  39.127  1.00  0.00     0.041 A 
ATOM     43  F   UNL A   1      37.959  31.631  37.872  1.00  0.00    -0.206 F 
ATOM     44  C   UNL A   1      38.973  34.780  39.334  1.00  0.00     0.022 A 
BRANCH  41  45
ATOM     45  S   UNL A   1      40.922  36.676  38.715  1.00  0.00     0.124 S 
ATOM     46  O   UNL A   1      41.680  36.795  37.473  1.00  0.00    -0.237 OA
ATOM     47  O   UNL A   1      39.920  37.708  38.954  1.00  0.00    -0.237 OA
ATOM     48  O   UNL A   1      41.712  36.293  39.884  1.00  0.00    -0.744 OA
ENDBRANCH  41  45
ENDBRANCH  24  38
BRANCH  25  49
ATOM     49  C   UNL A   1      40.922  27.679  28.797  1.00  0.00     0.023 A 
ATOM     50  C   UNL A   1      41.889  27.983  27.829  1.00  0.00     0.031 A 
ATOM     51  C   UNL A   1      40.170  26.501  28.644  1.00  0.00     0.131 A 
ATOM     52  C   UNL A   1      42.084  27.111  26.747  1.00  0.00     0.055 A 
ATOM     53  C   UNL A   1      40.391  25.621  27.585  1.00  0.00     0.041 A 
ATOM     54  F   UNL A   1      39.250  26.161  29.560  1.00  0.00    -0.206 F 
ATOM     55  C   UNL A   1      41.355  25.924  26.629  1.00  0.00     0.022 A 
BRANCH  52  56
ATOM     56  S   UNL A   1      43.331  27.532  25.498  1.00  0.00     0.124 S 
ATOM     57  O   UNL A   1      44.067  26.279  25.382  1.00  0.00    -0.237 OA
ATOM     58  O   UNL A   1      42.507  27.903  24.353  1.00  0.00    -0.237 OA
ATOM     59  O   UNL A   1      44.067  28.635  26.113  1.00  0.00    -0.744 OA
ENDBRANCH  52  56
ENDBRANCH  25  49
BRANCH  37  60
ATOM     60  C   UNL A   1      44.252  28.192  34.912  1.00  0.00     0.023 A 
ATOM     61  C   UNL A   1      44.107  26.937  35.528  1.00  0.00     0.031 A 
ATOM     62  C   UNL A   1      45.537  28.756  34.836  1.00  0.00     0.131 A 
ATOM     63  C   UNL A   1      45.229  26.301  36.078  1.00  0.00     0.055 A 
ATOM     64  C   UNL A   1      46.655  28.097  35.345  1.00  0.00     0.041 A 
ATOM     65  F   UNL A   1      45.723  29.954  34.259  1.00  0.00    -0.206 F 
ATOM     66  C   UNL A   1      46.504  26.865  35.976  1.00  0.00     0.022 A 
BRANCH  63  67
ATOM     67  S   UNL A   1      44.997  24.741  36.974  1.00  0.00     0.124 S 
ATOM     68  O   UNL A   1      46.282  24.082  36.769  1.00  0.00    -0.237 OA
ATOM     69  O   UNL A   1      44.721  25.195  38.333  1.00  0.00    -0.237 OA
ATOM     70  O   UNL A   1      43.865  24.119  36.289  1.00  0.00    -0.744 OA
ENDBRANCH  63  67
ENDBRANCH  37  60
ENDBRANCH  11  12
ENDBRANCH   4   6
ENDBRANCH   1   2
BRANCH   1  71
ATOM     71  C   UNL A   1      31.767  31.985  26.704  1.00  0.00     0.042 C 
BRANCH  71  72
ATOM     72  C   UNL A   1      32.145  30.576  26.290  1.00  0.00     0.117 C 
BRANCH  72  73
ATOM     73  N   UNL A   1      31.459  29.549  27.058  1.00  0.00    -0.354 N 
ATOM     74  C   UNL A   1      31.720  28.224  27.230  1.00  0.00     0.249 C 
ATOM     75  H   UNL A   1      30.662  29.868  27.541  1.00  0.00     0.163 HD
ATOM     76  O   UNL A   1      31.013  27.640  28.059  1.00  0.00    -0.272 OA
BRANCH  74  77
ATOM     77  C   UNL A   1      32.786  27.461  26.402  1.00  0.00     0.211 C 
ATOM     78  C   UNL A   1      32.689  25.948  26.335  1.00  0.00     0.085 C 
ATOM     79  O   UNL A   1      32.808  27.934  25.042  1.00  0.00    -0.357 OA
ATOM     80  C   UNL A   1      32.546  25.562  24.870  1.00  0.00     0.123 C 
ATOM     81  C   UNL A   1      32.261  26.922  24.181  1.00  0.00     0.186 C 
BRANCH  80  82
ATOM     82  C   UNL A   1      33.779  24.749  24.467  1.00  0.00    -0.013 A 
ATOM     83  C   UNL A   1      33.737  24.044  23.239  1.00  0.00     0.010 A 
ATOM     84  C   UNL A   1      34.934  24.623  25.252  1.00  0.00     0.010 A 
ATOM     85  C   UNL A   1      34.795  23.242  22.818  1.00  0.00     0.039 A 
ATOM     86  C   UNL A   1      36.005  23.831  24.820  1.00  0.00     0.039 A 
ATOM     87  C   UNL A   1      35.925  23.147  23.614  1.00  0.00     0.123 A 
ATOM     88  F   UNL A   1      36.950  22.381  23.218  1.00  0.00    -0.207 F 
ENDBRANCH  80  82
BRANCH  80  89
ATOM     89  O   UNL A   1      31.440  24.652  24.745  1.00  0.00    -0.382 OA
ATOM     90  H   UNL A   1      30.607  25.142  24.834  1.00  0.00     0.212 HD
ENDBRANCH  80  89
BRANCH  81  91
ATOM     91  C   UNL A   1      30.812  27.273  23.843  1.00  0.00    -0.016 A 
ATOM     92  C   UNL A   1      29.726  26.443  24.171  1.00  0.00     0.009 A 
ATOM     93  C   UNL A   1      30.536  28.493  23.195  1.00  0.00     0.009 A 
ATOM     94  C   UNL A   1      28.412  26.825  23.886  1.00  0.00     0.039 A 
ATOM     95  C   UNL A   1      29.223  28.866  22.892  1.00  0.00     0.039 A 
ATOM     96  C   UNL A   1      28.173  28.032  23.248  1.00  0.00     0.123 A 
ATOM     97  F   UNL A   1      26.914  28.397  22.968  1.00  0.00    -0.207 F 
ENDBRANCH  81  91
ENDBRANCH  74  77
ENDBRANCH  72  73
ENDBRANCH  71  72
ENDBRANCH   1  71
TORSDOF 16
ENDMDL
MODEL 3
REMARK VINA RESULT:     -12.5      2.583      8.101
REMARK SMILES O=C(NCCCNC(=O)[C@H]1C[C@](O)(c2ccc(F)cc2)[C@@H](c2ccc(F)cc2)O1)c1ccc(-c2c3nc(c(-c4cc(S(=O)(=O)[O-])ccc4F)c4ccc([nH]4)c(-c4cc(S(=O)(=O)[O-])ccc4F)c4nc(c(-c5cc(S(=O)(=O)[O-])ccc5F)c5ccc2[nH]5)C=C4)C=C3)cc1
REMARK SMILES IDX 4 1 3 2 1 3 2 4 30 6 31 7 92 8 32 9 91 10 33 11 34 12 35 13
REMARK SMILES IDX 85 14 36 15 90 16 84 17 86 18 37 19 89 20 83 21 82 22 38 24
REMARK SMILES IDX 70 25 50 26 69 27 51 28 54 29 68 30 87 31 52 32 53 33 67 35
REMARK SMILES IDX 88 36 55 37 39 38 40 39 48 40 41 41 47 42 49 43 46 44 42 45
REMARK SMILES IDX 43 46 44 47 45 48 71 49 72 50 80 51 73 52 79 53 81 54 78 55
REMARK SMILES IDX 74 56 75 57 76 58 77 59 56 60 57 61 65 62 58 63 64 64 66 65
REMARK SMILES IDX 63 66 59 67 60 68 61 69 62 70 5 71 6 72 7 73 8 74 9 76 10 77
REMARK SMILES IDX 11 78 29 79 12 80 21 81 14 82 15 83 20 84 16 85 19 86 17 87
REMARK SMILES IDX 18 88 13 89 22 91 23 92 28 93 24 94 27 95 25 96 26 97
REMARK H PARENT 3 5 86 23 54 34 7 75 13 90
REMARK Flexibility Score: inf
ROOT
ATOM      1  C   UNL A   1      32.946  32.992  26.913  1.00  0.00     0.118 C 
ENDROOT
BRANCH   1   2
ATOM      2  N   UNL A   1      32.613  34.209  27.645  1.00  0.00    -0.352 N 
ATOM      3  O   UNL A   1      32.598  35.702  29.330  1.00  0.00    -0.269 OA
ATOM      4  C   UNL A   1      33.125  34.724  28.817  1.00  0.00     0.251 C 
ATOM      5  H   UNL A   1      31.904  34.754  27.234  1.00  0.00     0.163 HD
BRANCH   4   6
ATOM      6  C   UNL A   1      34.284  34.076  29.471  1.00  0.00     0.039 A 
ATOM      7  C   UNL A   1      34.095  33.062  30.406  1.00  0.00     0.014 A 
ATOM      8  C   UNL A   1      35.582  34.475  29.134  1.00  0.00     0.014 A 
ATOM      9  C   UNL A   1      35.165  32.608  31.158  1.00  0.00     0.010 A 
ATOM     10  C   UNL A   1      36.679  33.903  29.791  1.00  0.00     0.010 A 
ATOM     11  C   UNL A   1      36.476  32.986  30.832  1.00  0.00    -0.014 A 
BRANCH  11  12
ATOM     12  C   UNL A   1      37.598  32.312  31.532  1.00  0.00     0.031 A 
ATOM     13  C   UNL A   1      38.420  31.247  30.865  1.00  0.00     0.074 A 
ATOM     14  C   UNL A   1      37.915  32.740  32.771  1.00  0.00     0.049 A 
ATOM     15  N   UNL A   1      39.444  30.587  31.338  1.00  0.00    -0.248 NA
ATOM     16  C   UNL A   1      38.039  30.867  29.497  1.00  0.00     0.031 C 
ATOM     17  C   UNL A   1      37.192  33.784  33.507  1.00  0.00     0.029 A 
ATOM     18  N   UNL A   1      38.943  32.403  33.609  1.00  0.00    -0.354 N 
ATOM     19  C   UNL A   1      39.823  29.699  30.338  1.00  0.00     0.074 A 
ATOM     20  C   UNL A   1      38.899  29.891  29.238  1.00  0.00     0.031 C 
ATOM     21  C   UNL A   1      37.859  34.076  34.629  1.00  0.00     0.029 A 
ATOM     22  C   UNL A   1      38.993  33.170  34.749  1.00  0.00     0.049 A 
ATOM     23  H   UNL A   1      39.585  31.682  33.413  1.00  0.00     0.167 HD
ATOM     24  C   UNL A   1      40.848  28.809  30.343  1.00  0.00     0.034 A 
ATOM     25  C   UNL A   1      39.843  33.142  35.791  1.00  0.00     0.034 A 
ATOM     26  C   UNL A   1      41.756  28.637  31.453  1.00  0.00     0.049 A 
ATOM     27  C   UNL A   1      40.934  32.117  35.798  1.00  0.00     0.074 A 
ATOM     28  C   UNL A   1      42.816  27.754  31.574  1.00  0.00     0.029 A 
ATOM     29  N   UNL A   1      41.714  29.364  32.638  1.00  0.00    -0.354 N 
ATOM     30  N   UNL A   1      41.231  31.230  34.877  1.00  0.00    -0.248 NA
ATOM     31  C   UNL A   1      41.787  32.069  36.989  1.00  0.00     0.031 C 
ATOM     32  C   UNL A   1      43.377  27.908  32.847  1.00  0.00     0.029 A 
ATOM     33  C   UNL A   1      42.714  28.935  33.499  1.00  0.00     0.049 A 
ATOM     34  H   UNL A   1      41.068  30.079  32.838  1.00  0.00     0.167 HD
ATOM     35  C   UNL A   1      42.311  30.516  35.375  1.00  0.00     0.074 A 
ATOM     36  C   UNL A   1      42.619  31.083  36.676  1.00  0.00     0.031 C 
ATOM     37  C   UNL A   1      42.988  29.489  34.804  1.00  0.00     0.034 A 
BRANCH  24  38
ATOM     38  C   UNL A   1      41.003  27.919  29.134  1.00  0.00     0.023 A 
ATOM     39  C   UNL A   1      42.003  28.142  28.171  1.00  0.00     0.031 A 
ATOM     40  C   UNL A   1      40.127  26.836  28.935  1.00  0.00     0.131 A 
ATOM     41  C   UNL A   1      42.066  27.331  27.026  1.00  0.00     0.055 A 
ATOM     42  C   UNL A   1      40.238  25.991  27.829  1.00  0.00     0.041 A 
ATOM     43  F   UNL A   1      39.139  26.587  29.809  1.00  0.00    -0.206 F 
ATOM     44  C   UNL A   1      41.206  26.242  26.861  1.00  0.00     0.022 A 
BRANCH  41  45
ATOM     45  S   UNL A   1      43.215  27.788  25.699  1.00  0.00     0.124 S 
ATOM     46  O   UNL A   1      43.927  26.532  25.481  1.00  0.00    -0.237 OA
ATOM     47  O   UNL A   1      42.315  28.206  24.631  1.00  0.00    -0.237 OA
ATOM     48  O   UNL A   1      44.018  28.856  26.292  1.00  0.00    -0.744 OA
ENDBRANCH  41  45
ENDBRANCH  24  38
BRANCH  25  49
ATOM     49  C   UNL A   1      39.651  34.103  36.908  1.00  0.00     0.023 A 
ATOM     50  C   UNL A   1      39.082  33.692  38.121  1.00  0.00     0.031 A 
ATOM     51  C   UNL A   1      40.125  35.423  36.806  1.00  0.00     0.131 A 
ATOM     52  C   UNL A   1      39.006  34.595  39.192  1.00  0.00     0.055 A 
ATOM     53  C   UNL A   1      40.078  36.306  37.884  1.00  0.00     0.041 A 
ATOM     54  F   UNL A   1      40.698  35.851  35.670  1.00  0.00    -0.206 F 
ATOM     55  C   UNL A   1      39.516  35.893  39.088  1.00  0.00     0.022 A 
BRANCH  52  56
ATOM     56  S   UNL A   1      38.252  34.044  40.748  1.00  0.00     0.124 S 
ATOM     57  O   UNL A   1      39.348  33.304  41.362  1.00  0.00    -0.237 OA
ATOM     58  O   UNL A   1      37.895  35.309  41.382  1.00  0.00    -0.237 OA
ATOM     59  O   UNL A   1      37.119  33.233  40.307  1.00  0.00    -0.744 OA
ENDBRANCH  52  56
ENDBRANCH  25  49
BRANCH  37  60
ATOM     60  C   UNL A   1      44.150  28.931  35.581  1.00  0.00     0.023 A 
ATOM     61  C   UNL A   1      43.996  27.840  36.453  1.00  0.00     0.031 A 
ATOM     62  C   UNL A   1      45.428  29.496  35.436  1.00  0.00     0.131 A 
ATOM     63  C   UNL A   1      45.101  27.370  37.178  1.00  0.00     0.055 A 
ATOM     64  C   UNL A   1      46.531  28.996  36.125  1.00  0.00     0.041 A 
ATOM     65  F   UNL A   1      45.622  30.541  34.615  1.00  0.00    -0.206 F 
ATOM     66  C   UNL A   1      46.370  27.931  37.008  1.00  0.00     0.022 A 
BRANCH  63  67
ATOM     67  S   UNL A   1      44.850  26.042  38.387  1.00  0.00     0.124 S 
ATOM     68  O   UNL A   1      46.195  25.868  38.926  1.00  0.00    -0.237 OA
ATOM     69  O   UNL A   1      43.869  26.623  39.297  1.00  0.00    -0.237 OA
ATOM     70  O   UNL A   1      44.359  24.929  37.577  1.00  0.00    -0.744 OA
ENDBRANCH  63  67
ENDBRANCH  37  60
ENDBRANCH  11  12
ENDBRANCH   4   6
ENDBRANCH   1   2
BRANCH   1  71
ATOM     71  C   UNL A   1      31.779  32.020  26.786  1.00  0.00     0.042 C 
BRANCH  71  72
ATOM     72  C   UNL A   1      32.243  30.617  26.445  1.00  0.00     0.117 C 
BRANCH  72  73
ATOM     73  N   UNL A   1      31.494  29.580  27.137  1.00  0.00    -0.354 N 
ATOM     74  C   UNL A   1      31.701  28.239  27.249  1.00  0.00     0.249 C 
ATOM     75  H   UNL A   1      30.693  29.905  27.608  1.00  0.00     0.163 HD
ATOM     76  O   UNL A   1      30.945  27.642  28.023  1.00  0.00    -0.272 OA
BRANCH  74  77
ATOM     77  C   UNL A   1      32.766  27.478  26.419  1.00  0.00     0.211 C 
ATOM     78  C   UNL A   1      32.670  25.966  26.350  1.00  0.00     0.085 C 
ATOM     79  O   UNL A   1      32.788  27.954  25.060  1.00  0.00    -0.357 OA
ATOM     80  C   UNL A   1      32.527  25.582  24.884  1.00  0.00     0.123 C 
ATOM     81  C   UNL A   1      32.242  26.944  24.198  1.00  0.00     0.186 C 
BRANCH  80  82
ATOM     82  C   UNL A   1      33.760  24.771  24.479  1.00  0.00    -0.013 A 
ATOM     83  C   UNL A   1      33.723  24.077  23.244  1.00  0.00     0.010 A 
ATOM     84  C   UNL A   1      34.911  24.634  25.268  1.00  0.00     0.010 A 
ATOM     85  C   UNL A   1      34.780  23.277  22.820  1.00  0.00     0.039 A 
ATOM     86  C   UNL A   1      35.983  23.844  24.834  1.00  0.00     0.039 A 
ATOM     87  C   UNL A   1      35.906  23.172  23.620  1.00  0.00     0.123 A 
ATOM     88  F   UNL A   1      36.932  22.408  23.222  1.00  0.00    -0.207 F 
ENDBRANCH  80  82
BRANCH  80  89
ATOM     89  O   UNL A   1      31.421  24.673  24.757  1.00  0.00    -0.382 OA
ATOM     90  H   UNL A   1      31.471  24.220  23.901  1.00  0.00     0.212 HD
ENDBRANCH  80  89
BRANCH  81  91
ATOM     91  C   UNL A   1      30.792  27.295  23.861  1.00  0.00    -0.016 A 
ATOM     92  C   UNL A   1      29.718  26.415  24.085  1.00  0.00     0.009 A 
ATOM     93  C   UNL A   1      30.502  28.564  23.324  1.00  0.00     0.009 A 
ATOM     94  C   UNL A   1      28.402  26.795  23.807  1.00  0.00     0.039 A 
ATOM     95  C   UNL A   1      29.188  28.937  23.027  1.00  0.00     0.039 A 
ATOM     96  C   UNL A   1      28.150  28.052  23.279  1.00  0.00     0.123 A 
ATOM     97  F   UNL A   1      26.889  28.416  23.006  1.00  0.00    -0.207 F 
ENDBRANCH  81  91
ENDBRANCH  74  77
ENDBRANCH  72  73
ENDBRANCH  71  72
ENDBRANCH   1  71
TORSDOF 16
ENDMDL
