MODEL 1
REMARK VINA RESULT:     -12.4      0.000      0.000
REMARK SMILES CC(C)COC(=O)c1ccc(NC(=O)[C@H]2[C@@H](C(=O)NCCCNC(=O)c3ccc(-c4c5nc(c(-c6cc(S(=O)(=O)[O-])ccc6F)c6ccc([nH]6)c(-c6cc(S(=O)(=O)[O-])ccc6F)c6nc(c(-c7cc(S(=O)(=O)[O-])ccc7F)c7ccc4[nH]7)C=C6)C=C5)cc3)[C@@H]3C=C[C@H]2C3)cc1
REMARK SMILES IDX 17 1 18 2 19 3 16 5 15 6 92 7 89 8 91 9 93 10 90 11 13 12
REMARK SMILES IDX 12 13 14 15 11 16 8 17 9 18 95 19 10 20 94 21 6 22 7 23 5 24
REMARK SMILES IDX 4 25 2 26 1 27 3 28 20 29 21 30 22 31 23 32 24 33 25 35
REMARK SMILES IDX 26 36 27 37 88 38 28 39 87 40 29 41 30 42 31 43 81 44 32 45
REMARK SMILES IDX 86 46 80 47 82 48 33 49 85 50 79 51 78 52 34 54 66 55 46 56
REMARK SMILES IDX 65 57 47 58 50 59 64 60 83 61 48 62 49 63 63 65 84 66 51 67
REMARK SMILES IDX 35 68 36 69 44 70 37 71 43 72 45 73 42 74 38 75 39 76 40 77
REMARK SMILES IDX 41 78 67 79 68 80 76 81 69 82 75 83 77 84 74 85 70 86 71 87
REMARK SMILES IDX 72 88 73 89 52 90 53 91 61 92 54 93 60 94 62 95 59 96 55 97
REMARK SMILES IDX 56 98 57 99 58 100
REMARK H PARENT 19 4 12 14 23 34 82 53 50 64
REMARK Flexibility Score: inf
ROOT
ATOM      1  C   UNL A   1      34.021  25.202  23.414  1.00  0.00     0.224 C 
ATOM      2  O   UNL A   1      33.657  25.519  22.273  1.00  0.00    -0.275 OA
ATOM      3  N   UNL A   1      35.037  24.310  23.466  1.00  0.00    -0.356 N 
ATOM      4  H   UNL A   1      35.269  23.944  22.583  1.00  0.00     0.163 HD
ENDROOT
BRANCH   1   5
ATOM      5  C   UNL A   1      33.239  25.758  24.600  1.00  0.00     0.098 C 
ATOM      6  C   UNL A   1      31.749  26.182  24.514  1.00  0.00     0.099 C 
ATOM      7  C   UNL A   1      31.865  27.732  24.741  1.00  0.00     0.025 C 
ATOM      8  C   UNL A   1      33.942  27.021  25.165  1.00  0.00     0.025 C 
ATOM      9  C   UNL A   1      32.085  27.880  26.236  1.00  0.00    -0.027 C 
ATOM     10  C   UNL A   1      33.298  28.116  24.329  1.00  0.00     0.017 C 
ATOM     11  C   UNL A   1      33.314  27.404  26.496  1.00  0.00    -0.027 C 
BRANCH   6  12
ATOM     12  C   UNL A   1      30.853  25.746  23.363  1.00  0.00     0.228 C 
ATOM     13  N   UNL A   1      30.750  24.430  22.988  1.00  0.00    -0.326 N 
ATOM     14  H   UNL A   1      30.213  24.272  22.178  1.00  0.00     0.169 HD
ATOM     15  O   UNL A   1      30.204  26.575  22.718  1.00  0.00    -0.274 OA
BRANCH  13  16
ATOM     16  C   UNL A   1      31.289  23.278  23.572  1.00  0.00     0.041 A 
ATOM     17  C   UNL A   1      32.185  20.931  24.781  1.00  0.00     0.060 A 
ATOM     18  C   UNL A   1      32.512  21.199  23.449  1.00  0.00     0.018 A 
ATOM     19  C   UNL A   1      31.454  21.853  25.532  1.00  0.00     0.018 A 
ATOM     20  C   UNL A   1      32.058  22.370  22.845  1.00  0.00     0.027 A 
ATOM     21  C   UNL A   1      31.037  23.046  24.931  1.00  0.00     0.027 A 
BRANCH  17  22
ATOM     22  C   UNL A   1      32.709  19.695  25.381  1.00  0.00     0.338 C 
ATOM     23  O   UNL A   1      33.611  19.700  26.206  1.00  0.00    -0.246 OA
BRANCH  22  24
ATOM     24  O   UNL A   1      32.131  18.616  24.800  1.00  0.00    -0.462 OA
BRANCH  24  25
ATOM     25  C   UNL A   1      32.546  17.349  25.333  1.00  0.00     0.236 C 
BRANCH  25  26
ATOM     26  C   UNL A   1      33.469  16.572  24.375  1.00  0.00     0.021 C 
ATOM     27  C   UNL A   1      33.753  17.301  23.061  1.00  0.00     0.011 C 
ATOM     28  C   UNL A   1      34.786  16.244  25.082  1.00  0.00     0.011 C 
ENDBRANCH  25  26
ENDBRANCH  24  25
ENDBRANCH  22  24
ENDBRANCH  17  22
ENDBRANCH  13  16
ENDBRANCH   6  12
ENDBRANCH   1   5
BRANCH   3  29
ATOM     29  C   UNL A   1      35.861  23.774  24.538  1.00  0.00     0.117 C 
BRANCH  29  30
ATOM     30  C   UNL A   1      36.073  22.281  24.422  1.00  0.00     0.042 C 
BRANCH  30  31
ATOM     31  C   UNL A   1      36.492  21.674  25.750  1.00  0.00     0.118 C 
BRANCH  31  32
ATOM     32  N   UNL A   1      37.573  20.698  25.616  1.00  0.00    -0.352 N 
ATOM     33  C   UNL A   1      38.924  20.843  25.836  1.00  0.00     0.251 C 
ATOM     34  H   UNL A   1      37.293  19.801  25.324  1.00  0.00     0.163 HD
ATOM     35  O   UNL A   1      39.697  19.945  25.516  1.00  0.00    -0.269 OA
BRANCH  33  36
ATOM     36  C   UNL A   1      39.425  22.103  26.419  1.00  0.00     0.039 A 
ATOM     37  C   UNL A   1      40.501  22.073  27.304  1.00  0.00     0.014 A 
ATOM     38  C   UNL A   1      38.881  23.319  26.006  1.00  0.00     0.014 A 
ATOM     39  C   UNL A   1      41.099  23.275  27.690  1.00  0.00     0.010 A 
ATOM     40  C   UNL A   1      39.566  24.494  26.270  1.00  0.00     0.010 A 
ATOM     41  C   UNL A   1      40.677  24.490  27.125  1.00  0.00    -0.014 A 
BRANCH  41  42
ATOM     42  C   UNL A   1      41.367  25.772  27.427  1.00  0.00     0.031 A 
ATOM     43  C   UNL A   1      40.660  26.832  28.232  1.00  0.00     0.074 A 
ATOM     44  C   UNL A   1      42.592  26.010  26.914  1.00  0.00     0.049 A 
ATOM     45  N   UNL A   1      41.053  28.042  28.536  1.00  0.00    -0.248 NA
ATOM     46  C   UNL A   1      39.306  26.508  28.710  1.00  0.00     0.031 C 
ATOM     47  C   UNL A   1      43.343  25.094  26.048  1.00  0.00     0.029 A 
ATOM     48  N   UNL A   1      43.425  27.091  27.045  1.00  0.00    -0.354 N 
ATOM     49  C   UNL A   1      39.987  28.626  29.214  1.00  0.00     0.074 A 
ATOM     50  C   UNL A   1      38.902  27.672  29.191  1.00  0.00     0.031 C 
ATOM     51  C   UNL A   1      44.544  25.632  25.773  1.00  0.00     0.029 A 
ATOM     52  C   UNL A   1      44.633  26.944  26.402  1.00  0.00     0.049 A 
ATOM     53  H   UNL A   1      43.182  27.899  27.554  1.00  0.00     0.167 HD
ATOM     54  C   UNL A   1      39.931  29.829  29.835  1.00  0.00     0.034 A 
ATOM     55  C   UNL A   1      45.693  27.774  26.330  1.00  0.00     0.034 A 
ATOM     56  C   UNL A   1      41.040  30.747  29.884  1.00  0.00     0.049 A 
ATOM     57  C   UNL A   1      45.622  29.091  27.060  1.00  0.00     0.074 A 
ATOM     58  C   UNL A   1      41.128  31.961  30.541  1.00  0.00     0.029 A 
ATOM     59  N   UNL A   1      42.260  30.550  29.249  1.00  0.00    -0.354 N 
ATOM     60  N   UNL A   1      44.630  29.600  27.755  1.00  0.00    -0.248 NA
ATOM     61  C   UNL A   1      46.820  29.937  27.009  1.00  0.00     0.031 C 
ATOM     62  C   UNL A   1      42.378  32.522  30.258  1.00  0.00     0.029 A 
ATOM     63  C   UNL A   1      43.099  31.627  29.482  1.00  0.00     0.049 A 
ATOM     64  H   UNL A   1      42.495  29.758  28.712  1.00  0.00     0.167 HD
ATOM     65  C   UNL A   1      45.098  30.816  28.245  1.00  0.00     0.074 A 
ATOM     66  C   UNL A   1      46.466  30.947  27.788  1.00  0.00     0.031 C 
ATOM     67  C   UNL A   1      44.456  31.743  29.003  1.00  0.00     0.034 A 
BRANCH  54  68
ATOM     68  C   UNL A   1      38.626  30.207  30.499  1.00  0.00     0.023 A 
ATOM     69  C   UNL A   1      37.639  30.945  29.820  1.00  0.00     0.031 A 
ATOM     70  C   UNL A   1      38.382  29.868  31.842  1.00  0.00     0.131 A 
ATOM     71  C   UNL A   1      36.504  31.400  30.508  1.00  0.00     0.055 A 
ATOM     72  C   UNL A   1      37.206  30.245  32.495  1.00  0.00     0.041 A 
ATOM     73  F   UNL A   1      39.293  29.183  32.551  1.00  0.00    -0.206 F 
ATOM     74  C   UNL A   1      36.267  31.031  31.832  1.00  0.00     0.022 A 
BRANCH  71  75
ATOM     75  S   UNL A   1      35.427  32.610  29.691  1.00  0.00     0.124 S 
ATOM     76  O   UNL A   1      35.176  31.960  28.407  1.00  0.00    -0.237 OA
ATOM     77  O   UNL A   1      34.290  32.685  30.601  1.00  0.00    -0.237 OA
ATOM     78  O   UNL A   1      36.254  33.813  29.622  1.00  0.00    -0.744 OA
ENDBRANCH  71  75
ENDBRANCH  54  68
BRANCH  55  79
ATOM     79  C   UNL A   1      46.912  27.387  25.563  1.00  0.00     0.023 A 
ATOM     80  C   UNL A   1      47.104  27.827  24.243  1.00  0.00     0.031 A 
ATOM     81  C   UNL A   1      47.883  26.537  26.121  1.00  0.00     0.131 A 
ATOM     82  C   UNL A   1      48.212  27.377  23.508  1.00  0.00     0.055 A 
ATOM     83  C   UNL A   1      49.012  26.134  25.404  1.00  0.00     0.041 A 
ATOM     84  F   UNL A   1      47.754  26.095  27.383  1.00  0.00    -0.206 F 
ATOM     85  C   UNL A   1      49.174  26.543  24.084  1.00  0.00     0.022 A 
BRANCH  82  86
ATOM     86  S   UNL A   1      48.335  27.830  21.756  1.00  0.00     0.124 S 
ATOM     87  O   UNL A   1      48.282  26.524  21.107  1.00  0.00    -0.237 OA
ATOM     88  O   UNL A   1      47.163  28.681  21.582  1.00  0.00    -0.237 OA
ATOM     89  O   UNL A   1      49.621  28.518  21.672  1.00  0.00    -0.744 OA
ENDBRANCH  82  86
ENDBRANCH  55  79
BRANCH  67  90
ATOM     90  C   UNL A   1      45.253  32.959  29.406  1.00  0.00     0.023 A 
ATOM     91  C   UNL A   1      45.197  34.154  28.667  1.00  0.00     0.031 A 
ATOM     92  C   UNL A   1      46.103  32.912  30.524  1.00  0.00     0.131 A 
ATOM     93  C   UNL A   1      46.027  35.228  29.012  1.00  0.00     0.055 A 
ATOM     94  C   UNL A   1      46.876  34.008  30.904  1.00  0.00     0.041 A 
ATOM     95  F   UNL A   1      46.196  31.796  31.266  1.00  0.00    -0.206 F 
ATOM     96  C   UNL A   1      46.854  35.169  30.137  1.00  0.00     0.022 A 
BRANCH  93  97
ATOM     97  S   UNL A   1      46.096  36.663  27.905  1.00  0.00     0.124 S 
ATOM     98  O   UNL A   1      45.716  37.753  28.797  1.00  0.00    -0.237 OA
ATOM     99  O   UNL A   1      47.488  36.652  27.469  1.00  0.00    -0.237 OA
ATOM    100  O   UNL A   1      45.119  36.342  26.867  1.00  0.00    -0.744 OA
ENDBRANCH  93  97
ENDBRANCH  67  90
ENDBRANCH  41  42
ENDBRANCH  33  36
ENDBRANCH  31  32
ENDBRANCH  30  31
ENDBRANCH  29  30
ENDBRANCH   3  29
TORSDOF 19
ENDMDL
MODEL 2
REMARK VINA RESULT:     -12.1      1.846      8.464
REMARK SMILES CC(C)COC(=O)c1ccc(NC(=O)[C@H]2[C@@H](C(=O)NCCCNC(=O)c3ccc(-c4c5nc(c(-c6cc(S(=O)(=O)[O-])ccc6F)c6ccc([nH]6)c(-c6cc(S(=O)(=O)[O-])ccc6F)c6nc(c(-c7cc(S(=O)(=O)[O-])ccc7F)c7ccc4[nH]7)C=C6)C=C5)cc3)[C@@H]3C=C[C@H]2C3)cc1
REMARK SMILES IDX 17 1 18 2 19 3 16 5 15 6 92 7 89 8 91 9 93 10 90 11 13 12
REMARK SMILES IDX 12 13 14 15 11 16 8 17 9 18 95 19 10 20 94 21 6 22 7 23 5 24
REMARK SMILES IDX 4 25 2 26 1 27 3 28 20 29 21 30 22 31 23 32 24 33 25 35
REMARK SMILES IDX 26 36 27 37 88 38 28 39 87 40 29 41 30 42 31 43 81 44 32 45
REMARK SMILES IDX 86 46 80 47 82 48 33 49 85 50 79 51 78 52 34 54 66 55 46 56
REMARK SMILES IDX 65 57 47 58 50 59 64 60 83 61 48 62 49 63 63 65 84 66 51 67
REMARK SMILES IDX 35 68 36 69 44 70 37 71 43 72 45 73 42 74 38 75 39 76 40 77
REMARK SMILES IDX 41 78 67 79 68 80 76 81 69 82 75 83 77 84 74 85 70 86 71 87
REMARK SMILES IDX 72 88 73 89 52 90 53 91 61 92 54 93 60 94 62 95 59 96 55 97
REMARK SMILES IDX 56 98 57 99 58 100
REMARK H PARENT 19 4 12 14 23 34 82 53 50 64
REMARK Flexibility Score: inf
ROOT
ATOM      1  C   UNL A   1      32.562  20.464  25.284  1.00  0.00     0.224 C 
ATOM      2  O   UNL A   1      32.107  19.352  24.981  1.00  0.00    -0.275 OA
ATOM      3  N   UNL A   1      33.873  20.478  25.617  1.00  0.00    -0.356 N 
ATOM      4  H   UNL A   1      34.258  19.575  25.688  1.00  0.00     0.163 HD
ENDROOT
BRANCH   1   5
ATOM      5  C   UNL A   1      31.597  21.645  25.345  1.00  0.00     0.098 C 
ATOM      6  C   UNL A   1      31.804  22.956  24.541  1.00  0.00     0.099 C 
ATOM      7  C   UNL A   1      32.056  23.983  25.702  1.00  0.00     0.025 C 
ATOM      8  C   UNL A   1      31.441  22.139  26.808  1.00  0.00     0.025 C 
ATOM      9  C   UNL A   1      30.676  24.252  26.276  1.00  0.00    -0.027 C 
ATOM     10  C   UNL A   1      32.568  23.158  26.897  1.00  0.00     0.017 C 
ATOM     11  C   UNL A   1      30.287  23.125  26.895  1.00  0.00    -0.027 C 
BRANCH   6  12
ATOM     12  C   UNL A   1      32.768  23.035  23.365  1.00  0.00     0.228 C 
ATOM     13  N   UNL A   1      33.020  24.217  22.717  1.00  0.00    -0.326 N 
ATOM     14  H   UNL A   1      33.590  24.138  21.919  1.00  0.00     0.169 HD
ATOM     15  O   UNL A   1      33.340  22.023  22.948  1.00  0.00    -0.274 OA
BRANCH  13  16
ATOM     16  C   UNL A   1      32.594  25.518  23.010  1.00  0.00     0.041 A 
ATOM     17  C   UNL A   1      31.600  28.033  23.689  1.00  0.00     0.060 A 
ATOM     18  C   UNL A   1      32.915  27.690  24.015  1.00  0.00     0.018 A 
ATOM     19  C   UNL A   1      30.790  27.145  22.980  1.00  0.00     0.018 A 
ATOM     20  C   UNL A   1      33.408  26.430  23.680  1.00  0.00     0.027 A 
ATOM     21  C   UNL A   1      31.305  25.897  22.608  1.00  0.00     0.027 A 
BRANCH  17  22
ATOM     22  C   UNL A   1      31.135  29.382  24.042  1.00  0.00     0.338 C 
ATOM     23  O   UNL A   1      31.428  29.919  25.100  1.00  0.00    -0.246 OA
BRANCH  22  24
ATOM     24  O   UNL A   1      30.279  29.840  23.096  1.00  0.00    -0.462 OA
BRANCH  24  25
ATOM     25  C   UNL A   1      29.149  30.566  23.604  1.00  0.00     0.236 C 
BRANCH  25  26
ATOM     26  C   UNL A   1      27.882  30.371  22.751  1.00  0.00     0.021 C 
ATOM     27  C   UNL A   1      28.111  30.553  21.250  1.00  0.00     0.011 C 
ATOM     28  C   UNL A   1      27.287  28.987  23.020  1.00  0.00     0.011 C 
ENDBRANCH  25  26
ENDBRANCH  24  25
ENDBRANCH  22  24
ENDBRANCH  17  22
ENDBRANCH  13  16
ENDBRANCH   6  12
ENDBRANCH   1   5
BRANCH   3  29
ATOM     29  C   UNL A   1      34.839  21.531  25.893  1.00  0.00     0.117 C 
BRANCH  29  30
ATOM     30  C   UNL A   1      36.072  21.436  25.021  1.00  0.00     0.042 C 
BRANCH  30  31
ATOM     31  C   UNL A   1      37.259  22.135  25.662  1.00  0.00     0.118 C 
BRANCH  31  32
ATOM     32  N   UNL A   1      38.433  21.271  25.782  1.00  0.00    -0.352 N 
ATOM     33  C   UNL A   1      39.698  21.560  26.242  1.00  0.00     0.251 C 
ATOM     34  H   UNL A   1      38.298  20.340  25.490  1.00  0.00     0.163 HD
ATOM     35  O   UNL A   1      40.598  20.736  26.118  1.00  0.00    -0.269 OA
BRANCH  33  36
ATOM     36  C   UNL A   1      39.957  22.884  26.841  1.00  0.00     0.039 A 
ATOM     37  C   UNL A   1      40.821  22.990  27.929  1.00  0.00     0.014 A 
ATOM     38  C   UNL A   1      39.413  24.026  26.255  1.00  0.00     0.014 A 
ATOM     39  C   UNL A   1      41.222  24.256  28.360  1.00  0.00     0.010 A 
ATOM     40  C   UNL A   1      39.927  25.270  26.586  1.00  0.00     0.010 A 
ATOM     41  C   UNL A   1      40.829  25.404  27.650  1.00  0.00    -0.014 A 
BRANCH  41  42
ATOM     42  C   UNL A   1      41.330  26.755  28.013  1.00  0.00     0.031 A 
ATOM     43  C   UNL A   1      42.748  27.143  27.677  1.00  0.00     0.074 A 
ATOM     44  C   UNL A   1      40.540  27.599  28.708  1.00  0.00     0.049 A 
ATOM     45  N   UNL A   1      43.400  28.237  27.972  1.00  0.00    -0.248 NA
ATOM     46  C   UNL A   1      43.557  26.143  26.961  1.00  0.00     0.031 C 
ATOM     47  C   UNL A   1      39.178  27.304  29.166  1.00  0.00     0.029 A 
ATOM     48  N   UNL A   1      40.763  28.878  29.151  1.00  0.00    -0.354 N 
ATOM     49  C   UNL A   1      44.696  28.042  27.504  1.00  0.00     0.074 A 
ATOM     50  C   UNL A   1      44.759  26.692  26.992  1.00  0.00     0.031 C 
ATOM     51  C   UNL A   1      38.673  28.389  29.777  1.00  0.00     0.029 A 
ATOM     52  C   UNL A   1      39.684  29.440  29.795  1.00  0.00     0.049 A 
ATOM     53  H   UNL A   1      41.617  29.350  29.021  1.00  0.00     0.167 HD
ATOM     54  C   UNL A   1      45.728  28.920  27.465  1.00  0.00     0.034 A 
ATOM     55  C   UNL A   1      39.528  30.665  30.335  1.00  0.00     0.034 A 
ATOM     56  C   UNL A   1      45.631  30.277  27.941  1.00  0.00     0.049 A 
ATOM     57  C   UNL A   1      40.676  31.638  30.247  1.00  0.00     0.074 A 
ATOM     58  C   UNL A   1      46.581  31.280  27.890  1.00  0.00     0.029 A 
ATOM     59  N   UNL A   1      44.510  30.822  28.556  1.00  0.00    -0.354 N 
ATOM     60  N   UNL A   1      41.874  31.460  29.738  1.00  0.00    -0.248 NA
ATOM     61  C   UNL A   1      40.444  32.981  30.791  1.00  0.00     0.031 C 
ATOM     62  C   UNL A   1      46.057  32.412  28.524  1.00  0.00     0.029 A 
ATOM     63  C   UNL A   1      44.753  32.141  28.907  1.00  0.00     0.049 A 
ATOM     64  H   UNL A   1      43.666  30.342  28.718  1.00  0.00     0.167 HD
ATOM     65  C   UNL A   1      42.529  32.681  29.879  1.00  0.00     0.074 A 
ATOM     66  C   UNL A   1      41.582  33.589  30.494  1.00  0.00     0.031 C 
ATOM     67  C   UNL A   1      43.798  33.023  29.534  1.00  0.00     0.034 A 
BRANCH  54  68
ATOM     68  C   UNL A   1      47.038  28.427  26.893  1.00  0.00     0.023 A 
ATOM     69  C   UNL A   1      47.262  28.369  25.506  1.00  0.00     0.031 A 
ATOM     70  C   UNL A   1      48.058  27.963  27.742  1.00  0.00     0.131 A 
ATOM     71  C   UNL A   1      48.431  27.775  25.007  1.00  0.00     0.055 A 
ATOM     72  C   UNL A   1      49.260  27.458  27.240  1.00  0.00     0.041 A 
ATOM     73  F   UNL A   1      47.897  27.973  29.075  1.00  0.00    -0.206 F 
ATOM     74  C   UNL A   1      49.444  27.345  25.865  1.00  0.00     0.022 A 
BRANCH  71  75
ATOM     75  S   UNL A   1      48.535  27.430  23.229  1.00  0.00     0.124 S 
ATOM     76  O   UNL A   1      49.787  28.094  22.874  1.00  0.00    -0.237 OA
ATOM     77  O   UNL A   1      48.553  25.973  23.191  1.00  0.00    -0.237 OA
ATOM     78  O   UNL A   1      47.330  28.056  22.688  1.00  0.00    -0.744 OA
ENDBRANCH  71  75
ENDBRANCH  54  68
BRANCH  55  79
ATOM     79  C   UNL A   1      38.243  31.052  30.985  1.00  0.00     0.023 A 
ATOM     80  C   UNL A   1      37.232  31.701  30.257  1.00  0.00     0.031 A 
ATOM     81  C   UNL A   1      38.021  30.818  32.354  1.00  0.00     0.131 A 
ATOM     82  C   UNL A   1      36.069  32.139  30.909  1.00  0.00     0.055 A 
ATOM     83  C   UNL A   1      36.839  31.207  32.987  1.00  0.00     0.041 A 
ATOM     84  F   UNL A   1      38.950  30.192  33.095  1.00  0.00    -0.206 F 
ATOM     85  C   UNL A   1      35.861  31.885  32.267  1.00  0.00     0.022 A 
BRANCH  82  86
ATOM     86  S   UNL A   1      34.866  33.122  29.974  1.00  0.00     0.124 S 
ATOM     87  O   UNL A   1      34.017  33.645  31.038  1.00  0.00    -0.237 OA
ATOM     88  O   UNL A   1      35.725  34.091  29.302  1.00  0.00    -0.237 OA
ATOM     89  O   UNL A   1      34.233  32.139  29.096  1.00  0.00    -0.744 OA
ENDBRANCH  82  86
ENDBRANCH  55  79
BRANCH  67  90
ATOM     90  C   UNL A   1      44.208  34.452  29.789  1.00  0.00     0.023 A 
ATOM     91  C   UNL A   1      43.912  35.477  28.873  1.00  0.00     0.031 A 
ATOM     92  C   UNL A   1      44.929  34.787  30.948  1.00  0.00     0.131 A 
ATOM     93  C   UNL A   1      44.396  36.773  29.096  1.00  0.00     0.055 A 
ATOM     94  C   UNL A   1      45.350  36.093  31.198  1.00  0.00     0.041 A 
ATOM     95  F   UNL A   1      45.239  33.848  31.856  1.00  0.00    -0.206 F 
ATOM     96  C   UNL A   1      45.099  37.091  30.262  1.00  0.00     0.022 A 
BRANCH  93  97
ATOM     97  S   UNL A   1      44.194  38.012  27.787  1.00  0.00     0.124 S 
ATOM     98  O   UNL A   1      43.423  37.275  26.789  1.00  0.00    -0.237 OA
ATOM     99  O   UNL A   1      43.484  39.082  28.478  1.00  0.00    -0.237 OA
ATOM    100  O   UNL A   1      45.567  38.328  27.400  1.00  0.00    -0.744 OA
ENDBRANCH  93  97
ENDBRANCH  67  90
ENDBRANCH  41  42
ENDBRANCH  33  36
ENDBRANCH  31  32
ENDBRANCH  30  31
ENDBRANCH  29  30
ENDBRANCH   3  29
TORSDOF 19
ENDMDL
MODEL 3
REMARK VINA RESULT:     -12.1      2.258      8.624
REMARK SMILES CC(C)COC(=O)c1ccc(NC(=O)[C@H]2[C@@H](C(=O)NCCCNC(=O)c3ccc(-c4c5nc(c(-c6cc(S(=O)(=O)[O-])ccc6F)c6ccc([nH]6)c(-c6cc(S(=O)(=O)[O-])ccc6F)c6nc(c(-c7cc(S(=O)(=O)[O-])ccc7F)c7ccc4[nH]7)C=C6)C=C5)cc3)[C@@H]3C=C[C@H]2C3)cc1
REMARK SMILES IDX 17 1 18 2 19 3 16 5 15 6 92 7 89 8 91 9 93 10 90 11 13 12
REMARK SMILES IDX 12 13 14 15 11 16 8 17 9 18 95 19 10 20 94 21 6 22 7 23 5 24
REMARK SMILES IDX 4 25 2 26 1 27 3 28 20 29 21 30 22 31 23 32 24 33 25 35
REMARK SMILES IDX 26 36 27 37 88 38 28 39 87 40 29 41 30 42 31 43 81 44 32 45
REMARK SMILES IDX 86 46 80 47 82 48 33 49 85 50 79 51 78 52 34 54 66 55 46 56
REMARK SMILES IDX 65 57 47 58 50 59 64 60 83 61 48 62 49 63 63 65 84 66 51 67
REMARK SMILES IDX 35 68 36 69 44 70 37 71 43 72 45 73 42 74 38 75 39 76 40 77
REMARK SMILES IDX 41 78 67 79 68 80 76 81 69 82 75 83 77 84 74 85 70 86 71 87
REMARK SMILES IDX 72 88 73 89 52 90 53 91 61 92 54 93 60 94 62 95 59 96 55 97
REMARK SMILES IDX 56 98 57 99 58 100
REMARK H PARENT 19 4 12 14 23 34 82 53 50 64
REMARK Flexibility Score: inf
ROOT
ATOM      1  C   UNL A   1      32.695  20.669  24.808  1.00  0.00     0.224 C 
ATOM      2  O   UNL A   1      32.108  19.595  24.618  1.00  0.00    -0.275 OA
ATOM      3  N   UNL A   1      34.039  20.625  24.662  1.00  0.00    -0.356 N 
ATOM      4  H   UNL A   1      34.379  19.709  24.540  1.00  0.00     0.163 HD
ENDROOT
BRANCH   1   5
ATOM      5  C   UNL A   1      31.871  21.866  25.273  1.00  0.00     0.098 C 
ATOM      6  C   UNL A   1      31.785  23.199  24.484  1.00  0.00     0.099 C 
ATOM      7  C   UNL A   1      32.508  24.181  25.474  1.00  0.00     0.025 C 
ATOM      8  C   UNL A   1      32.323  22.314  26.690  1.00  0.00     0.025 C 
ATOM      9  C   UNL A   1      31.477  24.459  26.553  1.00  0.00    -0.027 C 
ATOM     10  C   UNL A   1      33.424  23.305  26.349  1.00  0.00     0.017 C 
ATOM     11  C   UNL A   1      31.329  23.319  27.250  1.00  0.00    -0.027 C 
BRANCH   6  12
ATOM     12  C   UNL A   1      32.207  23.298  23.025  1.00  0.00     0.228 C 
ATOM     13  N   UNL A   1      31.974  24.427  22.281  1.00  0.00    -0.326 N 
ATOM     14  H   UNL A   1      32.208  24.351  21.329  1.00  0.00     0.169 HD
ATOM     15  O   UNL A   1      32.761  22.349  22.461  1.00  0.00    -0.274 OA
BRANCH  13  16
ATOM     16  C   UNL A   1      31.453  25.669  22.662  1.00  0.00     0.041 A 
ATOM     17  C   UNL A   1      30.442  28.202  23.242  1.00  0.00     0.060 A 
ATOM     18  C   UNL A   1      29.668  27.066  23.496  1.00  0.00     0.018 A 
ATOM     19  C   UNL A   1      31.741  28.079  22.746  1.00  0.00     0.018 A 
ATOM     20  C   UNL A   1      30.173  25.801  23.200  1.00  0.00     0.027 A 
ATOM     21  C   UNL A   1      32.257  26.804  22.491  1.00  0.00     0.027 A 
BRANCH  17  22
ATOM     22  C   UNL A   1      29.875  29.512  23.595  1.00  0.00     0.338 C 
ATOM     23  O   UNL A   1      30.445  30.289  24.347  1.00  0.00    -0.246 OA
BRANCH  22  24
ATOM     24  O   UNL A   1      28.633  29.637  23.069  1.00  0.00    -0.462 OA
BRANCH  24  25
ATOM     25  C   UNL A   1      27.910  30.801  23.498  1.00  0.00     0.236 C 
BRANCH  25  26
ATOM     26  C   UNL A   1      27.893  31.918  22.437  1.00  0.00     0.021 C 
ATOM     27  C   UNL A   1      28.818  33.093  22.759  1.00  0.00     0.011 C 
ATOM     28  C   UNL A   1      28.254  31.334  21.069  1.00  0.00     0.011 C 
ENDBRANCH  25  26
ENDBRANCH  24  25
ENDBRANCH  22  24
ENDBRANCH  17  22
ENDBRANCH  13  16
ENDBRANCH   6  12
ENDBRANCH   1   5
BRANCH   3  29
ATOM     29  C   UNL A   1      35.091  21.629  24.646  1.00  0.00     0.117 C 
BRANCH  29  30
ATOM     30  C   UNL A   1      36.222  21.306  25.597  1.00  0.00     0.042 C 
BRANCH  30  31
ATOM     31  C   UNL A   1      37.569  21.353  24.895  1.00  0.00     0.118 C 
BRANCH  31  32
ATOM     32  N   UNL A   1      38.492  20.319  25.362  1.00  0.00    -0.352 N 
ATOM     33  C   UNL A   1      39.635  20.435  26.120  1.00  0.00     0.251 C 
ATOM     34  H   UNL A   1      38.262  19.401  25.093  1.00  0.00     0.163 HD
ATOM     35  O   UNL A   1      40.367  19.462  26.277  1.00  0.00    -0.269 OA
BRANCH  33  36
ATOM     36  C   UNL A   1      39.983  21.748  26.697  1.00  0.00     0.039 A 
ATOM     37  C   UNL A   1      40.960  21.828  27.687  1.00  0.00     0.014 A 
ATOM     38  C   UNL A   1      39.401  22.905  26.182  1.00  0.00     0.014 A 
ATOM     39  C   UNL A   1      41.429  23.083  28.081  1.00  0.00     0.010 A 
ATOM     40  C   UNL A   1      39.971  24.136  26.464  1.00  0.00     0.010 A 
ATOM     41  C   UNL A   1      40.984  24.244  27.427  1.00  0.00    -0.014 A 
BRANCH  41  42
ATOM     42  C   UNL A   1      41.548  25.583  27.743  1.00  0.00     0.031 A 
ATOM     43  C   UNL A   1      42.937  25.939  27.278  1.00  0.00     0.074 A 
ATOM     44  C   UNL A   1      40.844  26.442  28.508  1.00  0.00     0.049 A 
ATOM     45  N   UNL A   1      43.639  27.017  27.514  1.00  0.00    -0.248 NA
ATOM     46  C   UNL A   1      43.654  24.923  26.491  1.00  0.00     0.031 C 
ATOM     47  C   UNL A   1      39.524  26.177  29.090  1.00  0.00     0.029 A 
ATOM     48  N   UNL A   1      41.136  27.714  28.931  1.00  0.00    -0.354 N 
ATOM     49  C   UNL A   1      44.881  26.794  26.929  1.00  0.00     0.074 A 
ATOM     50  C   UNL A   1      44.866  25.445  26.412  1.00  0.00     0.031 C 
ATOM     51  C   UNL A   1      39.101  27.271  29.745  1.00  0.00     0.029 A 
ATOM     52  C   UNL A   1      40.134  28.298  29.671  1.00  0.00     0.049 A 
ATOM     53  H   UNL A   1      41.985  28.167  28.724  1.00  0.00     0.167 HD
ATOM     54  C   UNL A   1      45.925  27.649  26.796  1.00  0.00     0.034 A 
ATOM     55  C   UNL A   1      40.056  29.524  30.225  1.00  0.00     0.034 A 
ATOM     56  C   UNL A   1      45.903  29.006  27.281  1.00  0.00     0.049 A 
ATOM     57  C   UNL A   1      41.213  30.472  30.033  1.00  0.00     0.074 A 
ATOM     58  C   UNL A   1      46.868  29.988  27.144  1.00  0.00     0.029 A 
ATOM     59  N   UNL A   1      44.856  29.575  27.996  1.00  0.00    -0.354 N 
ATOM     60  N   UNL A   1      42.355  30.269  29.416  1.00  0.00    -0.248 NA
ATOM     61  C   UNL A   1      41.062  31.818  30.597  1.00  0.00     0.031 C 
ATOM     62  C   UNL A   1      46.430  31.129  27.825  1.00  0.00     0.029 A 
ATOM     63  C   UNL A   1      45.160  30.886  28.325  1.00  0.00     0.049 A 
ATOM     64  H   UNL A   1      44.019  29.113  28.234  1.00  0.00     0.167 HD
ATOM     65  C   UNL A   1      43.048  31.474  29.498  1.00  0.00     0.074 A 
ATOM     66  C   UNL A   1      42.182  32.401  30.198  1.00  0.00     0.031 C 
ATOM     67  C   UNL A   1      44.287  31.788  29.038  1.00  0.00     0.034 A 
BRANCH  54  68
ATOM     68  C   UNL A   1      47.165  27.128  26.106  1.00  0.00     0.023 A 
ATOM     69  C   UNL A   1      48.141  26.391  26.801  1.00  0.00     0.031 A 
ATOM     70  C   UNL A   1      47.401  27.412  24.750  1.00  0.00     0.131 A 
ATOM     71  C   UNL A   1      49.344  26.045  26.167  1.00  0.00     0.055 A 
ATOM     72  C   UNL A   1      48.561  26.984  24.099  1.00  0.00     0.041 A 
ATOM     73  F   UNL A   1      46.518  28.130  24.037  1.00  0.00    -0.206 F 
ATOM     74  C   UNL A   1      49.549  26.312  24.813  1.00  0.00     0.022 A 
BRANCH  71  75
ATOM     75  S   UNL A   1      50.697  25.386  27.181  1.00  0.00     0.124 S 
ATOM     76  O   UNL A   1      51.106  26.573  27.931  1.00  0.00    -0.237 OA
ATOM     77  O   UNL A   1      50.034  24.342  27.952  1.00  0.00    -0.237 OA
ATOM     78  O   UNL A   1      51.666  24.916  26.194  1.00  0.00    -0.744 OA
ENDBRANCH  71  75
ENDBRANCH  54  68
BRANCH  55  79
ATOM     79  C   UNL A   1      38.845  29.938  30.991  1.00  0.00     0.023 A 
ATOM     80  C   UNL A   1      37.833  30.702  30.385  1.00  0.00     0.031 A 
ATOM     81  C   UNL A   1      38.699  29.614  32.351  1.00  0.00     0.131 A 
ATOM     82  C   UNL A   1      36.747  31.158  31.148  1.00  0.00     0.055 A 
ATOM     83  C   UNL A   1      37.591  30.026  33.094  1.00  0.00     0.041 A 
ATOM     84  F   UNL A   1      39.632  28.879  32.978  1.00  0.00    -0.206 F 
ATOM     85  C   UNL A   1      36.613  30.815  32.495  1.00  0.00     0.022 A 
BRANCH  82  86
ATOM     86  S   UNL A   1      35.552  32.281  30.373  1.00  0.00     0.124 S 
ATOM     87  O   UNL A   1      34.491  32.322  31.372  1.00  0.00    -0.237 OA
ATOM     88  O   UNL A   1      36.339  33.500  30.221  1.00  0.00    -0.237 OA
ATOM     89  O   UNL A   1      35.209  31.603  29.124  1.00  0.00    -0.744 OA
ENDBRANCH  82  86
ENDBRANCH  55  79
BRANCH  67  90
ATOM     90  C   UNL A   1      44.751  33.207  29.256  1.00  0.00     0.023 A 
ATOM     91  C   UNL A   1      44.469  34.224  28.328  1.00  0.00     0.031 A 
ATOM     92  C   UNL A   1      45.511  33.538  30.391  1.00  0.00     0.131 A 
ATOM     93  C   UNL A   1      45.001  35.507  28.514  1.00  0.00     0.055 A 
ATOM     94  C   UNL A   1      45.981  34.833  30.606  1.00  0.00     0.041 A 
ATOM     95  F   UNL A   1      45.810  32.606  31.310  1.00  0.00    -0.206 F 
ATOM     96  C   UNL A   1      45.742  35.822  29.657  1.00  0.00     0.022 A 
BRANCH  93  97
ATOM     97  S   UNL A   1      44.810  36.727  27.187  1.00  0.00     0.124 S 
ATOM     98  O   UNL A   1      44.875  37.987  27.921  1.00  0.00    -0.237 OA
ATOM     99  O   UNL A   1      45.951  36.432  26.326  1.00  0.00    -0.237 OA
ATOM    100  O   UNL A   1      43.503  36.409  26.615  1.00  0.00    -0.744 OA
ENDBRANCH  93  97
ENDBRANCH  67  90
ENDBRANCH  41  42
ENDBRANCH  33  36
ENDBRANCH  31  32
ENDBRANCH  30  31
ENDBRANCH  29  30
ENDBRANCH   3  29
TORSDOF 19
ENDMDL
