MODEL 1
REMARK VINA RESULT:     -12.7      0.000      0.000
REMARK SMILES CC(C)CN(C)c1cc2c(cc1Cl)C=C(C(=O)NCCCNC(=O)c1ccc(-c3c4nc(c(-c5cc(S(=O)(=O)[O-])ccc5F)c5ccc([nH]5)c(-c5cc(S(=O)(=O)[O-])ccc5F)c5nc(c(-c6cc(S(=O)(=O)[O-])ccc6F)c6ccc3[nH]6)C=C5)C=C4)cc1)[C@@H](C(F)(F)F)O2
REMARK SMILES IDX 20 1 19 2 18 3 16 4 17 5 15 7 7 8 8 9 12 10 9 11 11 12 13 13
REMARK SMILES IDX 10 14 93 15 14 16 88 17 5 18 6 19 4 20 2 21 1 22 3 23 89 24
REMARK SMILES IDX 90 25 91 26 92 27 21 28 22 29 23 30 24 32 25 33 26 34 87 35
REMARK SMILES IDX 27 36 86 37 28 38 29 39 30 40 80 41 31 42 85 43 79 44 81 45
REMARK SMILES IDX 32 46 84 47 78 48 77 49 33 51 65 52 45 53 64 54 46 55 49 56
REMARK SMILES IDX 63 57 82 58 47 59 48 60 62 62 83 63 50 64 34 65 35 66 43 67
REMARK SMILES IDX 36 68 42 69 44 70 41 71 37 72 38 73 39 74 40 75 66 76 67 77
REMARK SMILES IDX 75 78 68 79 74 80 76 81 73 82 69 83 70 84 71 85 72 86 51 87
REMARK SMILES IDX 52 88 60 89 53 90 59 91 61 92 58 93 54 94 55 95 56 96 57 97
REMARK H PARENT 18 6 22 31 81 50 49 61
REMARK Flexibility Score: inf
ROOT
ATOM      1  C   UNL A   1      36.290  20.542  25.025  1.00  0.00     0.042 C 
ENDROOT
BRANCH   1   2
ATOM      2  C   UNL A   1      35.142  21.538  25.046  1.00  0.00     0.118 C 
BRANCH   2   3
ATOM      3  N   UNL A   1      34.002  21.053  24.284  1.00  0.00    -0.352 N 
ATOM      4  C   UNL A   1      32.830  21.554  23.836  1.00  0.00     0.251 C 
ATOM      5  O   UNL A   1      32.133  20.768  23.185  1.00  0.00    -0.270 OA
ATOM      6  H   UNL A   1      34.115  20.110  24.025  1.00  0.00     0.163 HD
BRANCH   4   7
ATOM      7  C   UNL A   1      32.355  22.943  24.064  1.00  0.00     0.067 C 
ATOM      8  C   UNL A   1      31.399  27.875  23.687  1.00  0.00     0.059 A 
ATOM      9  C   UNL A   1      30.687  26.773  24.189  1.00  0.00     0.074 A 
ATOM     10  C   UNL A   1      32.673  27.630  23.123  1.00  0.00     0.065 A 
ATOM     11  C   UNL A   1      31.215  25.489  24.097  1.00  0.00     0.130 A 
ATOM     12  C   UNL A   1      33.147  26.326  22.937  1.00  0.00     0.034 A 
ATOM     13  Cl  UNL A   1      33.738  28.915  22.661  1.00  0.00    -0.082 Cl
ATOM     14  C   UNL A   1      32.409  25.251  23.414  1.00  0.00     0.019 A 
ATOM     15  O   UNL A   1      30.529  24.472  24.710  1.00  0.00    -0.475 OA
ATOM     16  C   UNL A   1      32.849  23.875  23.228  1.00  0.00     0.025 C 
ATOM     17  C   UNL A   1      31.389  23.368  25.135  1.00  0.00     0.314 C 
BRANCH   8  18
ATOM     18  N   UNL A   1      30.835  29.162  23.728  1.00  0.00    -0.373 N 
ATOM     19  C   UNL A   1      31.165  29.946  24.917  1.00  0.00     0.143 C 
BRANCH  18  20
ATOM     20  C   UNL A   1      29.441  29.269  23.242  1.00  0.00     0.119 C 
BRANCH  20  21
ATOM     21  C   UNL A   1      29.050  30.715  22.872  1.00  0.00     0.002 C 
ATOM     22  C   UNL A   1      28.778  30.880  21.373  1.00  0.00     0.009 C 
ATOM     23  C   UNL A   1      27.811  31.169  23.651  1.00  0.00     0.009 C 
ENDBRANCH  20  21
ENDBRANCH  18  20
ENDBRANCH   8  18
BRANCH  17  24
ATOM     24  C   UNL A   1      32.110  23.713  26.460  1.00  0.00     0.429 C 
ATOM     25  F   UNL A   1      31.500  24.750  27.082  1.00  0.00    -0.167 F 
ATOM     26  F   UNL A   1      32.101  22.676  27.335  1.00  0.00    -0.167 F 
ATOM     27  F   UNL A   1      33.409  24.051  26.292  1.00  0.00    -0.167 F 
ENDBRANCH  17  24
ENDBRANCH   4   7
ENDBRANCH   2   3
ENDBRANCH   1   2
BRANCH   1  28
ATOM     28  C   UNL A   1      37.632  21.208  25.286  1.00  0.00     0.118 C 
BRANCH  28  29
ATOM     29  N   UNL A   1      38.670  20.240  25.634  1.00  0.00    -0.352 N 
ATOM     30  C   UNL A   1      39.916  20.438  26.182  1.00  0.00     0.251 C 
ATOM     31  H   UNL A   1      38.442  19.301  25.446  1.00  0.00     0.163 HD
ATOM     32  O   UNL A   1      40.736  19.525  26.181  1.00  0.00    -0.269 OA
BRANCH  30  33
ATOM     33  C   UNL A   1      40.263  21.761  26.740  1.00  0.00     0.039 A 
ATOM     34  C   UNL A   1      39.753  22.916  26.152  1.00  0.00     0.014 A 
ATOM     35  C   UNL A   1      41.131  21.852  27.830  1.00  0.00     0.014 A 
ATOM     36  C   UNL A   1      40.285  24.150  26.495  1.00  0.00     0.010 A 
ATOM     37  C   UNL A   1      41.569  23.108  28.260  1.00  0.00     0.010 A 
ATOM     38  C   UNL A   1      41.200  24.264  27.554  1.00  0.00    -0.014 A 
BRANCH  38  39
ATOM     39  C   UNL A   1      41.743  25.606  27.893  1.00  0.00     0.031 A 
ATOM     40  C   UNL A   1      43.100  26.038  27.405  1.00  0.00     0.074 A 
ATOM     41  C   UNL A   1      40.963  26.468  28.579  1.00  0.00     0.049 A 
ATOM     42  N   UNL A   1      43.706  27.185  27.573  1.00  0.00    -0.248 NA
ATOM     43  C   UNL A   1      43.883  25.060  26.632  1.00  0.00     0.031 C 
ATOM     44  C   UNL A   1      39.626  26.156  29.085  1.00  0.00     0.029 A 
ATOM     45  N   UNL A   1      41.153  27.780  28.932  1.00  0.00    -0.354 N 
ATOM     46  C   UNL A   1      44.943  27.062  26.951  1.00  0.00     0.074 A 
ATOM     47  C   UNL A   1      45.018  25.716  26.430  1.00  0.00     0.031 C 
ATOM     48  C   UNL A   1      39.085  27.262  29.608  1.00  0.00     0.029 A 
ATOM     49  C   UNL A   1      40.068  28.340  29.566  1.00  0.00     0.049 A 
ATOM     50  H   UNL A   1      41.986  28.272  28.752  1.00  0.00     0.167 HD
ATOM     51  C   UNL A   1      45.918  27.993  26.816  1.00  0.00     0.034 A 
ATOM     52  C   UNL A   1      39.882  29.576  30.071  1.00  0.00     0.034 A 
ATOM     53  C   UNL A   1      45.812  29.339  27.322  1.00  0.00     0.049 A 
ATOM     54  C   UNL A   1      40.993  30.583  29.934  1.00  0.00     0.074 A 
ATOM     55  C   UNL A   1      46.739  30.361  27.227  1.00  0.00     0.029 A 
ATOM     56  N   UNL A   1      44.718  29.854  28.004  1.00  0.00    -0.354 N 
ATOM     57  N   UNL A   1      42.150  30.451  29.329  1.00  0.00    -0.248 NA
ATOM     58  C   UNL A   1      40.783  31.898  30.550  1.00  0.00     0.031 C 
ATOM     59  C   UNL A   1      46.233  31.474  27.900  1.00  0.00     0.029 A 
ATOM     60  C   UNL A   1      44.958  31.173  28.355  1.00  0.00     0.049 A 
ATOM     61  H   UNL A   1      43.894  29.356  28.209  1.00  0.00     0.167 HD
ATOM     62  C   UNL A   1      42.803  31.670  29.482  1.00  0.00     0.074 A 
ATOM     63  C   UNL A   1      41.896  32.536  30.208  1.00  0.00     0.031 C 
ATOM     64  C   UNL A   1      44.042  32.033  29.069  1.00  0.00     0.034 A 
BRANCH  51  65
ATOM     65  C   UNL A   1      47.188  27.617  26.092  1.00  0.00     0.023 A 
ATOM     66  C   UNL A   1      47.306  27.853  24.709  1.00  0.00     0.031 A 
ATOM     67  C   UNL A   1      48.221  26.912  26.735  1.00  0.00     0.131 A 
ATOM     68  C   UNL A   1      48.413  27.357  24.008  1.00  0.00     0.055 A 
ATOM     69  C   UNL A   1      49.342  26.455  26.040  1.00  0.00     0.041 A 
ATOM     70  F   UNL A   1      48.158  26.662  28.053  1.00  0.00    -0.206 F 
ATOM     71  C   UNL A   1      49.434  26.666  24.668  1.00  0.00     0.022 A 
BRANCH  68  72
ATOM     72  S   UNL A   1      48.541  27.531  22.207  1.00  0.00     0.124 S 
ATOM     73  O   UNL A   1      47.275  28.184  21.879  1.00  0.00    -0.237 OA
ATOM     74  O   UNL A   1      49.729  28.368  22.065  1.00  0.00    -0.237 OA
ATOM     75  O   UNL A   1      48.673  26.159  21.730  1.00  0.00    -0.744 OA
ENDBRANCH  68  72
ENDBRANCH  51  65
BRANCH  52  76
ATOM     76  C   UNL A   1      38.574  29.911  30.708  1.00  0.00     0.023 A 
ATOM     77  C   UNL A   1      37.581  30.607  29.994  1.00  0.00     0.031 A 
ATOM     78  C   UNL A   1      38.352  29.660  32.072  1.00  0.00     0.131 A 
ATOM     79  C   UNL A   1      36.459  31.109  30.666  1.00  0.00     0.055 A 
ATOM     80  C   UNL A   1      37.192  30.091  32.720  1.00  0.00     0.041 A 
ATOM     81  F   UNL A   1      39.273  29.010  32.800  1.00  0.00    -0.206 F 
ATOM     82  C   UNL A   1      36.250  30.840  32.021  1.00  0.00     0.022 A 
BRANCH  79  83
ATOM     83  S   UNL A   1      35.327  32.264  29.843  1.00  0.00     0.124 S 
ATOM     84  O   UNL A   1      36.223  33.349  29.459  1.00  0.00    -0.237 OA
ATOM     85  O   UNL A   1      34.814  31.447  28.744  1.00  0.00    -0.237 OA
ATOM     86  O   UNL A   1      34.351  32.586  30.879  1.00  0.00    -0.744 OA
ENDBRANCH  79  83
ENDBRANCH  52  76
BRANCH  64  87
ATOM     87  C   UNL A   1      44.524  33.428  29.380  1.00  0.00     0.023 A 
ATOM     88  C   UNL A   1      44.511  34.416  28.376  1.00  0.00     0.031 A 
ATOM     89  C   UNL A   1      45.138  33.732  30.607  1.00  0.00     0.131 A 
ATOM     90  C   UNL A   1      45.142  35.646  28.602  1.00  0.00     0.055 A 
ATOM     91  C   UNL A   1      45.722  34.977  30.844  1.00  0.00     0.041 A 
ATOM     92  F   UNL A   1      45.185  32.818  31.590  1.00  0.00    -0.206 F 
ATOM     93  C   UNL A   1      45.739  35.934  29.834  1.00  0.00     0.022 A 
BRANCH  90  94
ATOM     94  S   UNL A   1      45.293  36.875  27.278  1.00  0.00     0.124 S 
ATOM     95  O   UNL A   1      43.918  37.354  27.152  1.00  0.00    -0.237 OA
ATOM     96  O   UNL A   1      46.235  37.832  27.853  1.00  0.00    -0.237 OA
ATOM     97  O   UNL A   1      45.792  36.110  26.140  1.00  0.00    -0.744 OA
ENDBRANCH  90  94
ENDBRANCH  64  87
ENDBRANCH  38  39
ENDBRANCH  30  33
ENDBRANCH  28  29
ENDBRANCH   1  28
TORSDOF 17
ENDMDL
MODEL 2
REMARK VINA RESULT:     -12.5      5.239     10.817
REMARK SMILES CC(C)CN(C)c1cc2c(cc1Cl)C=C(C(=O)NCCCNC(=O)c1ccc(-c3c4nc(c(-c5cc(S(=O)(=O)[O-])ccc5F)c5ccc([nH]5)c(-c5cc(S(=O)(=O)[O-])ccc5F)c5nc(c(-c6cc(S(=O)(=O)[O-])ccc6F)c6ccc3[nH]6)C=C5)C=C4)cc1)[C@@H](C(F)(F)F)O2
REMARK SMILES IDX 20 1 19 2 18 3 16 4 17 5 15 7 7 8 8 9 12 10 9 11 11 12 13 13
REMARK SMILES IDX 10 14 93 15 14 16 88 17 5 18 6 19 4 20 2 21 1 22 3 23 89 24
REMARK SMILES IDX 90 25 91 26 92 27 21 28 22 29 23 30 24 32 25 33 26 34 87 35
REMARK SMILES IDX 27 36 86 37 28 38 29 39 30 40 80 41 31 42 85 43 79 44 81 45
REMARK SMILES IDX 32 46 84 47 78 48 77 49 33 51 65 52 45 53 64 54 46 55 49 56
REMARK SMILES IDX 63 57 82 58 47 59 48 60 62 62 83 63 50 64 34 65 35 66 43 67
REMARK SMILES IDX 36 68 42 69 44 70 41 71 37 72 38 73 39 74 40 75 66 76 67 77
REMARK SMILES IDX 75 78 68 79 74 80 76 81 73 82 69 83 70 84 71 85 72 86 51 87
REMARK SMILES IDX 52 88 60 89 53 90 59 91 61 92 58 93 54 94 55 95 56 96 57 97
REMARK H PARENT 18 6 22 31 81 50 49 61
REMARK Flexibility Score: inf
ROOT
ATOM      1  C   UNL A   1      31.226  32.576  26.280  1.00  0.00     0.042 C 
ENDROOT
BRANCH   1   2
ATOM      2  C   UNL A   1      31.027  31.075  26.147  1.00  0.00     0.118 C 
BRANCH   2   3
ATOM      3  N   UNL A   1      30.745  30.695  24.772  1.00  0.00    -0.352 N 
ATOM      4  C   UNL A   1      30.888  29.593  24.004  1.00  0.00     0.251 C 
ATOM      5  O   UNL A   1      30.483  29.703  22.841  1.00  0.00    -0.270 OA
ATOM      6  H   UNL A   1      30.339  31.438  24.268  1.00  0.00     0.163 HD
BRANCH   4   7
ATOM      7  C   UNL A   1      31.473  28.307  24.461  1.00  0.00     0.067 C 
ATOM      8  C   UNL A   1      32.196  23.519  25.853  1.00  0.00     0.059 A 
ATOM      9  C   UNL A   1      32.978  24.476  25.185  1.00  0.00     0.074 A 
ATOM     10  C   UNL A   1      30.888  23.896  26.239  1.00  0.00     0.065 A 
ATOM     11  C   UNL A   1      32.460  25.733  24.892  1.00  0.00     0.130 A 
ATOM     12  C   UNL A   1      30.339  25.122  25.845  1.00  0.00     0.034 A 
ATOM     13  Cl  UNL A   1      29.900  22.893  27.246  1.00  0.00    -0.082 Cl
ATOM     14  C   UNL A   1      31.124  26.039  25.158  1.00  0.00     0.019 A 
ATOM     15  O   UNL A   1      33.309  26.662  24.346  1.00  0.00    -0.475 OA
ATOM     16  C   UNL A   1      30.594  27.319  24.708  1.00  0.00     0.025 C 
ATOM     17  C   UNL A   1      32.939  28.041  24.663  1.00  0.00     0.314 C 
BRANCH   8  18
ATOM     18  N   UNL A   1      32.703  22.230  26.093  1.00  0.00    -0.373 N 
ATOM     19  C   UNL A   1      33.466  22.085  27.331  1.00  0.00     0.143 C 
BRANCH  18  20
ATOM     20  C   UNL A   1      33.237  21.519  24.910  1.00  0.00     0.119 C 
BRANCH  20  21
ATOM     21  C   UNL A   1      32.233  20.507  24.321  1.00  0.00     0.002 C 
ATOM     22  C   UNL A   1      32.154  20.585  22.793  1.00  0.00     0.009 C 
ATOM     23  C   UNL A   1      32.592  19.073  24.724  1.00  0.00     0.009 C 
ENDBRANCH  20  21
ENDBRANCH  18  20
ENDBRANCH   8  18
BRANCH  17  24
ATOM     24  C   UNL A   1      33.403  28.419  26.091  1.00  0.00     0.429 C 
ATOM     25  F   UNL A   1      34.405  27.603  26.502  1.00  0.00    -0.167 F 
ATOM     26  F   UNL A   1      33.884  29.686  26.157  1.00  0.00    -0.167 F 
ATOM     27  F   UNL A   1      32.418  28.342  27.014  1.00  0.00    -0.167 F 
ENDBRANCH  17  24
ENDBRANCH   4   7
ENDBRANCH   2   3
ENDBRANCH   1   2
BRANCH   1  28
ATOM     28  C   UNL A   1      32.581  32.925  26.876  1.00  0.00     0.118 C 
BRANCH  28  29
ATOM     29  N   UNL A   1      32.530  34.139  27.688  1.00  0.00    -0.352 N 
ATOM     30  C   UNL A   1      33.284  34.505  28.779  1.00  0.00     0.251 C 
ATOM     31  H   UNL A   1      31.851  34.796  27.411  1.00  0.00     0.163 HD
ATOM     32  O   UNL A   1      32.935  35.457  29.471  1.00  0.00    -0.269 OA
BRANCH  30  33
ATOM     33  C   UNL A   1      34.491  33.727  29.123  1.00  0.00     0.039 A 
ATOM     34  C   UNL A   1      34.367  32.531  29.827  1.00  0.00     0.014 A 
ATOM     35  C   UNL A   1      35.755  34.211  28.778  1.00  0.00     0.014 A 
ATOM     36  C   UNL A   1      35.494  31.945  30.382  1.00  0.00     0.010 A 
ATOM     37  C   UNL A   1      36.897  33.545  29.233  1.00  0.00     0.010 A 
ATOM     38  C   UNL A   1      36.775  32.443  30.093  1.00  0.00    -0.014 A 
BRANCH  38  39
ATOM     39  C   UNL A   1      37.958  31.783  30.706  1.00  0.00     0.031 A 
ATOM     40  C   UNL A   1      38.338  32.049  32.138  1.00  0.00     0.074 A 
ATOM     41  C   UNL A   1      38.642  30.872  29.982  1.00  0.00     0.049 A 
ATOM     42  N   UNL A   1      39.312  31.528  32.840  1.00  0.00    -0.248 NA
ATOM     43  C   UNL A   1      37.528  33.029  32.881  1.00  0.00     0.031 C 
ATOM     44  C   UNL A   1      38.347  30.527  28.590  1.00  0.00     0.029 A 
ATOM     45  N   UNL A   1      39.685  30.046  30.314  1.00  0.00    -0.354 N 
ATOM     46  C   UNL A   1      39.247  32.128  34.093  1.00  0.00     0.074 A 
ATOM     47  C   UNL A   1      38.159  33.079  34.047  1.00  0.00     0.031 C 
ATOM     48  C   UNL A   1      39.130  29.510  28.215  1.00  0.00     0.029 A 
ATOM     49  C   UNL A   1      40.051  29.190  29.301  1.00  0.00     0.049 A 
ATOM     50  H   UNL A   1      40.130  30.065  31.192  1.00  0.00     0.167 HD
ATOM     51  C   UNL A   1      40.016  31.893  35.183  1.00  0.00     0.034 A 
ATOM     52  C   UNL A   1      41.026  28.260  29.240  1.00  0.00     0.034 A 
ATOM     53  C   UNL A   1      41.080  30.921  35.215  1.00  0.00     0.049 A 
ATOM     54  C   UNL A   1      41.886  28.040  30.456  1.00  0.00     0.074 A 
ATOM     55  C   UNL A   1      41.910  30.600  36.274  1.00  0.00     0.029 A 
ATOM     56  N   UNL A   1      41.456  30.110  34.152  1.00  0.00    -0.354 N 
ATOM     57  N   UNL A   1      41.799  28.607  31.636  1.00  0.00    -0.248 NA
ATOM     58  C   UNL A   1      42.977  27.066  30.336  1.00  0.00     0.031 C 
ATOM     59  C   UNL A   1      42.823  29.639  35.837  1.00  0.00     0.029 A 
ATOM     60  C   UNL A   1      42.520  29.305  34.526  1.00  0.00     0.049 A 
ATOM     61  H   UNL A   1      41.029  30.106  33.266  1.00  0.00     0.167 HD
ATOM     62  C   UNL A   1      42.817  28.051  32.404  1.00  0.00     0.074 A 
ATOM     63  C   UNL A   1      43.485  27.079  31.562  1.00  0.00     0.031 C 
ATOM     64  C   UNL A   1      43.172  28.329  33.683  1.00  0.00     0.034 A 
BRANCH  51  65
ATOM     65  C   UNL A   1      39.751  32.680  36.444  1.00  0.00     0.023 A 
ATOM     66  C   UNL A   1      38.793  32.225  37.369  1.00  0.00     0.031 A 
ATOM     67  C   UNL A   1      40.342  33.936  36.665  1.00  0.00     0.131 A 
ATOM     68  C   UNL A   1      38.429  33.035  38.453  1.00  0.00     0.055 A 
ATOM     69  C   UNL A   1      40.007  34.722  37.769  1.00  0.00     0.041 A 
ATOM     70  F   UNL A   1      41.263  34.416  35.813  1.00  0.00    -0.206 F 
ATOM     71  C   UNL A   1      39.036  34.277  38.661  1.00  0.00     0.022 A 
BRANCH  68  72
ATOM     72  S   UNL A   1      37.111  32.540  39.596  1.00  0.00     0.124 S 
ATOM     73  O   UNL A   1      37.260  33.521  40.669  1.00  0.00    -0.237 OA
ATOM     74  O   UNL A   1      35.916  32.697  38.771  1.00  0.00    -0.237 OA
ATOM     75  O   UNL A   1      37.454  31.169  39.956  1.00  0.00    -0.744 OA
ENDBRANCH  68  72
ENDBRANCH  51  65
BRANCH  52  76
ATOM     76  C   UNL A   1      41.189  27.460  27.990  1.00  0.00     0.023 A 
ATOM     77  C   UNL A   1      40.832  26.099  27.953  1.00  0.00     0.031 A 
ATOM     78  C   UNL A   1      41.825  28.006  26.863  1.00  0.00     0.131 A 
ATOM     79  C   UNL A   1      41.197  25.310  26.855  1.00  0.00     0.055 A 
ATOM     80  C   UNL A   1      42.113  27.235  25.735  1.00  0.00     0.041 A 
ATOM     81  F   UNL A   1      42.195  29.296  26.853  1.00  0.00    -0.206 F 
ATOM     82  C   UNL A   1      41.820  25.873  25.738  1.00  0.00     0.022 A 
BRANCH  79  83
ATOM     83  S   UNL A   1      41.026  23.505  26.914  1.00  0.00     0.124 S 
ATOM     84  O   UNL A   1      41.898  23.080  25.823  1.00  0.00    -0.237 OA
ATOM     85  O   UNL A   1      41.506  23.203  28.261  1.00  0.00    -0.237 OA
ATOM     86  O   UNL A   1      39.599  23.288  26.704  1.00  0.00    -0.744 OA
ENDBRANCH  79  83
ENDBRANCH  52  76
BRANCH  64  87
ATOM     87  C   UNL A   1      44.339  27.586  34.283  1.00  0.00     0.023 A 
ATOM     88  C   UNL A   1      44.127  26.359  34.943  1.00  0.00     0.031 A 
ATOM     89  C   UNL A   1      45.620  28.162  34.342  1.00  0.00     0.131 A 
ATOM     90  C   UNL A   1      45.169  25.773  35.672  1.00  0.00     0.055 A 
ATOM     91  C   UNL A   1      46.667  27.548  35.028  1.00  0.00     0.041 A 
ATOM     92  F   UNL A   1      45.867  29.335  33.738  1.00  0.00    -0.206 F 
ATOM     93  C   UNL A   1      46.440  26.355  35.710  1.00  0.00     0.022 A 
BRANCH  90  94
ATOM     94  S   UNL A   1      44.887  24.286  36.672  1.00  0.00     0.124 S 
ATOM     95  O   UNL A   1      46.253  23.859  36.969  1.00  0.00    -0.237 OA
ATOM     96  O   UNL A   1      44.139  24.817  37.808  1.00  0.00    -0.237 OA
ATOM     97  O   UNL A   1      44.139  23.401  35.786  1.00  0.00    -0.744 OA
ENDBRANCH  90  94
ENDBRANCH  64  87
ENDBRANCH  38  39
ENDBRANCH  30  33
ENDBRANCH  28  29
ENDBRANCH   1  28
TORSDOF 17
ENDMDL
MODEL 3
REMARK VINA RESULT:     -12.4      0.331      7.342
REMARK SMILES CC(C)CN(C)c1cc2c(cc1Cl)C=C(C(=O)NCCCNC(=O)c1ccc(-c3c4nc(c(-c5cc(S(=O)(=O)[O-])ccc5F)c5ccc([nH]5)c(-c5cc(S(=O)(=O)[O-])ccc5F)c5nc(c(-c6cc(S(=O)(=O)[O-])ccc6F)c6ccc3[nH]6)C=C5)C=C4)cc1)[C@@H](C(F)(F)F)O2
REMARK SMILES IDX 20 1 19 2 18 3 16 4 17 5 15 7 7 8 8 9 12 10 9 11 11 12 13 13
REMARK SMILES IDX 10 14 93 15 14 16 88 17 5 18 6 19 4 20 2 21 1 22 3 23 89 24
REMARK SMILES IDX 90 25 91 26 92 27 21 28 22 29 23 30 24 32 25 33 26 34 87 35
REMARK SMILES IDX 27 36 86 37 28 38 29 39 30 40 80 41 31 42 85 43 79 44 81 45
REMARK SMILES IDX 32 46 84 47 78 48 77 49 33 51 65 52 45 53 64 54 46 55 49 56
REMARK SMILES IDX 63 57 82 58 47 59 48 60 62 62 83 63 50 64 34 65 35 66 43 67
REMARK SMILES IDX 36 68 42 69 44 70 41 71 37 72 38 73 39 74 40 75 66 76 67 77
REMARK SMILES IDX 75 78 68 79 74 80 76 81 73 82 69 83 70 84 71 85 72 86 51 87
REMARK SMILES IDX 52 88 60 89 53 90 59 91 61 92 58 93 54 94 55 95 56 96 57 97
REMARK H PARENT 18 6 22 31 81 50 49 61
REMARK Flexibility Score: inf
ROOT
ATOM      1  C   UNL A   1      36.390  20.296  25.014  1.00  0.00     0.042 C 
ENDROOT
BRANCH   1   2
ATOM      2  C   UNL A   1      35.229  21.273  25.091  1.00  0.00     0.118 C 
BRANCH   2   3
ATOM      3  N   UNL A   1      34.081  20.798  24.336  1.00  0.00    -0.352 N 
ATOM      4  C   UNL A   1      32.909  21.307  23.895  1.00  0.00     0.251 C 
ATOM      5  O   UNL A   1      32.203  20.527  23.248  1.00  0.00    -0.270 OA
ATOM      6  H   UNL A   1      34.185  19.853  24.075  1.00  0.00     0.163 HD
BRANCH   4   7
ATOM      7  C   UNL A   1      32.446  22.699  24.128  1.00  0.00     0.067 C 
ATOM      8  C   UNL A   1      31.499  27.633  23.750  1.00  0.00     0.059 A 
ATOM      9  C   UNL A   1      30.795  26.536  24.276  1.00  0.00     0.074 A 
ATOM     10  C   UNL A   1      32.756  27.380  23.153  1.00  0.00     0.065 A 
ATOM     11  C   UNL A   1      31.316  25.249  24.177  1.00  0.00     0.130 A 
ATOM     12  C   UNL A   1      33.221  26.073  22.963  1.00  0.00     0.034 A 
ATOM     13  Cl  UNL A   1      33.813  28.658  22.657  1.00  0.00    -0.082 Cl
ATOM     14  C   UNL A   1      32.491  25.003  23.465  1.00  0.00     0.019 A 
ATOM     15  O   UNL A   1      30.643  24.238  24.813  1.00  0.00    -0.475 OA
ATOM     16  C   UNL A   1      32.922  23.625  23.275  1.00  0.00     0.025 C 
ATOM     17  C   UNL A   1      31.509  23.133  25.221  1.00  0.00     0.314 C 
BRANCH   8  18
ATOM     18  N   UNL A   1      30.940  28.922  23.798  1.00  0.00    -0.373 N 
ATOM     19  C   UNL A   1      31.356  29.734  24.939  1.00  0.00     0.143 C 
BRANCH  18  20
ATOM     20  C   UNL A   1      29.515  29.020  23.410  1.00  0.00     0.119 C 
BRANCH  20  21
ATOM     21  C   UNL A   1      29.104  30.455  23.018  1.00  0.00     0.002 C 
ATOM     22  C   UNL A   1      29.268  30.718  21.517  1.00  0.00     0.009 C 
ATOM     23  C   UNL A   1      27.653  30.742  23.413  1.00  0.00     0.009 C 
ENDBRANCH  20  21
ENDBRANCH  18  20
ENDBRANCH   8  18
BRANCH  17  24
ATOM     24  C   UNL A   1      32.266  23.482  26.525  1.00  0.00     0.429 C 
ATOM     25  F   UNL A   1      33.537  23.867  26.254  1.00  0.00    -0.167 F 
ATOM     26  F   UNL A   1      31.686  24.509  27.197  1.00  0.00    -0.167 F 
ATOM     27  F   UNL A   1      32.335  22.453  27.399  1.00  0.00    -0.167 F 
ENDBRANCH  17  24
ENDBRANCH   4   7
ENDBRANCH   2   3
ENDBRANCH   1   2
BRANCH   1  28
ATOM     28  C   UNL A   1      37.731  20.980  25.230  1.00  0.00     0.118 C 
BRANCH  28  29
ATOM     29  N   UNL A   1      38.755  20.050  25.702  1.00  0.00    -0.352 N 
ATOM     30  C   UNL A   1      39.977  20.301  26.283  1.00  0.00     0.251 C 
ATOM     31  H   UNL A   1      38.537  19.097  25.586  1.00  0.00     0.163 HD
ATOM     32  O   UNL A   1      40.798  19.395  26.394  1.00  0.00    -0.269 OA
BRANCH  30  33
ATOM     33  C   UNL A   1      40.297  21.668  26.740  1.00  0.00     0.039 A 
ATOM     34  C   UNL A   1      39.669  22.762  26.149  1.00  0.00     0.014 A 
ATOM     35  C   UNL A   1      41.258  21.864  27.735  1.00  0.00     0.014 A 
ATOM     36  C   UNL A   1      40.158  24.038  26.379  1.00  0.00     0.010 A 
ATOM     37  C   UNL A   1      41.662  23.162  28.059  1.00  0.00     0.010 A 
ATOM     38  C   UNL A   1      41.161  24.257  27.338  1.00  0.00    -0.014 A 
BRANCH  38  39
ATOM     39  C   UNL A   1      41.656  25.643  27.556  1.00  0.00     0.031 A 
ATOM     40  C   UNL A   1      40.867  26.625  28.380  1.00  0.00     0.074 A 
ATOM     41  C   UNL A   1      42.868  25.983  27.072  1.00  0.00     0.049 A 
ATOM     42  N   UNL A   1      41.172  27.856  28.703  1.00  0.00    -0.248 NA
ATOM     43  C   UNL A   1      39.568  26.177  28.906  1.00  0.00     0.031 C 
ATOM     44  C   UNL A   1      43.722  25.101  26.275  1.00  0.00     0.029 A 
ATOM     45  N   UNL A   1      43.611  27.128  27.208  1.00  0.00    -0.354 N 
ATOM     46  C   UNL A   1      40.099  28.335  29.448  1.00  0.00     0.074 A 
ATOM     47  C   UNL A   1      39.119  27.274  29.501  1.00  0.00     0.031 C 
ATOM     48  C   UNL A   1      44.898  25.702  26.063  1.00  0.00     0.029 A 
ATOM     49  C   UNL A   1      44.854  27.049  26.622  1.00  0.00     0.049 A 
ATOM     50  H   UNL A   1      43.286  27.930  27.678  1.00  0.00     0.167 HD
ATOM     51  C   UNL A   1      39.957  29.543  30.043  1.00  0.00     0.034 A 
ATOM     52  C   UNL A   1      45.845  27.958  26.530  1.00  0.00     0.034 A 
ATOM     53  C   UNL A   1      40.959  30.578  30.000  1.00  0.00     0.049 A 
ATOM     54  C   UNL A   1      45.649  29.304  27.174  1.00  0.00     0.074 A 
ATOM     55  C   UNL A   1      40.915  31.833  30.580  1.00  0.00     0.029 A 
ATOM     56  N   UNL A   1      42.183  30.481  29.352  1.00  0.00    -0.354 N 
ATOM     57  N   UNL A   1      44.633  29.732  27.887  1.00  0.00    -0.248 NA
ATOM     58  C   UNL A   1      46.720  30.292  27.001  1.00  0.00     0.031 C 
ATOM     59  C   UNL A   1      42.083  32.515  30.236  1.00  0.00     0.029 A 
ATOM     60  C   UNL A   1      42.892  31.662  29.501  1.00  0.00     0.049 A 
ATOM     61  H   UNL A   1      42.500  29.690  28.860  1.00  0.00     0.167 HD
ATOM     62  C   UNL A   1      44.947  31.036  28.257  1.00  0.00     0.074 A 
ATOM     63  C   UNL A   1      46.263  31.314  27.715  1.00  0.00     0.031 C 
ATOM     64  C   UNL A   1      44.209  31.924  28.967  1.00  0.00     0.034 A 
BRANCH  51  65
ATOM     65  C   UNL A   1      38.686  29.833  30.805  1.00  0.00     0.023 A 
ATOM     66  C   UNL A   1      37.718  30.696  30.257  1.00  0.00     0.031 A 
ATOM     67  C   UNL A   1      38.491  29.365  32.117  1.00  0.00     0.131 A 
ATOM     68  C   UNL A   1      36.619  31.094  31.031  1.00  0.00     0.055 A 
ATOM     69  C   UNL A   1      37.374  29.731  32.870  1.00  0.00     0.041 A 
ATOM     70  F   UNL A   1      39.384  28.538  32.685  1.00  0.00    -0.206 F 
ATOM     71  C   UNL A   1      36.439  30.610  32.331  1.00  0.00     0.022 A 
BRANCH  68  72
ATOM     72  S   UNL A   1      35.418  32.301  30.408  1.00  0.00     0.124 S 
ATOM     73  O   UNL A   1      34.445  32.345  31.497  1.00  0.00    -0.237 OA
ATOM     74  O   UNL A   1      36.240  33.499  30.259  1.00  0.00    -0.237 OA
ATOM     75  O   UNL A   1      34.934  31.708  29.167  1.00  0.00    -0.744 OA
ENDBRANCH  68  72
ENDBRANCH  51  65
BRANCH  52  76
ATOM     76  C   UNL A   1      47.109  27.585  25.828  1.00  0.00     0.023 A 
ATOM     77  C   UNL A   1      47.311  27.925  24.477  1.00  0.00     0.031 A 
ATOM     78  C   UNL A   1      48.068  26.772  26.454  1.00  0.00     0.131 A 
ATOM     79  C   UNL A   1      48.391  27.378  23.773  1.00  0.00     0.055 A 
ATOM     80  C   UNL A   1      49.189  26.296  25.770  1.00  0.00     0.041 A 
ATOM     81  F   UNL A   1      47.915  26.410  27.737  1.00  0.00    -0.206 F 
ATOM     82  C   UNL A   1      49.341  26.579  24.415  1.00  0.00     0.022 A 
BRANCH  79  83
ATOM     83  S   UNL A   1      48.503  27.549  21.970  1.00  0.00     0.124 S 
ATOM     84  O   UNL A   1      49.646  28.444  21.819  1.00  0.00    -0.237 OA
ATOM     85  O   UNL A   1      48.722  26.166  21.552  1.00  0.00    -0.237 OA
ATOM     86  O   UNL A   1      47.208  28.109  21.597  1.00  0.00    -0.744 OA
ENDBRANCH  79  83
ENDBRANCH  52  76
BRANCH  64  87
ATOM     87  C   UNL A   1      44.781  33.297  29.219  1.00  0.00     0.023 A 
ATOM     88  C   UNL A   1      44.650  34.303  28.242  1.00  0.00     0.031 A 
ATOM     89  C   UNL A   1      45.586  33.559  30.341  1.00  0.00     0.131 A 
ATOM     90  C   UNL A   1      45.350  35.507  28.384  1.00  0.00     0.055 A 
ATOM     91  C   UNL A   1      46.242  34.779  30.502  1.00  0.00     0.041 A 
ATOM     92  F   UNL A   1      45.751  32.626  31.293  1.00  0.00    -0.206 F 
ATOM     93  C   UNL A   1      46.139  35.754  29.513  1.00  0.00     0.022 A 
BRANCH  90  94
ATOM     94  S   UNL A   1      45.341  36.755  27.068  1.00  0.00     0.124 S 
ATOM     95  O   UNL A   1      46.011  36.049  25.978  1.00  0.00    -0.237 OA
ATOM     96  O   UNL A   1      43.911  36.986  26.875  1.00  0.00    -0.237 OA
ATOM     97  O   UNL A   1      46.086  37.873  27.636  1.00  0.00    -0.744 OA
ENDBRANCH  90  94
ENDBRANCH  64  87
ENDBRANCH  38  39
ENDBRANCH  30  33
ENDBRANCH  28  29
ENDBRANCH   1  28
TORSDOF 17
ENDMDL
