MODEL 1
REMARK VINA RESULT:     -11.2      0.000      0.000
REMARK SMILES C[N@@H+](CC(=O)NCCCNC(=O)c1ccc(-c2c3nc(c(-c4cc(S(=O)(=O)[O-])ccc4F)c4ccc([nH]4)c(-c4cc(S(=O)(=O)[O-])ccc4F)c4nc(c(-c5cc(S(=O)(=O)[O-])ccc5F)c5ccc2[nH]5)C=C4)C=C3)cc1)Cc1cccc2c1OCCO2
REMARK SMILES IDX 8 1 7 2 6 3 4 4 5 5 3 7 2 8 1 9 76 11 77 12 78 13 82 14
REMARK SMILES IDX 79 15 81 16 83 17 80 18 86 19 84 20 85 21 9 22 10 23 11 24
REMARK SMILES IDX 12 26 13 27 14 28 75 29 15 30 74 31 16 32 17 33 18 34 68 35
REMARK SMILES IDX 19 36 73 37 67 38 69 39 20 40 72 41 66 42 65 43 21 45 53 46
REMARK SMILES IDX 33 47 52 48 34 49 37 50 51 51 70 52 35 53 36 54 50 56 71 57
REMARK SMILES IDX 38 58 22 59 23 60 31 61 24 62 30 63 32 64 29 65 25 66 26 67
REMARK SMILES IDX 27 68 28 69 54 70 55 71 63 72 56 73 62 74 64 75 61 76 57 77
REMARK SMILES IDX 58 78 59 79 60 80 39 81 40 82 48 83 41 84 47 85 49 86 46 87
REMARK SMILES IDX 42 88 43 89 44 90 45 91
REMARK H PARENT 6 6 2 10 10 25 69 44 37 55
REMARK Flexibility Score: inf
ROOT
ATOM      1  C   UNL A   1      33.439  28.745  25.126  1.00  0.00     0.042 C 
ENDROOT
BRANCH   1   2
ATOM      2  C   UNL A   1      32.913  27.411  24.558  1.00  0.00     0.118 C 
BRANCH   2   3
ATOM      3  N   UNL A   1      33.490  26.972  23.291  1.00  0.00    -0.351 N 
ATOM      4  C   UNL A   1      33.000  26.231  22.245  1.00  0.00     0.275 C 
ATOM      5  O   UNL A   1      33.717  26.156  21.239  1.00  0.00    -0.269 OA
ATOM      6  H   UNL A   1      34.420  27.266  23.161  1.00  0.00     0.163 HD
BRANCH   4   7
ATOM      7  C   UNL A   1      31.612  25.593  22.254  1.00  0.00     0.363 C 
BRANCH   7   8
ATOM      8  N   UNL A   1      31.533  24.235  22.784  1.00  0.00    -0.326 N 
ATOM      9  C   UNL A   1      30.824  24.046  24.025  1.00  0.00     0.333 C 
ATOM     10  H   UNL A   1      30.837  23.920  22.109  1.00  0.00     0.348 HD
BRANCH   8  11
ATOM     11  C   UNL A   1      32.464  23.200  22.339  1.00  0.00     0.303 C 
BRANCH  11  12
ATOM     12  C   UNL A   1      33.277  22.312  23.270  1.00  0.00     0.052 A 
ATOM     13  C   UNL A   1      32.692  21.109  23.720  1.00  0.00     0.014 A 
ATOM     14  C   UNL A   1      34.521  22.607  23.817  1.00  0.00     0.170 A 
ATOM     15  C   UNL A   1      33.299  20.297  24.696  1.00  0.00     0.005 A 
ATOM     16  C   UNL A   1      35.083  21.860  24.882  1.00  0.00     0.161 A 
ATOM     17  O   UNL A   1      35.300  23.542  23.190  1.00  0.00    -0.486 OA
ATOM     18  C   UNL A   1      34.475  20.700  25.315  1.00  0.00     0.050 A 
ATOM     19  O   UNL A   1      36.301  22.158  25.461  1.00  0.00    -0.486 OA
ATOM     20  C   UNL A   1      36.631  23.043  23.274  1.00  0.00     0.271 C 
ATOM     21  C   UNL A   1      37.028  23.144  24.720  1.00  0.00     0.271 C 
ENDBRANCH  11  12
ENDBRANCH   8  11
ENDBRANCH   7   8
ENDBRANCH   4   7
ENDBRANCH   2   3
ENDBRANCH   1   2
BRANCH   1  22
ATOM     22  C   UNL A   1      33.811  28.831  26.614  1.00  0.00     0.118 C 
BRANCH  22  23
ATOM     23  N   UNL A   1      33.399  29.981  27.375  1.00  0.00    -0.352 N 
ATOM     24  C   UNL A   1      34.238  30.885  28.010  1.00  0.00     0.251 C 
ATOM     25  H   UNL A   1      32.430  30.141  27.454  1.00  0.00     0.163 HD
ATOM     26  O   UNL A   1      33.800  31.985  28.324  1.00  0.00    -0.269 OA
BRANCH  24  27
ATOM     27  C   UNL A   1      35.628  30.508  28.402  1.00  0.00     0.039 A 
ATOM     28  C   UNL A   1      35.768  29.725  29.548  1.00  0.00     0.014 A 
ATOM     29  C   UNL A   1      36.777  30.925  27.721  1.00  0.00     0.014 A 
ATOM     30  C   UNL A   1      37.037  29.322  29.984  1.00  0.00     0.010 A 
ATOM     31  C   UNL A   1      38.050  30.470  28.129  1.00  0.00     0.010 A 
ATOM     32  C   UNL A   1      38.201  29.660  29.269  1.00  0.00    -0.014 A 
BRANCH  32  33
ATOM     33  C   UNL A   1      39.528  29.142  29.746  1.00  0.00     0.031 A 
ATOM     34  C   UNL A   1      40.221  29.719  30.959  1.00  0.00     0.074 A 
ATOM     35  C   UNL A   1      40.110  28.099  29.114  1.00  0.00     0.049 A 
ATOM     36  N   UNL A   1      41.296  29.295  31.580  1.00  0.00    -0.248 NA
ATOM     37  C   UNL A   1      39.644  30.940  31.533  1.00  0.00     0.031 C 
ATOM     38  C   UNL A   1      39.598  27.463  27.900  1.00  0.00     0.029 A 
ATOM     39  N   UNL A   1      41.243  27.373  29.411  1.00  0.00    -0.354 N 
ATOM     40  C   UNL A   1      41.524  30.193  32.620  1.00  0.00     0.074 A 
ATOM     41  C   UNL A   1      40.509  31.221  32.497  1.00  0.00     0.031 C 
ATOM     42  C   UNL A   1      40.380  26.419  27.584  1.00  0.00     0.029 A 
ATOM     43  C   UNL A   1      41.477  26.327  28.545  1.00  0.00     0.049 A 
ATOM     44  H   UNL A   1      41.832  27.583  30.171  1.00  0.00     0.167 HD
ATOM     45  C   UNL A   1      42.467  30.157  33.599  1.00  0.00     0.034 A 
ATOM     46  C   UNL A   1      42.452  25.393  28.516  1.00  0.00     0.034 A 
ATOM     47  C   UNL A   1      43.484  29.134  33.717  1.00  0.00     0.049 A 
ATOM     48  C   UNL A   1      43.504  25.380  29.597  1.00  0.00     0.074 A 
ATOM     49  C   UNL A   1      44.431  28.973  34.715  1.00  0.00     0.029 A 
ATOM     50  N   UNL A   1      43.708  28.117  32.798  1.00  0.00    -0.354 N 
ATOM     51  N   UNL A   1      43.643  26.184  30.625  1.00  0.00    -0.248 NA
ATOM     52  C   UNL A   1      44.524  24.324  29.520  1.00  0.00     0.031 C 
ATOM     53  C   UNL A   1      45.281  27.920  34.355  1.00  0.00     0.029 A 
ATOM     54  C   UNL A   1      44.808  27.358  33.180  1.00  0.00     0.049 A 
ATOM     55  H   UNL A   1      43.166  27.956  31.993  1.00  0.00     0.167 HD
ATOM     56  C   UNL A   1      44.753  25.717  31.328  1.00  0.00     0.074 A 
ATOM     57  C   UNL A   1      45.231  24.549  30.618  1.00  0.00     0.031 C 
ATOM     58  C   UNL A   1      45.314  26.209  32.463  1.00  0.00     0.034 A 
BRANCH  45  59
ATOM     59  C   UNL A   1      42.463  31.287  34.609  1.00  0.00     0.023 A 
ATOM     60  C   UNL A   1      41.501  31.364  35.632  1.00  0.00     0.031 A 
ATOM     61  C   UNL A   1      43.416  32.321  34.531  1.00  0.00     0.131 A 
ATOM     62  C   UNL A   1      41.449  32.493  36.465  1.00  0.00     0.055 A 
ATOM     63  C   UNL A   1      43.418  33.394  35.426  1.00  0.00     0.041 A 
ATOM     64  F   UNL A   1      44.355  32.315  33.571  1.00  0.00    -0.206 F 
ATOM     65  C   UNL A   1      42.417  33.496  36.387  1.00  0.00     0.022 A 
BRANCH  62  66
ATOM     66  S   UNL A   1      39.993  32.718  37.525  1.00  0.00     0.124 S 
ATOM     67  O   UNL A   1      40.583  32.629  38.859  1.00  0.00    -0.237 OA
ATOM     68  O   UNL A   1      39.514  34.036  37.125  1.00  0.00    -0.237 OA
ATOM     69  O   UNL A   1      39.127  31.599  37.160  1.00  0.00    -0.744 OA
ENDBRANCH  62  66
ENDBRANCH  45  59
BRANCH  46  70
ATOM     70  C   UNL A   1      42.496  24.395  27.405  1.00  0.00     0.023 A 
ATOM     71  C   UNL A   1      41.728  23.219  27.437  1.00  0.00     0.031 A 
ATOM     72  C   UNL A   1      43.335  24.603  26.295  1.00  0.00     0.131 A 
ATOM     73  C   UNL A   1      41.837  22.284  26.394  1.00  0.00     0.055 A 
ATOM     74  C   UNL A   1      43.401  23.696  25.237  1.00  0.00     0.041 A 
ATOM     75  F   UNL A   1      44.091  25.709  26.216  1.00  0.00    -0.206 F 
ATOM     76  C   UNL A   1      42.655  22.523  25.286  1.00  0.00     0.022 A 
BRANCH  73  77
ATOM     77  S   UNL A   1      40.938  20.713  26.526  1.00  0.00     0.124 S 
ATOM     78  O   UNL A   1      39.648  21.058  25.939  1.00  0.00    -0.237 OA
ATOM     79  O   UNL A   1      41.779  19.813  25.744  1.00  0.00    -0.237 OA
ATOM     80  O   UNL A   1      40.920  20.451  27.964  1.00  0.00    -0.744 OA
ENDBRANCH  73  77
ENDBRANCH  46  70
BRANCH  58  81
ATOM     81  C   UNL A   1      46.504  25.464  33.029  1.00  0.00     0.023 A 
ATOM     82  C   UNL A   1      47.815  25.692  32.571  1.00  0.00     0.031 A 
ATOM     83  C   UNL A   1      46.322  24.498  34.037  1.00  0.00     0.131 A 
ATOM     84  C   UNL A   1      48.879  24.927  33.076  1.00  0.00     0.055 A 
ATOM     85  C   UNL A   1      47.393  23.789  34.583  1.00  0.00     0.041 A 
ATOM     86  F   UNL A   1      45.095  24.229  34.512  1.00  0.00    -0.206 F 
ATOM     87  C   UNL A   1      48.680  23.991  34.093  1.00  0.00     0.022 A 
BRANCH  84  88
ATOM     88  S   UNL A   1      50.517  25.094  32.312  1.00  0.00     0.124 S 
ATOM     89  O   UNL A   1      50.239  25.988  31.193  1.00  0.00    -0.237 OA
ATOM     90  O   UNL A   1      51.313  25.657  33.397  1.00  0.00    -0.237 OA
ATOM     91  O   UNL A   1      50.863  23.724  31.937  1.00  0.00    -0.744 OA
ENDBRANCH  84  88
ENDBRANCH  58  81
ENDBRANCH  32  33
ENDBRANCH  24  27
ENDBRANCH  22  23
ENDBRANCH   1  22
TORSDOF 16
ENDMDL
MODEL 2
REMARK VINA RESULT:     -11.1      4.803      9.801
REMARK SMILES C[N@@H+](CC(=O)NCCCNC(=O)c1ccc(-c2c3nc(c(-c4cc(S(=O)(=O)[O-])ccc4F)c4ccc([nH]4)c(-c4cc(S(=O)(=O)[O-])ccc4F)c4nc(c(-c5cc(S(=O)(=O)[O-])ccc5F)c5ccc2[nH]5)C=C4)C=C3)cc1)Cc1cccc2c1OCCO2
REMARK SMILES IDX 8 1 7 2 6 3 4 4 5 5 3 7 2 8 1 9 76 11 77 12 78 13 82 14
REMARK SMILES IDX 79 15 81 16 83 17 80 18 86 19 84 20 85 21 9 22 10 23 11 24
REMARK SMILES IDX 12 26 13 27 14 28 75 29 15 30 74 31 16 32 17 33 18 34 68 35
REMARK SMILES IDX 19 36 73 37 67 38 69 39 20 40 72 41 66 42 65 43 21 45 53 46
REMARK SMILES IDX 33 47 52 48 34 49 37 50 51 51 70 52 35 53 36 54 50 56 71 57
REMARK SMILES IDX 38 58 22 59 23 60 31 61 24 62 30 63 32 64 29 65 25 66 26 67
REMARK SMILES IDX 27 68 28 69 54 70 55 71 63 72 56 73 62 74 64 75 61 76 57 77
REMARK SMILES IDX 58 78 59 79 60 80 39 81 40 82 48 83 41 84 47 85 49 86 46 87
REMARK SMILES IDX 42 88 43 89 44 90 45 91
REMARK H PARENT 6 6 2 10 10 25 69 44 37 55
REMARK Flexibility Score: inf
ROOT
ATOM      1  C   UNL A   1      35.435  21.491  26.039  1.00  0.00     0.042 C 
ENDROOT
BRANCH   1   2
ATOM      2  C   UNL A   1      34.306  21.439  24.991  1.00  0.00     0.118 C 
BRANCH   2   3
ATOM      3  N   UNL A   1      34.298  22.502  23.990  1.00  0.00    -0.351 N 
ATOM      4  C   UNL A   1      34.112  23.859  24.066  1.00  0.00     0.275 C 
ATOM      5  O   UNL A   1      34.310  24.501  23.028  1.00  0.00    -0.269 OA
ATOM      6  H   UNL A   1      34.457  22.178  23.074  1.00  0.00     0.163 HD
BRANCH   4   7
ATOM      7  C   UNL A   1      33.764  24.581  25.367  1.00  0.00     0.363 C 
BRANCH   7   8
ATOM      8  N   UNL A   1      32.354  24.582  25.743  1.00  0.00    -0.326 N 
ATOM      9  C   UNL A   1      31.950  23.708  26.816  1.00  0.00     0.333 C 
ATOM     10  H   UNL A   1      32.394  25.480  26.225  1.00  0.00     0.348 HD
BRANCH   8  11
ATOM     11  C   UNL A   1      31.333  25.095  24.830  1.00  0.00     0.303 C 
BRANCH  11  12
ATOM     12  C   UNL A   1      31.008  26.568  24.639  1.00  0.00     0.052 A 
ATOM     13  C   UNL A   1      30.157  26.929  23.573  1.00  0.00     0.014 A 
ATOM     14  C   UNL A   1      31.545  27.633  25.355  1.00  0.00     0.170 A 
ATOM     15  C   UNL A   1      29.917  28.270  23.223  1.00  0.00     0.005 A 
ATOM     16  C   UNL A   1      31.404  28.981  24.939  1.00  0.00     0.161 A 
ATOM     17  O   UNL A   1      32.078  27.381  26.590  1.00  0.00    -0.486 OA
ATOM     18  C   UNL A   1      30.582  29.299  23.877  1.00  0.00     0.050 A 
ATOM     19  O   UNL A   1      31.958  30.049  25.616  1.00  0.00    -0.486 OA
ATOM     20  C   UNL A   1      31.698  28.490  27.399  1.00  0.00     0.271 C 
ATOM     21  C   UNL A   1      32.482  29.669  26.893  1.00  0.00     0.271 C 
ENDBRANCH  11  12
ENDBRANCH   8  11
ENDBRANCH   7   8
ENDBRANCH   4   7
ENDBRANCH   2   3
ENDBRANCH   1   2
BRANCH   1  22
ATOM     22  C   UNL A   1      36.798  22.083  25.645  1.00  0.00     0.118 C 
BRANCH  22  23
ATOM     23  N   UNL A   1      37.934  21.209  25.524  1.00  0.00    -0.352 N 
ATOM     24  C   UNL A   1      39.171  21.388  26.125  1.00  0.00     0.251 C 
ATOM     25  H   UNL A   1      37.824  20.409  24.960  1.00  0.00     0.163 HD
ATOM     26  O   UNL A   1      39.927  20.429  26.231  1.00  0.00    -0.269 OA
BRANCH  24  27
ATOM     27  C   UNL A   1      39.634  22.739  26.558  1.00  0.00     0.039 A 
ATOM     28  C   UNL A   1      40.620  22.780  27.544  1.00  0.00     0.014 A 
ATOM     29  C   UNL A   1      39.112  23.943  26.071  1.00  0.00     0.014 A 
ATOM     30  C   UNL A   1      41.115  24.007  28.006  1.00  0.00     0.010 A 
ATOM     31  C   UNL A   1      39.654  25.176  26.495  1.00  0.00     0.010 A 
ATOM     32  C   UNL A   1      40.666  25.228  27.470  1.00  0.00    -0.014 A 
BRANCH  32  33
ATOM     33  C   UNL A   1      41.283  26.509  27.955  1.00  0.00     0.031 A 
ATOM     34  C   UNL A   1      42.707  26.887  27.621  1.00  0.00     0.074 A 
ATOM     35  C   UNL A   1      40.541  27.384  28.671  1.00  0.00     0.049 A 
ATOM     36  N   UNL A   1      43.341  28.014  27.843  1.00  0.00    -0.248 NA
ATOM     37  C   UNL A   1      43.530  25.858  26.974  1.00  0.00     0.031 C 
ATOM     38  C   UNL A   1      39.169  27.148  29.121  1.00  0.00     0.029 A 
ATOM     39  N   UNL A   1      40.821  28.654  29.128  1.00  0.00    -0.354 N 
ATOM     40  C   UNL A   1      44.635  27.834  27.361  1.00  0.00     0.074 A 
ATOM     41  C   UNL A   1      44.707  26.462  26.898  1.00  0.00     0.031 C 
ATOM     42  C   UNL A   1      38.713  28.247  29.742  1.00  0.00     0.029 A 
ATOM     43  C   UNL A   1      39.767  29.258  29.776  1.00  0.00     0.049 A 
ATOM     44  H   UNL A   1      41.696  29.088  29.003  1.00  0.00     0.167 HD
ATOM     45  C   UNL A   1      45.658  28.726  27.286  1.00  0.00     0.034 A 
ATOM     46  C   UNL A   1      39.646  30.481  30.335  1.00  0.00     0.034 A 
ATOM     47  C   UNL A   1      45.587  30.093  27.755  1.00  0.00     0.049 A 
ATOM     48  C   UNL A   1      40.798  31.452  30.263  1.00  0.00     0.074 A 
ATOM     49  C   UNL A   1      46.544  31.089  27.652  1.00  0.00     0.029 A 
ATOM     50  N   UNL A   1      44.515  30.651  28.439  1.00  0.00    -0.354 N 
ATOM     51  N   UNL A   1      41.981  31.290  29.717  1.00  0.00    -0.248 NA
ATOM     52  C   UNL A   1      40.594  32.774  30.871  1.00  0.00     0.031 C 
ATOM     53  C   UNL A   1      46.091  32.215  28.351  1.00  0.00     0.029 A 
ATOM     54  C   UNL A   1      44.808  31.959  28.808  1.00  0.00     0.049 A 
ATOM     55  H   UNL A   1      43.669  30.188  28.635  1.00  0.00     0.167 HD
ATOM     56  C   UNL A   1      42.652  32.500  29.898  1.00  0.00     0.074 A 
ATOM     57  C   UNL A   1      41.734  33.385  30.583  1.00  0.00     0.031 C 
ATOM     58  C   UNL A   1      43.911  32.842  29.520  1.00  0.00     0.034 A 
BRANCH  45  59
ATOM     59  C   UNL A   1      46.967  28.234  26.699  1.00  0.00     0.023 A 
ATOM     60  C   UNL A   1      47.210  28.249  25.314  1.00  0.00     0.031 A 
ATOM     61  C   UNL A   1      47.974  27.713  27.533  1.00  0.00     0.131 A 
ATOM     62  C   UNL A   1      48.378  27.664  24.799  1.00  0.00     0.055 A 
ATOM     63  C   UNL A   1      49.177  27.221  27.020  1.00  0.00     0.041 A 
ATOM     64  F   UNL A   1      47.802  27.658  28.863  1.00  0.00    -0.206 F 
ATOM     65  C   UNL A   1      49.376  27.174  25.643  1.00  0.00     0.022 A 
BRANCH  62  66
ATOM     66  S   UNL A   1      48.488  27.387  23.009  1.00  0.00     0.124 S 
ATOM     67  O   UNL A   1      47.382  28.205  22.516  1.00  0.00    -0.237 OA
ATOM     68  O   UNL A   1      49.828  27.869  22.698  1.00  0.00    -0.237 OA
ATOM     69  O   UNL A   1      48.293  25.945  22.872  1.00  0.00    -0.744 OA
ENDBRANCH  62  66
ENDBRANCH  45  59
BRANCH  46  70
ATOM     70  C   UNL A   1      38.383  30.857  31.039  1.00  0.00     0.023 A 
ATOM     71  C   UNL A   1      37.352  31.554  30.387  1.00  0.00     0.031 A 
ATOM     72  C   UNL A   1      38.203  30.536  32.397  1.00  0.00     0.131 A 
ATOM     73  C   UNL A   1      36.202  31.932  31.101  1.00  0.00     0.055 A 
ATOM     74  C   UNL A   1      37.037  30.867  33.088  1.00  0.00     0.041 A 
ATOM     75  F   UNL A   1      39.157  29.872  33.068  1.00  0.00    -0.206 F 
ATOM     76  C   UNL A   1      36.030  31.577  32.442  1.00  0.00     0.022 A 
BRANCH  73  77
ATOM     77  S   UNL A   1      34.948  32.948  30.271  1.00  0.00     0.124 S 
ATOM     78  O   UNL A   1      35.753  34.047  29.751  1.00  0.00    -0.237 OA
ATOM     79  O   UNL A   1      34.410  32.021  29.281  1.00  0.00    -0.237 OA
ATOM     80  O   UNL A   1      34.029  33.303  31.351  1.00  0.00    -0.744 OA
ENDBRANCH  73  77
ENDBRANCH  46  70
BRANCH  58  81
ATOM     81  C   UNL A   1      44.367  34.255  29.818  1.00  0.00     0.023 A 
ATOM     82  C   UNL A   1      44.154  35.313  28.916  1.00  0.00     0.031 A 
ATOM     83  C   UNL A   1      45.038  34.544  31.021  1.00  0.00     0.131 A 
ATOM     84  C   UNL A   1      44.657  36.593  29.204  1.00  0.00     0.055 A 
ATOM     85  C   UNL A   1      45.476  35.833  31.331  1.00  0.00     0.041 A 
ATOM     86  F   UNL A   1      45.279  33.576  31.919  1.00  0.00    -0.206 F 
ATOM     87  C   UNL A   1      45.298  36.864  30.414  1.00  0.00     0.022 A 
BRANCH  84  88
ATOM     88  S   UNL A   1      44.556  37.881  27.927  1.00  0.00     0.124 S 
ATOM     89  O   UNL A   1      45.125  37.202  26.768  1.00  0.00    -0.237 OA
ATOM     90  O   UNL A   1      43.123  38.151  27.869  1.00  0.00    -0.237 OA
ATOM     91  O   UNL A   1      45.369  38.967  28.470  1.00  0.00    -0.744 OA
ENDBRANCH  84  88
ENDBRANCH  58  81
ENDBRANCH  32  33
ENDBRANCH  24  27
ENDBRANCH  22  23
ENDBRANCH   1  22
TORSDOF 16
ENDMDL
MODEL 3
REMARK VINA RESULT:     -11.1      2.494      3.224
REMARK SMILES C[N@@H+](CC(=O)NCCCNC(=O)c1ccc(-c2c3nc(c(-c4cc(S(=O)(=O)[O-])ccc4F)c4ccc([nH]4)c(-c4cc(S(=O)(=O)[O-])ccc4F)c4nc(c(-c5cc(S(=O)(=O)[O-])ccc5F)c5ccc2[nH]5)C=C4)C=C3)cc1)Cc1cccc2c1OCCO2
REMARK SMILES IDX 8 1 7 2 6 3 4 4 5 5 3 7 2 8 1 9 76 11 77 12 78 13 82 14
REMARK SMILES IDX 79 15 81 16 83 17 80 18 86 19 84 20 85 21 9 22 10 23 11 24
REMARK SMILES IDX 12 26 13 27 14 28 75 29 15 30 74 31 16 32 17 33 18 34 68 35
REMARK SMILES IDX 19 36 73 37 67 38 69 39 20 40 72 41 66 42 65 43 21 45 53 46
REMARK SMILES IDX 33 47 52 48 34 49 37 50 51 51 70 52 35 53 36 54 50 56 71 57
REMARK SMILES IDX 38 58 22 59 23 60 31 61 24 62 30 63 32 64 29 65 25 66 26 67
REMARK SMILES IDX 27 68 28 69 54 70 55 71 63 72 56 73 62 74 64 75 61 76 57 77
REMARK SMILES IDX 58 78 59 79 60 80 39 81 40 82 48 83 41 84 47 85 49 86 46 87
REMARK SMILES IDX 42 88 43 89 44 90 45 91
REMARK H PARENT 6 6 2 10 10 25 69 44 37 55
REMARK Flexibility Score: inf
ROOT
ATOM      1  C   UNL A   1      32.615  27.938  25.229  1.00  0.00     0.042 C 
ENDROOT
BRANCH   1   2
ATOM      2  C   UNL A   1      33.522  26.692  25.187  1.00  0.00     0.118 C 
BRANCH   2   3
ATOM      3  N   UNL A   1      33.156  25.591  26.073  1.00  0.00    -0.351 N 
ATOM      4  C   UNL A   1      32.215  24.596  25.991  1.00  0.00     0.275 C 
ATOM      5  O   UNL A   1      32.260  23.722  26.866  1.00  0.00    -0.269 OA
ATOM      6  H   UNL A   1      33.693  25.557  26.897  1.00  0.00     0.163 HD
BRANCH   4   7
ATOM      7  C   UNL A   1      31.207  24.493  24.848  1.00  0.00     0.363 C 
BRANCH   7   8
ATOM      8  N   UNL A   1      31.748  24.106  23.548  1.00  0.00    -0.326 N 
ATOM      9  C   UNL A   1      31.742  25.099  22.503  1.00  0.00     0.333 C 
ATOM     10  H   UNL A   1      32.722  24.139  23.847  1.00  0.00     0.348 HD
BRANCH   8  11
ATOM     11  C   UNL A   1      31.887  22.698  23.182  1.00  0.00     0.303 C 
BRANCH  11  12
ATOM     12  C   UNL A   1      32.978  21.774  23.703  1.00  0.00     0.052 A 
ATOM     13  C   UNL A   1      32.653  20.419  23.925  1.00  0.00     0.014 A 
ATOM     14  C   UNL A   1      34.264  22.146  24.084  1.00  0.00     0.170 A 
ATOM     15  C   UNL A   1      33.544  19.524  24.543  1.00  0.00     0.005 A 
ATOM     16  C   UNL A   1      35.122  21.284  24.811  1.00  0.00     0.161 A 
ATOM     17  O   UNL A   1      34.773  23.316  23.592  1.00  0.00    -0.486 OA
ATOM     18  C   UNL A   1      34.765  19.970  25.033  1.00  0.00     0.050 A 
ATOM     19  O   UNL A   1      36.388  21.647  25.229  1.00  0.00    -0.486 OA
ATOM     20  C   UNL A   1      36.144  23.045  23.316  1.00  0.00     0.271 C 
ATOM     21  C   UNL A   1      36.817  22.883  24.650  1.00  0.00     0.271 C 
ENDBRANCH  11  12
ENDBRANCH   8  11
ENDBRANCH   7   8
ENDBRANCH   4   7
ENDBRANCH   2   3
ENDBRANCH   1   2
BRANCH   1  22
ATOM     22  C   UNL A   1      33.248  29.320  25.454  1.00  0.00     0.118 C 
BRANCH  22  23
ATOM     23  N   UNL A   1      32.473  30.353  26.088  1.00  0.00    -0.352 N 
ATOM     24  C   UNL A   1      32.964  31.356  26.910  1.00  0.00     0.251 C 
ATOM     25  H   UNL A   1      31.502  30.347  25.923  1.00  0.00     0.163 HD
ATOM     26  O   UNL A   1      32.283  32.355  27.104  1.00  0.00    -0.269 OA
BRANCH  24  27
ATOM     27  C   UNL A   1      34.260  31.199  27.635  1.00  0.00     0.039 A 
ATOM     28  C   UNL A   1      34.518  29.947  28.196  1.00  0.00     0.014 A 
ATOM     29  C   UNL A   1      35.190  32.228  27.817  1.00  0.00     0.014 A 
ATOM     30  C   UNL A   1      35.712  29.711  28.890  1.00  0.00     0.010 A 
ATOM     31  C   UNL A   1      36.417  31.971  28.466  1.00  0.00     0.010 A 
ATOM     32  C   UNL A   1      36.699  30.707  29.013  1.00  0.00    -0.014 A 
BRANCH  32  33
ATOM     33  C   UNL A   1      37.989  30.375  29.709  1.00  0.00     0.031 A 
ATOM     34  C   UNL A   1      38.279  30.840  31.117  1.00  0.00     0.074 A 
ATOM     35  C   UNL A   1      38.906  29.598  29.090  1.00  0.00     0.049 A 
ATOM     36  N   UNL A   1      39.279  30.523  31.906  1.00  0.00    -0.248 NA
ATOM     37  C   UNL A   1      37.337  31.799  31.705  1.00  0.00     0.031 C 
ATOM     38  C   UNL A   1      38.802  29.112  27.714  1.00  0.00     0.029 A 
ATOM     39  N   UNL A   1      40.094  29.062  29.538  1.00  0.00    -0.354 N 
ATOM     40  C   UNL A   1      39.086  31.239  33.085  1.00  0.00     0.074 A 
ATOM     41  C   UNL A   1      37.909  32.057  32.873  1.00  0.00     0.031 C 
ATOM     42  C   UNL A   1      39.848  28.315  27.447  1.00  0.00     0.029 A 
ATOM     43  C   UNL A   1      40.726  28.259  28.614  1.00  0.00     0.049 A 
ATOM     44  H   UNL A   1      40.458  29.237  30.436  1.00  0.00     0.167 HD
ATOM     45  C   UNL A   1      39.801  31.205  34.240  1.00  0.00     0.034 A 
ATOM     46  C   UNL A   1      41.875  27.553  28.682  1.00  0.00     0.034 A 
ATOM     47  C   UNL A   1      40.981  30.393  34.448  1.00  0.00     0.049 A 
ATOM     48  C   UNL A   1      42.668  27.542  29.965  1.00  0.00     0.074 A 
ATOM     49  C   UNL A   1      41.725  30.235  35.606  1.00  0.00     0.029 A 
ATOM     50  N   UNL A   1      41.608  29.626  33.474  1.00  0.00    -0.354 N 
ATOM     51  N   UNL A   1      42.414  28.154  31.099  1.00  0.00    -0.248 NA
ATOM     52  C   UNL A   1      43.896  26.736  29.981  1.00  0.00     0.031 C 
ATOM     53  C   UNL A   1      42.847  29.451  35.310  1.00  0.00     0.029 A 
ATOM     54  C   UNL A   1      42.755  29.036  33.992  1.00  0.00     0.049 A 
ATOM     55  H   UNL A   1      41.286  29.516  32.551  1.00  0.00     0.167 HD
ATOM     56  C   UNL A   1      43.441  27.786  31.968  1.00  0.00     0.074 A 
ATOM     57  C   UNL A   1      44.304  26.885  31.233  1.00  0.00     0.031 C 
ATOM     58  C   UNL A   1      43.641  28.159  33.259  1.00  0.00     0.034 A 
BRANCH  45  59
ATOM     59  C   UNL A   1      39.341  32.106  35.369  1.00  0.00     0.023 A 
ATOM     60  C   UNL A   1      39.751  33.449  35.460  1.00  0.00     0.031 A 
ATOM     61  C   UNL A   1      38.506  31.609  36.388  1.00  0.00     0.131 A 
ATOM     62  C   UNL A   1      39.412  34.212  36.588  1.00  0.00     0.055 A 
ATOM     63  C   UNL A   1      38.093  32.404  37.460  1.00  0.00     0.041 A 
ATOM     64  F   UNL A   1      38.089  30.333  36.369  1.00  0.00    -0.206 F 
ATOM     65  C   UNL A   1      38.564  33.709  37.576  1.00  0.00     0.022 A 
BRANCH  62  66
ATOM     66  S   UNL A   1      40.246  35.805  36.835  1.00  0.00     0.124 S 
ATOM     67  O   UNL A   1      41.650  35.430  36.677  1.00  0.00    -0.237 OA
ATOM     68  O   UNL A   1      39.681  36.625  35.770  1.00  0.00    -0.237 OA
ATOM     69  O   UNL A   1      39.861  36.188  38.192  1.00  0.00    -0.744 OA
ENDBRANCH  62  66
ENDBRANCH  45  59
BRANCH  46  70
ATOM     70  C   UNL A   1      42.363  26.805  27.484  1.00  0.00     0.023 A 
ATOM     71  C   UNL A   1      42.109  25.434  27.315  1.00  0.00     0.031 A 
ATOM     72  C   UNL A   1      43.117  27.462  26.495  1.00  0.00     0.131 A 
ATOM     73  C   UNL A   1      42.629  24.759  26.197  1.00  0.00     0.055 A 
ATOM     74  C   UNL A   1      43.587  26.800  25.361  1.00  0.00     0.041 A 
ATOM     75  F   UNL A   1      43.389  28.772  26.609  1.00  0.00    -0.206 F 
ATOM     76  C   UNL A   1      43.351  25.437  25.211  1.00  0.00     0.022 A 
BRANCH  73  77
ATOM     77  S   UNL A   1      42.402  22.963  26.072  1.00  0.00     0.124 S 
ATOM     78  O   UNL A   1      43.158  22.486  27.224  1.00  0.00    -0.237 OA
ATOM     79  O   UNL A   1      40.952  22.833  26.156  1.00  0.00    -0.237 OA
ATOM     80  O   UNL A   1      42.979  22.637  24.769  1.00  0.00    -0.744 OA
ENDBRANCH  73  77
ENDBRANCH  46  70
BRANCH  58  81
ATOM     81  C   UNL A   1      44.834  27.565  33.977  1.00  0.00     0.023 A 
ATOM     82  C   UNL A   1      44.753  26.350  34.681  1.00  0.00     0.031 A 
ATOM     83  C   UNL A   1      46.072  28.235  33.967  1.00  0.00     0.131 A 
ATOM     84  C   UNL A   1      45.868  25.874  35.391  1.00  0.00     0.055 A 
ATOM     85  C   UNL A   1      47.195  27.722  34.619  1.00  0.00     0.041 A 
ATOM     86  F   UNL A   1      46.213  29.403  33.320  1.00  0.00    -0.206 F 
ATOM     87  C   UNL A   1      47.094  26.542  35.348  1.00  0.00     0.022 A 
BRANCH  84  88
ATOM     88  S   UNL A   1      45.668  24.422  36.463  1.00  0.00     0.124 S 
ATOM     89  O   UNL A   1      44.228  24.418  36.701  1.00  0.00    -0.237 OA
ATOM     90  O   UNL A   1      46.181  23.343  35.626  1.00  0.00    -0.237 OA
ATOM     91  O   UNL A   1      46.487  24.741  37.631  1.00  0.00    -0.744 OA
ENDBRANCH  84  88
ENDBRANCH  58  81
ENDBRANCH  32  33
ENDBRANCH  24  27
ENDBRANCH  22  23
ENDBRANCH   1  22
TORSDOF 16
ENDMDL
