MODEL 1
REMARK VINA RESULT:     -10.7      0.000      0.000
REMARK SMILES O=C(NCCCNC(=O)[C@@H](F)Oc1ccc(F)c(Cl)c1)c1ccc(-c2c3nc(c(-c4cc(S(=O)(=O)[O-])ccc4F)c4ccc([nH]4)c(-c4cc(S(=O)(=O)[O-])ccc4F)c4nc(c(-c5cc(S(=O)(=O)[O-])ccc5F)c5ccc2[nH]5)C=C4)C=C3)cc1
REMARK SMILES IDX 4 1 3 2 1 3 2 4 21 6 22 7 83 8 23 9 82 10 24 11 25 12 26 13
REMARK SMILES IDX 76 14 27 15 81 16 75 17 77 18 28 19 80 20 74 21 73 22 29 24
REMARK SMILES IDX 61 25 41 26 60 27 42 28 45 29 59 30 78 31 43 32 44 33 58 35
REMARK SMILES IDX 79 36 46 37 30 38 31 39 39 40 32 41 38 42 40 43 37 44 33 45
REMARK SMILES IDX 34 46 35 47 36 48 62 49 63 50 71 51 64 52 70 53 72 54 69 55
REMARK SMILES IDX 65 56 66 57 67 58 68 59 47 60 48 61 56 62 49 63 55 64 57 65
REMARK SMILES IDX 54 66 50 67 51 68 52 69 53 70 5 71 6 72 7 73 8 74 9 76 10 77
REMARK SMILES IDX 11 78 12 79 13 80 14 81 20 82 15 83 18 84 16 85 19 86 17 87
REMARK H PARENT 3 5 77 23 45 34 7 75
REMARK Flexibility Score: inf
ROOT
ATOM      1  C   UNL A   1      33.928  33.827  28.663  1.00  0.00     0.118 C 
ENDROOT
BRANCH   1   2
ATOM      2  N   UNL A   1      33.293  32.792  27.857  1.00  0.00    -0.352 N 
ATOM      3  O   UNL A   1      33.086  30.895  26.667  1.00  0.00    -0.269 OA
ATOM      4  C   UNL A   1      33.742  31.549  27.467  1.00  0.00     0.251 C 
ATOM      5  H   UNL A   1      32.390  33.019  27.536  1.00  0.00     0.163 HD
BRANCH   4   6
ATOM      6  C   UNL A   1      35.022  31.021  27.992  1.00  0.00     0.039 A 
ATOM      7  C   UNL A   1      35.111  29.715  28.475  1.00  0.00     0.014 A 
ATOM      8  C   UNL A   1      36.153  31.843  27.997  1.00  0.00     0.014 A 
ATOM      9  C   UNL A   1      36.257  29.300  29.142  1.00  0.00     0.010 A 
ATOM     10  C   UNL A   1      37.343  31.381  28.569  1.00  0.00     0.010 A 
ATOM     11  C   UNL A   1      37.392  30.122  29.188  1.00  0.00    -0.014 A 
BRANCH  11  12
ATOM     12  C   UNL A   1      38.622  29.639  29.867  1.00  0.00     0.031 A 
ATOM     13  C   UNL A   1      39.000  30.151  31.231  1.00  0.00     0.074 A 
ATOM     14  C   UNL A   1      39.391  28.718  29.255  1.00  0.00     0.049 A 
ATOM     15  N   UNL A   1      40.068  29.898  31.943  1.00  0.00    -0.248 NA
ATOM     16  C   UNL A   1      38.058  31.081  31.869  1.00  0.00     0.031 C 
ATOM     17  C   UNL A   1      39.116  28.134  27.938  1.00  0.00     0.029 A 
ATOM     18  N   UNL A   1      40.552  28.105  29.651  1.00  0.00    -0.354 N 
ATOM     19  C   UNL A   1      39.944  30.658  33.102  1.00  0.00     0.074 A 
ATOM     20  C   UNL A   1      38.709  31.405  32.977  1.00  0.00     0.031 C 
ATOM     21  C   UNL A   1      40.063  27.230  27.651  1.00  0.00     0.029 A 
ATOM     22  C   UNL A   1      41.056  27.231  28.717  1.00  0.00     0.049 A 
ATOM     23  H   UNL A   1      40.983  28.275  30.519  1.00  0.00     0.167 HD
ATOM     24  C   UNL A   1      40.780  30.720  34.170  1.00  0.00     0.034 A 
ATOM     25  C   UNL A   1      42.210  26.537  28.695  1.00  0.00     0.034 A 
ATOM     26  C   UNL A   1      42.006  29.961  34.270  1.00  0.00     0.049 A 
ATOM     27  C   UNL A   1      43.151  26.660  29.859  1.00  0.00     0.074 A 
ATOM     28  C   UNL A   1      42.920  29.928  35.311  1.00  0.00     0.029 A 
ATOM     29  N   UNL A   1      42.498  29.109  33.287  1.00  0.00    -0.354 N 
ATOM     30  N   UNL A   1      43.025  27.389  30.943  1.00  0.00    -0.248 NA
ATOM     31  C   UNL A   1      44.386  25.871  29.800  1.00  0.00     0.031 C 
ATOM     32  C   UNL A   1      43.993  29.114  34.929  1.00  0.00     0.029 A 
ATOM     33  C   UNL A   1      43.714  28.572  33.684  1.00  0.00     0.049 A 
ATOM     34  H   UNL A   1      42.049  28.915  32.433  1.00  0.00     0.167 HD
ATOM     35  C   UNL A   1      44.156  27.129  31.709  1.00  0.00     0.074 A 
ATOM     36  C   UNL A   1      44.949  26.171  30.962  1.00  0.00     0.031 C 
ATOM     37  C   UNL A   1      44.500  27.627  32.923  1.00  0.00     0.034 A 
BRANCH  24  38
ATOM     38  C   UNL A   1      40.422  31.687  35.276  1.00  0.00     0.023 A 
ATOM     39  C   UNL A   1      39.476  31.368  36.267  1.00  0.00     0.031 A 
ATOM     40  C   UNL A   1      40.996  32.971  35.311  1.00  0.00     0.131 A 
ATOM     41  C   UNL A   1      39.065  32.346  37.188  1.00  0.00     0.055 A 
ATOM     42  C   UNL A   1      40.649  33.911  36.285  1.00  0.00     0.041 A 
ATOM     43  F   UNL A   1      41.891  33.345  34.383  1.00  0.00    -0.206 F 
ATOM     44  C   UNL A   1      39.662  33.608  37.218  1.00  0.00     0.022 A 
BRANCH  41  45
ATOM     45  S   UNL A   1      37.615  32.002  38.223  1.00  0.00     0.124 S 
ATOM     46  O   UNL A   1      38.177  32.112  39.568  1.00  0.00    -0.237 OA
ATOM     47  O   UNL A   1      36.690  33.058  37.830  1.00  0.00    -0.237 OA
ATOM     48  O   UNL A   1      37.225  30.650  37.830  1.00  0.00    -0.744 OA
ENDBRANCH  41  45
ENDBRANCH  24  38
BRANCH  25  49
ATOM     49  C   UNL A   1      42.547  25.714  27.501  1.00  0.00     0.023 A 
ATOM     50  C   UNL A   1      42.188  24.361  27.421  1.00  0.00     0.031 A 
ATOM     51  C   UNL A   1      43.212  26.291  26.401  1.00  0.00     0.131 A 
ATOM     52  C   UNL A   1      42.510  23.623  26.270  1.00  0.00     0.055 A 
ATOM     53  C   UNL A   1      43.488  25.565  25.243  1.00  0.00     0.041 A 
ATOM     54  F   UNL A   1      43.566  27.585  26.426  1.00  0.00    -0.206 F 
ATOM     55  C   UNL A   1      43.142  24.220  25.176  1.00  0.00     0.022 A 
BRANCH  52  56
ATOM     56  S   UNL A   1      42.124  21.852  26.235  1.00  0.00     0.124 S 
ATOM     57  O   UNL A   1      42.583  21.422  27.552  1.00  0.00    -0.237 OA
ATOM     58  O   UNL A   1      40.679  21.861  26.032  1.00  0.00    -0.237 OA
ATOM     59  O   UNL A   1      42.906  21.355  25.107  1.00  0.00    -0.744 OA
ENDBRANCH  52  56
ENDBRANCH  25  49
BRANCH  37  60
ATOM     60  C   UNL A   1      45.768  27.099  33.545  1.00  0.00     0.023 A 
ATOM     61  C   UNL A   1      45.804  25.876  34.237  1.00  0.00     0.031 A 
ATOM     62  C   UNL A   1      46.960  27.836  33.435  1.00  0.00     0.131 A 
ATOM     63  C   UNL A   1      47.003  25.445  34.826  1.00  0.00     0.055 A 
ATOM     64  C   UNL A   1      48.160  27.377  33.978  1.00  0.00     0.041 A 
ATOM     65  F   UNL A   1      46.978  29.013  32.789  1.00  0.00    -0.206 F 
ATOM     66  C   UNL A   1      48.184  26.179  34.685  1.00  0.00     0.022 A 
BRANCH  63  67
ATOM     67  S   UNL A   1      46.988  23.938  35.836  1.00  0.00     0.124 S 
ATOM     68  O   UNL A   1      48.261  23.320  35.476  1.00  0.00    -0.237 OA
ATOM     69  O   UNL A   1      46.899  24.470  37.192  1.00  0.00    -0.237 OA
ATOM     70  O   UNL A   1      45.800  23.225  35.371  1.00  0.00    -0.744 OA
ENDBRANCH  63  67
ENDBRANCH  37  60
ENDBRANCH  11  12
ENDBRANCH   4   6
ENDBRANCH   1   2
BRANCH   1  71
ATOM     71  C   UNL A   1      33.105  35.105  28.782  1.00  0.00     0.042 C 
BRANCH  71  72
ATOM     72  C   UNL A   1      33.565  36.046  29.882  1.00  0.00     0.118 C 
BRANCH  72  73
ATOM     73  N   UNL A   1      32.558  36.283  30.903  1.00  0.00    -0.350 N 
ATOM     74  C   UNL A   1      32.727  36.426  32.254  1.00  0.00     0.294 C 
ATOM     75  H   UNL A   1      31.631  36.350  30.580  1.00  0.00     0.163 HD
ATOM     76  O   UNL A   1      31.752  36.824  32.902  1.00  0.00    -0.267 OA
BRANCH  74  77
ATOM     77  C   UNL A   1      34.087  36.160  32.940  1.00  0.00     0.440 C 
ATOM     78  F   UNL A   1      34.160  36.587  34.234  1.00  0.00    -0.191 F 
BRANCH  77  79
ATOM     79  O   UNL A   1      34.569  34.814  32.854  1.00  0.00    -0.452 OA
BRANCH  79  80
ATOM     80  C   UNL A   1      35.929  34.744  32.743  1.00  0.00     0.125 A 
ATOM     81  C   UNL A   1      36.697  34.692  33.907  1.00  0.00     0.050 A 
ATOM     82  C   UNL A   1      36.529  34.660  31.486  1.00  0.00     0.070 A 
ATOM     83  C   UNL A   1      38.088  34.633  33.811  1.00  0.00     0.044 A 
ATOM     84  C   UNL A   1      37.918  34.587  31.395  1.00  0.00     0.080 A 
ATOM     85  C   UNL A   1      38.691  34.586  32.555  1.00  0.00     0.142 A 
ATOM     86  Cl  UNL A   1      38.660  34.496  29.845  1.00  0.00    -0.081 Cl
ATOM     87  F   UNL A   1      40.029  34.535  32.486  1.00  0.00    -0.205 F 
ENDBRANCH  79  80
ENDBRANCH  77  79
ENDBRANCH  74  77
ENDBRANCH  72  73
ENDBRANCH  71  72
ENDBRANCH   1  71
TORSDOF 15
ENDMDL
MODEL 2
REMARK VINA RESULT:     -10.6      3.824      9.762
REMARK SMILES O=C(NCCCNC(=O)[C@@H](F)Oc1ccc(F)c(Cl)c1)c1ccc(-c2c3nc(c(-c4cc(S(=O)(=O)[O-])ccc4F)c4ccc([nH]4)c(-c4cc(S(=O)(=O)[O-])ccc4F)c4nc(c(-c5cc(S(=O)(=O)[O-])ccc5F)c5ccc2[nH]5)C=C4)C=C3)cc1
REMARK SMILES IDX 4 1 3 2 1 3 2 4 21 6 22 7 83 8 23 9 82 10 24 11 25 12 26 13
REMARK SMILES IDX 76 14 27 15 81 16 75 17 77 18 28 19 80 20 74 21 73 22 29 24
REMARK SMILES IDX 61 25 41 26 60 27 42 28 45 29 59 30 78 31 43 32 44 33 58 35
REMARK SMILES IDX 79 36 46 37 30 38 31 39 39 40 32 41 38 42 40 43 37 44 33 45
REMARK SMILES IDX 34 46 35 47 36 48 62 49 63 50 71 51 64 52 70 53 72 54 69 55
REMARK SMILES IDX 65 56 66 57 67 58 68 59 47 60 48 61 56 62 49 63 55 64 57 65
REMARK SMILES IDX 54 66 50 67 51 68 52 69 53 70 5 71 6 72 7 73 8 74 9 76 10 77
REMARK SMILES IDX 11 78 12 79 13 80 14 81 20 82 15 83 18 84 16 85 19 86 17 87
REMARK H PARENT 3 5 77 23 45 34 7 75
REMARK Flexibility Score: inf
ROOT
ATOM      1  C   UNL A   1      32.744  29.599  25.785  1.00  0.00     0.118 C 
ENDROOT
BRANCH   1   2
ATOM      2  N   UNL A   1      32.434  30.959  26.211  1.00  0.00    -0.352 N 
ATOM      3  O   UNL A   1      32.546  32.853  27.418  1.00  0.00    -0.269 OA
ATOM      4  C   UNL A   1      33.067  31.788  27.111  1.00  0.00     0.251 C 
ATOM      5  H   UNL A   1      31.638  31.351  25.783  1.00  0.00     0.163 HD
BRANCH   4   6
ATOM      6  C   UNL A   1      34.354  31.384  27.721  1.00  0.00     0.039 A 
ATOM      7  C   UNL A   1      34.617  30.046  28.013  1.00  0.00     0.014 A 
ATOM      8  C   UNL A   1      35.316  32.358  28.000  1.00  0.00     0.014 A 
ATOM      9  C   UNL A   1      35.738  29.707  28.761  1.00  0.00     0.010 A 
ATOM     10  C   UNL A   1      36.500  31.998  28.653  1.00  0.00     0.010 A 
ATOM     11  C   UNL A   1      36.700  30.676  29.081  1.00  0.00    -0.014 A 
BRANCH  11  12
ATOM     12  C   UNL A   1      37.914  30.282  29.842  1.00  0.00     0.031 A 
ATOM     13  C   UNL A   1      38.928  29.345  29.244  1.00  0.00     0.074 A 
ATOM     14  C   UNL A   1      38.109  30.792  31.074  1.00  0.00     0.049 A 
ATOM     15  N   UNL A   1      40.006  28.838  29.784  1.00  0.00    -0.248 NA
ATOM     16  C   UNL A   1      38.688  28.912  27.861  1.00  0.00     0.031 C 
ATOM     17  C   UNL A   1      37.203  31.723  31.752  1.00  0.00     0.029 A 
ATOM     18  N   UNL A   1      39.127  30.608  31.975  1.00  0.00    -0.354 N 
ATOM     19  C   UNL A   1      40.561  28.002  28.819  1.00  0.00     0.074 A 
ATOM     20  C   UNL A   1      39.677  28.050  27.672  1.00  0.00     0.031 C 
ATOM     21  C   UNL A   1      37.719  32.051  32.945  1.00  0.00     0.029 A 
ATOM     22  C   UNL A   1      38.944  31.289  33.155  1.00  0.00     0.049 A 
ATOM     23  H   UNL A   1      39.911  30.041  31.794  1.00  0.00     0.167 HD
ATOM     24  C   UNL A   1      41.702  27.270  28.886  1.00  0.00     0.034 A 
ATOM     25  C   UNL A   1      39.654  31.274  34.298  1.00  0.00     0.034 A 
ATOM     26  C   UNL A   1      42.568  27.243  30.043  1.00  0.00     0.049 A 
ATOM     27  C   UNL A   1      40.884  30.414  34.375  1.00  0.00     0.074 A 
ATOM     28  C   UNL A   1      43.759  26.557  30.216  1.00  0.00     0.029 A 
ATOM     29  N   UNL A   1      42.331  27.924  31.232  1.00  0.00    -0.354 N 
ATOM     30  N   UNL A   1      41.391  29.623  33.458  1.00  0.00    -0.248 NA
ATOM     31  C   UNL A   1      41.637  30.445  35.633  1.00  0.00     0.031 C 
ATOM     32  C   UNL A   1      44.201  26.766  31.527  1.00  0.00     0.029 A 
ATOM     33  C   UNL A   1      43.334  27.649  32.149  1.00  0.00     0.049 A 
ATOM     34  H   UNL A   1      41.562  28.516  31.398  1.00  0.00     0.167 HD
ATOM     35  C   UNL A   1      42.539  29.077  34.023  1.00  0.00     0.074 A 
ATOM     36  C   UNL A   1      42.649  29.635  35.357  1.00  0.00     0.031 C 
ATOM     37  C   UNL A   1      43.424  28.204  33.482  1.00  0.00     0.034 A 
BRANCH  24  38
ATOM     38  C   UNL A   1      42.036  26.397  27.697  1.00  0.00     0.023 A 
ATOM     39  C   UNL A   1      41.557  25.079  27.584  1.00  0.00     0.031 A 
ATOM     40  C   UNL A   1      42.890  26.870  26.684  1.00  0.00     0.131 A 
ATOM     41  C   UNL A   1      42.009  24.254  26.541  1.00  0.00     0.055 A 
ATOM     42  C   UNL A   1      43.265  26.073  25.600  1.00  0.00     0.041 A 
ATOM     43  F   UNL A   1      43.396  28.112  26.743  1.00  0.00    -0.206 F 
ATOM     44  C   UNL A   1      42.841  24.749  25.534  1.00  0.00     0.022 A 
BRANCH  41  45
ATOM     45  S   UNL A   1      41.637  22.480  26.619  1.00  0.00     0.124 S 
ATOM     46  O   UNL A   1      42.279  21.987  25.402  1.00  0.00    -0.237 OA
ATOM     47  O   UNL A   1      42.262  22.082  27.875  1.00  0.00    -0.237 OA
ATOM     48  O   UNL A   1      40.177  22.434  26.605  1.00  0.00    -0.744 OA
ENDBRANCH  41  45
ENDBRANCH  24  38
BRANCH  25  49
ATOM     49  C   UNL A   1      39.176  32.060  35.469  1.00  0.00     0.023 A 
ATOM     50  C   UNL A   1      38.459  31.455  36.511  1.00  0.00     0.031 A 
ATOM     51  C   UNL A   1      39.462  33.435  35.570  1.00  0.00     0.131 A 
ATOM     52  C   UNL A   1      38.039  32.229  37.606  1.00  0.00     0.055 A 
ATOM     53  C   UNL A   1      39.082  34.188  36.682  1.00  0.00     0.041 A 
ATOM     54  F   UNL A   1      40.155  34.057  34.604  1.00  0.00    -0.206 F 
ATOM     55  C   UNL A   1      38.359  33.585  37.705  1.00  0.00     0.022 A 
BRANCH  52  56
ATOM     56  S   UNL A   1      37.028  31.442  38.890  1.00  0.00     0.124 S 
ATOM     57  O   UNL A   1      37.884  31.574  40.064  1.00  0.00    -0.237 OA
ATOM     58  O   UNL A   1      35.825  32.267  38.877  1.00  0.00    -0.237 OA
ATOM     59  O   UNL A   1      36.851  30.079  38.395  1.00  0.00    -0.744 OA
ENDBRANCH  52  56
ENDBRANCH  25  49
BRANCH  37  60
ATOM     60  C   UNL A   1      44.626  27.841  34.317  1.00  0.00     0.023 A 
ATOM     61  C   UNL A   1      44.625  26.733  35.181  1.00  0.00     0.031 A 
ATOM     62  C   UNL A   1      45.793  28.621  34.238  1.00  0.00     0.131 A 
ATOM     63  C   UNL A   1      45.760  26.457  35.961  1.00  0.00     0.055 A 
ATOM     64  C   UNL A   1      46.935  28.311  34.976  1.00  0.00     0.041 A 
ATOM     65  F   UNL A   1      45.844  29.694  33.431  1.00  0.00    -0.206 F 
ATOM     66  C   UNL A   1      46.920  27.229  35.850  1.00  0.00     0.022 A 
BRANCH  63  67
ATOM     67  S   UNL A   1      45.681  25.110  37.173  1.00  0.00     0.124 S 
ATOM     68  O   UNL A   1      45.568  25.842  38.431  1.00  0.00    -0.237 OA
ATOM     69  O   UNL A   1      44.491  24.378  36.753  1.00  0.00    -0.237 OA
ATOM     70  O   UNL A   1      46.945  24.401  36.980  1.00  0.00    -0.744 OA
ENDBRANCH  63  67
ENDBRANCH  37  60
ENDBRANCH  11  12
ENDBRANCH   4   6
ENDBRANCH   1   2
BRANCH   1  71
ATOM     71  C   UNL A   1      31.747  28.558  26.282  1.00  0.00     0.042 C 
BRANCH  71  72
ATOM     72  C   UNL A   1      31.804  27.233  25.540  1.00  0.00     0.118 C 
BRANCH  72  73
ATOM     73  N   UNL A   1      30.496  26.713  25.179  1.00  0.00    -0.350 N 
ATOM     74  C   UNL A   1      29.777  26.926  24.034  1.00  0.00     0.294 C 
ATOM     75  H   UNL A   1      30.070  26.128  25.846  1.00  0.00     0.163 HD
ATOM     76  O   UNL A   1      28.778  26.218  23.858  1.00  0.00    -0.267 OA
BRANCH  74  77
ATOM     77  C   UNL A   1      30.216  27.964  22.975  1.00  0.00     0.440 C 
ATOM     78  F   UNL A   1      31.206  27.535  22.139  1.00  0.00    -0.191 F 
BRANCH  77  79
ATOM     79  O   UNL A   1      29.158  28.544  22.204  1.00  0.00    -0.452 OA
BRANCH  79  80
ATOM     80  C   UNL A   1      29.022  29.887  22.416  1.00  0.00     0.125 A 
ATOM     81  C   UNL A   1      29.503  30.432  23.608  1.00  0.00     0.050 A 
ATOM     82  C   UNL A   1      28.471  30.704  21.428  1.00  0.00     0.070 A 
ATOM     83  C   UNL A   1      29.360  31.800  23.845  1.00  0.00     0.044 A 
ATOM     84  C   UNL A   1      28.343  32.072  21.664  1.00  0.00     0.080 A 
ATOM     85  C   UNL A   1      28.776  32.611  22.874  1.00  0.00     0.142 A 
ATOM     86  Cl  UNL A   1      27.652  33.078  20.451  1.00  0.00    -0.081 Cl
ATOM     87  F   UNL A   1      28.644  33.921  23.126  1.00  0.00    -0.205 F 
ENDBRANCH  79  80
ENDBRANCH  77  79
ENDBRANCH  74  77
ENDBRANCH  72  73
ENDBRANCH  71  72
ENDBRANCH   1  71
TORSDOF 15
ENDMDL
MODEL 3
REMARK VINA RESULT:     -10.5      6.998     12.632
REMARK SMILES O=C(NCCCNC(=O)[C@@H](F)Oc1ccc(F)c(Cl)c1)c1ccc(-c2c3nc(c(-c4cc(S(=O)(=O)[O-])ccc4F)c4ccc([nH]4)c(-c4cc(S(=O)(=O)[O-])ccc4F)c4nc(c(-c5cc(S(=O)(=O)[O-])ccc5F)c5ccc2[nH]5)C=C4)C=C3)cc1
REMARK SMILES IDX 4 1 3 2 1 3 2 4 21 6 22 7 83 8 23 9 82 10 24 11 25 12 26 13
REMARK SMILES IDX 76 14 27 15 81 16 75 17 77 18 28 19 80 20 74 21 73 22 29 24
REMARK SMILES IDX 61 25 41 26 60 27 42 28 45 29 59 30 78 31 43 32 44 33 58 35
REMARK SMILES IDX 79 36 46 37 30 38 31 39 39 40 32 41 38 42 40 43 37 44 33 45
REMARK SMILES IDX 34 46 35 47 36 48 62 49 63 50 71 51 64 52 70 53 72 54 69 55
REMARK SMILES IDX 65 56 66 57 67 58 68 59 47 60 48 61 56 62 49 63 55 64 57 65
REMARK SMILES IDX 54 66 50 67 51 68 52 69 53 70 5 71 6 72 7 73 8 74 9 76 10 77
REMARK SMILES IDX 11 78 12 79 13 80 14 81 20 82 15 83 18 84 16 85 19 86 17 87
REMARK H PARENT 3 5 77 23 45 34 7 75
REMARK Flexibility Score: inf
ROOT
ATOM      1  C   UNL A   1      36.697  22.213  25.674  1.00  0.00     0.118 C 
ENDROOT
BRANCH   1   2
ATOM      2  N   UNL A   1      37.774  21.241  25.815  1.00  0.00    -0.352 N 
ATOM      3  O   UNL A   1      39.861  20.453  26.105  1.00  0.00    -0.269 OA
ATOM      4  C   UNL A   1      39.090  21.402  26.188  1.00  0.00     0.251 C 
ATOM      5  H   UNL A   1      37.518  20.313  25.607  1.00  0.00     0.163 HD
BRANCH   4   6
ATOM      6  C   UNL A   1      39.576  22.717  26.664  1.00  0.00     0.039 A 
ATOM      7  C   UNL A   1      39.064  23.902  26.134  1.00  0.00     0.014 A 
ATOM      8  C   UNL A   1      40.555  22.767  27.660  1.00  0.00     0.014 A 
ATOM      9  C   UNL A   1      39.665  25.116  26.444  1.00  0.00     0.010 A 
ATOM     10  C   UNL A   1      41.080  24.002  28.056  1.00  0.00     0.010 A 
ATOM     11  C   UNL A   1      40.672  25.184  27.417  1.00  0.00    -0.014 A 
BRANCH  11  12
ATOM     12  C   UNL A   1      41.269  26.500  27.766  1.00  0.00     0.031 A 
ATOM     13  C   UNL A   1      42.686  26.829  27.383  1.00  0.00     0.074 A 
ATOM     14  C   UNL A   1      40.517  27.409  28.418  1.00  0.00     0.049 A 
ATOM     15  N   UNL A   1      43.394  27.893  27.663  1.00  0.00    -0.248 NA
ATOM     16  C   UNL A   1      43.404  25.821  26.591  1.00  0.00     0.031 C 
ATOM     17  C   UNL A   1      39.124  27.209  28.827  1.00  0.00     0.029 A 
ATOM     18  N   UNL A   1      40.807  28.678  28.846  1.00  0.00    -0.354 N 
ATOM     19  C   UNL A   1      44.651  27.673  27.109  1.00  0.00     0.074 A 
ATOM     20  C   UNL A   1      44.613  26.357  26.504  1.00  0.00     0.031 C 
ATOM     21  C   UNL A   1      38.674  28.324  29.419  1.00  0.00     0.029 A 
ATOM     22  C   UNL A   1      39.767  29.284  29.509  1.00  0.00     0.049 A 
ATOM     23  H   UNL A   1      41.677  29.113  28.694  1.00  0.00     0.167 HD
ATOM     24  C   UNL A   1      45.731  28.496  27.103  1.00  0.00     0.034 A 
ATOM     25  C   UNL A   1      39.705  30.462  30.159  1.00  0.00     0.034 A 
ATOM     26  C   UNL A   1      45.741  29.807  27.711  1.00  0.00     0.049 A 
ATOM     27  C   UNL A   1      40.926  31.336  30.191  1.00  0.00     0.074 A 
ATOM     28  C   UNL A   1      46.768  30.735  27.749  1.00  0.00     0.029 A 
ATOM     29  N   UNL A   1      44.675  30.372  28.403  1.00  0.00    -0.354 N 
ATOM     30  N   UNL A   1      42.110  31.111  29.670  1.00  0.00    -0.248 NA
ATOM     31  C   UNL A   1      40.806  32.618  30.893  1.00  0.00     0.031 C 
ATOM     32  C   UNL A   1      46.348  31.826  28.519  1.00  0.00     0.029 A 
ATOM     33  C   UNL A   1      45.030  31.619  28.895  1.00  0.00     0.049 A 
ATOM     34  H   UNL A   1      43.795  29.948  28.525  1.00  0.00     0.167 HD
ATOM     35  C   UNL A   1      42.873  32.237  29.964  1.00  0.00     0.074 A 
ATOM     36  C   UNL A   1      42.010  33.139  30.702  1.00  0.00     0.031 C 
ATOM     37  C   UNL A   1      44.163  32.503  29.641  1.00  0.00     0.034 A 
BRANCH  24  38
ATOM     38  C   UNL A   1      47.000  27.969  26.471  1.00  0.00     0.023 A 
ATOM     39  C   UNL A   1      47.284  28.152  25.106  1.00  0.00     0.031 A 
ATOM     40  C   UNL A   1      47.919  27.226  27.235  1.00  0.00     0.131 A 
ATOM     41  C   UNL A   1      48.399  27.522  24.529  1.00  0.00     0.055 A 
ATOM     42  C   UNL A   1      49.075  26.676  26.674  1.00  0.00     0.041 A 
ATOM     43  F   UNL A   1      47.697  26.999  28.540  1.00  0.00    -0.206 F 
ATOM     44  C   UNL A   1      49.309  26.805  25.309  1.00  0.00     0.022 A 
BRANCH  41  45
ATOM     45  S   UNL A   1      48.542  27.504  22.721  1.00  0.00     0.124 S 
ATOM     46  O   UNL A   1      49.833  28.159  22.517  1.00  0.00    -0.237 OA
ATOM     47  O   UNL A   1      48.495  26.080  22.414  1.00  0.00    -0.237 OA
ATOM     48  O   UNL A   1      47.385  28.279  22.277  1.00  0.00    -0.744 OA
ENDBRANCH  41  45
ENDBRANCH  24  38
BRANCH  25  49
ATOM     49  C   UNL A   1      38.454  30.840  30.872  1.00  0.00     0.023 A 
ATOM     50  C   UNL A   1      37.448  31.584  30.239  1.00  0.00     0.031 A 
ATOM     51  C   UNL A   1      38.238  30.428  32.202  1.00  0.00     0.131 A 
ATOM     52  C   UNL A   1      36.275  31.907  30.941  1.00  0.00     0.055 A 
ATOM     53  C   UNL A   1      37.052  30.713  32.878  1.00  0.00     0.041 A 
ATOM     54  F   UNL A   1      39.166  29.705  32.847  1.00  0.00    -0.206 F 
ATOM     55  C   UNL A   1      36.065  31.463  32.249  1.00  0.00     0.022 A 
BRANCH  52  56
ATOM     56  S   UNL A   1      35.037  32.954  30.131  1.00  0.00     0.124 S 
ATOM     57  O   UNL A   1      35.862  34.032  29.597  1.00  0.00    -0.237 OA
ATOM     58  O   UNL A   1      34.463  32.040  29.148  1.00  0.00    -0.237 OA
ATOM     59  O   UNL A   1      34.144  33.332  31.222  1.00  0.00    -0.744 OA
ENDBRANCH  52  56
ENDBRANCH  25  49
BRANCH  37  60
ATOM     60  C   UNL A   1      44.703  33.854  30.037  1.00  0.00     0.023 A 
ATOM     61  C   UNL A   1      44.581  34.978  29.204  1.00  0.00     0.031 A 
ATOM     62  C   UNL A   1      45.346  34.012  31.278  1.00  0.00     0.131 A 
ATOM     63  C   UNL A   1      45.129  36.206  29.606  1.00  0.00     0.055 A 
ATOM     64  C   UNL A   1      45.843  35.247  31.695  1.00  0.00     0.041 A 
ATOM     65  F   UNL A   1      45.493  32.968  32.109  1.00  0.00    -0.206 F 
ATOM     66  C   UNL A   1      45.743  36.351  30.854  1.00  0.00     0.022 A 
BRANCH  63  67
ATOM     67  S   UNL A   1      45.087  37.604  28.451  1.00  0.00     0.124 S 
ATOM     68  O   UNL A   1      44.279  37.070  27.360  1.00  0.00    -0.237 OA
ATOM     69  O   UNL A   1      44.464  38.653  29.251  1.00  0.00    -0.237 OA
ATOM     70  O   UNL A   1      46.495  37.825  28.128  1.00  0.00    -0.744 OA
ENDBRANCH  63  67
ENDBRANCH  37  60
ENDBRANCH  11  12
ENDBRANCH   4   6
ENDBRANCH   1   2
BRANCH   1  71
ATOM     71  C   UNL A   1      36.079  22.248  24.281  1.00  0.00     0.042 C 
BRANCH  71  72
ATOM     72  C   UNL A   1      34.900  23.196  24.142  1.00  0.00     0.118 C 
BRANCH  72  73
ATOM     73  N   UNL A   1      33.864  22.709  23.247  1.00  0.00    -0.350 N 
ATOM     74  C   UNL A   1      32.865  21.810  23.504  1.00  0.00     0.294 C 
ATOM     75  H   UNL A   1      33.883  23.076  22.334  1.00  0.00     0.163 HD
ATOM     76  O   UNL A   1      31.976  21.700  22.651  1.00  0.00    -0.267 OA
BRANCH  74  77
ATOM     77  C   UNL A   1      32.810  21.003  24.822  1.00  0.00     0.440 C 
ATOM     78  F   UNL A   1      32.388  21.718  25.905  1.00  0.00    -0.191 F 
BRANCH  77  79
ATOM     79  O   UNL A   1      32.095  19.764  24.759  1.00  0.00    -0.452 OA
BRANCH  79  80
ATOM     80  C   UNL A   1      32.917  18.674  24.809  1.00  0.00     0.125 A 
ATOM     81  C   UNL A   1      34.282  18.849  24.573  1.00  0.00     0.050 A 
ATOM     82  C   UNL A   1      32.406  17.423  25.157  1.00  0.00     0.070 A 
ATOM     83  C   UNL A   1      35.133  17.743  24.608  1.00  0.00     0.044 A 
ATOM     84  C   UNL A   1      33.262  16.324  25.205  1.00  0.00     0.080 A 
ATOM     85  C   UNL A   1      34.617  16.486  24.919  1.00  0.00     0.142 A 
ATOM     86  Cl  UNL A   1      32.631  14.778  25.621  1.00  0.00    -0.081 Cl
ATOM     87  F   UNL A   1      35.452  15.437  24.942  1.00  0.00    -0.205 F 
ENDBRANCH  79  80
ENDBRANCH  77  79
ENDBRANCH  74  77
ENDBRANCH  72  73
ENDBRANCH  71  72
ENDBRANCH   1  71
TORSDOF 15
ENDMDL
