MODEL 1
REMARK VINA RESULT:     -11.9      0.000      0.000
REMARK SMILES COc1ccc(/C=N/NC(=O)c2cc(C)nn2C)c(C(=O)NCCCNC(=O)c2ccc(-c3c4nc(c(-c5cc(S(=O)(=O)[O-])ccc5F)c5ccc([nH]5)c(-c5cc(S(=O)(=O)[O-])ccc5F)c5nc(c(-c6cc(S(=O)(=O)[O-])ccc6F)c6ccc3[nH]6)C=C5)C=C4)cc2)c1OC
REMARK SMILES IDX 24 1 23 2 22 3 20 4 21 5 19 7 3 8 4 9 92 10 5 11 6 12 2 13
REMARK SMILES IDX 1 14 93 15 94 16 7 17 8 18 9 19 10 20 11 22 12 23 13 24
REMARK SMILES IDX 17 25 14 26 16 27 18 28 15 29 25 30 26 31 27 32 28 34 29 35
REMARK SMILES IDX 30 36 91 37 31 38 90 39 32 40 33 41 34 42 84 43 35 44 89 45
REMARK SMILES IDX 83 46 85 47 36 48 88 49 82 50 81 51 37 53 69 54 49 55 68 56
REMARK SMILES IDX 50 57 53 58 67 59 86 60 51 61 52 62 66 64 87 65 54 66 38 67
REMARK SMILES IDX 39 68 47 69 40 70 46 71 48 72 45 73 41 74 42 75 43 76 44 77
REMARK SMILES IDX 70 78 71 79 79 80 72 81 78 82 80 83 77 84 73 85 74 86 75 87
REMARK SMILES IDX 76 88 55 89 56 90 64 91 57 92 63 93 65 94 62 95 58 96 59 97
REMARK SMILES IDX 60 98 61 99
REMARK H PARENT 22 6 9 21 26 33 85 52 53 63
REMARK Flexibility Score: inf
ROOT
ATOM      1  C   UNL A   1      37.317  22.187  23.780  1.00  0.00     0.042 C 
ENDROOT
BRANCH   1   2
ATOM      2  C   UNL A   1      36.144  22.924  23.154  1.00  0.00     0.118 C 
BRANCH   2   3
ATOM      3  N   UNL A   1      35.387  23.832  23.996  1.00  0.00    -0.352 N 
ATOM      4  C   UNL A   1      34.402  23.504  24.912  1.00  0.00     0.255 C 
ATOM      5  O   UNL A   1      34.129  24.289  25.818  1.00  0.00    -0.269 OA
ATOM      6  H   UNL A   1      35.599  24.789  23.906  1.00  0.00     0.163 HD
BRANCH   4   7
ATOM      7  C   UNL A   1      33.573  22.288  24.729  1.00  0.00     0.094 A 
ATOM      8  C   UNL A   1      32.923  20.015  25.340  1.00  0.00     0.161 A 
ATOM      9  C   UNL A   1      32.220  19.941  24.126  1.00  0.00     0.051 A 
ATOM     10  C   UNL A   1      33.603  21.205  25.662  1.00  0.00     0.174 A 
ATOM     11  C   UNL A   1      32.100  21.033  23.276  1.00  0.00     0.015 A 
ATOM     12  C   UNL A   1      32.753  22.226  23.580  1.00  0.00     0.011 A 
BRANCH   8  13
ATOM     13  O   UNL A   1      32.762  18.837  26.004  1.00  0.00    -0.493 OA
ATOM     14  C   UNL A   1      32.608  17.600  25.352  1.00  0.00     0.278 C 
ENDBRANCH   8  13
BRANCH  10  15
ATOM     15  O   UNL A   1      34.096  21.499  26.910  1.00  0.00    -0.492 OA
ATOM     16  C   UNL A   1      33.172  21.943  27.900  1.00  0.00     0.278 C 
ENDBRANCH  10  15
BRANCH  12  17
ATOM     17  C   UNL A   1      32.410  23.404  22.726  1.00  0.00     0.142 C 
ATOM     18  N   UNL A   1      31.421  24.181  23.054  1.00  0.00    -0.180 NA
BRANCH  18  19
ATOM     19  N   UNL A   1      31.178  25.334  22.359  1.00  0.00    -0.242 N 
ATOM     20  C   UNL A   1      31.055  26.657  22.745  1.00  0.00     0.289 C 
ATOM     21  H   UNL A   1      31.069  25.193  21.391  1.00  0.00     0.194 HD
ATOM     22  O   UNL A   1      30.579  27.446  21.926  1.00  0.00    -0.266 OA
BRANCH  20  23
ATOM     23  C   UNL A   1      31.533  27.078  24.035  1.00  0.00     0.127 A 
ATOM     24  C   UNL A   1      30.844  27.226  25.227  1.00  0.00     0.059 A 
ATOM     25  N   UNL A   1      32.836  27.379  24.343  1.00  0.00    -0.263 N 
ATOM     26  C   UNL A   1      31.790  27.688  26.160  1.00  0.00     0.060 A 
ATOM     27  N   UNL A   1      33.010  27.765  25.624  1.00  0.00    -0.178 NA
ATOM     28  C   UNL A   1      33.982  27.429  23.465  1.00  0.00     0.174 C 
ATOM     29  C   UNL A   1      31.566  28.072  27.571  1.00  0.00     0.069 C 
ENDBRANCH  20  23
ENDBRANCH  18  19
ENDBRANCH  12  17
ENDBRANCH   4   7
ENDBRANCH   2   3
ENDBRANCH   1   2
BRANCH   1  30
ATOM     30  C   UNL A   1      36.991  21.314  24.985  1.00  0.00     0.118 C 
BRANCH  30  31
ATOM     31  N   UNL A   1      38.039  20.374  25.361  1.00  0.00    -0.352 N 
ATOM     32  C   UNL A   1      39.254  20.495  25.994  1.00  0.00     0.251 C 
ATOM     33  H   UNL A   1      37.832  19.447  25.103  1.00  0.00     0.163 HD
ATOM     34  O   UNL A   1      39.948  19.481  26.084  1.00  0.00    -0.269 OA
BRANCH  32  35
ATOM     35  C   UNL A   1      39.785  21.781  26.514  1.00  0.00     0.039 A 
ATOM     36  C   UNL A   1      40.807  21.738  27.474  1.00  0.00     0.014 A 
ATOM     37  C   UNL A   1      39.286  23.023  26.131  1.00  0.00     0.014 A 
ATOM     38  C   UNL A   1      41.380  22.919  27.963  1.00  0.00     0.010 A 
ATOM     39  C   UNL A   1      39.927  24.197  26.533  1.00  0.00     0.010 A 
ATOM     40  C   UNL A   1      40.987  24.163  27.451  1.00  0.00    -0.014 A 
BRANCH  40  41
ATOM     41  C   UNL A   1      41.657  25.434  27.850  1.00  0.00     0.031 A 
ATOM     42  C   UNL A   1      40.890  26.500  28.592  1.00  0.00     0.074 A 
ATOM     43  C   UNL A   1      42.926  25.677  27.460  1.00  0.00     0.049 A 
ATOM     44  N   UNL A   1      41.235  27.731  28.873  1.00  0.00    -0.248 NA
ATOM     45  C   UNL A   1      39.535  26.142  29.039  1.00  0.00     0.031 C 
ATOM     46  C   UNL A   1      43.770  24.752  26.699  1.00  0.00     0.029 A 
ATOM     47  N   UNL A   1      43.724  26.782  27.631  1.00  0.00    -0.354 N 
ATOM     48  C   UNL A   1      40.128  28.307  29.490  1.00  0.00     0.074 A 
ATOM     49  C   UNL A   1      39.084  27.302  29.490  1.00  0.00     0.031 C 
ATOM     50  C   UNL A   1      44.969  25.319  26.490  1.00  0.00     0.029 A 
ATOM     51  C   UNL A   1      44.966  26.666  27.051  1.00  0.00     0.049 A 
ATOM     52  H   UNL A   1      43.434  27.584  28.125  1.00  0.00     0.167 HD
ATOM     53  C   UNL A   1      39.998  29.548  30.025  1.00  0.00     0.034 A 
ATOM     54  C   UNL A   1      45.982  27.546  26.959  1.00  0.00     0.034 A 
ATOM     55  C   UNL A   1      41.061  30.524  30.058  1.00  0.00     0.049 A 
ATOM     56  C   UNL A   1      45.823  28.913  27.572  1.00  0.00     0.074 A 
ATOM     57  C   UNL A   1      41.061  31.781  30.637  1.00  0.00     0.029 A 
ATOM     58  N   UNL A   1      42.316  30.352  29.487  1.00  0.00    -0.354 N 
ATOM     59  N   UNL A   1      44.780  29.428  28.181  1.00  0.00    -0.248 NA
ATOM     60  C   UNL A   1      46.980  29.813  27.492  1.00  0.00     0.031 C 
ATOM     61  C   UNL A   1      42.293  32.390  30.370  1.00  0.00     0.029 A 
ATOM     62  C   UNL A   1      43.089  31.488  29.683  1.00  0.00     0.049 A 
ATOM     63  H   UNL A   1      42.614  29.543  29.013  1.00  0.00     0.167 HD
ATOM     64  C   UNL A   1      45.169  30.703  28.582  1.00  0.00     0.074 A 
ATOM     65  C   UNL A   1      46.542  30.873  28.157  1.00  0.00     0.031 C 
ATOM     66  C   UNL A   1      44.454  31.647  29.246  1.00  0.00     0.034 A 
BRANCH  53  67
ATOM     67  C   UNL A   1      38.651  29.919  30.601  1.00  0.00     0.023 A 
ATOM     68  C   UNL A   1      37.679  30.588  29.837  1.00  0.00     0.031 A 
ATOM     69  C   UNL A   1      38.345  29.633  31.944  1.00  0.00     0.131 A 
ATOM     70  C   UNL A   1      36.491  31.029  30.441  1.00  0.00     0.055 A 
ATOM     71  C   UNL A   1      37.124  29.996  32.516  1.00  0.00     0.041 A 
ATOM     72  F   UNL A   1      39.237  29.011  32.731  1.00  0.00    -0.206 F 
ATOM     73  C   UNL A   1      36.196  30.715  31.769  1.00  0.00     0.022 A 
BRANCH  70  74
ATOM     74  S   UNL A   1      35.417  32.155  29.510  1.00  0.00     0.124 S 
ATOM     75  O   UNL A   1      36.354  33.210  29.133  1.00  0.00    -0.237 OA
ATOM     76  O   UNL A   1      34.938  31.308  28.424  1.00  0.00    -0.237 OA
ATOM     77  O   UNL A   1      34.405  32.550  30.488  1.00  0.00    -0.744 OA
ENDBRANCH  70  74
ENDBRANCH  53  67
BRANCH  54  78
ATOM     78  C   UNL A   1      47.240  27.175  26.249  1.00  0.00     0.023 A 
ATOM     79  C   UNL A   1      48.248  26.451  26.903  1.00  0.00     0.031 A 
ATOM     80  C   UNL A   1      47.465  27.566  24.917  1.00  0.00     0.131 A 
ATOM     81  C   UNL A   1      49.454  26.177  26.240  1.00  0.00     0.055 A 
ATOM     82  C   UNL A   1      48.646  27.249  24.246  1.00  0.00     0.041 A 
ATOM     83  F   UNL A   1      46.527  28.251  24.243  1.00  0.00    -0.206 F 
ATOM     84  C   UNL A   1      49.656  26.561  24.913  1.00  0.00     0.022 A 
BRANCH  81  85
ATOM     85  S   UNL A   1      50.790  25.371  27.166  1.00  0.00     0.124 S 
ATOM     86  O   UNL A   1      50.079  24.281  27.824  1.00  0.00    -0.237 OA
ATOM     87  O   UNL A   1      51.708  24.988  26.099  1.00  0.00    -0.237 OA
ATOM     88  O   UNL A   1      51.275  26.427  28.052  1.00  0.00    -0.744 OA
ENDBRANCH  81  85
ENDBRANCH  54  78
BRANCH  66  89
ATOM     89  C   UNL A   1      45.171  32.929  29.591  1.00  0.00     0.023 A 
ATOM     90  C   UNL A   1      45.200  34.022  28.709  1.00  0.00     0.031 A 
ATOM     91  C   UNL A   1      45.846  33.049  30.819  1.00  0.00     0.131 A 
ATOM     92  C   UNL A   1      45.934  35.170  29.044  1.00  0.00     0.055 A 
ATOM     93  C   UNL A   1      46.528  34.215  31.171  1.00  0.00     0.041 A 
ATOM     94  F   UNL A   1      45.852  32.035  31.699  1.00  0.00    -0.206 F 
ATOM     95  C   UNL A   1      46.584  35.280  30.275  1.00  0.00     0.022 A 
BRANCH  92  96
ATOM     96  S   UNL A   1      46.095  36.491  27.811  1.00  0.00     0.124 S 
ATOM     97  O   UNL A   1      47.418  37.028  28.112  1.00  0.00    -0.237 OA
ATOM     98  O   UNL A   1      45.975  35.761  26.553  1.00  0.00    -0.237 OA
ATOM     99  O   UNL A   1      44.980  37.385  28.117  1.00  0.00    -0.744 OA
ENDBRANCH  92  96
ENDBRANCH  66  89
ENDBRANCH  40  41
ENDBRANCH  32  35
ENDBRANCH  30  31
ENDBRANCH   1  30
TORSDOF 18
ENDMDL
MODEL 2
REMARK VINA RESULT:     -11.8      1.901      7.719
REMARK SMILES COc1ccc(/C=N/NC(=O)c2cc(C)nn2C)c(C(=O)NCCCNC(=O)c2ccc(-c3c4nc(c(-c5cc(S(=O)(=O)[O-])ccc5F)c5ccc([nH]5)c(-c5cc(S(=O)(=O)[O-])ccc5F)c5nc(c(-c6cc(S(=O)(=O)[O-])ccc6F)c6ccc3[nH]6)C=C5)C=C4)cc2)c1OC
REMARK SMILES IDX 24 1 23 2 22 3 20 4 21 5 19 7 3 8 4 9 92 10 5 11 6 12 2 13
REMARK SMILES IDX 1 14 93 15 94 16 7 17 8 18 9 19 10 20 11 22 12 23 13 24
REMARK SMILES IDX 17 25 14 26 16 27 18 28 15 29 25 30 26 31 27 32 28 34 29 35
REMARK SMILES IDX 30 36 91 37 31 38 90 39 32 40 33 41 34 42 84 43 35 44 89 45
REMARK SMILES IDX 83 46 85 47 36 48 88 49 82 50 81 51 37 53 69 54 49 55 68 56
REMARK SMILES IDX 50 57 53 58 67 59 86 60 51 61 52 62 66 64 87 65 54 66 38 67
REMARK SMILES IDX 39 68 47 69 40 70 46 71 48 72 45 73 41 74 42 75 43 76 44 77
REMARK SMILES IDX 70 78 71 79 79 80 72 81 78 82 80 83 77 84 73 85 74 86 75 87
REMARK SMILES IDX 76 88 55 89 56 90 64 91 57 92 63 93 65 94 62 95 58 96 59 97
REMARK SMILES IDX 60 98 61 99
REMARK H PARENT 22 6 9 21 26 33 85 52 53 63
REMARK Flexibility Score: inf
ROOT
ATOM      1  C   UNL A   1      37.029  22.198  23.963  1.00  0.00     0.042 C 
ENDROOT
BRANCH   1   2
ATOM      2  C   UNL A   1      36.192  23.284  23.307  1.00  0.00     0.118 C 
BRANCH   2   3
ATOM      3  N   UNL A   1      35.276  24.034  24.146  1.00  0.00    -0.352 N 
ATOM      4  C   UNL A   1      34.254  23.530  24.933  1.00  0.00     0.255 C 
ATOM      5  O   UNL A   1      33.824  24.196  25.872  1.00  0.00    -0.269 OA
ATOM      6  H   UNL A   1      35.395  25.011  24.158  1.00  0.00     0.163 HD
BRANCH   4   7
ATOM      7  C   UNL A   1      33.574  22.263  24.569  1.00  0.00     0.094 A 
ATOM      8  C   UNL A   1      33.353  19.833  24.670  1.00  0.00     0.161 A 
ATOM      9  C   UNL A   1      32.455  19.919  23.593  1.00  0.00     0.051 A 
ATOM     10  C   UNL A   1      33.917  21.018  25.182  1.00  0.00     0.174 A 
ATOM     11  C   UNL A   1      32.039  21.138  23.075  1.00  0.00     0.015 A 
ATOM     12  C   UNL A   1      32.573  22.324  23.575  1.00  0.00     0.011 A 
BRANCH   8  13
ATOM     13  O   UNL A   1      33.474  18.525  25.030  1.00  0.00    -0.493 OA
ATOM     14  C   UNL A   1      32.384  17.636  25.075  1.00  0.00     0.278 C 
ENDBRANCH   8  13
BRANCH  10  15
ATOM     15  O   UNL A   1      34.587  21.100  26.379  1.00  0.00    -0.492 OA
ATOM     16  C   UNL A   1      33.818  21.341  27.553  1.00  0.00     0.278 C 
ENDBRANCH  10  15
BRANCH  12  17
ATOM     17  C   UNL A   1      31.926  23.589  23.107  1.00  0.00     0.142 C 
ATOM     18  N   UNL A   1      32.560  24.385  22.299  1.00  0.00    -0.180 NA
BRANCH  18  19
ATOM     19  N   UNL A   1      31.936  25.475  21.760  1.00  0.00    -0.242 N 
ATOM     20  C   UNL A   1      31.455  26.651  22.308  1.00  0.00     0.289 C 
ATOM     21  H   UNL A   1      31.802  25.410  20.787  1.00  0.00     0.194 HD
ATOM     22  O   UNL A   1      30.707  27.339  21.610  1.00  0.00    -0.266 OA
BRANCH  20  23
ATOM     23  C   UNL A   1      31.881  27.061  23.619  1.00  0.00     0.127 A 
ATOM     24  C   UNL A   1      31.256  26.893  24.844  1.00  0.00     0.059 A 
ATOM     25  N   UNL A   1      33.069  27.682  23.914  1.00  0.00    -0.263 N 
ATOM     26  C   UNL A   1      32.097  27.507  25.790  1.00  0.00     0.060 A 
ATOM     27  N   UNL A   1      33.212  27.975  25.224  1.00  0.00    -0.178 NA
ATOM     28  C   UNL A   1      34.099  28.136  23.008  1.00  0.00     0.174 C 
ATOM     29  C   UNL A   1      31.868  27.674  27.242  1.00  0.00     0.069 C 
ENDBRANCH  20  23
ENDBRANCH  18  19
ENDBRANCH  12  17
ENDBRANCH   4   7
ENDBRANCH   2   3
ENDBRANCH   1   2
BRANCH   1  30
ATOM     30  C   UNL A   1      37.419  22.442  25.416  1.00  0.00     0.118 C 
BRANCH  30  31
ATOM     31  N   UNL A   1      38.638  21.767  25.844  1.00  0.00    -0.352 N 
ATOM     32  C   UNL A   1      39.789  22.176  26.476  1.00  0.00     0.251 C 
ATOM     33  H   UNL A   1      38.638  20.806  25.632  1.00  0.00     0.163 HD
ATOM     34  O   UNL A   1      40.682  21.340  26.620  1.00  0.00    -0.269 OA
BRANCH  32  35
ATOM     35  C   UNL A   1      40.024  23.570  26.933  1.00  0.00     0.039 A 
ATOM     36  C   UNL A   1      40.631  23.765  28.183  1.00  0.00     0.014 A 
ATOM     37  C   UNL A   1      39.630  24.689  26.204  1.00  0.00     0.014 A 
ATOM     38  C   UNL A   1      40.922  25.056  28.644  1.00  0.00     0.010 A 
ATOM     39  C   UNL A   1      40.017  25.968  26.609  1.00  0.00     0.010 A 
ATOM     40  C   UNL A   1      40.673  26.171  27.833  1.00  0.00    -0.014 A 
BRANCH  40  41
ATOM     41  C   UNL A   1      41.083  27.550  28.230  1.00  0.00     0.031 A 
ATOM     42  C   UNL A   1      42.538  27.946  28.214  1.00  0.00     0.074 A 
ATOM     43  C   UNL A   1      40.161  28.415  28.701  1.00  0.00     0.049 A 
ATOM     44  N   UNL A   1      43.111  29.025  28.682  1.00  0.00    -0.248 NA
ATOM     45  C   UNL A   1      43.476  26.975  27.630  1.00  0.00     0.031 C 
ATOM     46  C   UNL A   1      38.725  28.147  28.813  1.00  0.00     0.029 A 
ATOM     47  N   UNL A   1      40.295  29.691  29.193  1.00  0.00    -0.354 N 
ATOM     48  C   UNL A   1      44.478  28.846  28.489  1.00  0.00     0.074 A 
ATOM     49  C   UNL A   1      44.645  27.529  27.910  1.00  0.00     0.031 C 
ATOM     50  C   UNL A   1      38.112  29.230  29.318  1.00  0.00     0.029 A 
ATOM     51  C   UNL A   1      39.111  30.249  29.618  1.00  0.00     0.049 A 
ATOM     52  H   UNL A   1      41.158  30.163  29.237  1.00  0.00     0.167 HD
ATOM     53  C   UNL A   1      45.497  29.705  28.749  1.00  0.00     0.034 A 
ATOM     54  C   UNL A   1      38.856  31.436  30.202  1.00  0.00     0.034 A 
ATOM     55  C   UNL A   1      45.312  31.032  29.285  1.00  0.00     0.049 A 
ATOM     56  C   UNL A   1      39.999  32.381  30.468  1.00  0.00     0.074 A 
ATOM     57  C   UNL A   1      46.265  32.010  29.519  1.00  0.00     0.029 A 
ATOM     58  N   UNL A   1      44.091  31.571  29.670  1.00  0.00    -0.354 N 
ATOM     59  N   UNL A   1      41.281  32.208  30.247  1.00  0.00    -0.248 NA
ATOM     60  C   UNL A   1      39.658  33.683  31.055  1.00  0.00     0.031 C 
ATOM     61  C   UNL A   1      45.629  33.116  30.096  1.00  0.00     0.029 A 
ATOM     62  C   UNL A   1      44.269  32.857  30.159  1.00  0.00     0.049 A 
ATOM     63  H   UNL A   1      43.224  31.109  29.606  1.00  0.00     0.167 HD
ATOM     64  C   UNL A   1      41.895  33.392  30.642  1.00  0.00     0.074 A 
ATOM     65  C   UNL A   1      40.844  34.274  31.102  1.00  0.00     0.031 C 
ATOM     66  C   UNL A   1      43.212  33.723  30.623  1.00  0.00     0.034 A 
BRANCH  53  67
ATOM     67  C   UNL A   1      46.902  29.221  28.471  1.00  0.00     0.023 A 
ATOM     68  C   UNL A   1      47.360  28.994  27.162  1.00  0.00     0.031 A 
ATOM     69  C   UNL A   1      47.785  28.948  29.531  1.00  0.00     0.131 A 
ATOM     70  C   UNL A   1      48.625  28.424  26.950  1.00  0.00     0.055 A 
ATOM     71  C   UNL A   1      49.076  28.464  29.309  1.00  0.00     0.041 A 
ATOM     72  F   UNL A   1      47.402  29.129  30.805  1.00  0.00    -0.206 F 
ATOM     73  C   UNL A   1      49.497  28.181  28.013  1.00  0.00     0.022 A 
BRANCH  70  74
ATOM     74  S   UNL A   1      49.046  27.857  25.279  1.00  0.00     0.124 S 
ATOM     75  O   UNL A   1      50.276  28.600  25.018  1.00  0.00    -0.237 OA
ATOM     76  O   UNL A   1      49.196  26.418  25.465  1.00  0.00    -0.237 OA
ATOM     77  O   UNL A   1      47.896  28.268  24.478  1.00  0.00    -0.744 OA
ENDBRANCH  70  74
ENDBRANCH  53  67
BRANCH  54  78
ATOM     78  C   UNL A   1      37.463  31.803  30.589  1.00  0.00     0.023 A 
ATOM     79  C   UNL A   1      36.605  32.435  29.676  1.00  0.00     0.031 A 
ATOM     80  C   UNL A   1      36.981  31.555  31.887  1.00  0.00     0.131 A 
ATOM     81  C   UNL A   1      35.325  32.838  30.084  1.00  0.00     0.055 A 
ATOM     82  C   UNL A   1      35.689  31.914  32.273  1.00  0.00     0.041 A 
ATOM     83  F   UNL A   1      37.758  30.943  32.795  1.00  0.00    -0.206 F 
ATOM     84  C   UNL A   1      34.856  32.571  31.373  1.00  0.00     0.022 A 
BRANCH  81  85
ATOM     85  S   UNL A   1      34.301  33.784  28.923  1.00  0.00     0.124 S 
ATOM     86  O   UNL A   1      35.267  34.730  28.377  1.00  0.00    -0.237 OA
ATOM     87  O   UNL A   1      33.837  32.742  28.013  1.00  0.00    -0.237 OA
ATOM     88  O   UNL A   1      33.268  34.366  29.777  1.00  0.00    -0.744 OA
ENDBRANCH  81  85
ENDBRANCH  54  78
BRANCH  66  89
ATOM     89  C   UNL A   1      43.574  35.117  31.070  1.00  0.00     0.023 A 
ATOM     90  C   UNL A   1      43.585  36.202  30.177  1.00  0.00     0.031 A 
ATOM     91  C   UNL A   1      43.926  35.357  32.411  1.00  0.00     0.131 A 
ATOM     92  C   UNL A   1      43.992  37.469  30.623  1.00  0.00     0.055 A 
ATOM     93  C   UNL A   1      44.276  36.631  32.861  1.00  0.00     0.041 A 
ATOM     94  F   UNL A   1      43.933  34.356  33.305  1.00  0.00    -0.206 F 
ATOM     95  C   UNL A   1      44.322  37.693  31.962  1.00  0.00     0.022 A 
BRANCH  92  96
ATOM     96  S   UNL A   1      44.164  38.806  29.409  1.00  0.00     0.124 S 
ATOM     97  O   UNL A   1      43.326  38.331  28.313  1.00  0.00    -0.237 OA
ATOM     98  O   UNL A   1      43.659  39.961  30.143  1.00  0.00    -0.237 OA
ATOM     99  O   UNL A   1      45.598  38.831  29.127  1.00  0.00    -0.744 OA
ENDBRANCH  92  96
ENDBRANCH  66  89
ENDBRANCH  40  41
ENDBRANCH  32  35
ENDBRANCH  30  31
ENDBRANCH   1  30
TORSDOF 18
ENDMDL
MODEL 3
REMARK VINA RESULT:     -11.7      1.854      2.151
REMARK SMILES COc1ccc(/C=N/NC(=O)c2cc(C)nn2C)c(C(=O)NCCCNC(=O)c2ccc(-c3c4nc(c(-c5cc(S(=O)(=O)[O-])ccc5F)c5ccc([nH]5)c(-c5cc(S(=O)(=O)[O-])ccc5F)c5nc(c(-c6cc(S(=O)(=O)[O-])ccc6F)c6ccc3[nH]6)C=C5)C=C4)cc2)c1OC
REMARK SMILES IDX 24 1 23 2 22 3 20 4 21 5 19 7 3 8 4 9 92 10 5 11 6 12 2 13
REMARK SMILES IDX 1 14 93 15 94 16 7 17 8 18 9 19 10 20 11 22 12 23 13 24
REMARK SMILES IDX 17 25 14 26 16 27 18 28 15 29 25 30 26 31 27 32 28 34 29 35
REMARK SMILES IDX 30 36 91 37 31 38 90 39 32 40 33 41 34 42 84 43 35 44 89 45
REMARK SMILES IDX 83 46 85 47 36 48 88 49 82 50 81 51 37 53 69 54 49 55 68 56
REMARK SMILES IDX 50 57 53 58 67 59 86 60 51 61 52 62 66 64 87 65 54 66 38 67
REMARK SMILES IDX 39 68 47 69 40 70 46 71 48 72 45 73 41 74 42 75 43 76 44 77
REMARK SMILES IDX 70 78 71 79 79 80 72 81 78 82 80 83 77 84 73 85 74 86 75 87
REMARK SMILES IDX 76 88 55 89 56 90 64 91 57 92 63 93 65 94 62 95 58 96 59 97
REMARK SMILES IDX 60 98 61 99
REMARK H PARENT 22 6 9 21 26 33 85 52 53 63
REMARK Flexibility Score: inf
ROOT
ATOM      1  C   UNL A   1      37.400  22.279  23.812  1.00  0.00     0.042 C 
ENDROOT
BRANCH   1   2
ATOM      2  C   UNL A   1      36.222  22.956  23.131  1.00  0.00     0.118 C 
BRANCH   2   3
ATOM      3  N   UNL A   1      35.465  23.930  23.895  1.00  0.00    -0.352 N 
ATOM      4  C   UNL A   1      34.363  23.694  24.700  1.00  0.00     0.255 C 
ATOM      5  O   UNL A   1      34.067  24.501  25.578  1.00  0.00    -0.269 OA
ATOM      6  H   UNL A   1      35.771  24.864  23.836  1.00  0.00     0.163 HD
BRANCH   4   7
ATOM      7  C   UNL A   1      33.452  22.557  24.421  1.00  0.00     0.094 A 
ATOM      8  C   UNL A   1      32.649  20.290  24.842  1.00  0.00     0.161 A 
ATOM      9  C   UNL A   1      31.940  20.368  23.632  1.00  0.00     0.051 A 
ATOM     10  C   UNL A   1      33.409  21.400  25.259  1.00  0.00     0.174 A 
ATOM     11  C   UNL A   1      31.894  21.534  22.878  1.00  0.00     0.015 A 
ATOM     12  C   UNL A   1      32.627  22.650  23.278  1.00  0.00     0.011 A 
BRANCH   8  13
ATOM     13  O   UNL A   1      32.409  19.073  25.406  1.00  0.00    -0.493 OA
ATOM     14  C   UNL A   1      33.257  17.964  25.233  1.00  0.00     0.278 C 
ENDBRANCH   8  13
BRANCH  10  15
ATOM     15  O   UNL A   1      33.924  21.552  26.524  1.00  0.00    -0.492 OA
ATOM     16  C   UNL A   1      33.023  21.913  27.566  1.00  0.00     0.278 C 
ENDBRANCH  10  15
BRANCH  12  17
ATOM     17  C   UNL A   1      32.364  23.917  22.530  1.00  0.00     0.142 C 
ATOM     18  N   UNL A   1      31.296  24.612  22.781  1.00  0.00    -0.180 NA
BRANCH  18  19
ATOM     19  N   UNL A   1      31.107  25.837  22.202  1.00  0.00    -0.242 N 
ATOM     20  C   UNL A   1      31.061  27.122  22.712  1.00  0.00     0.289 C 
ATOM     21  H   UNL A   1      30.979  25.794  21.227  1.00  0.00     0.194 HD
ATOM     22  O   UNL A   1      30.619  28.009  21.979  1.00  0.00    -0.266 OA
BRANCH  20  23
ATOM     23  C   UNL A   1      31.578  27.394  24.027  1.00  0.00     0.127 A 
ATOM     24  C   UNL A   1      30.918  27.438  25.244  1.00  0.00     0.059 A 
ATOM     25  N   UNL A   1      32.896  27.622  24.334  1.00  0.00    -0.263 N 
ATOM     26  C   UNL A   1      31.896  27.772  26.197  1.00  0.00     0.060 A 
ATOM     27  N   UNL A   1      33.108  27.869  25.644  1.00  0.00    -0.178 NA
ATOM     28  C   UNL A   1      34.026  27.728  23.440  1.00  0.00     0.174 C 
ATOM     29  C   UNL A   1      31.713  28.015  27.645  1.00  0.00     0.069 C 
ENDBRANCH  20  23
ENDBRANCH  18  19
ENDBRANCH  12  17
ENDBRANCH   4   7
ENDBRANCH   2   3
ENDBRANCH   1   2
BRANCH   1  30
ATOM     30  C   UNL A   1      37.074  21.463  25.057  1.00  0.00     0.118 C 
BRANCH  30  31
ATOM     31  N   UNL A   1      38.120  20.539  25.474  1.00  0.00    -0.352 N 
ATOM     32  C   UNL A   1      39.327  20.685  26.118  1.00  0.00     0.251 C 
ATOM     33  H   UNL A   1      37.920  19.604  25.243  1.00  0.00     0.163 HD
ATOM     34  O   UNL A   1      40.024  19.677  26.248  1.00  0.00    -0.269 OA
BRANCH  32  35
ATOM     35  C   UNL A   1      39.847  21.989  26.604  1.00  0.00     0.039 A 
ATOM     36  C   UNL A   1      40.861  21.979  27.574  1.00  0.00     0.014 A 
ATOM     37  C   UNL A   1      39.345  23.216  26.181  1.00  0.00     0.014 A 
ATOM     38  C   UNL A   1      41.424  23.177  28.033  1.00  0.00     0.010 A 
ATOM     39  C   UNL A   1      39.977  24.405  26.553  1.00  0.00     0.010 A 
ATOM     40  C   UNL A   1      41.029  24.404  27.481  1.00  0.00    -0.014 A 
BRANCH  40  41
ATOM     41  C   UNL A   1      41.689  25.690  27.848  1.00  0.00     0.031 A 
ATOM     42  C   UNL A   1      40.931  26.743  28.617  1.00  0.00     0.074 A 
ATOM     43  C   UNL A   1      42.936  25.956  27.406  1.00  0.00     0.049 A 
ATOM     44  N   UNL A   1      41.262  27.982  28.878  1.00  0.00    -0.248 NA
ATOM     45  C   UNL A   1      39.602  26.360  29.119  1.00  0.00     0.031 C 
ATOM     46  C   UNL A   1      43.767  25.045  26.615  1.00  0.00     0.029 A 
ATOM     47  N   UNL A   1      43.718  27.077  27.541  1.00  0.00    -0.354 N 
ATOM     48  C   UNL A   1      40.169  28.539  29.538  1.00  0.00     0.074 A 
ATOM     49  C   UNL A   1      39.147  27.514  29.583  1.00  0.00     0.031 C 
ATOM     50  C   UNL A   1      44.945  25.634  26.356  1.00  0.00     0.029 A 
ATOM     51  C   UNL A   1      44.938  26.983  26.911  1.00  0.00     0.049 A 
ATOM     52  H   UNL A   1      43.432  27.876  28.043  1.00  0.00     0.167 HD
ATOM     53  C   UNL A   1      40.037  29.779  30.073  1.00  0.00     0.034 A 
ATOM     54  C   UNL A   1      45.931  27.883  26.775  1.00  0.00     0.034 A 
ATOM     55  C   UNL A   1      41.080  30.776  30.059  1.00  0.00     0.049 A 
ATOM     56  C   UNL A   1      45.769  29.250  27.389  1.00  0.00     0.074 A 
ATOM     57  C   UNL A   1      41.078  32.036  30.634  1.00  0.00     0.029 A 
ATOM     58  N   UNL A   1      42.314  30.627  29.439  1.00  0.00    -0.354 N 
ATOM     59  N   UNL A   1      44.742  29.746  28.038  1.00  0.00    -0.248 NA
ATOM     60  C   UNL A   1      46.904  30.172  27.259  1.00  0.00     0.031 C 
ATOM     61  C   UNL A   1      42.286  32.668  30.315  1.00  0.00     0.029 A 
ATOM     62  C   UNL A   1      43.071  31.779  29.599  1.00  0.00     0.049 A 
ATOM     63  H   UNL A   1      42.610  29.822  28.956  1.00  0.00     0.167 HD
ATOM     64  C   UNL A   1      45.121  31.030  28.418  1.00  0.00     0.074 A 
ATOM     65  C   UNL A   1      46.472  31.225  27.938  1.00  0.00     0.031 C 
ATOM     66  C   UNL A   1      44.415  31.963  29.107  1.00  0.00     0.034 A 
BRANCH  53  67
ATOM     67  C   UNL A   1      38.706  30.126  30.701  1.00  0.00     0.023 A 
ATOM     68  C   UNL A   1      37.706  30.807  29.986  1.00  0.00     0.031 A 
ATOM     69  C   UNL A   1      38.447  29.804  32.046  1.00  0.00     0.131 A 
ATOM     70  C   UNL A   1      36.536  31.224  30.640  1.00  0.00     0.055 A 
ATOM     71  C   UNL A   1      37.242  30.144  32.666  1.00  0.00     0.041 A 
ATOM     72  F   UNL A   1      39.368  29.168  32.787  1.00  0.00    -0.206 F 
ATOM     73  C   UNL A   1      36.286  30.875  31.969  1.00  0.00     0.022 A 
BRANCH  70  74
ATOM     74  S   UNL A   1      35.425  32.366  29.773  1.00  0.00     0.124 S 
ATOM     75  O   UNL A   1      34.429  32.645  30.805  1.00  0.00    -0.237 OA
ATOM     76  O   UNL A   1      36.314  33.469  29.428  1.00  0.00    -0.237 OA
ATOM     77  O   UNL A   1      34.938  31.578  28.643  1.00  0.00    -0.744 OA
ENDBRANCH  70  74
ENDBRANCH  53  67
BRANCH  54  78
ATOM     78  C   UNL A   1      47.167  27.534  26.016  1.00  0.00     0.023 A 
ATOM     79  C   UNL A   1      47.274  27.817  24.646  1.00  0.00     0.031 A 
ATOM     80  C   UNL A   1      48.245  26.885  26.644  1.00  0.00     0.131 A 
ATOM     81  C   UNL A   1      48.415  27.413  23.937  1.00  0.00     0.055 A 
ATOM     82  C   UNL A   1      49.398  26.529  25.944  1.00  0.00     0.041 A 
ATOM     83  F   UNL A   1      48.196  26.601  27.956  1.00  0.00    -0.206 F 
ATOM     84  C   UNL A   1      49.483  26.781  24.578  1.00  0.00     0.022 A 
BRANCH  81  85
ATOM     85  S   UNL A   1      48.453  27.662  22.141  1.00  0.00     0.124 S 
ATOM     86  O   UNL A   1      47.142  28.250  21.894  1.00  0.00    -0.237 OA
ATOM     87  O   UNL A   1      49.597  28.555  21.984  1.00  0.00    -0.237 OA
ATOM     88  O   UNL A   1      48.644  26.313  21.614  1.00  0.00    -0.744 OA
ENDBRANCH  81  85
ENDBRANCH  54  78
BRANCH  66  89
ATOM     89  C   UNL A   1      45.119  33.261  29.418  1.00  0.00     0.023 A 
ATOM     90  C   UNL A   1      45.895  33.422  30.579  1.00  0.00     0.031 A 
ATOM     91  C   UNL A   1      44.997  34.355  28.544  1.00  0.00     0.131 A 
ATOM     92  C   UNL A   1      46.477  34.667  30.861  1.00  0.00     0.055 A 
ATOM     93  C   UNL A   1      45.625  35.575  28.802  1.00  0.00     0.041 A 
ATOM     94  F   UNL A   1      44.267  34.256  27.422  1.00  0.00    -0.206 F 
ATOM     95  C   UNL A   1      46.361  35.739  29.973  1.00  0.00     0.022 A 
BRANCH  92  96
ATOM     96  S   UNL A   1      47.324  34.892  32.450  1.00  0.00     0.124 S 
ATOM     97  O   UNL A   1      47.485  36.341  32.506  1.00  0.00    -0.237 OA
ATOM     98  O   UNL A   1      46.373  34.319  33.395  1.00  0.00    -0.237 OA
ATOM     99  O   UNL A   1      48.565  34.137  32.287  1.00  0.00    -0.744 OA
ENDBRANCH  92  96
ENDBRANCH  66  89
ENDBRANCH  40  41
ENDBRANCH  32  35
ENDBRANCH  30  31
ENDBRANCH   1  30
TORSDOF 18
ENDMDL
