MODEL 1
REMARK VINA RESULT:     -11.7      0.000      0.000
REMARK SMILES O=C(C[NH2+][C@H]1CCCC[C@H]1[N@@H+](Cc1ccccc1)C1CC1)NCCCNC(=O)c1ccc(-c2c3nc(c(-c4cc(S(=O)(=O)[O-])ccc4F)c4ccc([nH]4)c(-c4cc(S(=O)(=O)[O-])ccc4F)c4nc(c(-c5cc(S(=O)(=O)[O-])ccc5F)c5ccc2[nH]5)C=C4)C=C3)cc1
REMARK SMILES IDX 23 1 22 2 1 3 2 4 3 6 4 7 5 10 6 11 10 12 7 13 9 14 8 15
REMARK SMILES IDX 11 16 12 18 13 19 14 20 18 21 15 22 17 23 16 24 19 25 20 26
REMARK SMILES IDX 21 27 24 28 25 29 26 30 27 31 28 33 29 34 30 35 91 36 31 37
REMARK SMILES IDX 90 38 32 39 33 40 34 41 84 42 35 43 89 44 83 45 85 46 36 47
REMARK SMILES IDX 88 48 82 49 81 50 37 52 69 53 49 54 68 55 50 56 53 57 67 58
REMARK SMILES IDX 86 59 51 60 52 61 66 63 87 64 54 65 38 66 39 67 47 68 40 69
REMARK SMILES IDX 46 70 48 71 45 72 41 73 42 74 43 75 44 76 70 77 71 78 79 79
REMARK SMILES IDX 72 80 78 81 80 82 77 83 73 84 74 85 75 86 76 87 55 88 56 89
REMARK SMILES IDX 64 90 57 91 63 92 65 93 62 94 58 95 59 96 60 97 61 98
REMARK H PARENT 22 5 4 8 4 9 11 17 26 32 85 51 53 62
REMARK Flexibility Score: inf
ROOT
ATOM      1  C   UNL A   1      31.272  26.867  25.404  1.00  0.00     0.118 C 
ENDROOT
BRANCH   1   2
ATOM      2  N   UNL A   1      32.387  26.303  24.660  1.00  0.00    -0.351 N 
ATOM      3  O   UNL A   1      31.408  26.125  22.594  1.00  0.00    -0.269 OA
ATOM      4  C   UNL A   1      32.389  25.980  23.321  1.00  0.00     0.275 C 
ATOM      5  H   UNL A   1      33.219  26.138  25.160  1.00  0.00     0.163 HD
BRANCH   4   6
ATOM      6  C   UNL A   1      33.705  25.351  22.779  1.00  0.00     0.362 C 
BRANCH   6   7
ATOM      7  N   UNL A   1      34.442  24.555  23.805  1.00  0.00    -0.331 N 
ATOM      8  H   UNL A   1      33.894  24.543  24.666  1.00  0.00     0.347 HD
ATOM      9  H   UNL A   1      35.350  24.997  23.949  1.00  0.00     0.347 HD
BRANCH   7  10
ATOM     10  C   UNL A   1      34.682  23.150  23.367  1.00  0.00     0.241 C 
ATOM     11  C   UNL A   1      36.216  22.980  23.160  1.00  0.00     0.071 C 
ATOM     12  C   UNL A   1      34.133  21.936  24.290  1.00  0.00     0.243 C 
ATOM     13  C   UNL A   1      36.991  22.829  24.469  1.00  0.00     0.007 C 
ATOM     14  C   UNL A   1      35.040  21.679  25.513  1.00  0.00     0.071 C 
ATOM     15  C   UNL A   1      36.525  21.589  25.199  1.00  0.00     0.007 C 
BRANCH  12  16
ATOM     16  N   UNL A   1      32.667  21.760  24.567  1.00  0.00    -0.321 N 
ATOM     17  H   UNL A   1      32.481  21.917  23.576  1.00  0.00     0.349 HD
BRANCH  16  18
ATOM     18  C   UNL A   1      32.278  20.427  25.097  1.00  0.00     0.299 C 
BRANCH  18  19
ATOM     19  C   UNL A   1      32.826  19.168  24.414  1.00  0.00     0.006 A 
ATOM     20  C   UNL A   1      33.796  18.315  24.967  1.00  0.00     0.009 A 
ATOM     21  C   UNL A   1      32.358  18.846  23.132  1.00  0.00     0.009 A 
ATOM     22  C   UNL A   1      34.362  17.263  24.249  1.00  0.00     0.001 A 
ATOM     23  C   UNL A   1      32.895  17.768  22.417  1.00  0.00     0.001 A 
ATOM     24  C   UNL A   1      33.918  16.997  22.964  1.00  0.00     0.000 A 
ENDBRANCH  18  19
ENDBRANCH  16  18
BRANCH  16  25
ATOM     25  C   UNL A   1      31.776  22.774  25.140  1.00  0.00     0.185 C 
ATOM     26  C   UNL A   1      30.673  22.474  26.083  1.00  0.00     0.071 C 
ATOM     27  C   UNL A   1      31.917  23.219  26.542  1.00  0.00     0.071 C 
ENDBRANCH  16  25
ENDBRANCH  12  16
ENDBRANCH   7  10
ENDBRANCH   6   7
ENDBRANCH   4   6
ENDBRANCH   1   2
BRANCH   1  28
ATOM     28  C   UNL A   1      31.584  28.074  26.306  1.00  0.00     0.042 C 
BRANCH  28  29
ATOM     29  C   UNL A   1      32.480  29.213  25.798  1.00  0.00     0.118 C 
BRANCH  29  30
ATOM     30  N   UNL A   1      32.177  30.549  26.277  1.00  0.00    -0.352 N 
ATOM     31  C   UNL A   1      32.943  31.411  27.033  1.00  0.00     0.251 C 
ATOM     32  H   UNL A   1      31.290  30.892  26.024  1.00  0.00     0.163 HD
ATOM     33  O   UNL A   1      32.488  32.530  27.287  1.00  0.00    -0.269 OA
BRANCH  31  34
ATOM     34  C   UNL A   1      34.263  31.017  27.598  1.00  0.00     0.039 A 
ATOM     35  C   UNL A   1      35.238  32.014  27.739  1.00  0.00     0.014 A 
ATOM     36  C   UNL A   1      34.581  29.704  27.956  1.00  0.00     0.014 A 
ATOM     37  C   UNL A   1      36.482  31.718  28.310  1.00  0.00     0.010 A 
ATOM     38  C   UNL A   1      35.812  29.418  28.571  1.00  0.00     0.010 A 
ATOM     39  C   UNL A   1      36.770  30.426  28.779  1.00  0.00    -0.014 A 
BRANCH  39  40
ATOM     40  C   UNL A   1      38.033  30.146  29.531  1.00  0.00     0.031 A 
ATOM     41  C   UNL A   1      39.075  29.200  28.991  1.00  0.00     0.074 A 
ATOM     42  C   UNL A   1      38.233  30.722  30.737  1.00  0.00     0.049 A 
ATOM     43  N   UNL A   1      40.198  28.802  29.539  1.00  0.00    -0.248 NA
ATOM     44  C   UNL A   1      38.812  28.613  27.671  1.00  0.00     0.031 C 
ATOM     45  C   UNL A   1      37.304  31.645  31.391  1.00  0.00     0.029 A 
ATOM     46  N   UNL A   1      39.271  30.613  31.632  1.00  0.00    -0.354 N 
ATOM     47  C   UNL A   1      40.775  27.914  28.636  1.00  0.00     0.074 A 
ATOM     48  C   UNL A   1      39.847  27.797  27.527  1.00  0.00     0.031 C 
ATOM     49  C   UNL A   1      37.822  32.034  32.567  1.00  0.00     0.029 A 
ATOM     50  C   UNL A   1      39.093  31.347  32.784  1.00  0.00     0.049 A 
ATOM     51  H   UNL A   1      40.070  30.061  31.466  1.00  0.00     0.167 HD
ATOM     52  C   UNL A   1      41.968  27.269  28.714  1.00  0.00     0.034 A 
ATOM     53  C   UNL A   1      39.845  31.446  33.900  1.00  0.00     0.034 A 
ATOM     54  C   UNL A   1      42.886  27.388  29.825  1.00  0.00     0.049 A 
ATOM     55  C   UNL A   1      41.136  30.669  33.991  1.00  0.00     0.074 A 
ATOM     56  C   UNL A   1      44.137  26.810  29.973  1.00  0.00     0.029 A 
ATOM     57  N   UNL A   1      42.654  28.118  30.984  1.00  0.00    -0.354 N 
ATOM     58  N   UNL A   1      41.682  29.867  33.107  1.00  0.00    -0.248 NA
ATOM     59  C   UNL A   1      41.917  30.821  35.227  1.00  0.00     0.031 C 
ATOM     60  C   UNL A   1      44.621  27.119  31.249  1.00  0.00     0.029 A 
ATOM     61  C   UNL A   1      43.718  27.970  31.865  1.00  0.00     0.049 A 
ATOM     62  H   UNL A   1      41.852  28.661  31.156  1.00  0.00     0.167 HD
ATOM     63  C   UNL A   1      42.887  29.447  33.669  1.00  0.00     0.074 A 
ATOM     64  C   UNL A   1      42.993  30.097  34.958  1.00  0.00     0.031 C 
ATOM     65  C   UNL A   1      43.822  28.607  33.158  1.00  0.00     0.034 A 
BRANCH  52  66
ATOM     66  C   UNL A   1      42.337  26.342  27.576  1.00  0.00     0.023 A 
ATOM     67  C   UNL A   1      41.827  25.035  27.490  1.00  0.00     0.031 A 
ATOM     68  C   UNL A   1      43.214  26.769  26.563  1.00  0.00     0.131 A 
ATOM     69  C   UNL A   1      42.254  24.180  26.462  1.00  0.00     0.055 A 
ATOM     70  C   UNL A   1      43.569  25.943  25.495  1.00  0.00     0.041 A 
ATOM     71  F   UNL A   1      43.750  28.000  26.596  1.00  0.00    -0.206 F 
ATOM     72  C   UNL A   1      43.101  24.633  25.449  1.00  0.00     0.022 A 
BRANCH  69  73
ATOM     73  S   UNL A   1      41.809  22.424  26.555  1.00  0.00     0.124 S 
ATOM     74  O   UNL A   1      40.352  22.483  26.447  1.00  0.00    -0.237 OA
ATOM     75  O   UNL A   1      42.511  21.859  25.409  1.00  0.00    -0.237 OA
ATOM     76  O   UNL A   1      42.311  22.011  27.863  1.00  0.00    -0.744 OA
ENDBRANCH  69  73
ENDBRANCH  52  66
BRANCH  53  77
ATOM     77  C   UNL A   1      39.392  32.289  35.047  1.00  0.00     0.023 A 
ATOM     78  C   UNL A   1      38.767  31.718  36.167  1.00  0.00     0.031 A 
ATOM     79  C   UNL A   1      39.528  33.689  35.014  1.00  0.00     0.131 A 
ATOM     80  C   UNL A   1      38.256  32.543  37.182  1.00  0.00     0.055 A 
ATOM     81  C   UNL A   1      39.074  34.502  36.054  1.00  0.00     0.041 A 
ATOM     82  F   UNL A   1      40.114  34.289  33.965  1.00  0.00    -0.206 F 
ATOM     83  C   UNL A   1      38.421  33.929  37.141  1.00  0.00     0.022 A 
BRANCH  80  84
ATOM     84  S   UNL A   1      37.280  31.786  38.511  1.00  0.00     0.124 S 
ATOM     85  O   UNL A   1      37.129  30.419  38.025  1.00  0.00    -0.237 OA
ATOM     86  O   UNL A   1      38.154  31.964  39.666  1.00  0.00    -0.237 OA
ATOM     87  O   UNL A   1      36.056  32.582  38.531  1.00  0.00    -0.744 OA
ENDBRANCH  80  84
ENDBRANCH  53  77
BRANCH  65  88
ATOM     88  C   UNL A   1      45.073  28.380  33.977  1.00  0.00     0.023 A 
ATOM     89  C   UNL A   1      45.143  27.395  34.978  1.00  0.00     0.031 A 
ATOM     90  C   UNL A   1      46.212  29.177  33.757  1.00  0.00     0.131 A 
ATOM     91  C   UNL A   1      46.304  27.270  35.758  1.00  0.00     0.055 A 
ATOM     92  C   UNL A   1      47.387  29.003  34.493  1.00  0.00     0.041 A 
ATOM     93  F   UNL A   1      46.205  30.140  32.821  1.00  0.00    -0.206 F 
ATOM     94  C   UNL A   1      47.433  28.055  35.509  1.00  0.00     0.022 A 
BRANCH  91  95
ATOM     95  S   UNL A   1      46.287  26.134  37.174  1.00  0.00     0.124 S 
ATOM     96  O   UNL A   1      46.860  26.959  38.233  1.00  0.00    -0.237 OA
ATOM     97  O   UNL A   1      44.869  25.821  37.306  1.00  0.00    -0.237 OA
ATOM     98  O   UNL A   1      47.128  25.022  36.732  1.00  0.00    -0.744 OA
ENDBRANCH  91  95
ENDBRANCH  65  88
ENDBRANCH  39  40
ENDBRANCH  31  34
ENDBRANCH  29  30
ENDBRANCH  28  29
ENDBRANCH   1  28
TORSDOF 19
ENDMDL
MODEL 2
REMARK VINA RESULT:     -11.6      2.496      7.823
REMARK SMILES O=C(C[NH2+][C@H]1CCCC[C@H]1[N@@H+](Cc1ccccc1)C1CC1)NCCCNC(=O)c1ccc(-c2c3nc(c(-c4cc(S(=O)(=O)[O-])ccc4F)c4ccc([nH]4)c(-c4cc(S(=O)(=O)[O-])ccc4F)c4nc(c(-c5cc(S(=O)(=O)[O-])ccc5F)c5ccc2[nH]5)C=C4)C=C3)cc1
REMARK SMILES IDX 23 1 22 2 1 3 2 4 3 6 4 7 5 10 6 11 10 12 7 13 9 14 8 15
REMARK SMILES IDX 11 16 12 18 13 19 14 20 18 21 15 22 17 23 16 24 19 25 20 26
REMARK SMILES IDX 21 27 24 28 25 29 26 30 27 31 28 33 29 34 30 35 91 36 31 37
REMARK SMILES IDX 90 38 32 39 33 40 34 41 84 42 35 43 89 44 83 45 85 46 36 47
REMARK SMILES IDX 88 48 82 49 81 50 37 52 69 53 49 54 68 55 50 56 53 57 67 58
REMARK SMILES IDX 86 59 51 60 52 61 66 63 87 64 54 65 38 66 39 67 47 68 40 69
REMARK SMILES IDX 46 70 48 71 45 72 41 73 42 74 43 75 44 76 70 77 71 78 79 79
REMARK SMILES IDX 72 80 78 81 80 82 77 83 73 84 74 85 75 86 76 87 55 88 56 89
REMARK SMILES IDX 64 90 57 91 63 92 65 93 62 94 58 95 59 96 60 97 61 98
REMARK H PARENT 22 5 4 8 4 9 11 17 26 32 85 51 53 62
REMARK Flexibility Score: inf
ROOT
ATOM      1  C   UNL A   1      31.623  26.927  26.324  1.00  0.00     0.118 C 
ENDROOT
BRANCH   1   2
ATOM      2  N   UNL A   1      32.616  26.366  25.420  1.00  0.00    -0.351 N 
ATOM      3  O   UNL A   1      31.460  26.525  23.447  1.00  0.00    -0.269 OA
ATOM      4  C   UNL A   1      32.478  26.209  24.059  1.00  0.00     0.275 C 
ATOM      5  H   UNL A   1      33.466  26.070  25.820  1.00  0.00     0.163 HD
BRANCH   4   6
ATOM      6  C   UNL A   1      33.680  25.542  23.330  1.00  0.00     0.362 C 
BRANCH   6   7
ATOM      7  N   UNL A   1      34.605  24.825  24.258  1.00  0.00    -0.331 N 
ATOM      8  H   UNL A   1      34.160  24.754  25.173  1.00  0.00     0.347 HD
ATOM      9  H   UNL A   1      35.473  25.360  24.306  1.00  0.00     0.347 HD
BRANCH   7  10
ATOM     10  C   UNL A   1      34.939  23.454  23.777  1.00  0.00     0.241 C 
ATOM     11  C   UNL A   1      36.491  23.354  23.689  1.00  0.00     0.071 C 
ATOM     12  C   UNL A   1      34.369  22.175  24.593  1.00  0.00     0.243 C 
ATOM     13  C   UNL A   1      37.163  23.168  25.051  1.00  0.00     0.007 C 
ATOM     14  C   UNL A   1      35.185  21.893  25.874  1.00  0.00     0.071 C 
ATOM     15  C   UNL A   1      36.692  21.876  25.681  1.00  0.00     0.007 C 
BRANCH  12  16
ATOM     16  N   UNL A   1      32.895  21.930  24.739  1.00  0.00    -0.321 N 
ATOM     17  H   UNL A   1      32.781  22.140  23.747  1.00  0.00     0.349 HD
BRANCH  16  18
ATOM     18  C   UNL A   1      32.520  20.553  25.158  1.00  0.00     0.299 C 
BRANCH  18  19
ATOM     19  C   UNL A   1      32.952  19.369  24.284  1.00  0.00     0.006 A 
ATOM     20  C   UNL A   1      32.296  18.958  23.111  1.00  0.00     0.009 A 
ATOM     21  C   UNL A   1      34.062  18.612  24.686  1.00  0.00     0.009 A 
ATOM     22  C   UNL A   1      32.645  17.793  22.430  1.00  0.00     0.001 A 
ATOM     23  C   UNL A   1      34.442  17.460  23.986  1.00  0.00     0.001 A 
ATOM     24  C   UNL A   1      33.714  17.034  22.877  1.00  0.00     0.000 A 
ENDBRANCH  18  19
ENDBRANCH  16  18
BRANCH  16  25
ATOM     25  C   UNL A   1      31.920  22.873  25.296  1.00  0.00     0.185 C 
ATOM     26  C   UNL A   1      30.676  22.469  25.994  1.00  0.00     0.071 C 
ATOM     27  C   UNL A   1      31.827  23.115  26.752  1.00  0.00     0.071 C 
ENDBRANCH  16  25
ENDBRANCH  12  16
ENDBRANCH   7  10
ENDBRANCH   6   7
ENDBRANCH   4   6
ENDBRANCH   1   2
BRANCH   1  28
ATOM     28  C   UNL A   1      32.032  28.193  27.097  1.00  0.00     0.042 C 
BRANCH  28  29
ATOM     29  C   UNL A   1      33.310  28.957  26.717  1.00  0.00     0.118 C 
BRANCH  29  30
ATOM     30  N   UNL A   1      33.386  30.349  27.120  1.00  0.00    -0.352 N 
ATOM     31  C   UNL A   1      34.410  31.035  27.738  1.00  0.00     0.251 C 
ATOM     32  H   UNL A   1      32.584  30.885  26.923  1.00  0.00     0.163 HD
ATOM     33  O   UNL A   1      34.264  32.242  27.947  1.00  0.00    -0.269 OA
BRANCH  31  34
ATOM     34  C   UNL A   1      35.650  30.360  28.210  1.00  0.00     0.039 A 
ATOM     35  C   UNL A   1      36.756  30.346  27.350  1.00  0.00     0.014 A 
ATOM     36  C   UNL A   1      35.746  29.715  29.447  1.00  0.00     0.014 A 
ATOM     37  C   UNL A   1      37.967  29.771  27.756  1.00  0.00     0.010 A 
ATOM     38  C   UNL A   1      36.975  29.181  29.871  1.00  0.00     0.010 A 
ATOM     39  C   UNL A   1      38.109  29.223  29.041  1.00  0.00    -0.014 A 
BRANCH  39  40
ATOM     40  C   UNL A   1      39.443  28.753  29.532  1.00  0.00     0.031 A 
ATOM     41  C   UNL A   1      40.160  29.459  30.653  1.00  0.00     0.074 A 
ATOM     42  C   UNL A   1      40.037  27.697  28.935  1.00  0.00     0.049 A 
ATOM     43  N   UNL A   1      41.345  29.218  31.161  1.00  0.00    -0.248 NA
ATOM     44  C   UNL A   1      39.462  30.592  31.273  1.00  0.00     0.031 C 
ATOM     45  C   UNL A   1      39.468  26.927  27.827  1.00  0.00     0.029 A 
ATOM     46  N   UNL A   1      41.251  27.092  29.164  1.00  0.00    -0.354 N 
ATOM     47  C   UNL A   1      41.539  30.172  32.156  1.00  0.00     0.074 A 
ATOM     48  C   UNL A   1      40.366  31.024  32.141  1.00  0.00     0.031 C 
ATOM     49  C   UNL A   1      40.317  25.943  27.490  1.00  0.00     0.029 A 
ATOM     50  C   UNL A   1      41.519  26.041  28.315  1.00  0.00     0.049 A 
ATOM     51  H   UNL A   1      41.872  27.381  29.872  1.00  0.00     0.167 HD
ATOM     52  C   UNL A   1      42.586  30.316  33.011  1.00  0.00     0.034 A 
ATOM     53  C   UNL A   1      42.610  25.256  28.189  1.00  0.00     0.034 A 
ATOM     54  C   UNL A   1      43.754  29.465  33.016  1.00  0.00     0.049 A 
ATOM     55  C   UNL A   1      43.788  25.476  29.107  1.00  0.00     0.074 A 
ATOM     56  C   UNL A   1      44.844  29.504  33.872  1.00  0.00     0.029 A 
ATOM     57  N   UNL A   1      44.000  28.431  32.121  1.00  0.00    -0.354 N 
ATOM     58  N   UNL A   1      43.933  26.359  30.068  1.00  0.00    -0.248 NA
ATOM     59  C   UNL A   1      44.944  24.588  28.929  1.00  0.00     0.031 C 
ATOM     60  C   UNL A   1      45.781  28.557  33.444  1.00  0.00     0.029 A 
ATOM     61  C   UNL A   1      45.239  27.857  32.379  1.00  0.00     0.049 A 
ATOM     62  H   UNL A   1      43.385  28.147  31.406  1.00  0.00     0.167 HD
ATOM     63  C   UNL A   1      45.183  26.105  30.630  1.00  0.00     0.074 A 
ATOM     64  C   UNL A   1      45.741  24.980  29.911  1.00  0.00     0.031 C 
ATOM     65  C   UNL A   1      45.805  26.743  31.654  1.00  0.00     0.034 A 
BRANCH  52  66
ATOM     66  C   UNL A   1      42.533  31.466  33.993  1.00  0.00     0.023 A 
ATOM     67  C   UNL A   1      41.724  31.422  35.142  1.00  0.00     0.031 A 
ATOM     68  C   UNL A   1      43.300  32.625  33.778  1.00  0.00     0.131 A 
ATOM     69  C   UNL A   1      41.642  32.540  35.987  1.00  0.00     0.055 A 
ATOM     70  C   UNL A   1      43.281  33.700  34.668  1.00  0.00     0.041 A 
ATOM     71  F   UNL A   1      44.080  32.736  32.691  1.00  0.00    -0.206 F 
ATOM     72  C   UNL A   1      42.435  33.669  35.772  1.00  0.00     0.022 A 
BRANCH  69  73
ATOM     73  S   UNL A   1      40.372  32.556  37.282  1.00  0.00     0.124 S 
ATOM     74  O   UNL A   1      39.760  33.868  37.079  1.00  0.00    -0.237 OA
ATOM     75  O   UNL A   1      39.548  31.406  36.930  1.00  0.00    -0.237 OA
ATOM     76  O   UNL A   1      41.141  32.421  38.518  1.00  0.00    -0.744 OA
ENDBRANCH  69  73
ENDBRANCH  52  66
BRANCH  53  77
ATOM     77  C   UNL A   1      42.666  24.201  27.134  1.00  0.00     0.023 A 
ATOM     78  C   UNL A   1      42.020  22.966  27.304  1.00  0.00     0.031 A 
ATOM     79  C   UNL A   1      43.418  24.391  25.959  1.00  0.00     0.131 A 
ATOM     80  C   UNL A   1      42.177  21.954  26.344  1.00  0.00     0.055 A 
ATOM     81  C   UNL A   1      43.521  23.404  24.978  1.00  0.00     0.041 A 
ATOM     82  F   UNL A   1      44.060  25.552  25.745  1.00  0.00    -0.206 F 
ATOM     83  C   UNL A   1      42.909  22.170  25.174  1.00  0.00     0.022 A 
BRANCH  80  84
ATOM     84  S   UNL A   1      41.495  20.309  26.694  1.00  0.00     0.124 S 
ATOM     85  O   UNL A   1      41.783  19.599  25.453  1.00  0.00    -0.237 OA
ATOM     86  O   UNL A   1      42.271  19.902  27.861  1.00  0.00    -0.237 OA
ATOM     87  O   UNL A   1      40.082  20.574  26.950  1.00  0.00    -0.744 OA
ENDBRANCH  80  84
ENDBRANCH  53  77
BRANCH  65  88
ATOM     88  C   UNL A   1      47.148  26.203  32.094  1.00  0.00     0.023 A 
ATOM     89  C   UNL A   1      48.348  26.582  31.467  1.00  0.00     0.031 A 
ATOM     90  C   UNL A   1      47.223  25.280  33.154  1.00  0.00     0.131 A 
ATOM     91  C   UNL A   1      49.563  26.001  31.866  1.00  0.00     0.055 A 
ATOM     92  C   UNL A   1      48.442  24.755  33.589  1.00  0.00     0.041 A 
ATOM     93  F   UNL A   1      46.112  24.872  33.787  1.00  0.00    -0.206 F 
ATOM     94  C   UNL A   1      49.619  25.104  32.936  1.00  0.00     0.022 A 
BRANCH  91  95
ATOM     95  S   UNL A   1      51.059  26.354  30.901  1.00  0.00     0.124 S 
ATOM     96  O   UNL A   1      51.368  27.721  31.310  1.00  0.00    -0.237 OA
ATOM     97  O   UNL A   1      51.981  25.324  31.367  1.00  0.00    -0.237 OA
ATOM     98  O   UNL A   1      50.616  26.208  29.515  1.00  0.00    -0.744 OA
ENDBRANCH  91  95
ENDBRANCH  65  88
ENDBRANCH  39  40
ENDBRANCH  31  34
ENDBRANCH  29  30
ENDBRANCH  28  29
ENDBRANCH   1  28
TORSDOF 19
ENDMDL
MODEL 3
REMARK VINA RESULT:     -11.4      1.612      2.645
REMARK SMILES O=C(C[NH2+][C@H]1CCCC[C@H]1[N@@H+](Cc1ccccc1)C1CC1)NCCCNC(=O)c1ccc(-c2c3nc(c(-c4cc(S(=O)(=O)[O-])ccc4F)c4ccc([nH]4)c(-c4cc(S(=O)(=O)[O-])ccc4F)c4nc(c(-c5cc(S(=O)(=O)[O-])ccc5F)c5ccc2[nH]5)C=C4)C=C3)cc1
REMARK SMILES IDX 23 1 22 2 1 3 2 4 3 6 4 7 5 10 6 11 10 12 7 13 9 14 8 15
REMARK SMILES IDX 11 16 12 18 13 19 14 20 18 21 15 22 17 23 16 24 19 25 20 26
REMARK SMILES IDX 21 27 24 28 25 29 26 30 27 31 28 33 29 34 30 35 91 36 31 37
REMARK SMILES IDX 90 38 32 39 33 40 34 41 84 42 35 43 89 44 83 45 85 46 36 47
REMARK SMILES IDX 88 48 82 49 81 50 37 52 69 53 49 54 68 55 50 56 53 57 67 58
REMARK SMILES IDX 86 59 51 60 52 61 66 63 87 64 54 65 38 66 39 67 47 68 40 69
REMARK SMILES IDX 46 70 48 71 45 72 41 73 42 74 43 75 44 76 70 77 71 78 79 79
REMARK SMILES IDX 72 80 78 81 80 82 77 83 73 84 74 85 75 86 76 87 55 88 56 89
REMARK SMILES IDX 64 90 57 91 63 92 65 93 62 94 58 95 59 96 60 97 61 98
REMARK H PARENT 22 5 4 8 4 9 11 17 26 32 85 51 53 62
REMARK Flexibility Score: inf
ROOT
ATOM      1  C   UNL A   1      31.776  30.022  25.437  1.00  0.00     0.118 C 
ENDROOT
BRANCH   1   2
ATOM      2  N   UNL A   1      31.717  28.657  25.936  1.00  0.00    -0.351 N 
ATOM      3  O   UNL A   1      33.960  28.182  25.995  1.00  0.00    -0.269 OA
ATOM      4  C   UNL A   1      32.795  27.838  26.187  1.00  0.00     0.275 C 
ATOM      5  H   UNL A   1      30.823  28.284  26.110  1.00  0.00     0.163 HD
BRANCH   4   6
ATOM      6  C   UNL A   1      32.453  26.402  26.680  1.00  0.00     0.362 C 
BRANCH   6   7
ATOM      7  N   UNL A   1      33.078  25.331  25.848  1.00  0.00    -0.331 N 
ATOM      8  H   UNL A   1      33.988  25.097  26.245  1.00  0.00     0.347 HD
ATOM      9  H   UNL A   1      33.167  25.689  24.896  1.00  0.00     0.347 HD
BRANCH   7  10
ATOM     10  C   UNL A   1      32.244  24.096  25.795  1.00  0.00     0.241 C 
ATOM     11  C   UNL A   1      30.778  24.533  25.499  1.00  0.00     0.071 C 
ATOM     12  C   UNL A   1      32.661  22.911  24.771  1.00  0.00     0.243 C 
ATOM     13  C   UNL A   1      30.539  24.900  24.034  1.00  0.00     0.007 C 
ATOM     14  C   UNL A   1      32.240  23.223  23.318  1.00  0.00     0.071 C 
ATOM     15  C   UNL A   1      30.806  23.697  23.156  1.00  0.00     0.007 C 
BRANCH  12  16
ATOM     16  N   UNL A   1      33.978  22.199  24.888  1.00  0.00    -0.321 N 
ATOM     17  H   UNL A   1      34.314  22.958  25.482  1.00  0.00     0.349 HD
BRANCH  16  18
ATOM     18  C   UNL A   1      33.919  20.856  25.523  1.00  0.00     0.299 C 
BRANCH  18  19
ATOM     19  C   UNL A   1      33.623  19.634  24.645  1.00  0.00     0.006 A 
ATOM     20  C   UNL A   1      34.387  18.455  24.629  1.00  0.00     0.009 A 
ATOM     21  C   UNL A   1      32.531  19.691  23.766  1.00  0.00     0.009 A 
ATOM     22  C   UNL A   1      34.158  17.429  23.714  1.00  0.00     0.001 A 
ATOM     23  C   UNL A   1      32.271  18.648  22.869  1.00  0.00     0.001 A 
ATOM     24  C   UNL A   1      33.103  17.532  22.822  1.00  0.00     0.000 A 
ENDBRANCH  18  19
ENDBRANCH  16  18
BRANCH  16  25
ATOM     25  C   UNL A   1      35.044  22.197  23.880  1.00  0.00     0.185 C 
ATOM     26  C   UNL A   1      35.959  23.336  23.635  1.00  0.00     0.071 C 
ATOM     27  C   UNL A   1      36.464  22.044  24.260  1.00  0.00     0.071 C 
ENDBRANCH  16  25
ENDBRANCH  12  16
ENDBRANCH   7  10
ENDBRANCH   6   7
ENDBRANCH   4   6
ENDBRANCH   1   2
BRANCH   1  28
ATOM     28  C   UNL A   1      31.602  31.144  26.476  1.00  0.00     0.042 C 
BRANCH  28  29
ATOM     29  C   UNL A   1      32.807  31.988  26.918  1.00  0.00     0.118 C 
BRANCH  29  30
ATOM     30  N   UNL A   1      32.528  33.329  27.398  1.00  0.00    -0.352 N 
ATOM     31  C   UNL A   1      33.245  34.122  28.268  1.00  0.00     0.251 C 
ATOM     32  H   UNL A   1      31.702  33.733  27.049  1.00  0.00     0.163 HD
ATOM     33  O   UNL A   1      32.830  35.261  28.500  1.00  0.00    -0.269 OA
BRANCH  31  34
ATOM     34  C   UNL A   1      34.458  33.632  28.979  1.00  0.00     0.039 A 
ATOM     35  C   UNL A   1      34.280  32.713  30.021  1.00  0.00     0.014 A 
ATOM     36  C   UNL A   1      35.750  34.073  28.678  1.00  0.00     0.014 A 
ATOM     37  C   UNL A   1      35.385  32.177  30.695  1.00  0.00     0.010 A 
ATOM     38  C   UNL A   1      36.859  33.500  29.323  1.00  0.00     0.010 A 
ATOM     39  C   UNL A   1      36.693  32.526  30.324  1.00  0.00    -0.014 A 
BRANCH  39  40
ATOM     40  C   UNL A   1      37.873  31.837  30.934  1.00  0.00     0.031 A 
ATOM     41  C   UNL A   1      38.624  30.761  30.193  1.00  0.00     0.074 A 
ATOM     42  C   UNL A   1      38.255  32.157  32.190  1.00  0.00     0.049 A 
ATOM     43  N   UNL A   1      39.631  30.024  30.597  1.00  0.00    -0.248 NA
ATOM     44  C   UNL A   1      38.174  30.464  28.828  1.00  0.00     0.031 C 
ATOM     45  C   UNL A   1      37.612  33.167  33.033  1.00  0.00     0.029 A 
ATOM     46  N   UNL A   1      39.265  31.664  32.983  1.00  0.00    -0.354 N 
ATOM     47  C   UNL A   1      39.933  29.171  29.540  1.00  0.00     0.074 A 
ATOM     48  C   UNL A   1      38.966  29.453  28.497  1.00  0.00     0.031 C 
ATOM     49  C   UNL A   1      38.254  33.235  34.210  1.00  0.00     0.029 A 
ATOM     50  C   UNL A   1      39.319  32.235  34.236  1.00  0.00     0.049 A 
ATOM     51  H   UNL A   1      39.894  30.967  32.684  1.00  0.00     0.167 HD
ATOM     52  C   UNL A   1      40.929  28.252  29.440  1.00  0.00     0.034 A 
ATOM     53  C   UNL A   1      40.112  31.978  35.296  1.00  0.00     0.034 A 
ATOM     54  C   UNL A   1      41.888  27.974  30.486  1.00  0.00     0.049 A 
ATOM     55  C   UNL A   1      41.170  30.907  35.184  1.00  0.00     0.074 A 
ATOM     56  C   UNL A   1      42.959  27.094  30.460  1.00  0.00     0.029 A 
ATOM     57  N   UNL A   1      41.889  28.553  31.749  1.00  0.00    -0.354 N 
ATOM     58  N   UNL A   1      41.465  30.140  34.160  1.00  0.00    -0.248 NA
ATOM     59  C   UNL A   1      42.009  30.674  36.368  1.00  0.00     0.031 C 
ATOM     60  C   UNL A   1      43.551  27.078  31.728  1.00  0.00     0.029 A 
ATOM     61  C   UNL A   1      42.914  28.019  32.520  1.00  0.00     0.049 A 
ATOM     62  H   UNL A   1      41.255  29.242  32.053  1.00  0.00     0.167 HD
ATOM     63  C   UNL A   1      42.546  29.361  34.568  1.00  0.00     0.074 A 
ATOM     64  C   UNL A   1      42.859  29.761  35.923  1.00  0.00     0.031 C 
ATOM     65  C   UNL A   1      43.221  28.407  33.878  1.00  0.00     0.034 A 
BRANCH  52  66
ATOM     66  C   UNL A   1      41.012  27.448  28.161  1.00  0.00     0.023 A 
ATOM     67  C   UNL A   1      40.630  26.096  28.109  1.00  0.00     0.031 A 
ATOM     68  C   UNL A   1      41.481  28.040  26.974  1.00  0.00     0.131 A 
ATOM     69  C   UNL A   1      40.796  25.363  26.923  1.00  0.00     0.055 A 
ATOM     70  C   UNL A   1      41.562  27.329  25.775  1.00  0.00     0.041 A 
ATOM     71  F   UNL A   1      41.877  29.323  26.960  1.00  0.00    -0.206 F 
ATOM     72  C   UNL A   1      41.234  25.977  25.749  1.00  0.00     0.022 A 
BRANCH  69  73
ATOM     73  S   UNL A   1      40.576  23.564  26.979  1.00  0.00     0.124 S 
ATOM     74  O   UNL A   1      41.086  23.244  28.310  1.00  0.00    -0.237 OA
ATOM     75  O   UNL A   1      39.136  23.416  26.794  1.00  0.00    -0.237 OA
ATOM     76  O   UNL A   1      41.401  23.083  25.873  1.00  0.00    -0.744 OA
ENDBRANCH  69  73
ENDBRANCH  52  66
BRANCH  53  77
ATOM     77  C   UNL A   1      39.928  32.720  36.579  1.00  0.00     0.023 A 
ATOM     78  C   UNL A   1      38.966  32.320  37.520  1.00  0.00     0.031 A 
ATOM     79  C   UNL A   1      40.676  33.879  36.859  1.00  0.00     0.131 A 
ATOM     80  C   UNL A   1      38.740  33.097  38.667  1.00  0.00     0.055 A 
ATOM     81  C   UNL A   1      40.492  34.614  38.031  1.00  0.00     0.041 A 
ATOM     82  F   UNL A   1      41.608  34.310  35.993  1.00  0.00    -0.206 F 
ATOM     83  C   UNL A   1      39.509  34.231  38.937  1.00  0.00     0.022 A 
BRANCH  80  84
ATOM     84  S   UNL A   1      37.355  32.661  39.755  1.00  0.00     0.124 S 
ATOM     85  O   UNL A   1      37.768  31.354  40.251  1.00  0.00    -0.237 OA
ATOM     86  O   UNL A   1      37.377  33.752  40.724  1.00  0.00    -0.237 OA
ATOM     87  O   UNL A   1      36.204  32.654  38.855  1.00  0.00    -0.744 OA
ENDBRANCH  80  84
ENDBRANCH  53  77
BRANCH  65  88
ATOM     88  C   UNL A   1      44.406  27.762  34.563  1.00  0.00     0.023 A 
ATOM     89  C   UNL A   1      44.286  26.566  35.294  1.00  0.00     0.031 A 
ATOM     90  C   UNL A   1      45.675  28.365  34.492  1.00  0.00     0.131 A 
ATOM     91  C   UNL A   1      45.400  26.043  35.970  1.00  0.00     0.055 A 
ATOM     92  C   UNL A   1      46.794  27.805  35.113  1.00  0.00     0.041 A 
ATOM     93  F   UNL A   1      45.851  29.512  33.817  1.00  0.00    -0.206 F 
ATOM     94  C   UNL A   1      46.657  26.645  35.868  1.00  0.00     0.022 A 
BRANCH  91  95
ATOM     95  S   UNL A   1      45.166  24.619  37.070  1.00  0.00     0.124 S 
ATOM     96  O   UNL A   1      43.925  24.967  37.756  1.00  0.00    -0.237 OA
ATOM     97  O   UNL A   1      45.085  23.507  36.130  1.00  0.00    -0.237 OA
ATOM     98  O   UNL A   1      46.362  24.635  37.911  1.00  0.00    -0.744 OA
ENDBRANCH  91  95
ENDBRANCH  65  88
ENDBRANCH  39  40
ENDBRANCH  31  34
ENDBRANCH  29  30
ENDBRANCH  28  29
ENDBRANCH   1  28
TORSDOF 19
ENDMDL
