MODEL 1
REMARK VINA RESULT:     -11.9      0.000      0.000
REMARK SMILES C[C@@H](C(=O)NCCCNC(=O)c1ccc(-c2c3nc(c(-c4cc(S(=O)(=O)[O-])ccc4F)c4ccc([nH]4)c(-c4cc(S(=O)(=O)[O-])ccc4F)c4nc(c(-c5cc(S(=O)(=O)[O-])ccc5F)c5ccc2[nH]5)C=C4)C=C3)cc1)c1ccn(C(F)F)c(=O)c1
REMARK SMILES IDX 7 1 6 2 5 3 3 4 4 5 2 7 1 8 75 9 76 10 84 11 77 12 82 13
REMARK SMILES IDX 78 14 83 15 79 16 80 17 81 18 8 19 9 20 10 21 11 23 12 24
REMARK SMILES IDX 13 25 74 26 14 27 73 28 15 29 16 30 17 31 67 32 18 33 72 34
REMARK SMILES IDX 66 35 68 36 19 37 71 38 65 39 64 40 20 42 52 43 32 44 51 45
REMARK SMILES IDX 33 46 36 47 50 48 69 49 34 50 35 51 49 53 70 54 37 55 21 56
REMARK SMILES IDX 22 57 30 58 23 59 29 60 31 61 28 62 24 63 25 64 26 65 27 66
REMARK SMILES IDX 53 67 54 68 62 69 55 70 61 71 63 72 60 73 56 74 57 75 58 76
REMARK SMILES IDX 59 77 38 78 39 79 47 80 40 81 46 82 48 83 45 84 41 85 42 86
REMARK SMILES IDX 43 87 44 88
REMARK H PARENT 5 6 9 22 68 41 36 52
REMARK Flexibility Score: inf
ROOT
ATOM      1  C   UNL A   1      33.076  29.102  25.063  1.00  0.00     0.042 C 
ENDROOT
BRANCH   1   2
ATOM      2  C   UNL A   1      33.478  27.630  24.942  1.00  0.00     0.117 C 
BRANCH   2   3
ATOM      3  N   UNL A   1      33.300  27.140  23.587  1.00  0.00    -0.356 N 
ATOM      4  C   UNL A   1      32.250  26.500  22.997  1.00  0.00     0.227 C 
ATOM      5  O   UNL A   1      32.468  26.002  21.890  1.00  0.00    -0.274 OA
ATOM      6  H   UNL A   1      34.070  27.296  22.993  1.00  0.00     0.163 HD
BRANCH   4   7
ATOM      7  C   UNL A   1      30.866  26.442  23.692  1.00  0.00     0.105 C 
ATOM      8  C   UNL A   1      30.296  25.026  23.524  1.00  0.00     0.023 C 
BRANCH   7   9
ATOM      9  C   UNL A   1      29.927  27.554  23.184  1.00  0.00    -0.029 A 
ATOM     10  C   UNL A   1      30.459  28.664  22.407  1.00  0.00     0.023 A 
ATOM     11  C   UNL A   1      28.606  27.568  23.456  1.00  0.00     0.076 A 
ATOM     12  C   UNL A   1      29.701  29.724  22.104  1.00  0.00     0.095 A 
ATOM     13  C   UNL A   1      27.735  28.727  23.100  1.00  0.00     0.255 A 
ATOM     14  N   UNL A   1      28.371  29.780  22.467  1.00  0.00    -0.258 N 
ATOM     15  O   UNL A   1      26.543  28.686  23.391  1.00  0.00    -0.269 OA
BRANCH  14  16
ATOM     16  C   UNL A   1      27.597  30.967  22.218  1.00  0.00     0.451 C 
ATOM     17  F   UNL A   1      27.795  31.901  23.180  1.00  0.00    -0.185 F 
ATOM     18  F   UNL A   1      27.923  31.521  21.024  1.00  0.00    -0.185 F 
ENDBRANCH  14  16
ENDBRANCH   7   9
ENDBRANCH   4   7
ENDBRANCH   2   3
ENDBRANCH   1   2
BRANCH   1  19
ATOM     19  C   UNL A   1      32.407  29.470  26.387  1.00  0.00     0.118 C 
BRANCH  19  20
ATOM     20  N   UNL A   1      32.268  30.907  26.565  1.00  0.00    -0.352 N 
ATOM     21  C   UNL A   1      33.072  31.795  27.237  1.00  0.00     0.251 C 
ATOM     22  H   UNL A   1      31.474  31.304  26.139  1.00  0.00     0.163 HD
ATOM     23  O   UNL A   1      32.663  32.938  27.438  1.00  0.00    -0.269 OA
BRANCH  21  24
ATOM     24  C   UNL A   1      34.400  31.382  27.746  1.00  0.00     0.039 A 
ATOM     25  C   UNL A   1      35.408  32.343  27.853  1.00  0.00     0.014 A 
ATOM     26  C   UNL A   1      34.658  30.058  28.112  1.00  0.00     0.014 A 
ATOM     27  C   UNL A   1      36.641  31.999  28.415  1.00  0.00     0.010 A 
ATOM     28  C   UNL A   1      35.865  29.731  28.732  1.00  0.00     0.010 A 
ATOM     29  C   UNL A   1      36.861  30.705  28.913  1.00  0.00    -0.014 A 
BRANCH  29  30
ATOM     30  C   UNL A   1      38.085  30.374  29.692  1.00  0.00     0.031 A 
ATOM     31  C   UNL A   1      39.081  29.375  29.169  1.00  0.00     0.074 A 
ATOM     32  C   UNL A   1      38.248  30.918  30.917  1.00  0.00     0.049 A 
ATOM     33  N   UNL A   1      40.144  28.888  29.758  1.00  0.00    -0.248 NA
ATOM     34  C   UNL A   1      38.847  28.842  27.818  1.00  0.00     0.031 C 
ATOM     35  C   UNL A   1      37.333  31.879  31.541  1.00  0.00     0.029 A 
ATOM     36  N   UNL A   1      39.222  30.731  31.867  1.00  0.00    -0.354 N 
ATOM     37  C   UNL A   1      40.694  27.978  28.861  1.00  0.00     0.074 A 
ATOM     38  C   UNL A   1      39.832  27.962  27.698  1.00  0.00     0.031 C 
ATOM     39  C   UNL A   1      37.794  32.200  32.760  1.00  0.00     0.029 A 
ATOM     40  C   UNL A   1      38.998  31.425  33.037  1.00  0.00     0.049 A 
ATOM     41  H   UNL A   1      40.008  30.154  31.726  1.00  0.00     0.167 HD
ATOM     42  C   UNL A   1      41.818  27.233  28.999  1.00  0.00     0.034 A 
ATOM     43  C   UNL A   1      39.661  31.412  34.212  1.00  0.00     0.034 A 
ATOM     44  C   UNL A   1      42.675  27.276  30.158  1.00  0.00     0.049 A 
ATOM     45  C   UNL A   1      40.877  30.528  34.349  1.00  0.00     0.074 A 
ATOM     46  C   UNL A   1      43.887  26.632  30.352  1.00  0.00     0.029 A 
ATOM     47  N   UNL A   1      42.408  27.974  31.326  1.00  0.00    -0.354 N 
ATOM     48  N   UNL A   1      41.431  29.744  33.453  1.00  0.00    -0.248 NA
ATOM     49  C   UNL A   1      41.558  30.527  35.651  1.00  0.00     0.031 C 
ATOM     50  C   UNL A   1      44.302  26.866  31.666  1.00  0.00     0.029 A 
ATOM     51  C   UNL A   1      43.398  27.727  32.265  1.00  0.00     0.049 A 
ATOM     52  H   UNL A   1      41.629  28.560  31.468  1.00  0.00     0.167 HD
ATOM     53  C   UNL A   1      42.538  29.176  34.081  1.00  0.00     0.074 A 
ATOM     54  C   UNL A   1      42.589  29.730  35.416  1.00  0.00     0.031 C 
ATOM     55  C   UNL A   1      43.430  28.276  33.599  1.00  0.00     0.034 A 
BRANCH  42  56
ATOM     56  C   UNL A   1      42.182  26.275  27.892  1.00  0.00     0.023 A 
ATOM     57  C   UNL A   1      41.711  24.951  27.866  1.00  0.00     0.031 A 
ATOM     58  C   UNL A   1      42.968  26.718  26.813  1.00  0.00     0.131 A 
ATOM     59  C   UNL A   1      42.058  24.109  26.798  1.00  0.00     0.055 A 
ATOM     60  C   UNL A   1      43.254  25.896  25.722  1.00  0.00     0.041 A 
ATOM     61  F   UNL A   1      43.462  27.967  26.795  1.00  0.00    -0.206 F 
ATOM     62  C   UNL A   1      42.802  24.580  25.713  1.00  0.00     0.022 A 
BRANCH  59  63
ATOM     63  S   UNL A   1      41.591  22.359  26.884  1.00  0.00     0.124 S 
ATOM     64  O   UNL A   1      42.420  21.887  27.992  1.00  0.00    -0.237 OA
ATOM     65  O   UNL A   1      40.158  22.425  27.142  1.00  0.00    -0.237 OA
ATOM     66  O   UNL A   1      41.965  21.838  25.570  1.00  0.00    -0.744 OA
ENDBRANCH  59  63
ENDBRANCH  42  56
BRANCH  43  67
ATOM     67  C   UNL A   1      39.171  32.205  35.380  1.00  0.00     0.023 A 
ATOM     68  C   UNL A   1      39.571  33.538  35.567  1.00  0.00     0.031 A 
ATOM     69  C   UNL A   1      38.375  31.613  36.378  1.00  0.00     0.131 A 
ATOM     70  C   UNL A   1      39.240  34.209  36.755  1.00  0.00     0.055 A 
ATOM     71  C   UNL A   1      37.984  32.311  37.523  1.00  0.00     0.041 A 
ATOM     72  F   UNL A   1      37.964  30.341  36.258  1.00  0.00    -0.206 F 
ATOM     73  C   UNL A   1      38.436  33.610  37.728  1.00  0.00     0.022 A 
BRANCH  70  74
ATOM     74  S   UNL A   1      40.003  35.822  37.077  1.00  0.00     0.124 S 
ATOM     75  O   UNL A   1      39.670  36.555  35.861  1.00  0.00    -0.237 OA
ATOM     76  O   UNL A   1      39.313  36.244  38.292  1.00  0.00    -0.237 OA
ATOM     77  O   UNL A   1      41.418  35.500  37.245  1.00  0.00    -0.744 OA
ENDBRANCH  70  74
ENDBRANCH  43  67
BRANCH  55  78
ATOM     78  C   UNL A   1      44.552  27.856  34.517  1.00  0.00     0.023 A 
ATOM     79  C   UNL A   1      44.439  26.726  35.345  1.00  0.00     0.031 A 
ATOM     80  C   UNL A   1      45.750  28.590  34.557  1.00  0.00     0.131 A 
ATOM     81  C   UNL A   1      45.488  26.388  36.213  1.00  0.00     0.055 A 
ATOM     82  C   UNL A   1      46.815  28.212  35.376  1.00  0.00     0.041 A 
ATOM     83  F   UNL A   1      45.911  29.681  33.791  1.00  0.00    -0.206 F 
ATOM     84  C   UNL A   1      46.682  27.112  36.218  1.00  0.00     0.022 A 
BRANCH  81  85
ATOM     85  S   UNL A   1      45.241  25.032  37.391  1.00  0.00     0.124 S 
ATOM     86  O   UNL A   1      44.690  23.985  36.537  1.00  0.00    -0.237 OA
ATOM     87  O   UNL A   1      46.592  24.800  37.891  1.00  0.00    -0.237 OA
ATOM     88  O   UNL A   1      44.308  25.592  38.367  1.00  0.00    -0.744 OA
ENDBRANCH  81  85
ENDBRANCH  55  78
ENDBRANCH  29  30
ENDBRANCH  21  24
ENDBRANCH  19  20
ENDBRANCH   1  19
TORSDOF 15
ENDMDL
MODEL 2
REMARK VINA RESULT:     -11.7      1.584      7.851
REMARK SMILES C[C@@H](C(=O)NCCCNC(=O)c1ccc(-c2c3nc(c(-c4cc(S(=O)(=O)[O-])ccc4F)c4ccc([nH]4)c(-c4cc(S(=O)(=O)[O-])ccc4F)c4nc(c(-c5cc(S(=O)(=O)[O-])ccc5F)c5ccc2[nH]5)C=C4)C=C3)cc1)c1ccn(C(F)F)c(=O)c1
REMARK SMILES IDX 7 1 6 2 5 3 3 4 4 5 2 7 1 8 75 9 76 10 84 11 77 12 82 13
REMARK SMILES IDX 78 14 83 15 79 16 80 17 81 18 8 19 9 20 10 21 11 23 12 24
REMARK SMILES IDX 13 25 74 26 14 27 73 28 15 29 16 30 17 31 67 32 18 33 72 34
REMARK SMILES IDX 66 35 68 36 19 37 71 38 65 39 64 40 20 42 52 43 32 44 51 45
REMARK SMILES IDX 33 46 36 47 50 48 69 49 34 50 35 51 49 53 70 54 37 55 21 56
REMARK SMILES IDX 22 57 30 58 23 59 29 60 31 61 28 62 24 63 25 64 26 65 27 66
REMARK SMILES IDX 53 67 54 68 62 69 55 70 61 71 63 72 60 73 56 74 57 75 58 76
REMARK SMILES IDX 59 77 38 78 39 79 47 80 40 81 46 82 48 83 45 84 41 85 42 86
REMARK SMILES IDX 43 87 44 88
REMARK H PARENT 5 6 9 22 68 41 36 52
REMARK Flexibility Score: inf
ROOT
ATOM      1  C   UNL A   1      33.023  29.342  24.744  1.00  0.00     0.042 C 
ENDROOT
BRANCH   1   2
ATOM      2  C   UNL A   1      33.619  27.937  24.625  1.00  0.00     0.117 C 
BRANCH   2   3
ATOM      3  N   UNL A   1      33.346  27.352  23.325  1.00  0.00    -0.356 N 
ATOM      4  C   UNL A   1      32.244  26.706  22.847  1.00  0.00     0.227 C 
ATOM      5  O   UNL A   1      32.379  26.118  21.772  1.00  0.00    -0.274 OA
ATOM      6  H   UNL A   1      34.083  27.435  22.677  1.00  0.00     0.163 HD
BRANCH   4   7
ATOM      7  C   UNL A   1      30.902  26.750  23.623  1.00  0.00     0.105 C 
ATOM      8  C   UNL A   1      30.272  25.350  23.585  1.00  0.00     0.023 C 
BRANCH   7   9
ATOM      9  C   UNL A   1      29.975  27.863  23.095  1.00  0.00    -0.029 A 
ATOM     10  C   UNL A   1      30.530  28.997  22.370  1.00  0.00     0.023 A 
ATOM     11  C   UNL A   1      28.642  27.855  23.302  1.00  0.00     0.076 A 
ATOM     12  C   UNL A   1      29.774  30.055  22.055  1.00  0.00     0.095 A 
ATOM     13  C   UNL A   1      27.775  29.012  22.930  1.00  0.00     0.255 A 
ATOM     14  N   UNL A   1      28.428  30.086  22.354  1.00  0.00    -0.258 N 
ATOM     15  O   UNL A   1      26.571  28.951  23.162  1.00  0.00    -0.269 OA
BRANCH  14  16
ATOM     16  C   UNL A   1      27.652  31.270  22.094  1.00  0.00     0.451 C 
ATOM     17  F   UNL A   1      27.384  31.950  23.235  1.00  0.00    -0.185 F 
ATOM     18  F   UNL A   1      28.306  32.108  21.252  1.00  0.00    -0.185 F 
ENDBRANCH  14  16
ENDBRANCH   7   9
ENDBRANCH   4   7
ENDBRANCH   2   3
ENDBRANCH   1   2
BRANCH   1  19
ATOM     19  C   UNL A   1      32.309  29.618  26.067  1.00  0.00     0.118 C 
BRANCH  19  20
ATOM     20  N   UNL A   1      32.252  31.035  26.389  1.00  0.00    -0.352 N 
ATOM     21  C   UNL A   1      33.065  31.792  27.197  1.00  0.00     0.251 C 
ATOM     22  H   UNL A   1      31.515  31.529  25.962  1.00  0.00     0.163 HD
ATOM     23  O   UNL A   1      32.719  32.934  27.494  1.00  0.00    -0.269 OA
BRANCH  21  24
ATOM     24  C   UNL A   1      34.328  31.235  27.735  1.00  0.00     0.039 A 
ATOM     25  C   UNL A   1      35.387  32.107  28.001  1.00  0.00     0.014 A 
ATOM     26  C   UNL A   1      34.477  29.866  27.972  1.00  0.00     0.014 A 
ATOM     27  C   UNL A   1      36.556  31.622  28.595  1.00  0.00     0.010 A 
ATOM     28  C   UNL A   1      35.618  29.393  28.623  1.00  0.00     0.010 A 
ATOM     29  C   UNL A   1      36.659  30.271  28.964  1.00  0.00    -0.014 A 
BRANCH  29  30
ATOM     30  C   UNL A   1      37.807  29.776  29.773  1.00  0.00     0.031 A 
ATOM     31  C   UNL A   1      37.990  30.221  31.199  1.00  0.00     0.074 A 
ATOM     32  C   UNL A   1      38.732  28.990  29.183  1.00  0.00     0.049 A 
ATOM     33  N   UNL A   1      38.983  29.978  32.015  1.00  0.00    -0.248 NA
ATOM     34  C   UNL A   1      36.928  31.059  31.778  1.00  0.00     0.031 C 
ATOM     35  C   UNL A   1      38.676  28.516  27.797  1.00  0.00     0.029 A 
ATOM     36  N   UNL A   1      39.910  28.466  29.658  1.00  0.00    -0.354 N 
ATOM     37  C   UNL A   1      38.679  30.646  33.196  1.00  0.00     0.074 A 
ATOM     38  C   UNL A   1      37.420  31.328  32.980  1.00  0.00     0.031 C 
ATOM     39  C   UNL A   1      39.761  27.769  27.540  1.00  0.00     0.029 A 
ATOM     40  C   UNL A   1      40.625  27.760  28.715  1.00  0.00     0.049 A 
ATOM     41  H   UNL A   1      40.215  28.584  30.587  1.00  0.00     0.167 HD
ATOM     42  C   UNL A   1      39.386  30.679  34.352  1.00  0.00     0.034 A 
ATOM     43  C   UNL A   1      41.851  27.200  28.774  1.00  0.00     0.034 A 
ATOM     44  C   UNL A   1      40.631  29.979  34.555  1.00  0.00     0.049 A 
ATOM     45  C   UNL A   1      42.635  27.304  30.060  1.00  0.00     0.074 A 
ATOM     46  C   UNL A   1      41.374  29.872  35.719  1.00  0.00     0.029 A 
ATOM     47  N   UNL A   1      41.331  29.291  33.575  1.00  0.00    -0.354 N 
ATOM     48  N   UNL A   1      42.286  27.865  31.195  1.00  0.00    -0.248 NA
ATOM     49  C   UNL A   1      43.975  26.701  30.076  1.00  0.00     0.031 C 
ATOM     50  C   UNL A   1      42.563  29.202  35.421  1.00  0.00     0.029 A 
ATOM     51  C   UNL A   1      42.525  28.812  34.092  1.00  0.00     0.049 A 
ATOM     52  H   UNL A   1      41.025  29.162  32.648  1.00  0.00     0.167 HD
ATOM     53  C   UNL A   1      43.357  27.660  32.063  1.00  0.00     0.074 A 
ATOM     54  C   UNL A   1      44.346  26.900  31.332  1.00  0.00     0.031 C 
ATOM     55  C   UNL A   1      43.510  28.065  33.348  1.00  0.00     0.034 A 
BRANCH  42  56
ATOM     56  C   UNL A   1      38.864  31.525  35.486  1.00  0.00     0.023 A 
ATOM     57  C   UNL A   1      38.220  30.965  36.601  1.00  0.00     0.031 A 
ATOM     58  C   UNL A   1      39.071  32.917  35.473  1.00  0.00     0.131 A 
ATOM     59  C   UNL A   1      37.777  31.796  37.642  1.00  0.00     0.055 A 
ATOM     60  C   UNL A   1      38.688  33.730  36.541  1.00  0.00     0.041 A 
ATOM     61  F   UNL A   1      39.663  33.510  34.424  1.00  0.00    -0.206 F 
ATOM     62  C   UNL A   1      38.031  33.170  37.633  1.00  0.00     0.022 A 
BRANCH  59  63
ATOM     63  S   UNL A   1      36.788  31.068  38.976  1.00  0.00     0.124 S 
ATOM     64  O   UNL A   1      35.617  31.941  38.986  1.00  0.00    -0.237 OA
ATOM     65  O   UNL A   1      36.567  29.707  38.500  1.00  0.00    -0.237 OA
ATOM     66  O   UNL A   1      37.653  31.185  40.149  1.00  0.00    -0.744 OA
ENDBRANCH  59  63
ENDBRANCH  42  56
BRANCH  43  67
ATOM     67  C   UNL A   1      42.455  26.545  27.575  1.00  0.00     0.023 A 
ATOM     68  C   UNL A   1      42.152  25.213  27.250  1.00  0.00     0.031 A 
ATOM     69  C   UNL A   1      43.419  27.207  26.792  1.00  0.00     0.131 A 
ATOM     70  C   UNL A   1      42.858  24.563  26.225  1.00  0.00     0.055 A 
ATOM     71  C   UNL A   1      44.064  26.579  25.724  1.00  0.00     0.041 A 
ATOM     72  F   UNL A   1      43.755  28.479  27.056  1.00  0.00    -0.206 F 
ATOM     73  C   UNL A   1      43.801  25.241  25.450  1.00  0.00     0.022 A 
BRANCH  70  74
ATOM     74  S   UNL A   1      42.634  22.775  26.021  1.00  0.00     0.124 S 
ATOM     75  O   UNL A   1      41.213  22.620  26.311  1.00  0.00    -0.237 OA
ATOM     76  O   UNL A   1      43.032  22.578  24.631  1.00  0.00    -0.237 OA
ATOM     77  O   UNL A   1      43.540  22.205  27.016  1.00  0.00    -0.744 OA
ENDBRANCH  70  74
ENDBRANCH  43  67
BRANCH  55  78
ATOM     78  C   UNL A   1      44.786  27.670  34.049  1.00  0.00     0.023 A 
ATOM     79  C   UNL A   1      44.899  26.447  34.734  1.00  0.00     0.031 A 
ATOM     80  C   UNL A   1      45.904  28.522  34.026  1.00  0.00     0.131 A 
ATOM     81  C   UNL A   1      46.089  26.130  35.407  1.00  0.00     0.055 A 
ATOM     82  C   UNL A   1      47.106  28.172  34.643  1.00  0.00     0.041 A 
ATOM     83  F   UNL A   1      45.850  29.703  33.390  1.00  0.00    -0.206 F 
ATOM     84  C   UNL A   1      47.199  26.976  35.348  1.00  0.00     0.022 A 
BRANCH  81  85
ATOM     85  S   UNL A   1      46.141  24.631  36.424  1.00  0.00     0.124 S 
ATOM     86  O   UNL A   1      46.802  25.108  37.634  1.00  0.00    -0.237 OA
ATOM     87  O   UNL A   1      44.727  24.295  36.562  1.00  0.00    -0.237 OA
ATOM     88  O   UNL A   1      46.922  23.696  35.618  1.00  0.00    -0.744 OA
ENDBRANCH  81  85
ENDBRANCH  55  78
ENDBRANCH  29  30
ENDBRANCH  21  24
ENDBRANCH  19  20
ENDBRANCH   1  19
TORSDOF 15
ENDMDL
MODEL 3
REMARK VINA RESULT:     -11.6      6.217     10.726
REMARK SMILES C[C@@H](C(=O)NCCCNC(=O)c1ccc(-c2c3nc(c(-c4cc(S(=O)(=O)[O-])ccc4F)c4ccc([nH]4)c(-c4cc(S(=O)(=O)[O-])ccc4F)c4nc(c(-c5cc(S(=O)(=O)[O-])ccc5F)c5ccc2[nH]5)C=C4)C=C3)cc1)c1ccn(C(F)F)c(=O)c1
REMARK SMILES IDX 7 1 6 2 5 3 3 4 4 5 2 7 1 8 75 9 76 10 84 11 77 12 82 13
REMARK SMILES IDX 78 14 83 15 79 16 80 17 81 18 8 19 9 20 10 21 11 23 12 24
REMARK SMILES IDX 13 25 74 26 14 27 73 28 15 29 16 30 17 31 67 32 18 33 72 34
REMARK SMILES IDX 66 35 68 36 19 37 71 38 65 39 64 40 20 42 52 43 32 44 51 45
REMARK SMILES IDX 33 46 36 47 50 48 69 49 34 50 35 51 49 53 70 54 37 55 21 56
REMARK SMILES IDX 22 57 30 58 23 59 29 60 31 61 28 62 24 63 25 64 26 65 27 66
REMARK SMILES IDX 53 67 54 68 62 69 55 70 61 71 63 72 60 73 56 74 57 75 58 76
REMARK SMILES IDX 59 77 38 78 39 79 47 80 40 81 46 82 48 83 45 84 41 85 42 86
REMARK SMILES IDX 43 87 44 88
REMARK H PARENT 5 6 9 22 68 41 36 52
REMARK Flexibility Score: inf
ROOT
ATOM      1  C   UNL A   1      36.021  22.867  26.058  1.00  0.00     0.042 C 
ENDROOT
BRANCH   1   2
ATOM      2  C   UNL A   1      34.872  23.784  25.630  1.00  0.00     0.117 C 
BRANCH   2   3
ATOM      3  N   UNL A   1      33.600  23.321  26.155  1.00  0.00    -0.356 N 
ATOM      4  C   UNL A   1      32.539  22.727  25.536  1.00  0.00     0.227 C 
ATOM      5  O   UNL A   1      31.499  22.646  26.194  1.00  0.00    -0.274 OA
ATOM      6  H   UNL A   1      33.482  23.461  27.122  1.00  0.00     0.163 HD
BRANCH   4   7
ATOM      7  C   UNL A   1      32.672  22.171  24.096  1.00  0.00     0.105 C 
ATOM      8  C   UNL A   1      31.574  22.800  23.227  1.00  0.00     0.023 C 
BRANCH   7   9
ATOM      9  C   UNL A   1      32.671  20.629  24.078  1.00  0.00    -0.029 A 
ATOM     10  C   UNL A   1      33.042  19.882  25.271  1.00  0.00     0.023 A 
ATOM     11  C   UNL A   1      32.362  19.917  22.975  1.00  0.00     0.076 A 
ATOM     12  C   UNL A   1      33.215  18.556  25.232  1.00  0.00     0.095 A 
ATOM     13  C   UNL A   1      32.519  18.433  22.919  1.00  0.00     0.255 A 
ATOM     14  N   UNL A   1      32.992  17.839  24.076  1.00  0.00    -0.258 N 
ATOM     15  O   UNL A   1      32.239  17.844  21.879  1.00  0.00    -0.269 OA
BRANCH  14  16
ATOM     16  C   UNL A   1      33.276  16.429  24.026  1.00  0.00     0.451 C 
ATOM     17  F   UNL A   1      34.257  16.149  23.135  1.00  0.00    -0.185 F 
ATOM     18  F   UNL A   1      33.668  15.967  25.239  1.00  0.00    -0.185 F 
ENDBRANCH  14  16
ENDBRANCH   7   9
ENDBRANCH   4   7
ENDBRANCH   2   3
ENDBRANCH   1   2
BRANCH   1  19
ATOM     19  C   UNL A   1      37.013  22.534  24.944  1.00  0.00     0.118 C 
BRANCH  19  20
ATOM     20  N   UNL A   1      37.938  21.475  25.315  1.00  0.00    -0.352 N 
ATOM     21  C   UNL A   1      39.140  21.543  25.976  1.00  0.00     0.251 C 
ATOM     22  H   UNL A   1      37.660  20.568  25.050  1.00  0.00     0.163 HD
ATOM     23  O   UNL A   1      39.863  20.548  26.009  1.00  0.00    -0.269 OA
BRANCH  21  24
ATOM     24  C   UNL A   1      39.584  22.804  26.614  1.00  0.00     0.039 A 
ATOM     25  C   UNL A   1      40.482  22.737  27.682  1.00  0.00     0.014 A 
ATOM     26  C   UNL A   1      39.118  24.045  26.173  1.00  0.00     0.014 A 
ATOM     27  C   UNL A   1      40.987  23.914  28.243  1.00  0.00     0.010 A 
ATOM     28  C   UNL A   1      39.671  25.219  26.689  1.00  0.00     0.010 A 
ATOM     29  C   UNL A   1      40.630  25.165  27.713  1.00  0.00    -0.014 A 
BRANCH  29  30
ATOM     30  C   UNL A   1      41.305  26.413  28.160  1.00  0.00     0.031 A 
ATOM     31  C   UNL A   1      40.525  27.510  28.834  1.00  0.00     0.074 A 
ATOM     32  C   UNL A   1      42.613  26.588  27.874  1.00  0.00     0.049 A 
ATOM     33  N   UNL A   1      40.925  28.703  29.191  1.00  0.00    -0.248 NA
ATOM     34  C   UNL A   1      39.110  27.237  29.130  1.00  0.00     0.031 C 
ATOM     35  C   UNL A   1      43.467  25.606  27.200  1.00  0.00     0.029 A 
ATOM     36  N   UNL A   1      43.453  27.654  28.092  1.00  0.00    -0.354 N 
ATOM     37  C   UNL A   1      39.811  29.332  29.736  1.00  0.00     0.074 A 
ATOM     38  C   UNL A   1      38.711  28.395  29.638  1.00  0.00     0.031 C 
ATOM     39  C   UNL A   1      44.704  26.111  27.067  1.00  0.00     0.029 A 
ATOM     40  C   UNL A   1      44.722  27.474  27.586  1.00  0.00     0.049 A 
ATOM     41  H   UNL A   1      43.173  28.471  28.565  1.00  0.00     0.167 HD
ATOM     42  C   UNL A   1      39.721  30.573  30.274  1.00  0.00     0.034 A 
ATOM     43  C   UNL A   1      45.770  28.320  27.512  1.00  0.00     0.034 A 
ATOM     44  C   UNL A   1      40.832  31.487  30.379  1.00  0.00     0.049 A 
ATOM     45  C   UNL A   1      45.618  29.714  28.070  1.00  0.00     0.074 A 
ATOM     46  C   UNL A   1      40.866  32.727  30.994  1.00  0.00     0.029 A 
ATOM     47  N   UNL A   1      42.094  31.278  29.842  1.00  0.00    -0.354 N 
ATOM     48  N   UNL A   1      44.580  30.256  28.664  1.00  0.00    -0.248 NA
ATOM     49  C   UNL A   1      46.776  30.612  27.951  1.00  0.00     0.031 C 
ATOM     50  C   UNL A   1      42.114  33.306  30.747  1.00  0.00     0.029 A 
ATOM     51  C   UNL A   1      42.892  32.391  30.056  1.00  0.00     0.049 A 
ATOM     52  H   UNL A   1      42.381  30.459  29.377  1.00  0.00     0.167 HD
ATOM     53  C   UNL A   1      44.972  31.548  29.007  1.00  0.00     0.074 A 
ATOM     54  C   UNL A   1      46.347  31.694  28.582  1.00  0.00     0.031 C 
ATOM     55  C   UNL A   1      44.259  32.528  29.615  1.00  0.00     0.034 A 
BRANCH  42  56
ATOM     56  C   UNL A   1      38.374  31.047  30.759  1.00  0.00     0.023 A 
ATOM     57  C   UNL A   1      37.466  31.707  29.915  1.00  0.00     0.031 A 
ATOM     58  C   UNL A   1      37.973  30.778  32.081  1.00  0.00     0.131 A 
ATOM     59  C   UNL A   1      36.214  32.104  30.411  1.00  0.00     0.055 A 
ATOM     60  C   UNL A   1      36.702  31.116  32.548  1.00  0.00     0.041 A 
ATOM     61  F   UNL A   1      38.807  30.169  32.938  1.00  0.00    -0.206 F 
ATOM     62  C   UNL A   1      35.815  31.788  31.713  1.00  0.00     0.022 A 
BRANCH  59  63
ATOM     63  S   UNL A   1      35.140  33.114  29.355  1.00  0.00     0.124 S 
ATOM     64  O   UNL A   1      34.075  33.482  30.284  1.00  0.00    -0.237 OA
ATOM     65  O   UNL A   1      36.028  34.193  28.941  1.00  0.00    -0.237 OA
ATOM     66  O   UNL A   1      34.739  32.194  28.292  1.00  0.00    -0.744 OA
ENDBRANCH  59  63
ENDBRANCH  42  56
BRANCH  43  67
ATOM     67  C   UNL A   1      47.039  27.914  26.835  1.00  0.00     0.023 A 
ATOM     68  C   UNL A   1      47.200  28.068  25.449  1.00  0.00     0.031 A 
ATOM     69  C   UNL A   1      48.072  27.276  27.548  1.00  0.00     0.131 A 
ATOM     70  C   UNL A   1      48.326  27.525  24.809  1.00  0.00     0.055 A 
ATOM     71  C   UNL A   1      49.225  26.805  26.917  1.00  0.00     0.041 A 
ATOM     72  F   UNL A   1      47.974  27.095  28.874  1.00  0.00    -0.206 F 
ATOM     73  C   UNL A   1      49.347  26.908  25.535  1.00  0.00     0.022 A 
BRANCH  70  74
ATOM     74  S   UNL A   1      48.362  27.502  22.996  1.00  0.00     0.124 S 
ATOM     75  O   UNL A   1      47.154  28.250  22.667  1.00  0.00    -0.237 OA
ATOM     76  O   UNL A   1      49.628  28.169  22.712  1.00  0.00    -0.237 OA
ATOM     77  O   UNL A   1      48.322  26.077  22.674  1.00  0.00    -0.744 OA
ENDBRANCH  70  74
ENDBRANCH  43  67
BRANCH  55  78
ATOM     78  C   UNL A   1      44.966  33.834  29.879  1.00  0.00     0.023 A 
ATOM     79  C   UNL A   1      44.913  34.898  28.961  1.00  0.00     0.031 A 
ATOM     80  C   UNL A   1      45.696  34.021  31.067  1.00  0.00     0.131 A 
ATOM     81  C   UNL A   1      45.615  36.083  29.223  1.00  0.00     0.055 A 
ATOM     82  C   UNL A   1      46.340  35.226  31.351  1.00  0.00     0.041 A 
ATOM     83  F   UNL A   1      45.784  33.038  31.977  1.00  0.00    -0.206 F 
ATOM     84  C   UNL A   1      46.310  36.262  30.421  1.00  0.00     0.022 A 
BRANCH  81  85
ATOM     85  S   UNL A   1      45.670  37.364  27.941  1.00  0.00     0.124 S 
ATOM     86  O   UNL A   1      46.644  38.302  28.490  1.00  0.00    -0.237 OA
ATOM     87  O   UNL A   1      46.101  36.614  26.765  1.00  0.00    -0.237 OA
ATOM     88  O   UNL A   1      44.295  37.857  27.890  1.00  0.00    -0.744 OA
ENDBRANCH  81  85
ENDBRANCH  55  78
ENDBRANCH  29  30
ENDBRANCH  21  24
ENDBRANCH  19  20
ENDBRANCH   1  19
TORSDOF 15
ENDMDL
