MODEL 1
REMARK VINA RESULT:     -11.7      0.000      0.000
REMARK SMILES CCOC(=O)c1cccc(Nc2c(-c3ccc(C(=O)NCCCNC(=O)c4ccc(-c5c6nc(c(-c7cc(S(=O)(=O)[O-])ccc7F)c7ccc([nH]7)c(-c7cc(S(=O)(=O)[O-])ccc7F)c7nc(c(-c8cc(S(=O)(=O)[O-])ccc8F)c8ccc5[nH]8)C=C7)C=C6)cc4)cc3)nc3cnccn23)c1
REMARK SMILES IDX 18 1 19 2 20 3 17 5 14 6 15 7 91 8 16 9 90 10 13 11 12 12
REMARK SMILES IDX 98 13 92 14 93 15 97 16 94 17 96 18 95 19 11 20 10 22 6 23
REMARK SMILES IDX 7 24 99 25 8 26 9 27 4 28 5 29 3 30 2 31 1 32 21 33 22 34
REMARK SMILES IDX 23 35 24 36 25 37 26 39 27 40 28 41 89 42 29 43 88 44 30 45
REMARK SMILES IDX 31 46 32 47 82 48 33 49 87 50 81 51 83 52 34 53 86 54 80 55
REMARK SMILES IDX 79 56 35 58 67 59 47 60 66 61 48 62 51 63 65 64 84 65 49 66
REMARK SMILES IDX 50 67 64 69 85 70 52 71 36 72 37 73 45 74 38 75 44 76 46 77
REMARK SMILES IDX 43 78 39 79 40 80 41 81 42 82 68 83 69 84 77 85 70 86 76 87
REMARK SMILES IDX 78 88 75 89 71 90 72 91 73 92 74 93 53 94 54 95 62 96 55 97
REMARK SMILES IDX 61 98 63 99 60 100 56 101 57 102 58 103 59 104
REMARK H PARENT 20 4 11 21 24 38 83 57 51 68
REMARK Flexibility Score: inf
ROOT
ATOM      1  C   UNL A   1      31.132  26.805  23.102  1.00  0.00     0.251 C 
ATOM      2  O   UNL A   1      30.658  27.195  22.034  1.00  0.00    -0.269 OA
ATOM      3  N   UNL A   1      31.283  27.721  24.112  1.00  0.00    -0.352 N 
ATOM      4  H   UNL A   1      31.068  28.646  23.851  1.00  0.00     0.163 HD
ENDROOT
BRANCH   1   5
ATOM      5  C   UNL A   1      31.470  25.365  23.255  1.00  0.00     0.039 A 
ATOM      6  C   UNL A   1      32.214  22.658  23.414  1.00  0.00     0.004 A 
ATOM      7  C   UNL A   1      32.917  23.525  22.575  1.00  0.00     0.011 A 
ATOM      8  C   UNL A   1      31.167  23.149  24.197  1.00  0.00     0.011 A 
ATOM      9  C   UNL A   1      32.542  24.870  22.494  1.00  0.00     0.014 A 
ATOM     10  C   UNL A   1      30.820  24.500  24.139  1.00  0.00     0.014 A 
BRANCH   6  11
ATOM     11  C   UNL A   1      32.552  21.258  23.491  1.00  0.00     0.114 A 
ATOM     12  C   UNL A   1      33.306  20.671  24.500  1.00  0.00     0.143 A 
ATOM     13  N   UNL A   1      33.266  19.322  24.200  1.00  0.00    -0.283 N 
ATOM     14  N   UNL A   1      32.137  20.344  22.552  1.00  0.00    -0.225 NA
ATOM     15  C   UNL A   1      32.594  19.200  23.007  1.00  0.00     0.157 A 
ATOM     16  C   UNL A   1      33.707  18.181  24.853  1.00  0.00     0.115 A 
ATOM     17  C   UNL A   1      32.430  17.892  22.440  1.00  0.00     0.158 A 
ATOM     18  C   UNL A   1      33.501  16.989  24.267  1.00  0.00     0.129 A 
ATOM     19  N   UNL A   1      32.877  16.819  23.040  1.00  0.00    -0.259 NA
BRANCH  12  20
ATOM     20  N   UNL A   1      33.881  21.200  25.615  1.00  0.00    -0.339 N 
ATOM     21  H   UNL A   1      33.556  20.867  26.483  1.00  0.00     0.168 HD
BRANCH  20  22
ATOM     22  C   UNL A   1      34.902  22.180  25.650  1.00  0.00     0.040 A 
ATOM     23  C   UNL A   1      37.272  22.703  25.831  1.00  0.00     0.062 A 
ATOM     24  C   UNL A   1      36.994  24.070  25.770  1.00  0.00     0.016 A 
ATOM     25  C   UNL A   1      36.239  21.760  25.752  1.00  0.00     0.041 A 
ATOM     26  C   UNL A   1      35.679  24.495  25.619  1.00  0.00     0.003 A 
ATOM     27  C   UNL A   1      34.644  23.558  25.564  1.00  0.00     0.026 A 
BRANCH  23  28
ATOM     28  C   UNL A   1      38.671  22.295  26.061  1.00  0.00     0.338 C 
ATOM     29  O   UNL A   1      39.574  23.092  26.245  1.00  0.00    -0.246 OA
BRANCH  28  30
ATOM     30  O   UNL A   1      38.777  20.949  25.942  1.00  0.00    -0.462 OA
BRANCH  30  31
ATOM     31  C   UNL A   1      40.117  20.459  25.769  1.00  0.00     0.230 C 
ATOM     32  C   UNL A   1      40.749  20.080  27.099  1.00  0.00     0.049 C 
ENDBRANCH  30  31
ENDBRANCH  28  30
ENDBRANCH  23  28
ENDBRANCH  20  22
ENDBRANCH  12  20
ENDBRANCH   6  11
ENDBRANCH   1   5
BRANCH   3  33
ATOM     33  C   UNL A   1      31.699  27.578  25.497  1.00  0.00     0.118 C 
BRANCH  33  34
ATOM     34  C   UNL A   1      33.222  27.519  25.620  1.00  0.00     0.042 C 
BRANCH  34  35
ATOM     35  C   UNL A   1      33.915  28.838  25.285  1.00  0.00     0.118 C 
BRANCH  35  36
ATOM     36  N   UNL A   1      33.167  29.983  25.781  1.00  0.00    -0.352 N 
ATOM     37  C   UNL A   1      33.407  30.789  26.866  1.00  0.00     0.251 C 
ATOM     38  H   UNL A   1      32.366  30.215  25.259  1.00  0.00     0.163 HD
ATOM     39  O   UNL A   1      32.521  31.553  27.244  1.00  0.00    -0.269 OA
BRANCH  37  40
ATOM     40  C   UNL A   1      34.701  30.741  27.586  1.00  0.00     0.039 A 
ATOM     41  C   UNL A   1      35.059  29.558  28.242  1.00  0.00     0.014 A 
ATOM     42  C   UNL A   1      35.536  31.860  27.667  1.00  0.00     0.014 A 
ATOM     43  C   UNL A   1      36.269  29.484  28.939  1.00  0.00     0.010 A 
ATOM     44  C   UNL A   1      36.770  31.765  28.310  1.00  0.00     0.010 A 
ATOM     45  C   UNL A   1      37.147  30.578  28.958  1.00  0.00    -0.014 A 
BRANCH  45  46
ATOM     46  C   UNL A   1      38.458  30.502  29.656  1.00  0.00     0.031 A 
ATOM     47  C   UNL A   1      39.589  29.708  29.059  1.00  0.00     0.074 A 
ATOM     48  C   UNL A   1      38.605  31.091  30.860  1.00  0.00     0.049 A 
ATOM     49  N   UNL A   1      40.771  29.449  29.555  1.00  0.00    -0.248 NA
ATOM     50  C   UNL A   1      39.345  29.101  27.741  1.00  0.00     0.031 C 
ATOM     51  C   UNL A   1      37.567  31.852  31.560  1.00  0.00     0.029 A 
ATOM     52  N   UNL A   1      39.675  31.128  31.720  1.00  0.00    -0.354 N 
ATOM     53  C   UNL A   1      41.403  28.628  28.627  1.00  0.00     0.074 A 
ATOM     54  C   UNL A   1      40.456  28.402  27.555  1.00  0.00     0.031 C 
ATOM     55  C   UNL A   1      38.053  32.283  32.736  1.00  0.00     0.029 A 
ATOM     56  C   UNL A   1      39.420  31.797  32.895  1.00  0.00     0.049 A 
ATOM     57  H   UNL A   1      40.545  30.715  31.513  1.00  0.00     0.167 HD
ATOM     58  C   UNL A   1      42.660  28.119  28.662  1.00  0.00     0.034 A 
ATOM     59  C   UNL A   1      40.190  31.980  33.986  1.00  0.00     0.034 A 
ATOM     60  C   UNL A   1      43.602  28.381  29.722  1.00  0.00     0.049 A 
ATOM     61  C   UNL A   1      41.589  31.418  33.991  1.00  0.00     0.074 A 
ATOM     62  C   UNL A   1      44.928  27.993  29.811  1.00  0.00     0.029 A 
ATOM     63  N   UNL A   1      43.319  29.091  30.882  1.00  0.00    -0.354 N 
ATOM     64  N   UNL A   1      42.195  30.704  33.070  1.00  0.00    -0.248 NA
ATOM     65  C   UNL A   1      42.413  31.696  35.175  1.00  0.00     0.031 C 
ATOM     66  C   UNL A   1      45.426  28.410  31.050  1.00  0.00     0.029 A 
ATOM     67  C   UNL A   1      44.434  29.121  31.705  1.00  0.00     0.049 A 
ATOM     68  H   UNL A   1      42.453  29.510  31.089  1.00  0.00     0.167 HD
ATOM     69  C   UNL A   1      43.481  30.477  33.553  1.00  0.00     0.074 A 
ATOM     70  C   UNL A   1      43.567  31.141  34.836  1.00  0.00     0.031 C 
ATOM     71  C   UNL A   1      44.502  29.784  32.986  1.00  0.00     0.034 A 
BRANCH  58  72
ATOM     72  C   UNL A   1      43.080  27.203  27.537  1.00  0.00     0.023 A 
ATOM     73  C   UNL A   1      42.929  25.808  27.616  1.00  0.00     0.031 A 
ATOM     74  C   UNL A   1      43.638  27.740  26.363  1.00  0.00     0.131 A 
ATOM     75  C   UNL A   1      43.387  24.994  26.568  1.00  0.00     0.055 A 
ATOM     76  C   UNL A   1      44.026  26.929  25.293  1.00  0.00     0.041 A 
ATOM     77  F   UNL A   1      43.824  29.063  26.237  1.00  0.00    -0.206 F 
ATOM     78  C   UNL A   1      43.911  25.547  25.398  1.00  0.00     0.022 A 
BRANCH  75  79
ATOM     79  S   UNL A   1      43.391  23.195  26.804  1.00  0.00     0.124 S 
ATOM     80  O   UNL A   1      42.902  22.728  25.509  1.00  0.00    -0.237 OA
ATOM     81  O   UNL A   1      44.793  22.918  27.095  1.00  0.00    -0.237 OA
ATOM     82  O   UNL A   1      42.469  22.994  27.920  1.00  0.00    -0.744 OA
ENDBRANCH  75  79
ENDBRANCH  58  72
BRANCH  59  83
ATOM     83  C   UNL A   1      39.659  32.707  35.175  1.00  0.00     0.023 A 
ATOM     84  C   UNL A   1      38.993  32.025  36.205  1.00  0.00     0.031 A 
ATOM     85  C   UNL A   1      39.762  34.107  35.270  1.00  0.00     0.131 A 
ATOM     86  C   UNL A   1      38.406  32.746  37.258  1.00  0.00     0.055 A 
ATOM     87  C   UNL A   1      39.226  34.815  36.348  1.00  0.00     0.041 A 
ATOM     88  F   UNL A   1      40.395  34.808  34.317  1.00  0.00    -0.206 F 
ATOM     89  C   UNL A   1      38.529  34.134  37.341  1.00  0.00     0.022 A 
BRANCH  86  90
ATOM     90  S   UNL A   1      37.392  31.849  38.464  1.00  0.00     0.124 S 
ATOM     91  O   UNL A   1      38.237  31.888  39.652  1.00  0.00    -0.237 OA
ATOM     92  O   UNL A   1      36.185  32.667  38.508  1.00  0.00    -0.237 OA
ATOM     93  O   UNL A   1      37.227  30.530  37.856  1.00  0.00    -0.744 OA
ENDBRANCH  86  90
ENDBRANCH  59  83
BRANCH  71  94
ATOM     94  C   UNL A   1      45.810  29.756  33.736  1.00  0.00     0.023 A 
ATOM     95  C   UNL A   1      46.800  30.733  33.533  1.00  0.00     0.031 A 
ATOM     96  C   UNL A   1      46.073  28.725  34.656  1.00  0.00     0.131 A 
ATOM     97  C   UNL A   1      48.030  30.629  34.201  1.00  0.00     0.055 A 
ATOM     98  C   UNL A   1      47.275  28.661  35.362  1.00  0.00     0.041 A 
ATOM     99  F   UNL A   1      45.162  27.766  34.886  1.00  0.00    -0.206 F 
ATOM    100  C   UNL A   1      48.266  29.608  35.126  1.00  0.00     0.022 A 
BRANCH  97 101
ATOM    101  S   UNL A   1      49.350  31.799  33.781  1.00  0.00     0.124 S 
ATOM    102  O   UNL A   1      49.229  32.790  34.845  1.00  0.00    -0.237 OA
ATOM    103  O   UNL A   1      50.541  30.957  33.826  1.00  0.00    -0.237 OA
ATOM    104  O   UNL A   1      48.977  32.272  32.448  1.00  0.00    -0.744 OA
ENDBRANCH  97 101
ENDBRANCH  71  94
ENDBRANCH  45  46
ENDBRANCH  37  40
ENDBRANCH  35  36
ENDBRANCH  34  35
ENDBRANCH  33  34
ENDBRANCH   3  33
TORSDOF 19
ENDMDL
MODEL 2
REMARK VINA RESULT:     -11.7      2.054      7.381
REMARK SMILES CCOC(=O)c1cccc(Nc2c(-c3ccc(C(=O)NCCCNC(=O)c4ccc(-c5c6nc(c(-c7cc(S(=O)(=O)[O-])ccc7F)c7ccc([nH]7)c(-c7cc(S(=O)(=O)[O-])ccc7F)c7nc(c(-c8cc(S(=O)(=O)[O-])ccc8F)c8ccc5[nH]8)C=C7)C=C6)cc4)cc3)nc3cnccn23)c1
REMARK SMILES IDX 18 1 19 2 20 3 17 5 14 6 15 7 91 8 16 9 90 10 13 11 12 12
REMARK SMILES IDX 98 13 92 14 93 15 97 16 94 17 96 18 95 19 11 20 10 22 6 23
REMARK SMILES IDX 7 24 99 25 8 26 9 27 4 28 5 29 3 30 2 31 1 32 21 33 22 34
REMARK SMILES IDX 23 35 24 36 25 37 26 39 27 40 28 41 89 42 29 43 88 44 30 45
REMARK SMILES IDX 31 46 32 47 82 48 33 49 87 50 81 51 83 52 34 53 86 54 80 55
REMARK SMILES IDX 79 56 35 58 67 59 47 60 66 61 48 62 51 63 65 64 84 65 49 66
REMARK SMILES IDX 50 67 64 69 85 70 52 71 36 72 37 73 45 74 38 75 44 76 46 77
REMARK SMILES IDX 43 78 39 79 40 80 41 81 42 82 68 83 69 84 77 85 70 86 76 87
REMARK SMILES IDX 78 88 75 89 71 90 72 91 73 92 74 93 53 94 54 95 62 96 55 97
REMARK SMILES IDX 61 98 63 99 60 100 56 101 57 102 58 103 59 104
REMARK H PARENT 20 4 11 21 24 38 83 57 51 68
REMARK Flexibility Score: inf
ROOT
ATOM      1  C   UNL A   1      31.499  27.348  23.407  1.00  0.00     0.251 C 
ATOM      2  O   UNL A   1      31.240  27.866  22.320  1.00  0.00    -0.269 OA
ATOM      3  N   UNL A   1      31.516  28.153  24.517  1.00  0.00    -0.352 N 
ATOM      4  H   UNL A   1      31.398  29.111  24.320  1.00  0.00     0.163 HD
ENDROOT
BRANCH   1   5
ATOM      5  C   UNL A   1      31.730  25.879  23.465  1.00  0.00     0.039 A 
ATOM      6  C   UNL A   1      32.306  23.128  23.486  1.00  0.00     0.004 A 
ATOM      7  C   UNL A   1      33.257  24.034  23.014  1.00  0.00     0.011 A 
ATOM      8  C   UNL A   1      31.087  23.596  23.979  1.00  0.00     0.011 A 
ATOM      9  C   UNL A   1      32.966  25.403  23.000  1.00  0.00     0.014 A 
ATOM     10  C   UNL A   1      30.815  24.965  23.995  1.00  0.00     0.014 A 
BRANCH   6  11
ATOM     11  C   UNL A   1      32.561  21.708  23.479  1.00  0.00     0.114 A 
ATOM     12  C   UNL A   1      33.279  21.018  24.447  1.00  0.00     0.143 A 
ATOM     13  N   UNL A   1      33.160  19.694  24.067  1.00  0.00    -0.283 N 
ATOM     14  N   UNL A   1      32.094  20.877  22.488  1.00  0.00    -0.225 NA
ATOM     15  C   UNL A   1      32.482  19.684  22.872  1.00  0.00     0.157 A 
ATOM     16  C   UNL A   1      33.533  18.493  24.650  1.00  0.00     0.115 A 
ATOM     17  C   UNL A   1      32.242  18.424  22.228  1.00  0.00     0.158 A 
ATOM     18  C   UNL A   1      33.258  17.352  23.994  1.00  0.00     0.129 A 
ATOM     19  N   UNL A   1      32.625  17.292  22.762  1.00  0.00    -0.259 NA
BRANCH  12  20
ATOM     20  N   UNL A   1      33.884  21.445  25.591  1.00  0.00    -0.339 N 
ATOM     21  H   UNL A   1      33.416  21.259  26.437  1.00  0.00     0.168 HD
BRANCH  20  22
ATOM     22  C   UNL A   1      35.121  22.128  25.682  1.00  0.00     0.040 A 
ATOM     23  C   UNL A   1      37.552  22.034  25.648  1.00  0.00     0.062 A 
ATOM     24  C   UNL A   1      37.628  23.407  25.894  1.00  0.00     0.016 A 
ATOM     25  C   UNL A   1      36.310  21.398  25.522  1.00  0.00     0.041 A 
ATOM     26  C   UNL A   1      36.456  24.148  26.004  1.00  0.00     0.003 A 
ATOM     27  C   UNL A   1      35.216  23.512  25.903  1.00  0.00     0.026 A 
BRANCH  23  28
ATOM     28  C   UNL A   1      38.815  21.272  25.606  1.00  0.00     0.338 C 
ATOM     29  O   UNL A   1      38.860  20.071  25.402  1.00  0.00    -0.246 OA
BRANCH  28  30
ATOM     30  O   UNL A   1      39.850  22.090  25.912  1.00  0.00    -0.462 OA
BRANCH  30  31
ATOM     31  C   UNL A   1      41.078  21.419  26.240  1.00  0.00     0.230 C 
ATOM     32  C   UNL A   1      41.063  20.896  27.668  1.00  0.00     0.049 C 
ENDBRANCH  30  31
ENDBRANCH  28  30
ENDBRANCH  23  28
ENDBRANCH  20  22
ENDBRANCH  12  20
ENDBRANCH   6  11
ENDBRANCH   1   5
BRANCH   3  33
ATOM     33  C   UNL A   1      31.673  27.854  25.930  1.00  0.00     0.118 C 
BRANCH  33  34
ATOM     34  C   UNL A   1      33.148  27.742  26.317  1.00  0.00     0.042 C 
BRANCH  34  35
ATOM     35  C   UNL A   1      34.028  28.823  25.695  1.00  0.00     0.118 C 
BRANCH  35  36
ATOM     36  N   UNL A   1      33.564  30.160  26.034  1.00  0.00    -0.352 N 
ATOM     37  C   UNL A   1      33.917  30.976  27.080  1.00  0.00     0.251 C 
ATOM     38  H   UNL A   1      32.894  30.537  25.420  1.00  0.00     0.163 HD
ATOM     39  O   UNL A   1      33.231  31.969  27.314  1.00  0.00    -0.269 OA
BRANCH  37  40
ATOM     40  C   UNL A   1      35.094  30.671  27.927  1.00  0.00     0.039 A 
ATOM     41  C   UNL A   1      35.016  29.596  28.820  1.00  0.00     0.014 A 
ATOM     42  C   UNL A   1      36.246  31.462  27.892  1.00  0.00     0.014 A 
ATOM     43  C   UNL A   1      36.105  29.288  29.641  1.00  0.00     0.010 A 
ATOM     44  C   UNL A   1      37.353  31.117  28.667  1.00  0.00     0.010 A 
ATOM     45  C   UNL A   1      37.293  30.030  29.554  1.00  0.00    -0.014 A 
BRANCH  45  46
ATOM     46  C   UNL A   1      38.477  29.690  30.386  1.00  0.00     0.031 A 
ATOM     47  C   UNL A   1      38.649  30.311  31.747  1.00  0.00     0.074 A 
ATOM     48  C   UNL A   1      39.430  28.877  29.887  1.00  0.00     0.049 A 
ATOM     49  N   UNL A   1      39.651  30.212  32.582  1.00  0.00    -0.248 NA
ATOM     50  C   UNL A   1      37.561  31.184  32.217  1.00  0.00     0.031 C 
ATOM     51  C   UNL A   1      39.394  28.249  28.564  1.00  0.00     0.029 A 
ATOM     52  N   UNL A   1      40.622  28.453  30.421  1.00  0.00    -0.354 N 
ATOM     53  C   UNL A   1      39.330  31.028  33.662  1.00  0.00     0.074 A 
ATOM     54  C   UNL A   1      38.056  31.644  33.357  1.00  0.00     0.031 C 
ATOM     55  C   UNL A   1      40.508  27.518  28.393  1.00  0.00     0.029 A 
ATOM     56  C   UNL A   1      41.356  27.656  29.573  1.00  0.00     0.049 A 
ATOM     57  H   UNL A   1      40.921  28.696  31.327  1.00  0.00     0.167 HD
ATOM     58  C   UNL A   1      40.030  31.234  34.805  1.00  0.00     0.034 A 
ATOM     59  C   UNL A   1      42.583  27.116  29.719  1.00  0.00     0.034 A 
ATOM     60  C   UNL A   1      41.283  30.586  35.108  1.00  0.00     0.049 A 
ATOM     61  C   UNL A   1      43.331  27.348  31.007  1.00  0.00     0.074 A 
ATOM     62  C   UNL A   1      42.027  30.652  36.273  1.00  0.00     0.029 A 
ATOM     63  N   UNL A   1      41.982  29.760  34.238  1.00  0.00    -0.354 N 
ATOM     64  N   UNL A   1      42.978  28.066  32.049  1.00  0.00    -0.248 NA
ATOM     65  C   UNL A   1      44.636  26.688  31.145  1.00  0.00     0.031 C 
ATOM     66  C   UNL A   1      43.205  29.921  36.085  1.00  0.00     0.029 A 
ATOM     67  C   UNL A   1      43.164  29.338  34.828  1.00  0.00     0.049 A 
ATOM     68  H   UNL A   1      41.683  29.510  33.334  1.00  0.00     0.167 HD
ATOM     69  C   UNL A   1      44.005  27.915  32.977  1.00  0.00     0.074 A 
ATOM     70  C   UNL A   1      44.980  27.028  32.379  1.00  0.00     0.031 C 
ATOM     71  C   UNL A   1      44.129  28.458  34.216  1.00  0.00     0.034 A 
BRANCH  58  72
ATOM     72  C   UNL A   1      39.473  32.223  35.802  1.00  0.00     0.023 A 
ATOM     73  C   UNL A   1      39.899  33.562  35.841  1.00  0.00     0.031 A 
ATOM     74  C   UNL A   1      38.496  31.815  36.728  1.00  0.00     0.131 A 
ATOM     75  C   UNL A   1      39.393  34.428  36.823  1.00  0.00     0.055 A 
ATOM     76  C   UNL A   1      37.944  32.701  37.656  1.00  0.00     0.041 A 
ATOM     77  F   UNL A   1      38.064  30.544  36.751  1.00  0.00    -0.206 F 
ATOM     78  C   UNL A   1      38.402  34.014  37.714  1.00  0.00     0.022 A 
BRANCH  75  79
ATOM     79  S   UNL A   1      40.134  36.076  36.991  1.00  0.00     0.124 S 
ATOM     80  O   UNL A   1      41.521  35.744  37.309  1.00  0.00    -0.237 OA
ATOM     81  O   UNL A   1      39.903  36.662  35.676  1.00  0.00    -0.237 OA
ATOM     82  O   UNL A   1      39.379  36.681  38.087  1.00  0.00    -0.744 OA
ENDBRANCH  75  79
ENDBRANCH  58  72
BRANCH  59  83
ATOM     83  C   UNL A   1      43.197  26.322  28.616  1.00  0.00     0.023 A 
ATOM     84  C   UNL A   1      44.160  26.885  27.764  1.00  0.00     0.031 A 
ATOM     85  C   UNL A   1      42.786  25.000  28.363  1.00  0.00     0.131 A 
ATOM     86  C   UNL A   1      44.640  26.152  26.667  1.00  0.00     0.055 A 
ATOM     87  C   UNL A   1      43.308  24.255  27.303  1.00  0.00     0.041 A 
ATOM     88  F   UNL A   1      41.873  24.410  29.150  1.00  0.00    -0.206 F 
ATOM     89  C   UNL A   1      44.229  24.837  26.439  1.00  0.00     0.022 A 
BRANCH  86  90
ATOM     90  S   UNL A   1      45.736  26.980  25.483  1.00  0.00     0.124 S 
ATOM     91  O   UNL A   1      46.231  25.855  24.699  1.00  0.00    -0.237 OA
ATOM     92  O   UNL A   1      44.813  27.882  24.801  1.00  0.00    -0.237 OA
ATOM     93  O   UNL A   1      46.727  27.633  26.336  1.00  0.00    -0.744 OA
ENDBRANCH  86  90
ENDBRANCH  59  83
BRANCH  71  94
ATOM     94  C   UNL A   1      45.345  28.064  35.016  1.00  0.00     0.023 A 
ATOM     95  C   UNL A   1      46.538  28.807  34.964  1.00  0.00     0.031 A 
ATOM     96  C   UNL A   1      45.312  26.919  35.831  1.00  0.00     0.131 A 
ATOM     97  C   UNL A   1      47.667  28.365  35.671  1.00  0.00     0.055 A 
ATOM     98  C   UNL A   1      46.421  26.517  36.579  1.00  0.00     0.041 A 
ATOM     99  F   UNL A   1      44.199  26.173  35.916  1.00  0.00    -0.206 F 
ATOM    100  C   UNL A   1      47.610  27.234  36.490  1.00  0.00     0.022 A 
BRANCH  97 101
ATOM    101  S   UNL A   1      49.238  29.240  35.437  1.00  0.00     0.124 S 
ATOM    102  O   UNL A   1      48.805  30.633  35.388  1.00  0.00    -0.237 OA
ATOM    103  O   UNL A   1      49.993  28.849  36.623  1.00  0.00    -0.237 OA
ATOM    104  O   UNL A   1      49.745  28.703  34.175  1.00  0.00    -0.744 OA
ENDBRANCH  97 101
ENDBRANCH  71  94
ENDBRANCH  45  46
ENDBRANCH  37  40
ENDBRANCH  35  36
ENDBRANCH  34  35
ENDBRANCH  33  34
ENDBRANCH   3  33
TORSDOF 19
ENDMDL
MODEL 3
REMARK VINA RESULT:     -11.5      2.890      8.369
REMARK SMILES CCOC(=O)c1cccc(Nc2c(-c3ccc(C(=O)NCCCNC(=O)c4ccc(-c5c6nc(c(-c7cc(S(=O)(=O)[O-])ccc7F)c7ccc([nH]7)c(-c7cc(S(=O)(=O)[O-])ccc7F)c7nc(c(-c8cc(S(=O)(=O)[O-])ccc8F)c8ccc5[nH]8)C=C7)C=C6)cc4)cc3)nc3cnccn23)c1
REMARK SMILES IDX 18 1 19 2 20 3 17 5 14 6 15 7 91 8 16 9 90 10 13 11 12 12
REMARK SMILES IDX 98 13 92 14 93 15 97 16 94 17 96 18 95 19 11 20 10 22 6 23
REMARK SMILES IDX 7 24 99 25 8 26 9 27 4 28 5 29 3 30 2 31 1 32 21 33 22 34
REMARK SMILES IDX 23 35 24 36 25 37 26 39 27 40 28 41 89 42 29 43 88 44 30 45
REMARK SMILES IDX 31 46 32 47 82 48 33 49 87 50 81 51 83 52 34 53 86 54 80 55
REMARK SMILES IDX 79 56 35 58 67 59 47 60 66 61 48 62 51 63 65 64 84 65 49 66
REMARK SMILES IDX 50 67 64 69 85 70 52 71 36 72 37 73 45 74 38 75 44 76 46 77
REMARK SMILES IDX 43 78 39 79 40 80 41 81 42 82 68 83 69 84 77 85 70 86 76 87
REMARK SMILES IDX 78 88 75 89 71 90 72 91 73 92 74 93 53 94 54 95 62 96 55 97
REMARK SMILES IDX 61 98 63 99 60 100 56 101 57 102 58 103 59 104
REMARK H PARENT 20 4 11 21 24 38 83 57 51 68
REMARK Flexibility Score: inf
ROOT
ATOM      1  C   UNL A   1      31.457  27.694  27.164  1.00  0.00     0.251 C 
ATOM      2  O   UNL A   1      31.220  27.829  28.365  1.00  0.00    -0.269 OA
ATOM      3  N   UNL A   1      31.553  28.826  26.396  1.00  0.00    -0.352 N 
ATOM      4  H   UNL A   1      31.335  29.658  26.875  1.00  0.00     0.163 HD
ENDROOT
BRANCH   1   5
ATOM      5  C   UNL A   1      31.671  26.324  26.625  1.00  0.00     0.039 A 
ATOM      6  C   UNL A   1      31.918  23.700  25.646  1.00  0.00     0.004 A 
ATOM      7  C   UNL A   1      30.665  24.187  26.023  1.00  0.00     0.011 A 
ATOM      8  C   UNL A   1      33.037  24.532  25.724  1.00  0.00     0.011 A 
ATOM      9  C   UNL A   1      30.546  25.492  26.514  1.00  0.00     0.014 A 
ATOM     10  C   UNL A   1      32.907  25.844  26.181  1.00  0.00     0.014 A 
BRANCH   6  11
ATOM     11  C   UNL A   1      32.080  22.348  25.172  1.00  0.00     0.114 A 
ATOM     12  C   UNL A   1      31.967  21.945  23.847  1.00  0.00     0.143 A 
ATOM     13  N   UNL A   1      32.308  20.605  23.879  1.00  0.00    -0.283 N 
ATOM     14  N   UNL A   1      32.382  21.301  26.010  1.00  0.00    -0.225 NA
ATOM     15  C   UNL A   1      32.499  20.276  25.199  1.00  0.00     0.157 A 
ATOM     16  C   UNL A   1      32.510  19.645  22.900  1.00  0.00     0.115 A 
ATOM     17  C   UNL A   1      32.839  18.920  25.527  1.00  0.00     0.158 A 
ATOM     18  C   UNL A   1      32.843  18.400  23.284  1.00  0.00     0.129 A 
ATOM     19  N   UNL A   1      32.996  18.005  24.605  1.00  0.00    -0.259 NA
BRANCH  12  20
ATOM     20  N   UNL A   1      31.707  22.652  22.712  1.00  0.00    -0.339 N 
ATOM     21  H   UNL A   1      31.380  22.141  21.936  1.00  0.00     0.168 HD
BRANCH  20  22
ATOM     22  C   UNL A   1      31.859  24.049  22.539  1.00  0.00     0.040 A 
ATOM     23  C   UNL A   1      30.890  26.276  22.691  1.00  0.00     0.062 A 
ATOM     24  C   UNL A   1      32.064  26.841  22.185  1.00  0.00     0.016 A 
ATOM     25  C   UNL A   1      30.792  24.893  22.888  1.00  0.00     0.041 A 
ATOM     26  C   UNL A   1      33.144  26.019  21.884  1.00  0.00     0.003 A 
ATOM     27  C   UNL A   1      33.039  24.637  22.056  1.00  0.00     0.026 A 
BRANCH  23  28
ATOM     28  C   UNL A   1      29.744  27.172  22.933  1.00  0.00     0.338 C 
ATOM     29  O   UNL A   1      28.852  26.912  23.722  1.00  0.00    -0.246 OA
BRANCH  28  30
ATOM     30  O   UNL A   1      29.813  28.234  22.095  1.00  0.00    -0.462 OA
BRANCH  30  31
ATOM     31  C   UNL A   1      28.886  29.294  22.381  1.00  0.00     0.230 C 
ATOM     32  C   UNL A   1      29.518  30.661  22.168  1.00  0.00     0.049 C 
ENDBRANCH  30  31
ENDBRANCH  28  30
ENDBRANCH  23  28
ENDBRANCH  20  22
ENDBRANCH  12  20
ENDBRANCH   6  11
ENDBRANCH   1   5
BRANCH   3  33
ATOM     33  C   UNL A   1      31.919  29.024  25.003  1.00  0.00     0.118 C 
BRANCH  33  34
ATOM     34  C   UNL A   1      33.316  29.634  24.874  1.00  0.00     0.042 C 
BRANCH  34  35
ATOM     35  C   UNL A   1      34.091  29.672  26.189  1.00  0.00     0.118 C 
BRANCH  35  36
ATOM     36  N   UNL A   1      33.929  30.945  26.875  1.00  0.00    -0.352 N 
ATOM     37  C   UNL A   1      34.595  31.449  27.964  1.00  0.00     0.251 C 
ATOM     38  H   UNL A   1      33.235  31.534  26.502  1.00  0.00     0.163 HD
ATOM     39  O   UNL A   1      34.141  32.443  28.529  1.00  0.00    -0.269 OA
BRANCH  37  40
ATOM     40  C   UNL A   1      35.833  30.811  28.469  1.00  0.00     0.039 A 
ATOM     41  C   UNL A   1      37.066  31.270  27.992  1.00  0.00     0.014 A 
ATOM     42  C   UNL A   1      35.791  29.733  29.358  1.00  0.00     0.014 A 
ATOM     43  C   UNL A   1      38.253  30.681  28.440  1.00  0.00     0.010 A 
ATOM     44  C   UNL A   1      36.976  29.187  29.851  1.00  0.00     0.010 A 
ATOM     45  C   UNL A   1      38.219  29.651  29.393  1.00  0.00    -0.014 A 
BRANCH  45  46
ATOM     46  C   UNL A   1      39.472  29.043  29.915  1.00  0.00     0.031 A 
ATOM     47  C   UNL A   1      40.188  29.669  31.082  1.00  0.00     0.074 A 
ATOM     48  C   UNL A   1      39.999  27.969  29.293  1.00  0.00     0.049 A 
ATOM     49  N   UNL A   1      41.333  29.342  31.623  1.00  0.00    -0.248 NA
ATOM     50  C   UNL A   1      39.543  30.836  31.704  1.00  0.00     0.031 C 
ATOM     51  C   UNL A   1      39.418  27.300  28.127  1.00  0.00     0.029 A 
ATOM     52  N   UNL A   1      41.149  27.261  29.539  1.00  0.00    -0.354 N 
ATOM     53  C   UNL A   1      41.561  30.277  32.628  1.00  0.00     0.074 A 
ATOM     54  C   UNL A   1      40.450  31.205  32.596  1.00  0.00     0.031 C 
ATOM     55  C   UNL A   1      40.212  26.279  27.763  1.00  0.00     0.029 A 
ATOM     56  C   UNL A   1      41.377  26.243  28.641  1.00  0.00     0.049 A 
ATOM     57  H   UNL A   1      41.755  27.463  30.290  1.00  0.00     0.167 HD
ATOM     58  C   UNL A   1      42.596  30.345  33.502  1.00  0.00     0.034 A 
ATOM     59  C   UNL A   1      42.416  25.392  28.524  1.00  0.00     0.034 A 
ATOM     60  C   UNL A   1      43.678  29.392  33.543  1.00  0.00     0.049 A 
ATOM     61  C   UNL A   1      43.544  25.480  29.520  1.00  0.00     0.074 A 
ATOM     62  C   UNL A   1      44.725  29.315  34.445  1.00  0.00     0.029 A 
ATOM     63  N   UNL A   1      43.858  28.355  32.637  1.00  0.00    -0.354 N 
ATOM     64  N   UNL A   1      43.706  26.327  30.512  1.00  0.00    -0.248 NA
ATOM     65  C   UNL A   1      44.623  24.491  29.391  1.00  0.00     0.031 C 
ATOM     66  C   UNL A   1      45.572  28.275  34.047  1.00  0.00     0.029 A 
ATOM     67  C   UNL A   1      45.017  27.655  32.939  1.00  0.00     0.049 A 
ATOM     68  H   UNL A   1      43.253  28.147  31.889  1.00  0.00     0.167 HD
ATOM     69  C   UNL A   1      44.889  25.949  31.141  1.00  0.00     0.074 A 
ATOM     70  C   UNL A   1      45.390  24.793  30.429  1.00  0.00     0.031 C 
ATOM     71  C   UNL A   1      45.506  26.507  32.215  1.00  0.00     0.034 A 
BRANCH  58  72
ATOM     72  C   UNL A   1      42.625  31.506  34.469  1.00  0.00     0.023 A 
ATOM     73  C   UNL A   1      41.815  31.540  35.617  1.00  0.00     0.031 A 
ATOM     74  C   UNL A   1      43.482  32.596  34.235  1.00  0.00     0.131 A 
ATOM     75  C   UNL A   1      41.835  32.666  36.455  1.00  0.00     0.055 A 
ATOM     76  C   UNL A   1      43.550  33.681  35.111  1.00  0.00     0.041 A 
ATOM     77  F   UNL A   1      44.265  32.628  33.145  1.00  0.00    -0.206 F 
ATOM     78  C   UNL A   1      42.715  33.725  36.223  1.00  0.00     0.022 A 
BRANCH  75  79
ATOM     79  S   UNL A   1      40.613  32.776  37.791  1.00  0.00     0.124 S 
ATOM     80  O   UNL A   1      39.577  31.861  37.318  1.00  0.00    -0.237 OA
ATOM     81  O   UNL A   1      41.374  32.333  38.953  1.00  0.00    -0.237 OA
ATOM     82  O   UNL A   1      40.234  34.188  37.793  1.00  0.00    -0.744 OA
ENDBRANCH  75  79
ENDBRANCH  58  72
BRANCH  59  83
ATOM     83  C   UNL A   1      42.457  24.396  27.415  1.00  0.00     0.023 A 
ATOM     84  C   UNL A   1      41.673  23.233  27.453  1.00  0.00     0.031 A 
ATOM     85  C   UNL A   1      43.330  24.566  26.324  1.00  0.00     0.131 A 
ATOM     86  C   UNL A   1      41.813  22.259  26.451  1.00  0.00     0.055 A 
ATOM     87  C   UNL A   1      43.425  23.621  25.301  1.00  0.00     0.041 A 
ATOM     88  F   UNL A   1      44.099  25.663  26.234  1.00  0.00    -0.206 F 
ATOM     89  C   UNL A   1      42.676  22.451  25.370  1.00  0.00     0.022 A 
BRANCH  86  90
ATOM     90  S   UNL A   1      40.925  20.689  26.637  1.00  0.00     0.124 S 
ATOM     91  O   UNL A   1      39.634  21.004  26.037  1.00  0.00    -0.237 OA
ATOM     92  O   UNL A   1      41.776  19.772  25.886  1.00  0.00    -0.237 OA
ATOM     93  O   UNL A   1      40.908  20.477  28.083  1.00  0.00    -0.744 OA
ENDBRANCH  86  90
ENDBRANCH  59  83
BRANCH  71  94
ATOM     94  C   UNL A   1      46.765  25.836  32.705  1.00  0.00     0.023 A 
ATOM     95  C   UNL A   1      46.728  24.791  33.646  1.00  0.00     0.031 A 
ATOM     96  C   UNL A   1      48.019  26.260  32.233  1.00  0.00     0.131 A 
ATOM     97  C   UNL A   1      47.927  24.243  34.126  1.00  0.00     0.055 A 
ATOM     98  C   UNL A   1      49.206  25.670  32.670  1.00  0.00     0.041 A 
ATOM     99  F   UNL A   1      48.111  27.254  31.336  1.00  0.00    -0.206 F 
ATOM    100  C   UNL A   1      49.165  24.665  33.632  1.00  0.00     0.022 A 
BRANCH  97 101
ATOM    101  S   UNL A   1      47.852  23.029  35.470  1.00  0.00     0.124 S 
ATOM    102  O   UNL A   1      49.078  23.316  36.209  1.00  0.00    -0.237 OA
ATOM    103  O   UNL A   1      46.605  23.382  36.142  1.00  0.00    -0.237 OA
ATOM    104  O   UNL A   1      47.835  21.744  34.772  1.00  0.00    -0.744 OA
ENDBRANCH  97 101
ENDBRANCH  71  94
ENDBRANCH  45  46
ENDBRANCH  37  40
ENDBRANCH  35  36
ENDBRANCH  34  35
ENDBRANCH  33  34
ENDBRANCH   3  33
TORSDOF 19
ENDMDL
