MODEL 1
REMARK VINA RESULT:     -10.8      0.000      0.000
REMARK SMILES NS(=O)(=O)c1ccc(/N=C/c2ccc(O)c(C(=O)NCCCNC(=O)c3ccc(-c4c5nc(c(-c6cc(S(=O)(=O)[O-])ccc6F)c6ccc([nH]6)c(-c6cc(S(=O)(=O)[O-])ccc6F)c6nc(c(-c7cc(S(=O)(=O)[O-])ccc7F)c7ccc4[nH]7)C=C6)C=C5)cc3)c2)cc1
REMARK SMILES IDX 20 1 19 2 17 3 18 4 16 6 11 7 12 8 89 9 13 10 14 11 10 12
REMARK SMILES IDX 9 13 8 14 5 15 6 16 91 17 7 18 90 19 2 20 3 21 4 22 1 23
REMARK SMILES IDX 15 26 21 28 22 29 23 30 24 31 25 33 26 34 27 35 88 36 28 37
REMARK SMILES IDX 87 38 29 39 30 40 31 41 81 42 32 43 86 44 80 45 82 46 33 47
REMARK SMILES IDX 85 48 79 49 78 50 34 52 66 53 46 54 65 55 47 56 50 57 64 58
REMARK SMILES IDX 83 59 48 60 49 61 63 63 84 64 51 65 35 66 36 67 44 68 37 69
REMARK SMILES IDX 43 70 45 71 42 72 38 73 39 74 40 75 41 76 67 77 68 78 76 79
REMARK SMILES IDX 69 80 75 81 77 82 74 83 70 84 71 85 72 86 73 87 52 88 53 89
REMARK SMILES IDX 61 90 54 91 60 92 62 93 59 94 55 95 56 96 57 97 58 98
REMARK H PARENT 19 5 1 24 1 25 15 27 23 32 82 51 50 62
REMARK Flexibility Score: inf
ROOT
ATOM      1  C   UNL A   1      33.666  36.391  29.112  1.00  0.00     0.118 C 
ENDROOT
BRANCH   1   2
ATOM      2  N   UNL A   1      33.264  37.262  30.213  1.00  0.00    -0.352 N 
ATOM      3  C   UNL A   1      33.351  37.151  31.581  1.00  0.00     0.255 C 
ATOM      4  O   UNL A   1      32.874  38.056  32.273  1.00  0.00    -0.269 OA
ATOM      5  H   UNL A   1      32.844  38.102  29.914  1.00  0.00     0.163 HD
BRANCH   3   6
ATOM      6  C   UNL A   1      33.916  35.971  32.287  1.00  0.00     0.082 A 
ATOM      7  C   UNL A   1      35.801  34.591  32.935  1.00  0.00    -0.006 A 
ATOM      8  C   UNL A   1      34.951  33.559  33.322  1.00  0.00     0.013 A 
ATOM      9  C   UNL A   1      35.279  35.822  32.522  1.00  0.00     0.027 A 
ATOM     10  C   UNL A   1      33.571  33.756  33.254  1.00  0.00     0.047 A 
ATOM     11  C   UNL A   1      33.060  34.944  32.721  1.00  0.00     0.128 A 
BRANCH   7  12
ATOM     12  C   UNL A   1      37.256  34.357  32.803  1.00  0.00     0.119 C 
ATOM     13  N   UNL A   1      37.860  34.697  31.711  1.00  0.00    -0.256 NA
BRANCH  13  14
ATOM     14  C   UNL A   1      39.206  34.376  31.492  1.00  0.00     0.063 A 
ATOM     15  C   UNL A   1      41.820  33.490  30.975  1.00  0.00     0.082 A 
ATOM     16  C   UNL A   1      40.845  33.380  29.984  1.00  0.00     0.024 A 
ATOM     17  C   UNL A   1      41.498  34.024  32.227  1.00  0.00     0.024 A 
ATOM     18  C   UNL A   1      39.545  33.823  30.252  1.00  0.00     0.030 A 
ATOM     19  C   UNL A   1      40.193  34.456  32.484  1.00  0.00     0.030 A 
BRANCH  15  20
ATOM     20  S   UNL A   1      43.478  32.935  30.716  1.00  0.00     0.238 S 
ATOM     21  O   UNL A   1      44.372  33.844  31.388  1.00  0.00    -0.207 OA
ATOM     22  O   UNL A   1      43.617  32.590  29.319  1.00  0.00    -0.207 OA
BRANCH  20  23
ATOM     23  N   UNL A   1      43.591  31.482  31.553  1.00  0.00    -0.225 NA
ATOM     24  H   UNL A   1      42.670  31.044  31.596  1.00  0.00     0.137 HD
ATOM     25  H   UNL A   1      43.927  31.660  32.499  1.00  0.00     0.137 HD
ENDBRANCH  20  23
ENDBRANCH  15  20
ENDBRANCH  13  14
ENDBRANCH   7  12
BRANCH  11  26
ATOM     26  O   UNL A   1      31.693  35.029  32.648  1.00  0.00    -0.507 OA
ATOM     27  H   UNL A   1      31.166  34.709  33.353  1.00  0.00     0.293 HD
ENDBRANCH  11  26
ENDBRANCH   3   6
ENDBRANCH   1   2
BRANCH   1  28
ATOM     28  C   UNL A   1      33.083  34.989  29.174  1.00  0.00     0.042 C 
BRANCH  28  29
ATOM     29  C   UNL A   1      34.051  33.866  28.842  1.00  0.00     0.118 C 
BRANCH  29  30
ATOM     30  N   UNL A   1      33.456  32.825  28.016  1.00  0.00    -0.352 N 
ATOM     31  C   UNL A   1      33.929  31.604  27.600  1.00  0.00     0.251 C 
ATOM     32  H   UNL A   1      32.549  33.036  27.696  1.00  0.00     0.163 HD
ATOM     33  O   UNL A   1      33.301  31.003  26.729  1.00  0.00    -0.269 OA
BRANCH  31  34
ATOM     34  C   UNL A   1      35.171  31.012  28.154  1.00  0.00     0.039 A 
ATOM     35  C   UNL A   1      36.373  31.710  28.000  1.00  0.00     0.014 A 
ATOM     36  C   UNL A   1      35.186  29.759  28.771  1.00  0.00     0.014 A 
ATOM     37  C   UNL A   1      37.562  31.184  28.515  1.00  0.00     0.010 A 
ATOM     38  C   UNL A   1      36.348  29.287  29.378  1.00  0.00     0.010 A 
ATOM     39  C   UNL A   1      37.556  29.985  29.246  1.00  0.00    -0.014 A 
BRANCH  39  40
ATOM     40  C   UNL A   1      38.802  29.450  29.857  1.00  0.00     0.031 A 
ATOM     41  C   UNL A   1      39.254  29.927  31.214  1.00  0.00     0.074 A 
ATOM     42  C   UNL A   1      39.551  28.566  29.167  1.00  0.00     0.049 A 
ATOM     43  N   UNL A   1      40.323  29.597  31.895  1.00  0.00    -0.248 NA
ATOM     44  C   UNL A   1      38.410  30.931  31.878  1.00  0.00     0.031 C 
ATOM     45  C   UNL A   1      39.251  28.076  27.820  1.00  0.00     0.029 A 
ATOM     46  N   UNL A   1      40.717  27.921  29.500  1.00  0.00    -0.354 N 
ATOM     47  C   UNL A   1      40.286  30.361  33.057  1.00  0.00     0.074 A 
ATOM     48  C   UNL A   1      39.127  31.222  32.953  1.00  0.00     0.031 C 
ATOM     49  C   UNL A   1      40.182  27.180  27.459  1.00  0.00     0.029 A 
ATOM     50  C   UNL A   1      41.172  27.063  28.525  1.00  0.00     0.049 A 
ATOM     51  H   UNL A   1      41.184  28.060  30.354  1.00  0.00     0.167 HD
ATOM     52  C   UNL A   1      41.125  30.331  34.123  1.00  0.00     0.034 A 
ATOM     53  C   UNL A   1      42.263  26.273  28.490  1.00  0.00     0.034 A 
ATOM     54  C   UNL A   1      42.267  29.453  34.217  1.00  0.00     0.049 A 
ATOM     55  C   UNL A   1      43.176  26.251  29.690  1.00  0.00     0.074 A 
ATOM     56  C   UNL A   1      43.149  29.293  35.271  1.00  0.00     0.029 A 
ATOM     57  N   UNL A   1      42.691  28.590  33.214  1.00  0.00    -0.354 N 
ATOM     58  N   UNL A   1      43.090  26.934  30.808  1.00  0.00    -0.248 NA
ATOM     59  C   UNL A   1      44.323  25.337  29.627  1.00  0.00     0.031 C 
ATOM     60  C   UNL A   1      44.143  28.389  34.881  1.00  0.00     0.029 A 
ATOM     61  C   UNL A   1      43.839  27.920  33.613  1.00  0.00     0.049 A 
ATOM     62  H   UNL A   1      42.243  28.471  32.345  1.00  0.00     0.167 HD
ATOM     63  C   UNL A   1      44.159  26.510  31.594  1.00  0.00     0.074 A 
ATOM     64  C   UNL A   1      44.854  25.494  30.830  1.00  0.00     0.031 C 
ATOM     65  C   UNL A   1      44.534  26.923  32.833  1.00  0.00     0.034 A 
BRANCH  52  66
ATOM     66  C   UNL A   1      40.844  31.289  35.260  1.00  0.00     0.023 A 
ATOM     67  C   UNL A   1      39.710  31.154  36.081  1.00  0.00     0.031 A 
ATOM     68  C   UNL A   1      41.709  32.369  35.513  1.00  0.00     0.131 A 
ATOM     69  C   UNL A   1      39.429  32.122  37.058  1.00  0.00     0.055 A 
ATOM     70  C   UNL A   1      41.469  33.281  36.543  1.00  0.00     0.041 A 
ATOM     71  F   UNL A   1      42.797  32.566  34.752  1.00  0.00    -0.206 F 
ATOM     72  C   UNL A   1      40.316  33.169  37.314  1.00  0.00     0.022 A 
BRANCH  69  73
ATOM     73  S   UNL A   1      37.817  32.073  37.889  1.00  0.00     0.124 S 
ATOM     74  O   UNL A   1      38.174  32.477  39.248  1.00  0.00    -0.237 OA
ATOM     75  O   UNL A   1      37.036  33.036  37.121  1.00  0.00    -0.237 OA
ATOM     76  O   UNL A   1      37.402  30.680  37.750  1.00  0.00    -0.744 OA
ENDBRANCH  69  73
ENDBRANCH  52  66
BRANCH  53  77
ATOM     77  C   UNL A   1      42.556  25.435  27.291  1.00  0.00     0.023 A 
ATOM     78  C   UNL A   1      42.164  24.088  27.233  1.00  0.00     0.031 A 
ATOM     79  C   UNL A   1      43.269  25.959  26.198  1.00  0.00     0.131 A 
ATOM     80  C   UNL A   1      42.529  23.298  26.132  1.00  0.00     0.055 A 
ATOM     81  C   UNL A   1      43.581  25.184  25.080  1.00  0.00     0.041 A 
ATOM     82  F   UNL A   1      43.664  27.243  26.198  1.00  0.00    -0.206 F 
ATOM     83  C   UNL A   1      43.223  23.841  25.050  1.00  0.00     0.022 A 
BRANCH  80  84
ATOM     84  S   UNL A   1      42.162  21.522  26.179  1.00  0.00     0.124 S 
ATOM     85  O   UNL A   1      40.818  21.480  25.614  1.00  0.00    -0.237 OA
ATOM     86  O   UNL A   1      43.227  20.971  25.346  1.00  0.00    -0.237 OA
ATOM     87  O   UNL A   1      42.253  21.192  27.600  1.00  0.00    -0.744 OA
ENDBRANCH  80  84
ENDBRANCH  53  77
BRANCH  65  88
ATOM     88  C   UNL A   1      45.736  26.239  33.440  1.00  0.00     0.023 A 
ATOM     89  C   UNL A   1      45.612  25.063  34.199  1.00  0.00     0.031 A 
ATOM     90  C   UNL A   1      47.020  26.797  33.292  1.00  0.00     0.131 A 
ATOM     91  C   UNL A   1      46.733  24.526  34.847  1.00  0.00     0.055 A 
ATOM     92  C   UNL A   1      48.145  26.216  33.880  1.00  0.00     0.041 A 
ATOM     93  F   UNL A   1      47.201  27.921  32.581  1.00  0.00    -0.206 F 
ATOM     94  C   UNL A   1      48.003  25.085  34.679  1.00  0.00     0.022 A 
BRANCH  91  95
ATOM     95  S   UNL A   1      46.490  23.164  36.022  1.00  0.00     0.124 S 
ATOM     96  O   UNL A   1      45.035  23.091  36.102  1.00  0.00    -0.237 OA
ATOM     97  O   UNL A   1      47.148  22.051  35.347  1.00  0.00    -0.237 OA
ATOM     98  O   UNL A   1      47.155  23.635  37.236  1.00  0.00    -0.744 OA
ENDBRANCH  91  95
ENDBRANCH  65  88
ENDBRANCH  39  40
ENDBRANCH  31  34
ENDBRANCH  29  30
ENDBRANCH  28  29
ENDBRANCH   1  28
TORSDOF 18
ENDMDL
MODEL 2
REMARK VINA RESULT:     -10.6      4.873     11.032
REMARK SMILES NS(=O)(=O)c1ccc(/N=C/c2ccc(O)c(C(=O)NCCCNC(=O)c3ccc(-c4c5nc(c(-c6cc(S(=O)(=O)[O-])ccc6F)c6ccc([nH]6)c(-c6cc(S(=O)(=O)[O-])ccc6F)c6nc(c(-c7cc(S(=O)(=O)[O-])ccc7F)c7ccc4[nH]7)C=C6)C=C5)cc3)c2)cc1
REMARK SMILES IDX 20 1 19 2 17 3 18 4 16 6 11 7 12 8 89 9 13 10 14 11 10 12
REMARK SMILES IDX 9 13 8 14 5 15 6 16 91 17 7 18 90 19 2 20 3 21 4 22 1 23
REMARK SMILES IDX 15 26 21 28 22 29 23 30 24 31 25 33 26 34 27 35 88 36 28 37
REMARK SMILES IDX 87 38 29 39 30 40 31 41 81 42 32 43 86 44 80 45 82 46 33 47
REMARK SMILES IDX 85 48 79 49 78 50 34 52 66 53 46 54 65 55 47 56 50 57 64 58
REMARK SMILES IDX 83 59 48 60 49 61 63 63 84 64 51 65 35 66 36 67 44 68 37 69
REMARK SMILES IDX 43 70 45 71 42 72 38 73 39 74 40 75 41 76 67 77 68 78 76 79
REMARK SMILES IDX 69 80 75 81 77 82 74 83 70 84 71 85 72 86 73 87 52 88 53 89
REMARK SMILES IDX 61 90 54 91 60 92 62 93 59 94 55 95 56 96 57 97 58 98
REMARK H PARENT 19 5 1 24 1 25 15 27 23 32 82 51 50 62
REMARK Flexibility Score: inf
ROOT
ATOM      1  C   UNL A   1      31.543  30.677  26.617  1.00  0.00     0.118 C 
ENDROOT
BRANCH   1   2
ATOM      2  N   UNL A   1      32.523  30.253  25.621  1.00  0.00    -0.352 N 
ATOM      3  C   UNL A   1      32.504  29.303  24.627  1.00  0.00     0.255 C 
ATOM      4  O   UNL A   1      33.526  29.140  23.954  1.00  0.00    -0.269 OA
ATOM      5  H   UNL A   1      33.373  30.749  25.672  1.00  0.00     0.163 HD
BRANCH   3   6
ATOM      6  C   UNL A   1      31.353  28.401  24.358  1.00  0.00     0.082 A 
ATOM      7  C   UNL A   1      30.392  26.181  24.197  1.00  0.00    -0.006 A 
ATOM      8  C   UNL A   1      29.284  26.677  23.515  1.00  0.00     0.013 A 
ATOM      9  C   UNL A   1      31.362  27.054  24.704  1.00  0.00     0.027 A 
ATOM     10  C   UNL A   1      29.175  28.054  23.311  1.00  0.00     0.047 A 
ATOM     11  C   UNL A   1      30.211  28.904  23.710  1.00  0.00     0.128 A 
BRANCH   7  12
ATOM     12  C   UNL A   1      30.645  24.724  24.260  1.00  0.00     0.119 C 
ATOM     13  N   UNL A   1      31.862  24.291  24.336  1.00  0.00    -0.256 NA
BRANCH  13  14
ATOM     14  C   UNL A   1      32.154  22.923  24.267  1.00  0.00     0.063 A 
ATOM     15  C   UNL A   1      32.497  20.148  24.014  1.00  0.00     0.082 A 
ATOM     16  C   UNL A   1      32.141  20.903  22.897  1.00  0.00     0.024 A 
ATOM     17  C   UNL A   1      32.667  20.762  25.259  1.00  0.00     0.024 A 
ATOM     18  C   UNL A   1      31.971  22.285  23.034  1.00  0.00     0.030 A 
ATOM     19  C   UNL A   1      32.487  22.143  25.382  1.00  0.00     0.030 A 
BRANCH  15  20
ATOM     20  S   UNL A   1      32.711  18.395  23.923  1.00  0.00     0.238 S 
ATOM     21  O   UNL A   1      31.833  17.779  24.885  1.00  0.00    -0.207 OA
ATOM     22  O   UNL A   1      34.130  18.124  23.871  1.00  0.00    -0.207 OA
BRANCH  20  23
ATOM     23  N   UNL A   1      32.113  17.957  22.414  1.00  0.00    -0.225 NA
ATOM     24  H   UNL A   1      32.865  17.553  21.855  1.00  0.00     0.137 HD
ATOM     25  H   UNL A   1      31.745  18.783  21.942  1.00  0.00     0.137 HD
ENDBRANCH  20  23
ENDBRANCH  15  20
ENDBRANCH  13  14
ENDBRANCH   7  12
BRANCH  11  26
ATOM     26  O   UNL A   1      30.039  30.234  23.424  1.00  0.00    -0.507 OA
ATOM     27  H   UNL A   1      30.785  30.783  23.286  1.00  0.00     0.293 HD
ENDBRANCH  11  26
ENDBRANCH   3   6
ENDBRANCH   1   2
BRANCH   1  28
ATOM     28  C   UNL A   1      31.438  32.184  26.795  1.00  0.00     0.042 C 
BRANCH  28  29
ATOM     29  C   UNL A   1      32.761  32.916  26.943  1.00  0.00     0.118 C 
BRANCH  29  30
ATOM     30  N   UNL A   1      32.634  34.191  27.633  1.00  0.00    -0.352 N 
ATOM     31  C   UNL A   1      33.212  34.672  28.783  1.00  0.00     0.251 C 
ATOM     32  H   UNL A   1      32.019  34.824  27.196  1.00  0.00     0.163 HD
ATOM     33  O   UNL A   1      32.770  35.715  29.263  1.00  0.00    -0.269 OA
BRANCH  31  34
ATOM     34  C   UNL A   1      34.326  33.964  29.459  1.00  0.00     0.039 A 
ATOM     35  C   UNL A   1      35.640  34.299  29.113  1.00  0.00     0.014 A 
ATOM     36  C   UNL A   1      34.105  32.941  30.382  1.00  0.00     0.014 A 
ATOM     37  C   UNL A   1      36.715  33.656  29.735  1.00  0.00     0.010 A 
ATOM     38  C   UNL A   1      35.173  32.378  31.079  1.00  0.00     0.010 A 
ATOM     39  C   UNL A   1      36.493  32.717  30.755  1.00  0.00    -0.014 A 
BRANCH  39  40
ATOM     40  C   UNL A   1      37.629  32.076  31.472  1.00  0.00     0.031 A 
ATOM     41  C   UNL A   1      38.417  30.969  30.818  1.00  0.00     0.074 A 
ATOM     42  C   UNL A   1      37.921  32.462  32.730  1.00  0.00     0.049 A 
ATOM     43  N   UNL A   1      39.420  30.274  31.294  1.00  0.00    -0.248 NA
ATOM     44  C   UNL A   1      38.003  30.569  29.466  1.00  0.00     0.031 C 
ATOM     45  C   UNL A   1      37.191  33.479  33.491  1.00  0.00     0.029 A 
ATOM     46  N   UNL A   1      38.905  32.049  33.593  1.00  0.00    -0.354 N 
ATOM     47  C   UNL A   1      39.745  29.348  30.307  1.00  0.00     0.074 A 
ATOM     48  C   UNL A   1      38.786  29.526  29.238  1.00  0.00     0.031 C 
ATOM     49  C   UNL A   1      37.777  33.639  34.688  1.00  0.00     0.029 A 
ATOM     50  C   UNL A   1      38.894  32.707  34.802  1.00  0.00     0.049 A 
ATOM     51  H   UNL A   1      39.558  31.347  33.368  1.00  0.00     0.167 HD
ATOM     52  C   UNL A   1      40.763  28.452  30.282  1.00  0.00     0.034 A 
ATOM     53  C   UNL A   1      39.690  32.574  35.881  1.00  0.00     0.034 A 
ATOM     54  C   UNL A   1      41.720  28.301  31.351  1.00  0.00     0.049 A 
ATOM     55  C   UNL A   1      40.818  31.576  35.827  1.00  0.00     0.074 A 
ATOM     56  C   UNL A   1      42.826  27.470  31.409  1.00  0.00     0.029 A 
ATOM     57  N   UNL A   1      41.683  28.991  32.556  1.00  0.00    -0.354 N 
ATOM     58  N   UNL A   1      41.150  30.754  34.858  1.00  0.00    -0.248 NA
ATOM     59  C   UNL A   1      41.690  31.503  37.006  1.00  0.00     0.031 C 
ATOM     60  C   UNL A   1      43.414  27.606  32.672  1.00  0.00     0.029 A 
ATOM     61  C   UNL A   1      42.726  28.582  33.375  1.00  0.00     0.049 A 
ATOM     62  H   UNL A   1      41.014  29.672  32.796  1.00  0.00     0.167 HD
ATOM     63  C   UNL A   1      42.288  30.084  35.303  1.00  0.00     0.074 A 
ATOM     64  C   UNL A   1      42.597  30.622  36.612  1.00  0.00     0.031 C 
ATOM     65  C   UNL A   1      43.011  29.113  34.688  1.00  0.00     0.034 A 
BRANCH  52  66
ATOM     66  C   UNL A   1      40.876  27.557  29.067  1.00  0.00     0.023 A 
ATOM     67  C   UNL A   1      41.830  27.790  28.060  1.00  0.00     0.031 A 
ATOM     68  C   UNL A   1      40.000  26.469  28.899  1.00  0.00     0.131 A 
ATOM     69  C   UNL A   1      41.835  27.000  26.900  1.00  0.00     0.055 A 
ATOM     70  C   UNL A   1      40.067  25.634  27.781  1.00  0.00     0.041 A 
ATOM     71  F   UNL A   1      39.053  26.206  29.814  1.00  0.00    -0.206 F 
ATOM     72  C   UNL A   1      40.978  25.906  26.766  1.00  0.00     0.022 A 
BRANCH  69  73
ATOM     73  S   UNL A   1      42.877  27.513  25.507  1.00  0.00     0.124 S 
ATOM     74  O   UNL A   1      42.121  28.646  24.975  1.00  0.00    -0.237 OA
ATOM     75  O   UNL A   1      44.140  27.838  26.159  1.00  0.00    -0.237 OA
ATOM     76  O   UNL A   1      42.904  26.333  24.646  1.00  0.00    -0.744 OA
ENDBRANCH  69  73
ENDBRANCH  52  66
BRANCH  53  77
ATOM     77  C   UNL A   1      39.459  33.402  37.100  1.00  0.00     0.023 A 
ATOM     78  C   UNL A   1      40.190  34.579  37.328  1.00  0.00     0.031 A 
ATOM     79  C   UNL A   1      38.529  33.006  38.079  1.00  0.00     0.131 A 
ATOM     80  C   UNL A   1      40.017  35.291  38.525  1.00  0.00     0.055 A 
ATOM     81  C   UNL A   1      38.320  33.750  39.242  1.00  0.00     0.041 A 
ATOM     82  F   UNL A   1      37.798  31.892  37.910  1.00  0.00    -0.206 F 
ATOM     83  C   UNL A   1      39.078  34.892  39.477  1.00  0.00     0.022 A 
BRANCH  80  84
ATOM     84  S   UNL A   1      41.109  36.701  38.861  1.00  0.00     0.124 S 
ATOM     85  O   UNL A   1      40.149  37.750  39.185  1.00  0.00    -0.237 OA
ATOM     86  O   UNL A   1      41.915  36.202  39.970  1.00  0.00    -0.237 OA
ATOM     87  O   UNL A   1      41.830  36.881  37.602  1.00  0.00    -0.744 OA
ENDBRANCH  80  84
ENDBRANCH  53  77
BRANCH  65  88
ATOM     88  C   UNL A   1      44.227  28.603  35.425  1.00  0.00     0.023 A 
ATOM     89  C   UNL A   1      44.140  27.556  36.359  1.00  0.00     0.031 A 
ATOM     90  C   UNL A   1      45.484  29.202  35.220  1.00  0.00     0.131 A 
ATOM     91  C   UNL A   1      45.267  27.193  37.110  1.00  0.00     0.055 A 
ATOM     92  C   UNL A   1      46.619  28.786  35.918  1.00  0.00     0.041 A 
ATOM     93  F   UNL A   1      45.628  30.208  34.342  1.00  0.00    -0.206 F 
ATOM     94  C   UNL A   1      46.510  27.790  36.884  1.00  0.00     0.022 A 
BRANCH  91  95
ATOM     95  S   UNL A   1      45.058  26.023  38.481  1.00  0.00     0.124 S 
ATOM     96  O   UNL A   1      44.542  24.843  37.795  1.00  0.00    -0.237 OA
ATOM     97  O   UNL A   1      46.415  25.913  39.005  1.00  0.00    -0.237 OA
ATOM     98  O   UNL A   1      44.104  26.694  39.363  1.00  0.00    -0.744 OA
ENDBRANCH  91  95
ENDBRANCH  65  88
ENDBRANCH  39  40
ENDBRANCH  31  34
ENDBRANCH  29  30
ENDBRANCH  28  29
ENDBRANCH   1  28
TORSDOF 18
ENDMDL
MODEL 3
REMARK VINA RESULT:     -10.5      4.704     10.930
REMARK SMILES NS(=O)(=O)c1ccc(/N=C/c2ccc(O)c(C(=O)NCCCNC(=O)c3ccc(-c4c5nc(c(-c6cc(S(=O)(=O)[O-])ccc6F)c6ccc([nH]6)c(-c6cc(S(=O)(=O)[O-])ccc6F)c6nc(c(-c7cc(S(=O)(=O)[O-])ccc7F)c7ccc4[nH]7)C=C6)C=C5)cc3)c2)cc1
REMARK SMILES IDX 20 1 19 2 17 3 18 4 16 6 11 7 12 8 89 9 13 10 14 11 10 12
REMARK SMILES IDX 9 13 8 14 5 15 6 16 91 17 7 18 90 19 2 20 3 21 4 22 1 23
REMARK SMILES IDX 15 26 21 28 22 29 23 30 24 31 25 33 26 34 27 35 88 36 28 37
REMARK SMILES IDX 87 38 29 39 30 40 31 41 81 42 32 43 86 44 80 45 82 46 33 47
REMARK SMILES IDX 85 48 79 49 78 50 34 52 66 53 46 54 65 55 47 56 50 57 64 58
REMARK SMILES IDX 83 59 48 60 49 61 63 63 84 64 51 65 35 66 36 67 44 68 37 69
REMARK SMILES IDX 43 70 45 71 42 72 38 73 39 74 40 75 41 76 67 77 68 78 76 79
REMARK SMILES IDX 69 80 75 81 77 82 74 83 70 84 71 85 72 86 73 87 52 88 53 89
REMARK SMILES IDX 61 90 54 91 60 92 62 93 59 94 55 95 56 96 57 97 58 98
REMARK H PARENT 19 5 1 24 1 25 15 27 23 32 82 51 50 62
REMARK Flexibility Score: inf
ROOT
ATOM      1  C   UNL A   1      31.542  30.791  26.485  1.00  0.00     0.118 C 
ENDROOT
BRANCH   1   2
ATOM      2  N   UNL A   1      32.603  30.283  25.619  1.00  0.00    -0.352 N 
ATOM      3  C   UNL A   1      32.665  29.249  24.714  1.00  0.00     0.255 C 
ATOM      4  O   UNL A   1      33.741  29.030  24.149  1.00  0.00    -0.269 OA
ATOM      5  H   UNL A   1      33.447  30.783  25.700  1.00  0.00     0.163 HD
BRANCH   3   6
ATOM      6  C   UNL A   1      31.537  28.324  24.427  1.00  0.00     0.082 A 
ATOM      7  C   UNL A   1      30.614  26.087  24.282  1.00  0.00    -0.006 A 
ATOM      8  C   UNL A   1      29.524  26.551  23.552  1.00  0.00     0.013 A 
ATOM      9  C   UNL A   1      31.554  26.985  24.802  1.00  0.00     0.027 A 
ATOM     10  C   UNL A   1      29.402  27.921  23.314  1.00  0.00     0.047 A 
ATOM     11  C   UNL A   1      30.411  28.795  23.729  1.00  0.00     0.128 A 
BRANCH   7  12
ATOM     12  C   UNL A   1      30.886  24.636  24.387  1.00  0.00     0.119 C 
ATOM     13  N   UNL A   1      32.091  24.198  24.213  1.00  0.00    -0.256 NA
BRANCH  13  14
ATOM     14  C   UNL A   1      32.369  22.826  24.174  1.00  0.00     0.063 A 
ATOM     15  C   UNL A   1      32.667  20.038  24.034  1.00  0.00     0.082 A 
ATOM     16  C   UNL A   1      32.091  20.724  22.966  1.00  0.00     0.024 A 
ATOM     17  C   UNL A   1      33.081  20.728  25.178  1.00  0.00     0.024 A 
ATOM     18  C   UNL A   1      31.945  22.114  23.046  1.00  0.00     0.030 A 
ATOM     19  C   UNL A   1      32.923  22.116  25.247  1.00  0.00     0.030 A 
BRANCH  15  20
ATOM     20  S   UNL A   1      32.867  18.281  24.014  1.00  0.00     0.238 S 
ATOM     21  O   UNL A   1      31.886  17.702  24.896  1.00  0.00    -0.207 OA
ATOM     22  O   UNL A   1      34.280  17.995  24.118  1.00  0.00    -0.207 OA
BRANCH  20  23
ATOM     23  N   UNL A   1      32.423  17.807  22.464  1.00  0.00    -0.225 NA
ATOM     24  H   UNL A   1      33.179  17.263  22.046  1.00  0.00     0.137 HD
ATOM     25  H   UNL A   1      32.244  18.634  21.893  1.00  0.00     0.137 HD
ENDBRANCH  20  23
ENDBRANCH  15  20
ENDBRANCH  13  14
ENDBRANCH   7  12
BRANCH  11  26
ATOM     26  O   UNL A   1      30.229  30.116  23.407  1.00  0.00    -0.507 OA
ATOM     27  H   UNL A   1      30.252  30.387  22.511  1.00  0.00     0.293 HD
ENDBRANCH  11  26
ENDBRANCH   3   6
ENDBRANCH   1   2
BRANCH   1  28
ATOM     28  C   UNL A   1      31.489  32.306  26.593  1.00  0.00     0.042 C 
BRANCH  28  29
ATOM     29  C   UNL A   1      32.804  32.980  26.949  1.00  0.00     0.118 C 
BRANCH  29  30
ATOM     30  N   UNL A   1      32.627  34.215  27.698  1.00  0.00    -0.352 N 
ATOM     31  C   UNL A   1      33.178  34.659  28.876  1.00  0.00     0.251 C 
ATOM     32  H   UNL A   1      31.997  34.849  27.284  1.00  0.00     0.163 HD
ATOM     33  O   UNL A   1      32.696  35.663  29.400  1.00  0.00    -0.269 OA
BRANCH  31  34
ATOM     34  C   UNL A   1      34.307  33.956  29.530  1.00  0.00     0.039 A 
ATOM     35  C   UNL A   1      35.613  34.306  29.171  1.00  0.00     0.014 A 
ATOM     36  C   UNL A   1      34.108  32.922  30.447  1.00  0.00     0.014 A 
ATOM     37  C   UNL A   1      36.702  33.668  29.773  1.00  0.00     0.010 A 
ATOM     38  C   UNL A   1      35.190  32.363  31.125  1.00  0.00     0.010 A 
ATOM     39  C   UNL A   1      36.502  32.717  30.787  1.00  0.00    -0.014 A 
BRANCH  39  40
ATOM     40  C   UNL A   1      37.653  32.081  31.482  1.00  0.00     0.031 A 
ATOM     41  C   UNL A   1      38.426  30.968  30.820  1.00  0.00     0.074 A 
ATOM     42  C   UNL A   1      37.974  32.475  32.731  1.00  0.00     0.049 A 
ATOM     43  N   UNL A   1      39.438  30.275  31.278  1.00  0.00    -0.248 NA
ATOM     44  C   UNL A   1      37.981  30.558  29.480  1.00  0.00     0.031 C 
ATOM     45  C   UNL A   1      37.262  33.499  33.501  1.00  0.00     0.029 A 
ATOM     46  N   UNL A   1      38.977  32.067  33.575  1.00  0.00    -0.354 N 
ATOM     47  C   UNL A   1      39.741  29.342  30.291  1.00  0.00     0.074 A 
ATOM     48  C   UNL A   1      38.758  29.513  29.242  1.00  0.00     0.031 C 
ATOM     49  C   UNL A   1      37.875  33.667  34.683  1.00  0.00     0.029 A 
ATOM     50  C   UNL A   1      38.993  32.735  34.779  1.00  0.00     0.049 A 
ATOM     51  H   UNL A   1      39.624  31.364  33.341  1.00  0.00     0.167 HD
ATOM     52  C   UNL A   1      40.757  28.445  30.250  1.00  0.00     0.034 A 
ATOM     53  C   UNL A   1      39.813  32.609  35.841  1.00  0.00     0.034 A 
ATOM     54  C   UNL A   1      41.738  28.300  31.298  1.00  0.00     0.049 A 
ATOM     55  C   UNL A   1      40.939  31.609  35.768  1.00  0.00     0.074 A 
ATOM     56  C   UNL A   1      42.844  27.469  31.337  1.00  0.00     0.029 A 
ATOM     57  N   UNL A   1      41.729  29.000  32.499  1.00  0.00    -0.354 N 
ATOM     58  N   UNL A   1      41.249  30.780  34.799  1.00  0.00    -0.248 NA
ATOM     59  C   UNL A   1      41.837  31.544  36.928  1.00  0.00     0.031 C 
ATOM     60  C   UNL A   1      43.460  27.614  32.585  1.00  0.00     0.029 A 
ATOM     61  C   UNL A   1      42.790  28.596  33.297  1.00  0.00     0.049 A 
ATOM     62  H   UNL A   1      41.065  29.683  32.748  1.00  0.00     0.167 HD
ATOM     63  C   UNL A   1      42.395  30.112  35.223  1.00  0.00     0.074 A 
ATOM     64  C   UNL A   1      42.734  30.660  36.521  1.00  0.00     0.031 C 
ATOM     65  C   UNL A   1      43.104  29.136  34.599  1.00  0.00     0.034 A 
BRANCH  52  66
ATOM     66  C   UNL A   1      40.842  27.541  29.039  1.00  0.00     0.023 A 
ATOM     67  C   UNL A   1      41.792  27.749  28.023  1.00  0.00     0.031 A 
ATOM     68  C   UNL A   1      39.943  26.469  28.885  1.00  0.00     0.131 A 
ATOM     69  C   UNL A   1      41.772  26.952  26.867  1.00  0.00     0.055 A 
ATOM     70  C   UNL A   1      39.984  25.627  27.772  1.00  0.00     0.041 A 
ATOM     71  F   UNL A   1      38.999  26.230  29.809  1.00  0.00    -0.206 F 
ATOM     72  C   UNL A   1      40.892  25.875  26.747  1.00  0.00     0.022 A 
BRANCH  69  73
ATOM     73  S   UNL A   1      42.812  27.437  25.462  1.00  0.00     0.124 S 
ATOM     74  O   UNL A   1      42.908  26.181  24.720  1.00  0.00    -0.237 OA
ATOM     75  O   UNL A   1      42.024  28.491  24.834  1.00  0.00    -0.237 OA
ATOM     76  O   UNL A   1      44.055  27.876  26.091  1.00  0.00    -0.744 OA
ENDBRANCH  69  73
ENDBRANCH  52  66
BRANCH  53  77
ATOM     77  C   UNL A   1      39.611  33.446  37.059  1.00  0.00     0.023 A 
ATOM     78  C   UNL A   1      38.894  32.959  38.164  1.00  0.00     0.031 A 
ATOM     79  C   UNL A   1      40.098  34.764  37.120  1.00  0.00     0.131 A 
ATOM     80  C   UNL A   1      38.641  33.798  39.260  1.00  0.00     0.055 A 
ATOM     81  C   UNL A   1      39.892  35.575  38.238  1.00  0.00     0.041 A 
ATOM     82  F   UNL A   1      40.795  35.279  36.094  1.00  0.00    -0.206 F 
ATOM     83  C   UNL A   1      39.147  35.098  39.310  1.00  0.00     0.022 A 
BRANCH  80  84
ATOM     84  S   UNL A   1      37.559  33.192  40.585  1.00  0.00     0.124 S 
ATOM     85  O   UNL A   1      36.325  32.915  39.858  1.00  0.00    -0.237 OA
ATOM     86  O   UNL A   1      38.295  32.028  41.068  1.00  0.00    -0.237 OA
ATOM     87  O   UNL A   1      37.497  34.317  41.516  1.00  0.00    -0.744 OA
ENDBRANCH  80  84
ENDBRANCH  53  77
BRANCH  65  88
ATOM     88  C   UNL A   1      44.336  28.630  35.312  1.00  0.00     0.023 A 
ATOM     89  C   UNL A   1      44.270  27.587  36.251  1.00  0.00     0.031 A 
ATOM     90  C   UNL A   1      45.587  29.230  35.079  1.00  0.00     0.131 A 
ATOM     91  C   UNL A   1      45.413  27.228  36.980  1.00  0.00     0.055 A 
ATOM     92  C   UNL A   1      46.737  28.819  35.755  1.00  0.00     0.041 A 
ATOM     93  F   UNL A   1      45.712  30.233  34.195  1.00  0.00    -0.206 F 
ATOM     94  C   UNL A   1      46.650  27.825  36.726  1.00  0.00     0.022 A 
BRANCH  91  95
ATOM     95  S   UNL A   1      45.234  26.062  38.359  1.00  0.00     0.124 S 
ATOM     96  O   UNL A   1      44.816  24.844  37.673  1.00  0.00    -0.237 OA
ATOM     97  O   UNL A   1      46.578  26.045  38.927  1.00  0.00    -0.237 OA
ATOM     98  O   UNL A   1      44.212  26.681  39.202  1.00  0.00    -0.744 OA
ENDBRANCH  91  95
ENDBRANCH  65  88
ENDBRANCH  39  40
ENDBRANCH  31  34
ENDBRANCH  29  30
ENDBRANCH  28  29
ENDBRANCH   1  28
TORSDOF 18
ENDMDL
