MODEL 1
REMARK VINA RESULT:     -13.2      0.000      0.000
REMARK SMILES O=C(NCCCNC(=O)[C@@H](Cc1c[nH]c2ccccc12)NC(=O)c1ccc(F)cc1F)c1ccc(-c2c3nc(c(-c4cc(S(=O)(=O)[O-])ccc4F)c4ccc([nH]4)c(-c4cc(S(=O)(=O)[O-])ccc4F)c4nc(c(-c5cc(S(=O)(=O)[O-])ccc5F)c5ccc2[nH]5)C=C4)C=C3)cc1
REMARK SMILES IDX 4 1 3 2 1 3 2 4 32 6 33 7 94 8 34 9 93 10 35 11 36 12 37 13
REMARK SMILES IDX 87 14 38 15 92 16 86 17 88 18 39 19 91 20 85 21 84 22 40 24
REMARK SMILES IDX 72 25 52 26 71 27 53 28 56 29 70 30 89 31 54 32 55 33 69 35
REMARK SMILES IDX 90 36 57 37 41 38 42 39 50 40 43 41 49 42 51 43 48 44 44 45
REMARK SMILES IDX 45 46 46 47 47 48 73 49 74 50 82 51 75 52 81 53 83 54 80 55
REMARK SMILES IDX 76 56 77 57 78 58 79 59 58 60 59 61 67 62 60 63 66 64 68 65
REMARK SMILES IDX 65 66 61 67 62 68 63 69 64 70 5 71 6 72 7 73 8 74 9 76 10 77
REMARK SMILES IDX 11 78 12 79 13 80 20 81 14 82 15 83 19 84 16 86 18 87 17 88
REMARK SMILES IDX 21 89 22 90 23 92 24 93 25 94 30 95 26 96 29 97 31 98 27 99
REMARK SMILES IDX 28 100
REMARK H PARENT 3 5 88 23 56 34 7 75 14 85 21 91
REMARK Flexibility Score: inf
ROOT
ATOM      1  C   UNL A   1      37.773  21.013  24.645  1.00  0.00     0.118 C 
ENDROOT
BRANCH   1   2
ATOM      2  N   UNL A   1      38.659  20.137  25.385  1.00  0.00    -0.352 N 
ATOM      3  O   UNL A   1      40.462  19.451  26.499  1.00  0.00    -0.269 OA
ATOM      4  C   UNL A   1      39.738  20.399  26.193  1.00  0.00     0.251 C 
ATOM      5  H   UNL A   1      38.450  19.179  25.290  1.00  0.00     0.163 HD
BRANCH   4   6
ATOM      6  C   UNL A   1      40.068  21.758  26.708  1.00  0.00     0.039 A 
ATOM      7  C   UNL A   1      41.109  22.004  27.605  1.00  0.00     0.014 A 
ATOM      8  C   UNL A   1      39.402  22.854  26.136  1.00  0.00     0.014 A 
ATOM      9  C   UNL A   1      41.436  23.313  27.976  1.00  0.00     0.010 A 
ATOM     10  C   UNL A   1      39.792  24.166  26.436  1.00  0.00     0.010 A 
ATOM     11  C   UNL A   1      40.824  24.410  27.352  1.00  0.00    -0.014 A 
BRANCH  11  12
ATOM     12  C   UNL A   1      41.382  25.780  27.536  1.00  0.00     0.031 A 
ATOM     13  C   UNL A   1      42.727  26.166  26.985  1.00  0.00     0.074 A 
ATOM     14  C   UNL A   1      40.672  26.674  28.259  1.00  0.00     0.049 A 
ATOM     15  N   UNL A   1      43.370  27.300  27.104  1.00  0.00    -0.248 NA
ATOM     16  C   UNL A   1      43.448  25.147  26.211  1.00  0.00     0.031 C 
ATOM     17  C   UNL A   1      39.370  26.408  28.881  1.00  0.00     0.029 A 
ATOM     18  N   UNL A   1      40.939  27.976  28.605  1.00  0.00    -0.354 N 
ATOM     19  C   UNL A   1      44.579  27.129  26.441  1.00  0.00     0.074 A 
ATOM     20  C   UNL A   1      44.586  25.771  25.935  1.00  0.00     0.031 C 
ATOM     21  C   UNL A   1      38.945  27.514  29.509  1.00  0.00     0.029 A 
ATOM     22  C   UNL A   1      39.968  28.547  29.399  1.00  0.00     0.049 A 
ATOM     23  H   UNL A   1      41.747  28.456  28.314  1.00  0.00     0.167 HD
ATOM     24  C   UNL A   1      45.586  28.022  26.270  1.00  0.00     0.034 A 
ATOM     25  C   UNL A   1      39.917  29.747  30.008  1.00  0.00     0.034 A 
ATOM     26  C   UNL A   1      45.559  29.377  26.766  1.00  0.00     0.049 A 
ATOM     27  C   UNL A   1      41.067  30.701  29.833  1.00  0.00     0.074 A 
ATOM     28  C   UNL A   1      46.480  30.390  26.552  1.00  0.00     0.029 A 
ATOM     29  N   UNL A   1      44.579  29.905  27.595  1.00  0.00    -0.354 N 
ATOM     30  N   UNL A   1      42.168  30.543  29.136  1.00  0.00    -0.248 NA
ATOM     31  C   UNL A   1      40.971  31.991  30.529  1.00  0.00     0.031 C 
ATOM     32  C   UNL A   1      46.094  31.505  27.307  1.00  0.00     0.029 A 
ATOM     33  C   UNL A   1      44.898  31.210  27.942  1.00  0.00     0.049 A 
ATOM     34  H   UNL A   1      43.773  29.424  27.893  1.00  0.00     0.167 HD
ATOM     35  C   UNL A   1      42.892  31.718  29.306  1.00  0.00     0.074 A 
ATOM     36  C   UNL A   1      42.093  32.584  30.149  1.00  0.00     0.031 C 
ATOM     37  C   UNL A   1      44.110  32.051  28.809  1.00  0.00     0.034 A 
BRANCH  24  38
ATOM     38  C   UNL A   1      46.825  27.558  25.548  1.00  0.00     0.023 A 
ATOM     39  C   UNL A   1      47.060  27.872  24.199  1.00  0.00     0.031 A 
ATOM     40  C   UNL A   1      47.797  26.805  26.231  1.00  0.00     0.131 A 
ATOM     41  C   UNL A   1      48.216  27.396  23.562  1.00  0.00     0.055 A 
ATOM     42  C   UNL A   1      48.974  26.385  25.609  1.00  0.00     0.041 A 
ATOM     43  F   UNL A   1      47.615  26.462  27.516  1.00  0.00    -0.206 F 
ATOM     44  C   UNL A   1      49.186  26.673  24.264  1.00  0.00     0.022 A 
BRANCH  41  45
ATOM     45  S   UNL A   1      48.391  27.650  21.776  1.00  0.00     0.124 S 
ATOM     46  O   UNL A   1      47.094  28.230  21.432  1.00  0.00    -0.237 OA
ATOM     47  O   UNL A   1      49.533  28.553  21.695  1.00  0.00    -0.237 OA
ATOM     48  O   UNL A   1      48.621  26.304  21.257  1.00  0.00    -0.744 OA
ENDBRANCH  41  45
ENDBRANCH  24  38
BRANCH  25  49
ATOM     49  C   UNL A   1      38.768  30.093  30.893  1.00  0.00     0.023 A 
ATOM     50  C   UNL A   1      37.698  30.870  30.427  1.00  0.00     0.031 A 
ATOM     51  C   UNL A   1      38.750  29.679  32.238  1.00  0.00     0.131 A 
ATOM     52  C   UNL A   1      36.671  31.242  31.309  1.00  0.00     0.055 A 
ATOM     53  C   UNL A   1      37.700  30.008  33.097  1.00  0.00     0.041 A 
ATOM     54  F   UNL A   1      39.750  28.934  32.734  1.00  0.00    -0.206 F 
ATOM     55  C   UNL A   1      36.657  30.805  32.636  1.00  0.00     0.022 A 
BRANCH  52  56
ATOM     56  S   UNL A   1      35.389  32.382  30.718  1.00  0.00     0.124 S 
ATOM     57  O   UNL A   1      34.395  32.293  31.782  1.00  0.00    -0.237 OA
ATOM     58  O   UNL A   1      36.123  33.640  30.630  1.00  0.00    -0.237 OA
ATOM     59  O   UNL A   1      34.986  31.807  29.437  1.00  0.00    -0.744 OA
ENDBRANCH  52  56
ENDBRANCH  25  49
BRANCH  37  60
ATOM     60  C   UNL A   1      44.633  33.418  29.159  1.00  0.00     0.023 A 
ATOM     61  C   UNL A   1      44.387  34.529  28.332  1.00  0.00     0.031 A 
ATOM     62  C   UNL A   1      45.404  33.610  30.318  1.00  0.00     0.131 A 
ATOM     63  C   UNL A   1      44.945  35.775  28.654  1.00  0.00     0.055 A 
ATOM     64  C   UNL A   1      45.914  34.863  30.660  1.00  0.00     0.041 A 
ATOM     65  F   UNL A   1      45.671  32.580  31.138  1.00  0.00    -0.206 F 
ATOM     66  C   UNL A   1      45.694  35.951  29.821  1.00  0.00     0.022 A 
BRANCH  63  67
ATOM     67  S   UNL A   1      44.732  37.152  27.494  1.00  0.00     0.124 S 
ATOM     68  O   UNL A   1      44.812  38.309  28.379  1.00  0.00    -0.237 OA
ATOM     69  O   UNL A   1      45.855  36.970  26.579  1.00  0.00    -0.237 OA
ATOM     70  O   UNL A   1      43.414  36.907  26.909  1.00  0.00    -0.744 OA
ENDBRANCH  63  67
ENDBRANCH  37  60
ENDBRANCH  11  12
ENDBRANCH   4   6
ENDBRANCH   1   2
BRANCH   1  71
ATOM     71  C   UNL A   1      36.315  20.824  25.041  1.00  0.00     0.042 C 
BRANCH  71  72
ATOM     72  C   UNL A   1      35.461  22.078  24.864  1.00  0.00     0.117 C 
BRANCH  72  73
ATOM     73  N   UNL A   1      34.066  21.722  24.655  1.00  0.00    -0.354 N 
ATOM     74  C   UNL A   1      32.950  22.474  24.481  1.00  0.00     0.242 C 
ATOM     75  H   UNL A   1      33.900  20.751  24.638  1.00  0.00     0.163 HD
ATOM     76  O   UNL A   1      31.872  21.907  24.709  1.00  0.00    -0.273 OA
BRANCH  74  77
ATOM     77  C   UNL A   1      32.949  23.965  24.082  1.00  0.00     0.176 C 
BRANCH  77  78
ATOM     78  C   UNL A   1      33.585  24.928  25.100  1.00  0.00     0.072 C 
BRANCH  78  79
ATOM     79  C   UNL A   1      32.692  25.857  25.861  1.00  0.00    -0.020 A 
ATOM     80  C   UNL A   1      31.410  25.551  26.283  1.00  0.00     0.087 A 
ATOM     81  C   UNL A   1      32.917  27.230  26.214  1.00  0.00     0.003 A 
ATOM     82  N   UNL A   1      30.890  26.637  26.933  1.00  0.00    -0.361 N 
ATOM     83  C   UNL A   1      31.808  27.661  26.945  1.00  0.00     0.046 A 
ATOM     84  C   UNL A   1      33.962  28.154  25.999  1.00  0.00     0.010 A 
ATOM     85  H   UNL A   1      29.991  26.680  27.333  1.00  0.00     0.166 HD
ATOM     86  C   UNL A   1      31.720  28.931  27.525  1.00  0.00     0.026 A 
ATOM     87  C   UNL A   1      33.892  29.431  26.569  1.00  0.00     0.001 A 
ATOM     88  C   UNL A   1      32.792  29.806  27.333  1.00  0.00     0.002 A 
ENDBRANCH  78  79
ENDBRANCH  77  78
BRANCH  77  89
ATOM     89  N   UNL A   1      33.309  24.237  22.687  1.00  0.00    -0.340 N 
ATOM     90  C   UNL A   1      32.956  25.288  21.879  1.00  0.00     0.254 C 
ATOM     91  H   UNL A   1      33.892  23.564  22.267  1.00  0.00     0.164 HD
ATOM     92  O   UNL A   1      33.270  25.284  20.693  1.00  0.00    -0.269 OA
BRANCH  90  93
ATOM     93  C   UNL A   1      32.237  26.452  22.430  1.00  0.00     0.075 A 
ATOM     94  C   UNL A   1      32.849  27.711  22.501  1.00  0.00     0.020 A 
ATOM     95  C   UNL A   1      30.907  26.305  22.829  1.00  0.00     0.138 A 
ATOM     96  C   UNL A   1      32.144  28.795  23.027  1.00  0.00     0.040 A 
ATOM     97  C   UNL A   1      30.196  27.389  23.338  1.00  0.00     0.079 A 
ATOM     98  F   UNL A   1      30.290  25.117  22.754  1.00  0.00    -0.206 F 
ATOM     99  C   UNL A   1      30.825  28.622  23.441  1.00  0.00     0.126 A 
ATOM    100  F   UNL A   1      30.151  29.666  23.941  1.00  0.00    -0.207 F 
ENDBRANCH  90  93
ENDBRANCH  77  89
ENDBRANCH  74  77
ENDBRANCH  72  73
ENDBRANCH  71  72
ENDBRANCH   1  71
TORSDOF 17
ENDMDL
MODEL 2
REMARK VINA RESULT:     -13.2      1.128      2.353
REMARK SMILES O=C(NCCCNC(=O)[C@@H](Cc1c[nH]c2ccccc12)NC(=O)c1ccc(F)cc1F)c1ccc(-c2c3nc(c(-c4cc(S(=O)(=O)[O-])ccc4F)c4ccc([nH]4)c(-c4cc(S(=O)(=O)[O-])ccc4F)c4nc(c(-c5cc(S(=O)(=O)[O-])ccc5F)c5ccc2[nH]5)C=C4)C=C3)cc1
REMARK SMILES IDX 4 1 3 2 1 3 2 4 32 6 33 7 94 8 34 9 93 10 35 11 36 12 37 13
REMARK SMILES IDX 87 14 38 15 92 16 86 17 88 18 39 19 91 20 85 21 84 22 40 24
REMARK SMILES IDX 72 25 52 26 71 27 53 28 56 29 70 30 89 31 54 32 55 33 69 35
REMARK SMILES IDX 90 36 57 37 41 38 42 39 50 40 43 41 49 42 51 43 48 44 44 45
REMARK SMILES IDX 45 46 46 47 47 48 73 49 74 50 82 51 75 52 81 53 83 54 80 55
REMARK SMILES IDX 76 56 77 57 78 58 79 59 58 60 59 61 67 62 60 63 66 64 68 65
REMARK SMILES IDX 65 66 61 67 62 68 63 69 64 70 5 71 6 72 7 73 8 74 9 76 10 77
REMARK SMILES IDX 11 78 12 79 13 80 20 81 14 82 15 83 19 84 16 86 18 87 17 88
REMARK SMILES IDX 21 89 22 90 23 92 24 93 25 94 30 95 26 96 29 97 31 98 27 99
REMARK SMILES IDX 28 100
REMARK H PARENT 3 5 88 23 56 34 7 75 14 85 21 91
REMARK Flexibility Score: inf
ROOT
ATOM      1  C   UNL A   1      37.083  21.387  25.004  1.00  0.00     0.118 C 
ENDROOT
BRANCH   1   2
ATOM      2  N   UNL A   1      38.124  20.487  25.457  1.00  0.00    -0.352 N 
ATOM      3  O   UNL A   1      40.137  19.782  26.103  1.00  0.00    -0.269 OA
ATOM      4  C   UNL A   1      39.343  20.721  26.046  1.00  0.00     0.251 C 
ATOM      5  H   UNL A   1      37.923  19.533  25.316  1.00  0.00     0.163 HD
BRANCH   4   6
ATOM      6  C   UNL A   1      39.742  22.042  26.610  1.00  0.00     0.039 A 
ATOM      7  C   UNL A   1      40.828  22.209  27.470  1.00  0.00     0.014 A 
ATOM      8  C   UNL A   1      39.092  23.186  26.120  1.00  0.00     0.014 A 
ATOM      9  C   UNL A   1      41.217  23.487  27.888  1.00  0.00     0.010 A 
ATOM     10  C   UNL A   1      39.539  24.468  26.464  1.00  0.00     0.010 A 
ATOM     11  C   UNL A   1      40.618  24.633  27.345  1.00  0.00    -0.014 A 
BRANCH  11  12
ATOM     12  C   UNL A   1      41.231  25.973  27.569  1.00  0.00     0.031 A 
ATOM     13  C   UNL A   1      42.599  26.314  27.045  1.00  0.00     0.074 A 
ATOM     14  C   UNL A   1      40.549  26.879  28.304  1.00  0.00     0.049 A 
ATOM     15  N   UNL A   1      43.288  27.416  27.200  1.00  0.00    -0.248 NA
ATOM     16  C   UNL A   1      43.287  25.282  26.256  1.00  0.00     0.031 C 
ATOM     17  C   UNL A   1      39.229  26.655  28.902  1.00  0.00     0.029 A 
ATOM     18  N   UNL A   1      40.867  28.160  28.684  1.00  0.00    -0.354 N 
ATOM     19  C   UNL A   1      44.498  27.208  26.549  1.00  0.00     0.074 A 
ATOM     20  C   UNL A   1      44.454  25.863  26.010  1.00  0.00     0.031 C 
ATOM     21  C   UNL A   1      38.842  27.764  29.550  1.00  0.00     0.029 A 
ATOM     22  C   UNL A   1      39.910  28.754  29.478  1.00  0.00     0.049 A 
ATOM     23  H   UNL A   1      41.698  28.612  28.415  1.00  0.00     0.167 HD
ATOM     24  C   UNL A   1      45.544  28.061  26.413  1.00  0.00     0.034 A 
ATOM     25  C   UNL A   1      39.901  29.941  30.115  1.00  0.00     0.034 A 
ATOM     26  C   UNL A   1      45.568  29.404  26.940  1.00  0.00     0.049 A 
ATOM     27  C   UNL A   1      41.093  30.848  29.978  1.00  0.00     0.074 A 
ATOM     28  C   UNL A   1      46.534  30.382  26.763  1.00  0.00     0.029 A 
ATOM     29  N   UNL A   1      44.600  29.955  27.769  1.00  0.00    -0.354 N 
ATOM     30  N   UNL A   1      42.196  30.659  29.293  1.00  0.00    -0.248 NA
ATOM     31  C   UNL A   1      41.043  32.124  30.703  1.00  0.00     0.031 C 
ATOM     32  C   UNL A   1      46.185  31.494  27.538  1.00  0.00     0.029 A 
ATOM     33  C   UNL A   1      44.970  31.236  28.150  1.00  0.00     0.049 A 
ATOM     34  H   UNL A   1      43.770  29.502  28.044  1.00  0.00     0.167 HD
ATOM     35  C   UNL A   1      42.968  31.798  29.500  1.00  0.00     0.074 A 
ATOM     36  C   UNL A   1      42.195  32.677  30.353  1.00  0.00     0.031 C 
ATOM     37  C   UNL A   1      44.205  32.089  29.027  1.00  0.00     0.034 A 
BRANCH  24  38
ATOM     38  C   UNL A   1      46.772  27.561  25.696  1.00  0.00     0.023 A 
ATOM     39  C   UNL A   1      47.032  27.883  24.353  1.00  0.00     0.031 A 
ATOM     40  C   UNL A   1      47.710  26.765  26.378  1.00  0.00     0.131 A 
ATOM     41  C   UNL A   1      48.176  27.373  23.721  1.00  0.00     0.055 A 
ATOM     42  C   UNL A   1      48.877  26.310  25.762  1.00  0.00     0.041 A 
ATOM     43  F   UNL A   1      47.504  26.413  27.657  1.00  0.00    -0.206 F 
ATOM     44  C   UNL A   1      49.112  26.606  24.423  1.00  0.00     0.022 A 
BRANCH  41  45
ATOM     45  S   UNL A   1      48.377  27.642  21.940  1.00  0.00     0.124 S 
ATOM     46  O   UNL A   1      49.523  28.548  21.904  1.00  0.00    -0.237 OA
ATOM     47  O   UNL A   1      48.616  26.293  21.441  1.00  0.00    -0.237 OA
ATOM     48  O   UNL A   1      47.106  28.240  21.536  1.00  0.00    -0.744 OA
ENDBRANCH  41  45
ENDBRANCH  24  38
BRANCH  25  49
ATOM     49  C   UNL A   1      38.756  30.315  30.993  1.00  0.00     0.023 A 
ATOM     50  C   UNL A   1      37.669  31.049  30.498  1.00  0.00     0.031 A 
ATOM     51  C   UNL A   1      38.758  29.973  32.359  1.00  0.00     0.131 A 
ATOM     52  C   UNL A   1      36.644  31.451  31.370  1.00  0.00     0.055 A 
ATOM     53  C   UNL A   1      37.711  30.330  33.210  1.00  0.00     0.041 A 
ATOM     54  F   UNL A   1      39.775  29.271  32.882  1.00  0.00    -0.206 F 
ATOM     55  C   UNL A   1      36.651  31.085  32.719  1.00  0.00     0.022 A 
BRANCH  52  56
ATOM     56  S   UNL A   1      35.338  32.538  30.733  1.00  0.00     0.124 S 
ATOM     57  O   UNL A   1      34.920  31.829  29.529  1.00  0.00    -0.237 OA
ATOM     58  O   UNL A   1      34.385  32.543  31.838  1.00  0.00    -0.237 OA
ATOM     59  O   UNL A   1      36.031  33.803  30.503  1.00  0.00    -0.744 OA
ENDBRANCH  52  56
ENDBRANCH  25  49
BRANCH  37  60
ATOM     60  C   UNL A   1      44.782  33.425  29.416  1.00  0.00     0.023 A 
ATOM     61  C   UNL A   1      44.599  34.562  28.610  1.00  0.00     0.031 A 
ATOM     62  C   UNL A   1      45.538  33.557  30.593  1.00  0.00     0.131 A 
ATOM     63  C   UNL A   1      45.206  35.775  28.970  1.00  0.00     0.055 A 
ATOM     64  C   UNL A   1      46.097  34.779  30.972  1.00  0.00     0.041 A 
ATOM     65  F   UNL A   1      45.744  32.500  31.394  1.00  0.00    -0.206 F 
ATOM     66  C   UNL A   1      45.940  35.893  30.153  1.00  0.00     0.022 A 
BRANCH  63  67
ATOM     67  S   UNL A   1      45.075  37.185  27.836  1.00  0.00     0.124 S 
ATOM     68  O   UNL A   1      45.536  36.606  26.579  1.00  0.00    -0.237 OA
ATOM     69  O   UNL A   1      43.655  37.514  27.904  1.00  0.00    -0.237 OA
ATOM     70  O   UNL A   1      45.968  38.181  28.425  1.00  0.00    -0.744 OA
ENDBRANCH  63  67
ENDBRANCH  37  60
ENDBRANCH  11  12
ENDBRANCH   4   6
ENDBRANCH   1   2
BRANCH   1  71
ATOM     71  C   UNL A   1      35.711  20.725  25.006  1.00  0.00     0.042 C 
BRANCH  71  72
ATOM     72  C   UNL A   1      34.550  21.718  24.987  1.00  0.00     0.117 C 
BRANCH  72  73
ATOM     73  N   UNL A   1      33.766  21.564  23.771  1.00  0.00    -0.354 N 
ATOM     74  C   UNL A   1      32.583  22.099  23.376  1.00  0.00     0.242 C 
ATOM     75  H   UNL A   1      34.171  20.959  23.109  1.00  0.00     0.163 HD
ATOM     76  O   UNL A   1      31.989  21.495  22.472  1.00  0.00    -0.273 OA
BRANCH  74  77
ATOM     77  C   UNL A   1      31.926  23.343  24.010  1.00  0.00     0.176 C 
BRANCH  77  78
ATOM     78  C   UNL A   1      30.881  24.063  23.139  1.00  0.00     0.072 C 
BRANCH  78  79
ATOM     79  C   UNL A   1      31.119  25.494  22.771  1.00  0.00    -0.020 A 
ATOM     80  C   UNL A   1      32.305  25.991  22.262  1.00  0.00     0.087 A 
ATOM     81  C   UNL A   1      30.250  26.623  22.950  1.00  0.00     0.003 A 
ATOM     82  N   UNL A   1      32.166  27.337  22.056  1.00  0.00    -0.361 N 
ATOM     83  C   UNL A   1      30.905  27.740  22.427  1.00  0.00     0.046 A 
ATOM     84  C   UNL A   1      28.962  26.810  23.495  1.00  0.00     0.010 A 
ATOM     85  H   UNL A   1      32.866  27.930  21.698  1.00  0.00     0.166 HD
ATOM     86  C   UNL A   1      30.316  29.008  22.355  1.00  0.00     0.026 A 
ATOM     87  C   UNL A   1      28.357  28.072  23.435  1.00  0.00     0.001 A 
ATOM     88  C   UNL A   1      29.021  29.150  22.860  1.00  0.00     0.002 A 
ENDBRANCH  78  79
ENDBRANCH  77  78
BRANCH  77  89
ATOM     89  N   UNL A   1      31.539  23.195  25.417  1.00  0.00    -0.340 N 
ATOM     90  C   UNL A   1      31.714  24.058  26.470  1.00  0.00     0.254 C 
ATOM     91  H   UNL A   1      31.086  22.350  25.640  1.00  0.00     0.164 HD
ATOM     92  O   UNL A   1      31.419  23.706  27.608  1.00  0.00    -0.269 OA
BRANCH  90  93
ATOM     93  C   UNL A   1      32.215  25.426  26.246  1.00  0.00     0.075 A 
ATOM     94  C   UNL A   1      33.564  25.660  25.941  1.00  0.00     0.020 A 
ATOM     95  C   UNL A   1      31.318  26.495  26.277  1.00  0.00     0.138 A 
ATOM     96  C   UNL A   1      34.011  26.966  25.733  1.00  0.00     0.040 A 
ATOM     97  C   UNL A   1      31.757  27.797  26.053  1.00  0.00     0.079 A 
ATOM     98  F   UNL A   1      30.019  26.299  26.546  1.00  0.00    -0.206 F 
ATOM     99  C   UNL A   1      33.103  28.020  25.792  1.00  0.00     0.126 A 
ATOM    100  F   UNL A   1      33.535  29.272  25.587  1.00  0.00    -0.207 F 
ENDBRANCH  90  93
ENDBRANCH  77  89
ENDBRANCH  74  77
ENDBRANCH  72  73
ENDBRANCH  71  72
ENDBRANCH   1  71
TORSDOF 17
ENDMDL
MODEL 3
REMARK VINA RESULT:     -13.2      0.700      7.311
REMARK SMILES O=C(NCCCNC(=O)[C@@H](Cc1c[nH]c2ccccc12)NC(=O)c1ccc(F)cc1F)c1ccc(-c2c3nc(c(-c4cc(S(=O)(=O)[O-])ccc4F)c4ccc([nH]4)c(-c4cc(S(=O)(=O)[O-])ccc4F)c4nc(c(-c5cc(S(=O)(=O)[O-])ccc5F)c5ccc2[nH]5)C=C4)C=C3)cc1
REMARK SMILES IDX 4 1 3 2 1 3 2 4 32 6 33 7 94 8 34 9 93 10 35 11 36 12 37 13
REMARK SMILES IDX 87 14 38 15 92 16 86 17 88 18 39 19 91 20 85 21 84 22 40 24
REMARK SMILES IDX 72 25 52 26 71 27 53 28 56 29 70 30 89 31 54 32 55 33 69 35
REMARK SMILES IDX 90 36 57 37 41 38 42 39 50 40 43 41 49 42 51 43 48 44 44 45
REMARK SMILES IDX 45 46 46 47 47 48 73 49 74 50 82 51 75 52 81 53 83 54 80 55
REMARK SMILES IDX 76 56 77 57 78 58 79 59 58 60 59 61 67 62 60 63 66 64 68 65
REMARK SMILES IDX 65 66 61 67 62 68 63 69 64 70 5 71 6 72 7 73 8 74 9 76 10 77
REMARK SMILES IDX 11 78 12 79 13 80 20 81 14 82 15 83 19 84 16 86 18 87 17 88
REMARK SMILES IDX 21 89 22 90 23 92 24 93 25 94 30 95 26 96 29 97 31 98 27 99
REMARK SMILES IDX 28 100
REMARK H PARENT 3 5 88 23 56 34 7 75 14 85 21 91
REMARK Flexibility Score: inf
ROOT
ATOM      1  C   UNL A   1      37.572  21.315  24.840  1.00  0.00     0.118 C 
ENDROOT
BRANCH   1   2
ATOM      2  N   UNL A   1      38.516  20.362  25.391  1.00  0.00    -0.352 N 
ATOM      3  O   UNL A   1      40.408  19.560  26.250  1.00  0.00    -0.269 OA
ATOM      4  C   UNL A   1      39.666  20.534  26.122  1.00  0.00     0.251 C 
ATOM      5  H   UNL A   1      38.293  19.421  25.206  1.00  0.00     0.163 HD
BRANCH   4   6
ATOM      6  C   UNL A   1      40.051  21.826  26.757  1.00  0.00     0.039 A 
ATOM      7  C   UNL A   1      41.049  21.934  27.727  1.00  0.00     0.014 A 
ATOM      8  C   UNL A   1      39.493  23.003  26.234  1.00  0.00     0.014 A 
ATOM      9  C   UNL A   1      41.437  23.187  28.215  1.00  0.00     0.010 A 
ATOM     10  C   UNL A   1      39.948  24.261  26.655  1.00  0.00     0.010 A 
ATOM     11  C   UNL A   1      40.936  24.366  27.643  1.00  0.00    -0.014 A 
BRANCH  11  12
ATOM     12  C   UNL A   1      41.568  25.677  27.963  1.00  0.00     0.031 A 
ATOM     13  C   UNL A   1      40.819  26.757  28.694  1.00  0.00     0.074 A 
ATOM     14  C   UNL A   1      42.830  25.907  27.537  1.00  0.00     0.049 A 
ATOM     15  N   UNL A   1      41.213  27.968  29.001  1.00  0.00    -0.248 NA
ATOM     16  C   UNL A   1      39.450  26.444  29.127  1.00  0.00     0.031 C 
ATOM     17  C   UNL A   1      43.648  24.952  26.782  1.00  0.00     0.029 A 
ATOM     18  N   UNL A   1      43.643  27.006  27.663  1.00  0.00    -0.354 N 
ATOM     19  C   UNL A   1      40.138  28.571  29.643  1.00  0.00     0.074 A 
ATOM     20  C   UNL A   1      39.067  27.595  29.666  1.00  0.00     0.031 C 
ATOM     21  C   UNL A   1      44.849  25.497  26.534  1.00  0.00     0.029 A 
ATOM     22  C   UNL A   1      44.866  26.862  27.047  1.00  0.00     0.049 A 
ATOM     23  H   UNL A   1      43.377  27.820  28.148  1.00  0.00     0.167 HD
ATOM     24  C   UNL A   1      40.056  29.821  30.165  1.00  0.00     0.034 A 
ATOM     25  C   UNL A   1      45.877  27.735  26.872  1.00  0.00     0.034 A 
ATOM     26  C   UNL A   1      41.136  30.778  30.150  1.00  0.00     0.049 A 
ATOM     27  C   UNL A   1      45.740  29.127  27.427  1.00  0.00     0.074 A 
ATOM     28  C   UNL A   1      41.187  32.027  30.747  1.00  0.00     0.029 A 
ATOM     29  N   UNL A   1      42.343  30.609  29.485  1.00  0.00    -0.354 N 
ATOM     30  N   UNL A   1      44.741  29.650  28.098  1.00  0.00    -0.248 NA
ATOM     31  C   UNL A   1      46.862  30.046  27.197  1.00  0.00     0.031 C 
ATOM     32  C   UNL A   1      42.393  32.640  30.385  1.00  0.00     0.029 A 
ATOM     33  C   UNL A   1      43.122  31.749  29.615  1.00  0.00     0.049 A 
ATOM     34  H   UNL A   1      42.608  29.798  28.994  1.00  0.00     0.167 HD
ATOM     35  C   UNL A   1      45.119  30.959  28.376  1.00  0.00     0.074 A 
ATOM     36  C   UNL A   1      46.445  31.138  27.822  1.00  0.00     0.031 C 
ATOM     37  C   UNL A   1      44.430  31.927  29.031  1.00  0.00     0.034 A 
BRANCH  24  38
ATOM     38  C   UNL A   1      38.741  30.247  30.766  1.00  0.00     0.023 A 
ATOM     39  C   UNL A   1      37.801  30.998  30.040  1.00  0.00     0.031 A 
ATOM     40  C   UNL A   1      38.416  29.876  32.083  1.00  0.00     0.131 A 
ATOM     41  C   UNL A   1      36.601  31.393  30.651  1.00  0.00     0.055 A 
ATOM     42  C   UNL A   1      37.194  30.220  32.665  1.00  0.00     0.041 A 
ATOM     43  F   UNL A   1      39.283  29.172  32.828  1.00  0.00    -0.206 F 
ATOM     44  C   UNL A   1      36.282  30.991  31.952  1.00  0.00     0.022 A 
BRANCH  41  45
ATOM     45  S   UNL A   1      35.504  32.526  29.757  1.00  0.00     0.124 S 
ATOM     46  O   UNL A   1      35.302  31.810  28.499  1.00  0.00    -0.237 OA
ATOM     47  O   UNL A   1      34.345  32.605  30.638  1.00  0.00    -0.237 OA
ATOM     48  O   UNL A   1      36.289  33.753  29.648  1.00  0.00    -0.744 OA
ENDBRANCH  41  45
ENDBRANCH  24  38
BRANCH  25  49
ATOM     49  C   UNL A   1      47.081  27.345  26.083  1.00  0.00     0.023 A 
ATOM     50  C   UNL A   1      47.211  27.699  24.732  1.00  0.00     0.031 A 
ATOM     51  C   UNL A   1      48.102  26.573  26.667  1.00  0.00     0.131 A 
ATOM     52  C   UNL A   1      48.321  27.250  23.999  1.00  0.00     0.055 A 
ATOM     53  C   UNL A   1      49.229  26.174  25.947  1.00  0.00     0.041 A 
ATOM     54  F   UNL A   1      48.025  26.209  27.957  1.00  0.00    -0.206 F 
ATOM     55  C   UNL A   1      49.337  26.502  24.600  1.00  0.00     0.022 A 
BRANCH  52  56
ATOM     56  S   UNL A   1      48.376  27.585  22.216  1.00  0.00     0.124 S 
ATOM     57  O   UNL A   1      49.514  28.493  22.118  1.00  0.00    -0.237 OA
ATOM     58  O   UNL A   1      48.573  26.249  21.664  1.00  0.00    -0.237 OA
ATOM     59  O   UNL A   1      47.073  28.186  21.942  1.00  0.00    -0.744 OA
ENDBRANCH  52  56
ENDBRANCH  25  49
BRANCH  37  60
ATOM     60  C   UNL A   1      45.117  33.257  29.191  1.00  0.00     0.023 A 
ATOM     61  C   UNL A   1      44.887  34.311  28.289  1.00  0.00     0.031 A 
ATOM     62  C   UNL A   1      46.025  33.466  30.243  1.00  0.00     0.131 A 
ATOM     63  C   UNL A   1      45.594  35.514  28.429  1.00  0.00     0.055 A 
ATOM     64  C   UNL A   1      46.688  34.684  30.406  1.00  0.00     0.041 A 
ATOM     65  F   UNL A   1      46.281  32.490  31.128  1.00  0.00    -0.206 F 
ATOM     66  C   UNL A   1      46.481  35.712  29.491  1.00  0.00     0.022 A 
BRANCH  63  67
ATOM     67  S   UNL A   1      45.387  36.800  27.167  1.00  0.00     0.124 S 
ATOM     68  O   UNL A   1      45.731  38.009  27.907  1.00  0.00    -0.237 OA
ATOM     69  O   UNL A   1      46.338  36.388  26.139  1.00  0.00    -0.237 OA
ATOM     70  O   UNL A   1      43.980  36.683  26.787  1.00  0.00    -0.744 OA
ENDBRANCH  63  67
ENDBRANCH  37  60
ENDBRANCH  11  12
ENDBRANCH   4   6
ENDBRANCH   1   2
BRANCH   1  71
ATOM     71  C   UNL A   1      36.130  20.853  25.001  1.00  0.00     0.042 C 
BRANCH  71  72
ATOM     72  C   UNL A   1      35.135  21.996  25.190  1.00  0.00     0.117 C 
BRANCH  72  73
ATOM     73  N   UNL A   1      33.845  21.652  24.613  1.00  0.00    -0.354 N 
ATOM     74  C   UNL A   1      32.796  22.412  24.208  1.00  0.00     0.242 C 
ATOM     75  H   UNL A   1      33.706  20.685  24.495  1.00  0.00     0.163 HD
ATOM     76  O   UNL A   1      31.705  21.831  24.121  1.00  0.00    -0.273 OA
BRANCH  74  77
ATOM     77  C   UNL A   1      32.870  23.925  23.914  1.00  0.00     0.176 C 
BRANCH  77  78
ATOM     78  C   UNL A   1      33.514  24.788  25.012  1.00  0.00     0.072 C 
BRANCH  78  79
ATOM     79  C   UNL A   1      32.643  25.723  25.792  1.00  0.00    -0.020 A 
ATOM     80  C   UNL A   1      31.362  25.431  26.225  1.00  0.00     0.087 A 
ATOM     81  C   UNL A   1      32.892  27.089  26.155  1.00  0.00     0.003 A 
ATOM     82  N   UNL A   1      30.864  26.518  26.891  1.00  0.00    -0.361 N 
ATOM     83  C   UNL A   1      31.796  27.529  26.902  1.00  0.00     0.046 A 
ATOM     84  C   UNL A   1      33.948  28.000  25.937  1.00  0.00     0.010 A 
ATOM     85  H   UNL A   1      29.970  26.570  27.301  1.00  0.00     0.166 HD
ATOM     86  C   UNL A   1      31.734  28.795  27.495  1.00  0.00     0.026 A 
ATOM     87  C   UNL A   1      33.901  29.272  26.520  1.00  0.00     0.001 A 
ATOM     88  C   UNL A   1      32.815  29.656  27.300  1.00  0.00     0.002 A 
ENDBRANCH  78  79
ENDBRANCH  77  78
BRANCH  77  89
ATOM     89  N   UNL A   1      33.284  24.276  22.551  1.00  0.00    -0.340 N 
ATOM     90  C   UNL A   1      32.920  25.345  21.771  1.00  0.00     0.254 C 
ATOM     91  H   UNL A   1      33.918  23.650  22.133  1.00  0.00     0.164 HD
ATOM     92  O   UNL A   1      33.291  25.408  20.603  1.00  0.00    -0.269 OA
BRANCH  90  93
ATOM     93  C   UNL A   1      32.119  26.448  22.334  1.00  0.00     0.075 A 
ATOM     94  C   UNL A   1      30.784  26.248  22.715  1.00  0.00     0.020 A 
ATOM     95  C   UNL A   1      32.721  27.689  22.545  1.00  0.00     0.138 A 
ATOM     96  C   UNL A   1      30.050  27.311  23.246  1.00  0.00     0.040 A 
ATOM     97  C   UNL A   1      31.996  28.746  23.090  1.00  0.00     0.079 A 
ATOM     98  F   UNL A   1      34.001  27.903  22.208  1.00  0.00    -0.206 F 
ATOM     99  C   UNL A   1      30.664  28.548  23.427  1.00  0.00     0.126 A 
ATOM    100  F   UNL A   1      29.956  29.563  23.940  1.00  0.00    -0.207 F 
ENDBRANCH  90  93
ENDBRANCH  77  89
ENDBRANCH  74  77
ENDBRANCH  72  73
ENDBRANCH  71  72
ENDBRANCH   1  71
TORSDOF 17
ENDMDL
