MODEL 1
REMARK VINA RESULT:     -11.7      0.000      0.000
REMARK SMILES N#Cc1c(F)cccc1Sc1ncccc1C(=O)NCCCNC(=O)c1ccc(-c2c3nc(c(-c4cc(S(=O)(=O)[O-])ccc4F)c4ccc([nH]4)c(-c4cc(S(=O)(=O)[O-])ccc4F)c4nc(c(-c5cc(S(=O)(=O)[O-])ccc5F)c5ccc2[nH]5)C=C4)C=C3)cc1
REMARK SMILES IDX 21 1 20 2 19 3 17 4 18 5 16 7 11 8 12 9 13 10 15 11 14 12
REMARK SMILES IDX 10 13 9 14 3 15 4 16 5 17 6 18 8 19 7 20 2 21 1 22 22 23
REMARK SMILES IDX 23 24 24 25 25 27 26 28 27 29 88 30 28 31 87 32 29 33 30 34
REMARK SMILES IDX 31 35 81 36 32 37 86 38 80 39 82 40 33 41 85 42 79 43 78 44
REMARK SMILES IDX 34 46 66 47 46 48 65 49 47 50 50 51 64 52 83 53 48 54 49 55
REMARK SMILES IDX 63 57 84 58 51 59 35 60 36 61 44 62 37 63 43 64 45 65 42 66
REMARK SMILES IDX 38 67 39 68 40 69 41 70 67 71 68 72 76 73 69 74 75 75 77 76
REMARK SMILES IDX 74 77 70 78 71 79 72 80 73 81 52 82 53 83 61 84 54 85 60 86
REMARK SMILES IDX 62 87 59 88 55 89 56 90 57 91 58 92
REMARK H PARENT 19 6 23 26 82 45 50 56
REMARK Flexibility Score: inf
ROOT
ATOM      1  C   UNL A   1      32.282  28.079  27.425  1.00  0.00     0.042 C 
ENDROOT
BRANCH   1   2
ATOM      2  C   UNL A   1      31.686  27.208  26.329  1.00  0.00     0.118 C 
BRANCH   2   3
ATOM      3  N   UNL A   1      31.356  25.876  26.801  1.00  0.00    -0.352 N 
ATOM      4  C   UNL A   1      31.822  24.600  26.628  1.00  0.00     0.254 C 
ATOM      5  O   UNL A   1      31.249  23.777  27.346  1.00  0.00    -0.269 OA
ATOM      6  H   UNL A   1      30.585  25.894  27.413  1.00  0.00     0.163 HD
BRANCH   4   7
ATOM      7  C   UNL A   1      32.909  24.157  25.697  1.00  0.00     0.072 A 
ATOM      8  C   UNL A   1      32.626  23.784  24.365  1.00  0.00     0.114 A 
ATOM      9  N   UNL A   1      33.578  23.291  23.514  1.00  0.00    -0.249 NA
ATOM     10  C   UNL A   1      34.851  23.223  23.933  1.00  0.00     0.112 A 
ATOM     11  C   UNL A   1      34.263  24.101  26.057  1.00  0.00     0.018 A 
ATOM     12  C   UNL A   1      35.243  23.634  25.181  1.00  0.00     0.021 A 
BRANCH   8  13
ATOM     13  S   UNL A   1      31.073  23.858  23.507  1.00  0.00    -0.068 SA
BRANCH  13  14
ATOM     14  C   UNL A   1      30.608  25.576  23.280  1.00  0.00     0.035 A 
ATOM     15  C   UNL A   1      31.315  26.635  22.684  1.00  0.00     0.102 A 
ATOM     16  C   UNL A   1      30.741  27.915  22.653  1.00  0.00     0.142 A 
ATOM     17  F   UNL A   1      31.420  28.942  22.119  1.00  0.00    -0.206 F 
ATOM     18  C   UNL A   1      29.471  28.169  23.155  1.00  0.00     0.041 A 
ATOM     19  C   UNL A   1      29.311  25.852  23.776  1.00  0.00     0.017 A 
ATOM     20  C   UNL A   1      28.744  27.128  23.709  1.00  0.00     0.004 A 
BRANCH  15  21
ATOM     21  C   UNL A   1      32.599  26.520  22.073  1.00  0.00     0.103 C 
ATOM     22  N   UNL A   1      33.635  26.387  21.560  1.00  0.00    -0.192 NA
ENDBRANCH  15  21
ENDBRANCH  13  14
ENDBRANCH   8  13
ENDBRANCH   4   7
ENDBRANCH   2   3
ENDBRANCH   1   2
BRANCH   1  23
ATOM     23  C   UNL A   1      33.654  28.638  27.052  1.00  0.00     0.118 C 
BRANCH  23  24
ATOM     24  N   UNL A   1      33.683  30.098  27.108  1.00  0.00    -0.352 N 
ATOM     25  C   UNL A   1      34.507  30.945  27.805  1.00  0.00     0.251 C 
ATOM     26  H   UNL A   1      33.001  30.546  26.558  1.00  0.00     0.163 HD
ATOM     27  O   UNL A   1      34.168  32.112  27.973  1.00  0.00    -0.269 OA
BRANCH  25  28
ATOM     28  C   UNL A   1      35.791  30.450  28.336  1.00  0.00     0.039 A 
ATOM     29  C   UNL A   1      35.818  29.784  29.563  1.00  0.00     0.014 A 
ATOM     30  C   UNL A   1      36.976  30.678  27.633  1.00  0.00     0.014 A 
ATOM     31  C   UNL A   1      37.029  29.291  30.052  1.00  0.00     0.010 A 
ATOM     32  C   UNL A   1      38.161  30.103  28.070  1.00  0.00     0.010 A 
ATOM     33  C   UNL A   1      38.203  29.415  29.291  1.00  0.00    -0.014 A 
BRANCH  33  34
ATOM     34  C   UNL A   1      39.496  28.857  29.756  1.00  0.00     0.031 A 
ATOM     35  C   UNL A   1      40.253  29.548  30.857  1.00  0.00     0.074 A 
ATOM     36  C   UNL A   1      40.017  27.778  29.141  1.00  0.00     0.049 A 
ATOM     37  N   UNL A   1      41.445  29.290  31.330  1.00  0.00    -0.248 NA
ATOM     38  C   UNL A   1      39.595  30.704  31.486  1.00  0.00     0.031 C 
ATOM     39  C   UNL A   1      39.383  27.042  28.044  1.00  0.00     0.029 A 
ATOM     40  N   UNL A   1      41.203  27.117  29.341  1.00  0.00    -0.354 N 
ATOM     41  C   UNL A   1      41.683  30.257  32.301  1.00  0.00     0.074 A 
ATOM     42  C   UNL A   1      40.543  31.147  32.296  1.00  0.00     0.031 C 
ATOM     43  C   UNL A   1      40.170  26.014  27.693  1.00  0.00     0.029 A 
ATOM     44  C   UNL A   1      41.392  26.054  28.487  1.00  0.00     0.049 A 
ATOM     45  H   UNL A   1      41.855  27.376  30.031  1.00  0.00     0.167 HD
ATOM     46  C   UNL A   1      42.745  30.374  33.136  1.00  0.00     0.034 A 
ATOM     47  C   UNL A   1      42.443  25.223  28.346  1.00  0.00     0.034 A 
ATOM     48  C   UNL A   1      43.871  29.474  33.121  1.00  0.00     0.049 A 
ATOM     49  C   UNL A   1      43.643  25.413  29.242  1.00  0.00     0.074 A 
ATOM     50  C   UNL A   1      44.983  29.473  33.946  1.00  0.00     0.029 A 
ATOM     51  N   UNL A   1      44.039  28.422  32.228  1.00  0.00    -0.354 N 
ATOM     52  N   UNL A   1      43.840  26.309  30.182  1.00  0.00    -0.248 NA
ATOM     53  C   UNL A   1      44.757  24.474  29.063  1.00  0.00     0.031 C 
ATOM     54  C   UNL A   1      45.863  28.486  33.492  1.00  0.00     0.029 A 
ATOM     55  C   UNL A   1      45.255  27.794  32.457  1.00  0.00     0.049 A 
ATOM     56  H   UNL A   1      43.391  28.161  31.535  1.00  0.00     0.167 HD
ATOM     57  C   UNL A   1      45.083  26.013  30.733  1.00  0.00     0.074 A 
ATOM     58  C   UNL A   1      45.584  24.852  30.027  1.00  0.00     0.031 C 
ATOM     59  C   UNL A   1      45.746  26.639  31.740  1.00  0.00     0.034 A 
BRANCH  46  60
ATOM     60  C   UNL A   1      42.747  31.535  34.101  1.00  0.00     0.023 A 
ATOM     61  C   UNL A   1      42.127  31.454  35.361  1.00  0.00     0.031 A 
ATOM     62  C   UNL A   1      43.352  32.755  33.748  1.00  0.00     0.131 A 
ATOM     63  C   UNL A   1      42.050  32.589  36.179  1.00  0.00     0.055 A 
ATOM     64  C   UNL A   1      43.357  33.853  34.610  1.00  0.00     0.041 A 
ATOM     65  F   UNL A   1      43.936  32.906  32.548  1.00  0.00    -0.206 F 
ATOM     66  C   UNL A   1      42.688  33.779  35.828  1.00  0.00     0.022 A 
BRANCH  63  67
ATOM     67  S   UNL A   1      40.958  32.536  37.627  1.00  0.00     0.124 S 
ATOM     68  O   UNL A   1      40.764  33.958  37.901  1.00  0.00    -0.237 OA
ATOM     69  O   UNL A   1      39.794  31.818  37.120  1.00  0.00    -0.237 OA
ATOM     70  O   UNL A   1      41.748  31.820  38.627  1.00  0.00    -0.744 OA
ENDBRANCH  63  67
ENDBRANCH  46  60
BRANCH  47  71
ATOM     71  C   UNL A   1      42.424  24.148  27.311  1.00  0.00     0.023 A 
ATOM     72  C   UNL A   1      41.796  22.917  27.559  1.00  0.00     0.031 A 
ATOM     73  C   UNL A   1      43.071  24.319  26.074  1.00  0.00     0.131 A 
ATOM     74  C   UNL A   1      41.877  21.888  26.608  1.00  0.00     0.055 A 
ATOM     75  C   UNL A   1      43.089  23.316  25.105  1.00  0.00     0.041 A 
ATOM     76  F   UNL A   1      43.689  25.475  25.784  1.00  0.00    -0.206 F 
ATOM     77  C   UNL A   1      42.501  22.084  25.376  1.00  0.00     0.022 A 
BRANCH  74  78
ATOM     78  S   UNL A   1      41.246  20.247  27.055  1.00  0.00     0.124 S 
ATOM     79  O   UNL A   1      40.790  20.467  28.422  1.00  0.00    -0.237 OA
ATOM     80  O   UNL A   1      40.204  20.038  26.055  1.00  0.00    -0.237 OA
ATOM     81  O   UNL A   1      42.418  19.384  26.919  1.00  0.00    -0.744 OA
ENDBRANCH  74  78
ENDBRANCH  47  71
BRANCH  59  82
ATOM     82  C   UNL A   1      47.059  26.038  32.185  1.00  0.00     0.023 A 
ATOM     83  C   UNL A   1      48.268  26.308  31.522  1.00  0.00     0.031 A 
ATOM     84  C   UNL A   1      47.095  25.181  33.300  1.00  0.00     0.131 A 
ATOM     85  C   UNL A   1      49.451  25.679  31.942  1.00  0.00     0.055 A 
ATOM     86  C   UNL A   1      48.286  24.620  33.761  1.00  0.00     0.041 A 
ATOM     87  F   UNL A   1      45.970  24.880  33.969  1.00  0.00    -0.206 F 
ATOM     88  C   UNL A   1      49.471  24.857  33.072  1.00  0.00     0.022 A 
BRANCH  85  89
ATOM     89  S   UNL A   1      50.942  25.858  30.925  1.00  0.00     0.124 S 
ATOM     90  O   UNL A   1      51.945  25.178  31.738  1.00  0.00    -0.237 OA
ATOM     91  O   UNL A   1      50.559  25.184  29.689  1.00  0.00    -0.237 OA
ATOM     92  O   UNL A   1      51.110  27.306  30.816  1.00  0.00    -0.744 OA
ENDBRANCH  85  89
ENDBRANCH  59  82
ENDBRANCH  33  34
ENDBRANCH  25  28
ENDBRANCH  23  24
ENDBRANCH   1  23
TORSDOF 16
ENDMDL
MODEL 2
REMARK VINA RESULT:     -11.7      2.657      8.214
REMARK SMILES N#Cc1c(F)cccc1Sc1ncccc1C(=O)NCCCNC(=O)c1ccc(-c2c3nc(c(-c4cc(S(=O)(=O)[O-])ccc4F)c4ccc([nH]4)c(-c4cc(S(=O)(=O)[O-])ccc4F)c4nc(c(-c5cc(S(=O)(=O)[O-])ccc5F)c5ccc2[nH]5)C=C4)C=C3)cc1
REMARK SMILES IDX 21 1 20 2 19 3 17 4 18 5 16 7 11 8 12 9 13 10 15 11 14 12
REMARK SMILES IDX 10 13 9 14 3 15 4 16 5 17 6 18 8 19 7 20 2 21 1 22 22 23
REMARK SMILES IDX 23 24 24 25 25 27 26 28 27 29 88 30 28 31 87 32 29 33 30 34
REMARK SMILES IDX 31 35 81 36 32 37 86 38 80 39 82 40 33 41 85 42 79 43 78 44
REMARK SMILES IDX 34 46 66 47 46 48 65 49 47 50 50 51 64 52 83 53 48 54 49 55
REMARK SMILES IDX 63 57 84 58 51 59 35 60 36 61 44 62 37 63 43 64 45 65 42 66
REMARK SMILES IDX 38 67 39 68 40 69 41 70 67 71 68 72 76 73 69 74 75 75 77 76
REMARK SMILES IDX 74 77 70 78 71 79 72 80 73 81 52 82 53 83 61 84 54 85 60 86
REMARK SMILES IDX 62 87 59 88 55 89 56 90 57 91 58 92
REMARK H PARENT 19 6 23 26 82 45 50 56
REMARK Flexibility Score: inf
ROOT
ATOM      1  C   UNL A   1      31.894  28.310  25.859  1.00  0.00     0.042 C 
ENDROOT
BRANCH   1   2
ATOM      2  C   UNL A   1      32.281  27.376  26.998  1.00  0.00     0.118 C 
BRANCH   2   3
ATOM      3  N   UNL A   1      31.467  26.176  27.027  1.00  0.00    -0.352 N 
ATOM      4  C   UNL A   1      31.558  24.884  26.583  1.00  0.00     0.254 C 
ATOM      5  O   UNL A   1      30.613  24.181  26.949  1.00  0.00    -0.269 OA
ATOM      6  H   UNL A   1      30.615  26.332  27.496  1.00  0.00     0.163 HD
BRANCH   4   7
ATOM      7  C   UNL A   1      32.651  24.295  25.743  1.00  0.00     0.072 A 
ATOM      8  C   UNL A   1      32.406  23.864  24.421  1.00  0.00     0.114 A 
ATOM      9  N   UNL A   1      33.356  23.242  23.656  1.00  0.00    -0.249 NA
ATOM     10  C   UNL A   1      34.595  23.096  24.151  1.00  0.00     0.112 A 
ATOM     11  C   UNL A   1      33.974  24.151  26.183  1.00  0.00     0.018 A 
ATOM     12  C   UNL A   1      34.955  23.551  25.393  1.00  0.00     0.021 A 
BRANCH   8  13
ATOM     13  S   UNL A   1      30.913  24.011  23.473  1.00  0.00    -0.068 SA
BRANCH  13  14
ATOM     14  C   UNL A   1      30.550  25.749  23.213  1.00  0.00     0.035 A 
ATOM     15  C   UNL A   1      31.330  26.759  22.624  1.00  0.00     0.102 A 
ATOM     16  C   UNL A   1      30.829  28.068  22.563  1.00  0.00     0.142 A 
ATOM     17  F   UNL A   1      31.578  29.049  22.036  1.00  0.00    -0.206 F 
ATOM     18  C   UNL A   1      29.562  28.398  23.027  1.00  0.00     0.041 A 
ATOM     19  C   UNL A   1      29.258  26.102  23.670  1.00  0.00     0.017 A 
ATOM     20  C   UNL A   1      28.764  27.406  23.572  1.00  0.00     0.004 A 
BRANCH  15  21
ATOM     21  C   UNL A   1      32.622  26.566  22.050  1.00  0.00     0.103 C 
ATOM     22  N   UNL A   1      33.668  26.366  21.583  1.00  0.00    -0.192 NA
ENDBRANCH  15  21
ENDBRANCH  13  14
ENDBRANCH   8  13
ENDBRANCH   4   7
ENDBRANCH   2   3
ENDBRANCH   1   2
BRANCH   1  23
ATOM     23  C   UNL A   1      32.980  29.339  25.548  1.00  0.00     0.118 C 
BRANCH  23  24
ATOM     24  N   UNL A   1      32.576  30.691  25.929  1.00  0.00    -0.352 N 
ATOM     25  C   UNL A   1      33.003  31.490  26.960  1.00  0.00     0.251 C 
ATOM     26  H   UNL A   1      31.886  31.093  25.353  1.00  0.00     0.163 HD
ATOM     27  O   UNL A   1      32.319  32.449  27.301  1.00  0.00    -0.269 OA
BRANCH  25  28
ATOM     28  C   UNL A   1      34.278  31.195  27.639  1.00  0.00     0.039 A 
ATOM     29  C   UNL A   1      35.243  32.198  27.758  1.00  0.00     0.014 A 
ATOM     30  C   UNL A   1      34.533  29.911  28.128  1.00  0.00     0.014 A 
ATOM     31  C   UNL A   1      36.438  31.926  28.426  1.00  0.00     0.010 A 
ATOM     32  C   UNL A   1      35.677  29.671  28.875  1.00  0.00     0.010 A 
ATOM     33  C   UNL A   1      36.648  30.672  29.021  1.00  0.00    -0.014 A 
BRANCH  33  34
ATOM     34  C   UNL A   1      37.884  30.367  29.782  1.00  0.00     0.031 A 
ATOM     35  C   UNL A   1      38.885  29.395  29.221  1.00  0.00     0.074 A 
ATOM     36  C   UNL A   1      38.067  30.909  31.003  1.00  0.00     0.049 A 
ATOM     37  N   UNL A   1      39.966  28.909  29.773  1.00  0.00    -0.248 NA
ATOM     38  C   UNL A   1      38.613  28.874  27.872  1.00  0.00     0.031 C 
ATOM     39  C   UNL A   1      37.150  31.845  31.657  1.00  0.00     0.029 A 
ATOM     40  N   UNL A   1      39.079  30.743  31.915  1.00  0.00    -0.354 N 
ATOM     41  C   UNL A   1      40.496  28.018  28.846  1.00  0.00     0.074 A 
ATOM     42  C   UNL A   1      39.577  27.978  27.730  1.00  0.00     0.031 C 
ATOM     43  C   UNL A   1      37.658  32.195  32.849  1.00  0.00     0.029 A 
ATOM     44  C   UNL A   1      38.898  31.461  33.075  1.00  0.00     0.049 A 
ATOM     45  H   UNL A   1      39.860  30.168  31.754  1.00  0.00     0.167 HD
ATOM     46  C   UNL A   1      41.655  27.318  28.912  1.00  0.00     0.034 A 
ATOM     47  C   UNL A   1      39.636  31.502  34.201  1.00  0.00     0.034 A 
ATOM     48  C   UNL A   1      42.555  27.374  30.037  1.00  0.00     0.049 A 
ATOM     49  C   UNL A   1      40.888  30.664  34.278  1.00  0.00     0.074 A 
ATOM     50  C   UNL A   1      43.775  26.739  30.195  1.00  0.00     0.029 A 
ATOM     51  N   UNL A   1      42.329  28.094  31.204  1.00  0.00    -0.354 N 
ATOM     52  N   UNL A   1      41.397  29.853  33.379  1.00  0.00    -0.248 NA
ATOM     53  C   UNL A   1      41.669  30.752  35.518  1.00  0.00     0.031 C 
ATOM     54  C   UNL A   1      44.237  26.998  31.488  1.00  0.00     0.029 A 
ATOM     55  C   UNL A   1      43.366  27.885  32.100  1.00  0.00     0.049 A 
ATOM     56  H   UNL A   1      41.547  28.669  31.369  1.00  0.00     0.167 HD
ATOM     57  C   UNL A   1      42.580  29.370  33.930  1.00  0.00     0.074 A 
ATOM     58  C   UNL A   1      42.711  29.986  35.234  1.00  0.00     0.031 C 
ATOM     59  C   UNL A   1      43.482  28.502  33.402  1.00  0.00     0.034 A 
BRANCH  46  60
ATOM     60  C   UNL A   1      41.987  26.411  27.751  1.00  0.00     0.023 A 
ATOM     61  C   UNL A   1      41.573  25.067  27.718  1.00  0.00     0.031 A 
ATOM     62  C   UNL A   1      42.755  26.885  26.672  1.00  0.00     0.131 A 
ATOM     63  C   UNL A   1      42.000  24.227  26.681  1.00  0.00     0.055 A 
ATOM     64  C   UNL A   1      43.094  26.068  25.592  1.00  0.00     0.041 A 
ATOM     65  F   UNL A   1      43.205  28.150  26.657  1.00  0.00    -0.206 F 
ATOM     66  C   UNL A   1      42.731  24.724  25.601  1.00  0.00     0.022 A 
BRANCH  63  67
ATOM     67  S   UNL A   1      41.733  22.440  26.851  1.00  0.00     0.124 S 
ATOM     68  O   UNL A   1      42.040  21.967  25.504  1.00  0.00    -0.237 OA
ATOM     69  O   UNL A   1      42.688  22.076  27.891  1.00  0.00    -0.237 OA
ATOM     70  O   UNL A   1      40.325  22.339  27.233  1.00  0.00    -0.744 OA
ENDBRANCH  63  67
ENDBRANCH  46  60
BRANCH  47  71
ATOM     71  C   UNL A   1      39.210  32.348  35.354  1.00  0.00     0.023 A 
ATOM     72  C   UNL A   1      39.659  33.672  35.485  1.00  0.00     0.031 A 
ATOM     73  C   UNL A   1      38.381  31.832  36.367  1.00  0.00     0.131 A 
ATOM     74  C   UNL A   1      39.324  34.414  36.628  1.00  0.00     0.055 A 
ATOM     75  C   UNL A   1      37.995  32.598  37.468  1.00  0.00     0.041 A 
ATOM     76  F   UNL A   1      37.923  30.572  36.294  1.00  0.00    -0.206 F 
ATOM     77  C   UNL A   1      38.480  33.894  37.610  1.00  0.00     0.022 A 
BRANCH  74  78
ATOM     78  S   UNL A   1      40.102  36.036  36.865  1.00  0.00     0.124 S 
ATOM     79  O   UNL A   1      39.425  36.516  38.063  1.00  0.00    -0.237 OA
ATOM     80  O   UNL A   1      41.508  35.680  37.019  1.00  0.00    -0.237 OA
ATOM     81  O   UNL A   1      39.774  36.752  35.633  1.00  0.00    -0.744 OA
ENDBRANCH  74  78
ENDBRANCH  47  71
BRANCH  59  82
ATOM     82  C   UNL A   1      44.728  28.220  34.209  1.00  0.00     0.023 A 
ATOM     83  C   UNL A   1      44.810  27.141  35.106  1.00  0.00     0.031 A 
ATOM     84  C   UNL A   1      45.856  29.049  34.069  1.00  0.00     0.131 A 
ATOM     85  C   UNL A   1      45.972  26.956  35.872  1.00  0.00     0.055 A 
ATOM     86  C   UNL A   1      47.036  28.815  34.776  1.00  0.00     0.041 A 
ATOM     87  F   UNL A   1      45.834  30.100  33.233  1.00  0.00    -0.206 F 
ATOM     88  C   UNL A   1      47.093  27.772  35.694  1.00  0.00     0.022 A 
BRANCH  85  89
ATOM     89  S   UNL A   1      45.960  25.707  37.186  1.00  0.00     0.124 S 
ATOM     90  O   UNL A   1      46.190  24.477  36.436  1.00  0.00    -0.237 OA
ATOM     91  O   UNL A   1      47.056  26.146  38.044  1.00  0.00    -0.237 OA
ATOM     92  O   UNL A   1      44.626  25.837  37.770  1.00  0.00    -0.744 OA
ENDBRANCH  85  89
ENDBRANCH  59  82
ENDBRANCH  33  34
ENDBRANCH  25  28
ENDBRANCH  23  24
ENDBRANCH   1  23
TORSDOF 16
ENDMDL
MODEL 3
REMARK VINA RESULT:     -11.5      2.166      3.429
REMARK SMILES N#Cc1c(F)cccc1Sc1ncccc1C(=O)NCCCNC(=O)c1ccc(-c2c3nc(c(-c4cc(S(=O)(=O)[O-])ccc4F)c4ccc([nH]4)c(-c4cc(S(=O)(=O)[O-])ccc4F)c4nc(c(-c5cc(S(=O)(=O)[O-])ccc5F)c5ccc2[nH]5)C=C4)C=C3)cc1
REMARK SMILES IDX 21 1 20 2 19 3 17 4 18 5 16 7 11 8 12 9 13 10 15 11 14 12
REMARK SMILES IDX 10 13 9 14 3 15 4 16 5 17 6 18 8 19 7 20 2 21 1 22 22 23
REMARK SMILES IDX 23 24 24 25 25 27 26 28 27 29 88 30 28 31 87 32 29 33 30 34
REMARK SMILES IDX 31 35 81 36 32 37 86 38 80 39 82 40 33 41 85 42 79 43 78 44
REMARK SMILES IDX 34 46 66 47 46 48 65 49 47 50 50 51 64 52 83 53 48 54 49 55
REMARK SMILES IDX 63 57 84 58 51 59 35 60 36 61 44 62 37 63 43 64 45 65 42 66
REMARK SMILES IDX 38 67 39 68 40 69 41 70 67 71 68 72 76 73 69 74 75 75 77 76
REMARK SMILES IDX 74 77 70 78 71 79 72 80 73 81 52 82 53 83 61 84 54 85 60 86
REMARK SMILES IDX 62 87 59 88 55 89 56 90 57 91 58 92
REMARK H PARENT 19 6 23 26 82 45 50 56
REMARK Flexibility Score: inf
ROOT
ATOM      1  C   UNL A   1      33.230  27.968  26.817  1.00  0.00     0.042 C 
ENDROOT
BRANCH   1   2
ATOM      2  C   UNL A   1      31.714  28.045  26.941  1.00  0.00     0.118 C 
BRANCH   2   3
ATOM      3  N   UNL A   1      31.090  26.736  26.895  1.00  0.00    -0.352 N 
ATOM      4  C   UNL A   1      31.192  25.596  26.142  1.00  0.00     0.254 C 
ATOM      5  O   UNL A   1      30.488  24.676  26.565  1.00  0.00    -0.269 OA
ATOM      6  H   UNL A   1      30.406  26.640  27.596  1.00  0.00     0.163 HD
BRANCH   4   7
ATOM      7  C   UNL A   1      32.043  25.392  24.926  1.00  0.00     0.072 A 
ATOM      8  C   UNL A   1      33.174  24.548  24.957  1.00  0.00     0.114 A 
ATOM      9  N   UNL A   1      34.023  24.407  23.893  1.00  0.00    -0.249 NA
ATOM     10  C   UNL A   1      33.736  25.038  22.744  1.00  0.00     0.112 A 
ATOM     11  C   UNL A   1      31.777  25.989  23.685  1.00  0.00     0.018 A 
ATOM     12  C   UNL A   1      32.620  25.818  22.587  1.00  0.00     0.021 A 
BRANCH   8  13
ATOM     13  S   UNL A   1      33.745  23.520  26.287  1.00  0.00    -0.068 SA
BRANCH  13  14
ATOM     14  C   UNL A   1      35.388  22.913  25.898  1.00  0.00     0.035 A 
ATOM     15  C   UNL A   1      35.796  21.670  25.385  1.00  0.00     0.102 A 
ATOM     16  C   UNL A   1      37.163  21.420  25.191  1.00  0.00     0.142 A 
ATOM     17  F   UNL A   1      37.570  20.225  24.737  1.00  0.00    -0.206 F 
ATOM     18  C   UNL A   1      38.134  22.380  25.448  1.00  0.00     0.041 A 
ATOM     19  C   UNL A   1      36.391  23.882  26.143  1.00  0.00     0.017 A 
ATOM     20  C   UNL A   1      37.746  23.625  25.915  1.00  0.00     0.004 A 
BRANCH  15  21
ATOM     21  C   UNL A   1      34.918  20.607  25.016  1.00  0.00     0.103 C 
ATOM     22  N   UNL A   1      34.232  19.713  24.729  1.00  0.00    -0.192 NA
ENDBRANCH  15  21
ENDBRANCH  13  14
ENDBRANCH   8  13
ENDBRANCH   4   7
ENDBRANCH   2   3
ENDBRANCH   1   2
BRANCH   1  23
ATOM     23  C   UNL A   1      33.797  29.033  25.880  1.00  0.00     0.118 C 
BRANCH  23  24
ATOM     24  N   UNL A   1      33.704  30.373  26.456  1.00  0.00    -0.352 N 
ATOM     25  C   UNL A   1      34.366  30.931  27.520  1.00  0.00     0.251 C 
ATOM     26  H   UNL A   1      33.063  30.971  26.009  1.00  0.00     0.163 HD
ATOM     27  O   UNL A   1      33.918  31.947  28.043  1.00  0.00    -0.269 OA
BRANCH  25  28
ATOM     28  C   UNL A   1      35.609  30.314  28.020  1.00  0.00     0.039 A 
ATOM     29  C   UNL A   1      36.767  30.371  27.241  1.00  0.00     0.014 A 
ATOM     30  C   UNL A   1      35.618  29.646  29.246  1.00  0.00     0.014 A 
ATOM     31  C   UNL A   1      37.950  29.811  27.726  1.00  0.00     0.010 A 
ATOM     32  C   UNL A   1      36.814  29.178  29.769  1.00  0.00     0.010 A 
ATOM     33  C   UNL A   1      37.991  29.243  29.009  1.00  0.00    -0.014 A 
BRANCH  33  34
ATOM     34  C   UNL A   1      39.243  28.686  29.576  1.00  0.00     0.031 A 
ATOM     35  C   UNL A   1      39.880  29.346  30.768  1.00  0.00     0.074 A 
ATOM     36  C   UNL A   1      39.839  27.637  28.977  1.00  0.00     0.049 A 
ATOM     37  N   UNL A   1      41.025  29.087  31.344  1.00  0.00    -0.248 NA
ATOM     38  C   UNL A   1      39.146  30.470  31.371  1.00  0.00     0.031 C 
ATOM     39  C   UNL A   1      39.324  26.933  27.799  1.00  0.00     0.029 A 
ATOM     40  N   UNL A   1      41.010  26.985  29.266  1.00  0.00    -0.354 N 
ATOM     41  C   UNL A   1      41.154  30.021  32.367  1.00  0.00     0.074 A 
ATOM     42  C   UNL A   1      40.005  30.895  32.283  1.00  0.00     0.031 C 
ATOM     43  C   UNL A   1      40.158  25.929  27.489  1.00  0.00     0.029 A 
ATOM     44  C   UNL A   1      41.298  25.957  28.398  1.00  0.00     0.049 A 
ATOM     45  H   UNL A   1      41.589  27.228  30.024  1.00  0.00     0.167 HD
ATOM     46  C   UNL A   1      42.129  30.122  33.302  1.00  0.00     0.034 A 
ATOM     47  C   UNL A   1      42.372  25.145  28.329  1.00  0.00     0.034 A 
ATOM     48  C   UNL A   1      43.267  29.238  33.364  1.00  0.00     0.049 A 
ATOM     49  C   UNL A   1      43.477  25.318  29.342  1.00  0.00     0.074 A 
ATOM     50  C   UNL A   1      44.295  29.223  34.291  1.00  0.00     0.029 A 
ATOM     51  N   UNL A   1      43.537  28.222  32.455  1.00  0.00    -0.354 N 
ATOM     52  N   UNL A   1      43.568  26.182  30.327  1.00  0.00    -0.248 NA
ATOM     53  C   UNL A   1      44.619  24.402  29.238  1.00  0.00     0.031 C 
ATOM     54  C   UNL A   1      45.230  28.264  33.890  1.00  0.00     0.029 A 
ATOM     55  C   UNL A   1      44.735  27.603  32.777  1.00  0.00     0.049 A 
ATOM     56  H   UNL A   1      42.962  27.978  31.695  1.00  0.00     0.167 HD
ATOM     57  C   UNL A   1      44.758  25.884  30.984  1.00  0.00     0.074 A 
ATOM     58  C   UNL A   1      45.343  24.756  30.289  1.00  0.00     0.031 C 
ATOM     59  C   UNL A   1      45.312  26.481  32.071  1.00  0.00     0.034 A 
BRANCH  46  60
ATOM     60  C   UNL A   1      42.020  31.248  34.303  1.00  0.00     0.023 A 
ATOM     61  C   UNL A   1      41.039  31.251  35.311  1.00  0.00     0.031 A 
ATOM     62  C   UNL A   1      42.890  32.350  34.234  1.00  0.00     0.131 A 
ATOM     63  C   UNL A   1      40.895  32.367  36.147  1.00  0.00     0.055 A 
ATOM     64  C   UNL A   1      42.805  33.416  35.133  1.00  0.00     0.041 A 
ATOM     65  F   UNL A   1      43.830  32.421  33.278  1.00  0.00    -0.206 F 
ATOM     66  C   UNL A   1      41.791  33.436  36.087  1.00  0.00     0.022 A 
BRANCH  63  67
ATOM     67  S   UNL A   1      39.418  32.478  37.194  1.00  0.00     0.124 S 
ATOM     68  O   UNL A   1      40.009  32.633  38.521  1.00  0.00    -0.237 OA
ATOM     69  O   UNL A   1      38.736  33.649  36.656  1.00  0.00    -0.237 OA
ATOM     70  O   UNL A   1      38.742  31.202  36.968  1.00  0.00    -0.744 OA
ENDBRANCH  63  67
ENDBRANCH  46  60
BRANCH  47  71
ATOM     71  C   UNL A   1      42.469  24.109  27.260  1.00  0.00     0.023 A 
ATOM     72  C   UNL A   1      41.901  22.836  27.433  1.00  0.00     0.031 A 
ATOM     73  C   UNL A   1      43.169  24.360  26.067  1.00  0.00     0.131 A 
ATOM     74  C   UNL A   1      42.092  21.847  26.455  1.00  0.00     0.055 A 
ATOM     75  C   UNL A   1      43.296  23.394  25.067  1.00  0.00     0.041 A 
ATOM     76  F   UNL A   1      43.734  25.558  25.849  1.00  0.00    -0.206 F 
ATOM     77  C   UNL A   1      42.767  22.123  25.266  1.00  0.00     0.022 A 
BRANCH  74  78
ATOM     78  S   UNL A   1      41.534  20.159  26.813  1.00  0.00     0.124 S 
ATOM     79  O   UNL A   1      40.206  20.397  27.365  1.00  0.00    -0.237 OA
ATOM     80  O   UNL A   1      41.581  19.537  25.494  1.00  0.00    -0.237 OA
ATOM     81  O   UNL A   1      42.528  19.668  27.766  1.00  0.00    -0.744 OA
ENDBRANCH  74  78
ENDBRANCH  47  71
BRANCH  59  82
ATOM     82  C   UNL A   1      46.587  25.882  32.619  1.00  0.00     0.023 A 
ATOM     83  C   UNL A   1      46.579  24.870  33.594  1.00  0.00     0.031 A 
ATOM     84  C   UNL A   1      47.833  26.335  32.147  1.00  0.00     0.131 A 
ATOM     85  C   UNL A   1      47.792  24.387  34.109  1.00  0.00     0.055 A 
ATOM     86  C   UNL A   1      49.035  25.796  32.606  1.00  0.00     0.041 A 
ATOM     87  F   UNL A   1      47.903  27.305  31.222  1.00  0.00    -0.206 F 
ATOM     88  C   UNL A   1      49.019  24.826  33.604  1.00  0.00     0.022 A 
BRANCH  85  89
ATOM     89  S   UNL A   1      47.749  23.260  35.529  1.00  0.00     0.124 S 
ATOM     90  O   UNL A   1      46.319  23.177  35.806  1.00  0.00    -0.237 OA
ATOM     91  O   UNL A   1      48.364  22.053  34.988  1.00  0.00    -0.237 OA
ATOM     92  O   UNL A   1      48.538  23.956  36.543  1.00  0.00    -0.744 OA
ENDBRANCH  85  89
ENDBRANCH  59  82
ENDBRANCH  33  34
ENDBRANCH  25  28
ENDBRANCH  23  24
ENDBRANCH   1  23
TORSDOF 16
ENDMDL
