MODEL 1
REMARK VINA RESULT:     -12.1      0.000      0.000
REMARK SMILES NC(=O)[C@@H]1CCCCN1c1cncc(C(=O)NCCCNC(=O)c2ccc(-c3c4nc(c(-c5cc(S(=O)(=O)[O-])ccc5F)c5ccc([nH]5)c(-c5cc(S(=O)(=O)[O-])ccc5F)c5nc(c(-c6cc(S(=O)(=O)[O-])ccc6F)c6ccc3[nH]6)C=C5)C=C4)cc2)n1
REMARK SMILES IDX 19 1 18 2 17 3 15 4 16 5 14 7 10 8 11 9 87 10 12 11 13 12
REMARK SMILES IDX 9 13 4 14 5 15 6 16 8 17 7 18 2 19 1 20 3 23 20 24 21 25
REMARK SMILES IDX 22 26 23 28 24 29 25 30 86 31 26 32 85 33 27 34 28 35 29 36
REMARK SMILES IDX 79 37 30 38 84 39 78 40 80 41 31 42 83 43 77 44 76 45 32 47
REMARK SMILES IDX 64 48 44 49 63 50 45 51 48 52 62 53 81 54 46 55 47 56 61 58
REMARK SMILES IDX 82 59 49 60 33 61 34 62 42 63 35 64 41 65 43 66 40 67 36 68
REMARK SMILES IDX 37 69 38 70 39 71 65 72 66 73 74 74 67 75 73 76 75 77 72 78
REMARK SMILES IDX 68 79 69 80 70 81 71 82 50 83 51 84 59 85 52 86 58 87 60 88
REMARK SMILES IDX 57 89 53 90 54 91 55 92 56 93
REMARK H PARENT 17 6 1 21 1 22 21 27 80 46 48 57
REMARK Flexibility Score: inf
ROOT
ATOM      1  C   UNL A   1      36.085  21.997  25.760  1.00  0.00     0.042 C 
ENDROOT
BRANCH   1   2
ATOM      2  C   UNL A   1      35.037  21.963  24.654  1.00  0.00     0.118 C 
BRANCH   2   3
ATOM      3  N   UNL A   1      34.005  20.973  24.910  1.00  0.00    -0.351 N 
ATOM      4  C   UNL A   1      32.674  21.115  25.217  1.00  0.00     0.271 C 
ATOM      5  O   UNL A   1      32.015  20.084  25.377  1.00  0.00    -0.267 OA
ATOM      6  H   UNL A   1      34.314  20.039  24.854  1.00  0.00     0.163 HD
BRANCH   4   7
ATOM      7  C   UNL A   1      31.994  22.436  25.368  1.00  0.00     0.148 A 
ATOM      8  C   UNL A   1      31.051  24.355  24.482  1.00  0.00     0.148 A 
ATOM      9  C   UNL A   1      30.806  24.776  25.799  1.00  0.00     0.157 A 
ATOM     10  N   UNL A   1      31.649  23.169  24.273  1.00  0.00    -0.222 NA
ATOM     11  N   UNL A   1      31.121  24.065  26.908  1.00  0.00    -0.258 NA
ATOM     12  C   UNL A   1      31.725  22.881  26.657  1.00  0.00     0.145 A 
BRANCH   8  13
ATOM     13  N   UNL A   1      30.665  25.145  23.408  1.00  0.00    -0.343 N 
ATOM     14  C   UNL A   1      31.635  25.666  22.407  1.00  0.00     0.172 C 
ATOM     15  C   UNL A   1      31.975  27.135  22.660  1.00  0.00     0.035 C 
ATOM     16  C   UNL A   1      30.705  27.973  22.763  1.00  0.00     0.004 C 
ATOM     17  C   UNL A   1      29.456  25.954  23.613  1.00  0.00     0.119 C 
ATOM     18  C   UNL A   1      29.810  27.422  23.867  1.00  0.00     0.022 C 
BRANCH  14  19
ATOM     19  C   UNL A   1      32.903  24.812  22.196  1.00  0.00     0.240 C 
ATOM     20  N   UNL A   1      32.724  23.669  21.462  1.00  0.00    -0.368 N 
ATOM     21  H   UNL A   1      33.487  23.073  21.286  1.00  0.00     0.159 HD
ATOM     22  H   UNL A   1      31.832  23.443  21.112  1.00  0.00     0.159 HD
ATOM     23  O   UNL A   1      34.034  25.136  22.545  1.00  0.00    -0.273 OA
ENDBRANCH  14  19
ENDBRANCH   8  13
ENDBRANCH   4   7
ENDBRANCH   2   3
ENDBRANCH   1   2
BRANCH   1  24
ATOM     24  C   UNL A   1      37.507  22.168  25.238  1.00  0.00     0.118 C 
BRANCH  24  25
ATOM     25  N   UNL A   1      38.435  21.228  25.854  1.00  0.00    -0.352 N 
ATOM     26  C   UNL A   1      39.623  21.436  26.499  1.00  0.00     0.251 C 
ATOM     27  H   UNL A   1      38.161  20.284  25.796  1.00  0.00     0.163 HD
ATOM     28  O   UNL A   1      40.349  20.465  26.732  1.00  0.00    -0.269 OA
BRANCH  26  29
ATOM     29  C   UNL A   1      40.048  22.788  26.915  1.00  0.00     0.039 A 
ATOM     30  C   UNL A   1      39.576  23.891  26.194  1.00  0.00     0.014 A 
ATOM     31  C   UNL A   1      40.961  22.981  27.956  1.00  0.00     0.014 A 
ATOM     32  C   UNL A   1      39.999  25.178  26.531  1.00  0.00     0.010 A 
ATOM     33  C   UNL A   1      41.310  24.269  28.348  1.00  0.00     0.010 A 
ATOM     34  C   UNL A   1      40.859  25.380  27.622  1.00  0.00    -0.014 A 
BRANCH  34  35
ATOM     35  C   UNL A   1      41.358  26.736  27.967  1.00  0.00     0.031 A 
ATOM     36  C   UNL A   1      42.764  27.128  27.596  1.00  0.00     0.074 A 
ATOM     37  C   UNL A   1      40.568  27.593  28.643  1.00  0.00     0.049 A 
ATOM     38  N   UNL A   1      43.420  28.228  27.866  1.00  0.00    -0.248 NA
ATOM     39  C   UNL A   1      43.552  26.130  26.854  1.00  0.00     0.031 C 
ATOM     40  C   UNL A   1      39.201  27.312  29.086  1.00  0.00     0.029 A 
ATOM     41  N   UNL A   1      40.801  28.872  29.079  1.00  0.00    -0.354 N 
ATOM     42  C   UNL A   1      44.697  28.045  27.347  1.00  0.00     0.074 A 
ATOM     43  C   UNL A   1      44.743  26.703  26.811  1.00  0.00     0.031 C 
ATOM     44  C   UNL A   1      38.708  28.396  29.705  1.00  0.00     0.029 A 
ATOM     45  C   UNL A   1      39.734  29.434  29.741  1.00  0.00     0.049 A 
ATOM     46  H   UNL A   1      41.653  29.344  28.932  1.00  0.00     0.167 HD
ATOM     47  C   UNL A   1      45.728  28.927  27.295  1.00  0.00     0.034 A 
ATOM     48  C   UNL A   1      39.603  30.646  30.314  1.00  0.00     0.034 A 
ATOM     49  C   UNL A   1      45.654  30.270  27.813  1.00  0.00     0.049 A 
ATOM     50  C   UNL A   1      40.759  31.612  30.241  1.00  0.00     0.074 A 
ATOM     51  C   UNL A   1      46.618  31.263  27.784  1.00  0.00     0.029 A 
ATOM     52  N   UNL A   1      44.547  30.814  28.455  1.00  0.00    -0.354 N 
ATOM     53  N   UNL A   1      41.950  31.439  29.715  1.00  0.00    -0.248 NA
ATOM     54  C   UNL A   1      40.545  32.944  30.820  1.00  0.00     0.031 C 
ATOM     55  C   UNL A   1      46.115  32.383  28.456  1.00  0.00     0.029 A 
ATOM     56  C   UNL A   1      44.810  32.119  28.839  1.00  0.00     0.049 A 
ATOM     57  H   UNL A   1      43.698  30.339  28.613  1.00  0.00     0.167 HD
ATOM     58  C   UNL A   1      42.612  32.655  29.864  1.00  0.00     0.074 A 
ATOM     59  C   UNL A   1      41.682  33.553  30.519  1.00  0.00     0.031 C 
ATOM     60  C   UNL A   1      43.870  33.002  29.489  1.00  0.00     0.034 A 
BRANCH  47  61
ATOM     61  C   UNL A   1      47.021  28.445  26.676  1.00  0.00     0.023 A 
ATOM     62  C   UNL A   1      47.195  28.380  25.282  1.00  0.00     0.031 A 
ATOM     63  C   UNL A   1      48.081  28.005  27.488  1.00  0.00     0.131 A 
ATOM     64  C   UNL A   1      48.356  27.805  24.744  1.00  0.00     0.055 A 
ATOM     65  C   UNL A   1      49.272  27.517  26.946  1.00  0.00     0.041 A 
ATOM     66  F   UNL A   1      47.971  28.022  28.827  1.00  0.00    -0.206 F 
ATOM     67  C   UNL A   1      49.409  27.397  25.567  1.00  0.00     0.022 A 
BRANCH  64  68
ATOM     68  S   UNL A   1      48.405  27.454  22.965  1.00  0.00     0.124 S 
ATOM     69  O   UNL A   1      48.279  25.998  22.951  1.00  0.00    -0.237 OA
ATOM     70  O   UNL A   1      47.256  28.200  22.464  1.00  0.00    -0.237 OA
ATOM     71  O   UNL A   1      49.709  27.963  22.550  1.00  0.00    -0.744 OA
ENDBRANCH  64  68
ENDBRANCH  47  61
BRANCH  48  72
ATOM     72  C   UNL A   1      38.333  31.026  30.998  1.00  0.00     0.023 A 
ATOM     73  C   UNL A   1      37.300  31.668  30.298  1.00  0.00     0.031 A 
ATOM     74  C   UNL A   1      38.152  30.788  32.372  1.00  0.00     0.131 A 
ATOM     75  C   UNL A   1      36.153  32.099  30.984  1.00  0.00     0.055 A 
ATOM     76  C   UNL A   1      36.986  31.171  33.038  1.00  0.00     0.041 A 
ATOM     77  F   UNL A   1      39.105  30.170  33.087  1.00  0.00    -0.206 F 
ATOM     78  C   UNL A   1      35.984  31.843  32.346  1.00  0.00     0.022 A 
BRANCH  75  79
ATOM     79  S   UNL A   1      34.919  33.078  30.084  1.00  0.00     0.124 S 
ATOM     80  O   UNL A   1      34.028  33.495  31.160  1.00  0.00    -0.237 OA
ATOM     81  O   UNL A   1      35.742  34.126  29.488  1.00  0.00    -0.237 OA
ATOM     82  O   UNL A   1      34.351  32.122  29.136  1.00  0.00    -0.744 OA
ENDBRANCH  75  79
ENDBRANCH  48  72
BRANCH  60  83
ATOM     83  C   UNL A   1      44.283  34.435  29.720  1.00  0.00     0.023 A 
ATOM     84  C   UNL A   1      44.001  35.450  28.791  1.00  0.00     0.031 A 
ATOM     85  C   UNL A   1      44.987  34.782  30.888  1.00  0.00     0.131 A 
ATOM     86  C   UNL A   1      44.477  36.751  29.013  1.00  0.00     0.055 A 
ATOM     87  C   UNL A   1      45.403  36.091  31.133  1.00  0.00     0.041 A 
ATOM     88  F   UNL A   1      45.285  33.852  31.809  1.00  0.00    -0.206 F 
ATOM     89  C   UNL A   1      45.162  37.081  30.185  1.00  0.00     0.022 A 
BRANCH  86  90
ATOM     90  S   UNL A   1      44.280  37.986  27.699  1.00  0.00     0.124 S 
ATOM     91  O   UNL A   1      45.396  37.669  26.813  1.00  0.00    -0.237 OA
ATOM     92  O   UNL A   1      42.950  37.681  27.182  1.00  0.00    -0.237 OA
ATOM     93  O   UNL A   1      44.392  39.261  28.406  1.00  0.00    -0.744 OA
ENDBRANCH  86  90
ENDBRANCH  60  83
ENDBRANCH  34  35
ENDBRANCH  26  29
ENDBRANCH  24  25
ENDBRANCH   1  24
TORSDOF 15
ENDMDL
MODEL 2
REMARK VINA RESULT:     -12.1      5.776      8.776
REMARK SMILES NC(=O)[C@@H]1CCCCN1c1cncc(C(=O)NCCCNC(=O)c2ccc(-c3c4nc(c(-c5cc(S(=O)(=O)[O-])ccc5F)c5ccc([nH]5)c(-c5cc(S(=O)(=O)[O-])ccc5F)c5nc(c(-c6cc(S(=O)(=O)[O-])ccc6F)c6ccc3[nH]6)C=C5)C=C4)cc2)n1
REMARK SMILES IDX 19 1 18 2 17 3 15 4 16 5 14 7 10 8 11 9 87 10 12 11 13 12
REMARK SMILES IDX 9 13 4 14 5 15 6 16 8 17 7 18 2 19 1 20 3 23 20 24 21 25
REMARK SMILES IDX 22 26 23 28 24 29 25 30 86 31 26 32 85 33 27 34 28 35 29 36
REMARK SMILES IDX 79 37 30 38 84 39 78 40 80 41 31 42 83 43 77 44 76 45 32 47
REMARK SMILES IDX 64 48 44 49 63 50 45 51 48 52 62 53 81 54 46 55 47 56 61 58
REMARK SMILES IDX 82 59 49 60 33 61 34 62 42 63 35 64 41 65 43 66 40 67 36 68
REMARK SMILES IDX 37 69 38 70 39 71 65 72 66 73 74 74 67 75 73 76 75 77 72 78
REMARK SMILES IDX 68 79 69 80 70 81 71 82 50 83 51 84 59 85 52 86 58 87 60 88
REMARK SMILES IDX 57 89 53 90 54 91 55 92 56 93
REMARK H PARENT 17 6 1 21 1 22 21 27 80 46 48 57
REMARK Flexibility Score: inf
ROOT
ATOM      1  C   UNL A   1      31.511  31.891  26.602  1.00  0.00     0.042 C 
ENDROOT
BRANCH   1   2
ATOM      2  C   UNL A   1      31.633  30.453  26.113  1.00  0.00     0.118 C 
BRANCH   2   3
ATOM      3  N   UNL A   1      31.046  30.272  24.797  1.00  0.00    -0.351 N 
ATOM      4  C   UNL A   1      31.097  29.212  23.924  1.00  0.00     0.271 C 
ATOM      5  O   UNL A   1      30.488  29.326  22.857  1.00  0.00    -0.267 OA
ATOM      6  H   UNL A   1      30.524  31.043  24.474  1.00  0.00     0.163 HD
BRANCH   4   7
ATOM      7  C   UNL A   1      31.842  27.948  24.198  1.00  0.00     0.148 A 
ATOM      8  C   UNL A   1      31.993  25.638  24.232  1.00  0.00     0.148 A 
ATOM      9  C   UNL A   1      33.288  25.785  24.753  1.00  0.00     0.157 A 
ATOM     10  N   UNL A   1      31.270  26.737  23.950  1.00  0.00    -0.222 NA
ATOM     11  N   UNL A   1      33.892  26.974  24.995  1.00  0.00    -0.258 NA
ATOM     12  C   UNL A   1      33.131  28.054  24.704  1.00  0.00     0.145 A 
BRANCH   8  13
ATOM     13  N   UNL A   1      31.471  24.374  23.993  1.00  0.00    -0.343 N 
ATOM     14  C   UNL A   1      31.112  23.435  25.089  1.00  0.00     0.172 C 
ATOM     15  C   UNL A   1      32.180  22.358  25.284  1.00  0.00     0.035 C 
ATOM     16  C   UNL A   1      32.486  21.657  23.965  1.00  0.00     0.004 C 
ATOM     17  C   UNL A   1      31.856  23.756  22.716  1.00  0.00     0.119 C 
ATOM     18  C   UNL A   1      32.926  22.681  22.925  1.00  0.00     0.022 C 
BRANCH  14  19
ATOM     19  C   UNL A   1      30.708  24.091  26.427  1.00  0.00     0.240 C 
ATOM     20  N   UNL A   1      29.456  24.645  26.452  1.00  0.00    -0.368 N 
ATOM     21  H   UNL A   1      29.128  25.082  27.272  1.00  0.00     0.159 HD
ATOM     22  H   UNL A   1      28.884  24.608  25.652  1.00  0.00     0.159 HD
ATOM     23  O   UNL A   1      31.375  24.055  27.457  1.00  0.00    -0.273 OA
ENDBRANCH  14  19
ENDBRANCH   8  13
ENDBRANCH   4   7
ENDBRANCH   2   3
ENDBRANCH   1   2
BRANCH   1  24
ATOM     24  C   UNL A   1      32.794  32.426  27.228  1.00  0.00     0.118 C 
BRANCH  24  25
ATOM     25  N   UNL A   1      32.678  33.830  27.605  1.00  0.00    -0.352 N 
ATOM     26  C   UNL A   1      33.256  34.534  28.625  1.00  0.00     0.251 C 
ATOM     27  H   UNL A   1      32.083  34.361  27.027  1.00  0.00     0.163 HD
ATOM     28  O   UNL A   1      32.825  35.661  28.886  1.00  0.00    -0.269 OA
BRANCH  26  29
ATOM     29  C   UNL A   1      34.373  33.973  29.411  1.00  0.00     0.039 A 
ATOM     30  C   UNL A   1      35.684  34.292  29.039  1.00  0.00     0.014 A 
ATOM     31  C   UNL A   1      34.150  33.078  30.463  1.00  0.00     0.014 A 
ATOM     32  C   UNL A   1      36.761  33.737  29.732  1.00  0.00     0.010 A 
ATOM     33  C   UNL A   1      35.222  32.597  31.209  1.00  0.00     0.010 A 
ATOM     34  C   UNL A   1      36.540  32.896  30.834  1.00  0.00    -0.014 A 
BRANCH  34  35
ATOM     35  C   UNL A   1      37.671  32.257  31.554  1.00  0.00     0.031 A 
ATOM     36  C   UNL A   1      38.441  31.144  30.893  1.00  0.00     0.074 A 
ATOM     37  C   UNL A   1      37.978  32.647  32.807  1.00  0.00     0.049 A 
ATOM     38  N   UNL A   1      39.410  30.406  31.370  1.00  0.00    -0.248 NA
ATOM     39  C   UNL A   1      38.039  30.789  29.522  1.00  0.00     0.031 C 
ATOM     40  C   UNL A   1      37.281  33.690  33.562  1.00  0.00     0.029 A 
ATOM     41  N   UNL A   1      38.952  32.210  33.667  1.00  0.00    -0.354 N 
ATOM     42  C   UNL A   1      39.717  29.489  30.369  1.00  0.00     0.074 A 
ATOM     43  C   UNL A   1      38.783  29.721  29.289  1.00  0.00     0.031 C 
ATOM     44  C   UNL A   1      37.868  33.831  34.761  1.00  0.00     0.029 A 
ATOM     45  C   UNL A   1      38.955  32.864  34.877  1.00  0.00     0.049 A 
ATOM     46  H   UNL A   1      39.591  31.496  33.440  1.00  0.00     0.167 HD
ATOM     47  C   UNL A   1      40.706  28.560  30.340  1.00  0.00     0.034 A 
ATOM     48  C   UNL A   1      39.742  32.696  35.958  1.00  0.00     0.034 A 
ATOM     49  C   UNL A   1      41.643  28.362  31.418  1.00  0.00     0.049 A 
ATOM     50  C   UNL A   1      40.838  31.661  35.903  1.00  0.00     0.074 A 
ATOM     51  C   UNL A   1      42.707  27.480  31.488  1.00  0.00     0.029 A 
ATOM     52  N   UNL A   1      41.631  29.061  32.620  1.00  0.00    -0.354 N 
ATOM     53  N   UNL A   1      41.140  30.825  34.937  1.00  0.00    -0.248 NA
ATOM     54  C   UNL A   1      41.712  31.562  37.079  1.00  0.00     0.031 C 
ATOM     55  C   UNL A   1      43.300  27.605  32.749  1.00  0.00     0.029 A 
ATOM     56  C   UNL A   1      42.657  28.619  33.440  1.00  0.00     0.049 A 
ATOM     57  H   UNL A   1      40.986  29.768  32.854  1.00  0.00     0.167 HD
ATOM     58  C   UNL A   1      42.265  30.131  35.372  1.00  0.00     0.074 A 
ATOM     59  C   UNL A   1      42.591  30.654  36.683  1.00  0.00     0.031 C 
ATOM     60  C   UNL A   1      42.970  29.154  34.745  1.00  0.00     0.034 A 
BRANCH  47  61
ATOM     61  C   UNL A   1      40.797  27.683  29.113  1.00  0.00     0.023 A 
ATOM     62  C   UNL A   1      41.744  27.922  28.101  1.00  0.00     0.031 A 
ATOM     63  C   UNL A   1      39.898  26.617  28.928  1.00  0.00     0.131 A 
ATOM     64  C   UNL A   1      41.714  27.170  26.917  1.00  0.00     0.055 A 
ATOM     65  C   UNL A   1      39.931  25.814  27.786  1.00  0.00     0.041 A 
ATOM     66  F   UNL A   1      38.956  26.349  29.847  1.00  0.00    -0.206 F 
ATOM     67  C   UNL A   1      40.830  26.099  26.763  1.00  0.00     0.022 A 
BRANCH  64  68
ATOM     68  S   UNL A   1      42.736  27.712  25.520  1.00  0.00     0.124 S 
ATOM     69  O   UNL A   1      42.696  26.535  24.654  1.00  0.00    -0.237 OA
ATOM     70  O   UNL A   1      42.016  28.885  25.038  1.00  0.00    -0.237 OA
ATOM     71  O   UNL A   1      44.035  27.983  26.130  1.00  0.00    -0.744 OA
ENDBRANCH  64  68
ENDBRANCH  47  61
BRANCH  48  72
ATOM     72  C   UNL A   1      39.537  33.527  37.180  1.00  0.00     0.023 A 
ATOM     73  C   UNL A   1      40.298  34.686  37.400  1.00  0.00     0.031 A 
ATOM     74  C   UNL A   1      38.606  33.151  38.164  1.00  0.00     0.131 A 
ATOM     75  C   UNL A   1      40.152  35.401  38.600  1.00  0.00     0.055 A 
ATOM     76  C   UNL A   1      38.427  33.896  39.331  1.00  0.00     0.041 A 
ATOM     77  F   UNL A   1      37.848  32.056  37.998  1.00  0.00    -0.206 F 
ATOM     78  C   UNL A   1      39.213  35.020  39.561  1.00  0.00     0.022 A 
BRANCH  75  79
ATOM     79  S   UNL A   1      41.273  36.790  38.925  1.00  0.00     0.124 S 
ATOM     80  O   UNL A   1      42.012  36.875  37.671  1.00  0.00    -0.237 OA
ATOM     81  O   UNL A   1      40.336  37.876  39.195  1.00  0.00    -0.237 OA
ATOM     82  O   UNL A   1      42.048  36.338  40.079  1.00  0.00    -0.744 OA
ENDBRANCH  75  79
ENDBRANCH  48  72
BRANCH  60  83
ATOM     83  C   UNL A   1      44.203  28.641  35.447  1.00  0.00     0.023 A 
ATOM     84  C   UNL A   1      44.146  27.592  36.380  1.00  0.00     0.031 A 
ATOM     85  C   UNL A   1      45.454  29.228  35.185  1.00  0.00     0.131 A 
ATOM     86  C   UNL A   1      45.307  27.205  37.066  1.00  0.00     0.055 A 
ATOM     87  C   UNL A   1      46.617  28.796  35.825  1.00  0.00     0.041 A 
ATOM     88  F   UNL A   1      45.567  30.234  34.304  1.00  0.00    -0.206 F 
ATOM     89  C   UNL A   1      46.544  27.789  36.783  1.00  0.00     0.022 A 
BRANCH  86  90
ATOM     90  S   UNL A   1      45.161  25.997  38.412  1.00  0.00     0.124 S 
ATOM     91  O   UNL A   1      46.520  25.970  38.946  1.00  0.00    -0.237 OA
ATOM     92  O   UNL A   1      44.152  26.610  39.271  1.00  0.00    -0.237 OA
ATOM     93  O   UNL A   1      44.738  24.775  37.733  1.00  0.00    -0.744 OA
ENDBRANCH  86  90
ENDBRANCH  60  83
ENDBRANCH  34  35
ENDBRANCH  26  29
ENDBRANCH  24  25
ENDBRANCH   1  24
TORSDOF 15
ENDMDL
MODEL 3
REMARK VINA RESULT:     -12.0      4.918     10.114
REMARK SMILES NC(=O)[C@@H]1CCCCN1c1cncc(C(=O)NCCCNC(=O)c2ccc(-c3c4nc(c(-c5cc(S(=O)(=O)[O-])ccc5F)c5ccc([nH]5)c(-c5cc(S(=O)(=O)[O-])ccc5F)c5nc(c(-c6cc(S(=O)(=O)[O-])ccc6F)c6ccc3[nH]6)C=C5)C=C4)cc2)n1
REMARK SMILES IDX 19 1 18 2 17 3 15 4 16 5 14 7 10 8 11 9 87 10 12 11 13 12
REMARK SMILES IDX 9 13 4 14 5 15 6 16 8 17 7 18 2 19 1 20 3 23 20 24 21 25
REMARK SMILES IDX 22 26 23 28 24 29 25 30 86 31 26 32 85 33 27 34 28 35 29 36
REMARK SMILES IDX 79 37 30 38 84 39 78 40 80 41 31 42 83 43 77 44 76 45 32 47
REMARK SMILES IDX 64 48 44 49 63 50 45 51 48 52 62 53 81 54 46 55 47 56 61 58
REMARK SMILES IDX 82 59 49 60 33 61 34 62 42 63 35 64 41 65 43 66 40 67 36 68
REMARK SMILES IDX 37 69 38 70 39 71 65 72 66 73 74 74 67 75 73 76 75 77 72 78
REMARK SMILES IDX 68 79 69 80 70 81 71 82 50 83 51 84 59 85 52 86 58 87 60 88
REMARK SMILES IDX 57 89 53 90 54 91 55 92 56 93
REMARK H PARENT 17 6 1 21 1 22 21 27 80 46 48 57
REMARK Flexibility Score: inf
ROOT
ATOM      1  C   UNL A   1      31.779  28.820  26.004  1.00  0.00     0.042 C 
ENDROOT
BRANCH   1   2
ATOM      2  C   UNL A   1      32.301  29.396  24.694  1.00  0.00     0.118 C 
BRANCH   2   3
ATOM      3  N   UNL A   1      31.323  29.297  23.624  1.00  0.00    -0.351 N 
ATOM      4  C   UNL A   1      31.039  28.273  22.754  1.00  0.00     0.271 C 
ATOM      5  O   UNL A   1      30.134  28.459  21.935  1.00  0.00    -0.267 OA
ATOM      6  H   UNL A   1      30.769  30.103  23.502  1.00  0.00     0.163 HD
BRANCH   4   7
ATOM      7  C   UNL A   1      31.760  26.966  22.747  1.00  0.00     0.148 A 
ATOM      8  C   UNL A   1      31.925  24.726  23.308  1.00  0.00     0.148 A 
ATOM      9  C   UNL A   1      33.174  24.714  22.666  1.00  0.00     0.157 A 
ATOM     10  N   UNL A   1      31.215  25.869  23.340  1.00  0.00    -0.222 NA
ATOM     11  N   UNL A   1      33.737  25.784  22.053  1.00  0.00    -0.258 NA
ATOM     12  C   UNL A   1      32.995  26.913  22.112  1.00  0.00     0.145 A 
BRANCH   8  13
ATOM     13  N   UNL A   1      31.421  23.570  23.885  1.00  0.00    -0.343 N 
ATOM     14  C   UNL A   1      31.202  23.436  25.351  1.00  0.00     0.172 C 
ATOM     15  C   UNL A   1      32.316  22.628  26.018  1.00  0.00     0.035 C 
ATOM     16  C   UNL A   1      32.509  21.291  25.311  1.00  0.00     0.004 C 
ATOM     17  C   UNL A   1      31.694  22.322  23.159  1.00  0.00     0.119 C 
ATOM     18  C   UNL A   1      32.812  21.524  23.836  1.00  0.00     0.022 C 
BRANCH  14  19
ATOM     19  C   UNL A   1      30.914  24.749  26.108  1.00  0.00     0.240 C 
ATOM     20  N   UNL A   1      29.612  25.174  26.071  1.00  0.00    -0.368 N 
ATOM     21  H   UNL A   1      29.353  26.004  26.532  1.00  0.00     0.159 HD
ATOM     22  H   UNL A   1      28.937  24.649  25.585  1.00  0.00     0.159 HD
ATOM     23  O   UNL A   1      31.729  25.356  26.797  1.00  0.00    -0.273 OA
ENDBRANCH  14  19
ENDBRANCH   8  13
ENDBRANCH   4   7
ENDBRANCH   2   3
ENDBRANCH   1   2
BRANCH   1  24
ATOM     24  C   UNL A   1      32.118  29.678  27.217  1.00  0.00     0.118 C 
BRANCH  24  25
ATOM     25  N   UNL A   1      32.296  31.082  26.866  1.00  0.00    -0.352 N 
ATOM     26  C   UNL A   1      33.274  31.974  27.211  1.00  0.00     0.251 C 
ATOM     27  H   UNL A   1      31.594  31.450  26.281  1.00  0.00     0.163 HD
ATOM     28  O   UNL A   1      33.089  33.173  26.984  1.00  0.00    -0.269 OA
BRANCH  26  29
ATOM     29  C   UNL A   1      34.532  31.531  27.846  1.00  0.00     0.039 A 
ATOM     30  C   UNL A   1      34.719  30.164  28.083  1.00  0.00     0.014 A 
ATOM     31  C   UNL A   1      35.495  32.447  28.279  1.00  0.00     0.014 A 
ATOM     32  C   UNL A   1      35.875  29.720  28.727  1.00  0.00     0.010 A 
ATOM     33  C   UNL A   1      36.686  31.995  28.838  1.00  0.00     0.010 A 
ATOM     34  C   UNL A   1      36.877  30.630  29.097  1.00  0.00    -0.014 A 
BRANCH  34  35
ATOM     35  C   UNL A   1      38.091  30.184  29.826  1.00  0.00     0.031 A 
ATOM     36  C   UNL A   1      38.324  30.647  31.240  1.00  0.00     0.074 A 
ATOM     37  C   UNL A   1      38.998  29.401  29.208  1.00  0.00     0.049 A 
ATOM     38  N   UNL A   1      39.349  30.436  32.027  1.00  0.00    -0.248 NA
ATOM     39  C   UNL A   1      37.279  31.495  31.835  1.00  0.00     0.031 C 
ATOM     40  C   UNL A   1      38.897  28.917  27.830  1.00  0.00     0.029 A 
ATOM     41  N   UNL A   1      40.182  28.876  29.658  1.00  0.00    -0.354 N 
ATOM     42  C   UNL A   1      39.080  31.141  33.196  1.00  0.00     0.074 A 
ATOM     43  C   UNL A   1      37.832  31.840  32.986  1.00  0.00     0.031 C 
ATOM     44  C   UNL A   1      39.960  28.144  27.556  1.00  0.00     0.029 A 
ATOM     45  C   UNL A   1      40.838  28.110  28.722  1.00  0.00     0.049 A 
ATOM     46  H   UNL A   1      40.531  29.032  30.565  1.00  0.00     0.167 HD
ATOM     47  C   UNL A   1      39.794  31.177  34.350  1.00  0.00     0.034 A 
ATOM     48  C   UNL A   1      42.015  27.459  28.797  1.00  0.00     0.034 A 
ATOM     49  C   UNL A   1      41.024  30.451  34.548  1.00  0.00     0.049 A 
ATOM     50  C   UNL A   1      42.790  27.508  30.090  1.00  0.00     0.074 A 
ATOM     51  C   UNL A   1      41.814  30.381  35.682  1.00  0.00     0.029 A 
ATOM     52  N   UNL A   1      41.646  29.664  33.585  1.00  0.00    -0.354 N 
ATOM     53  N   UNL A   1      42.507  28.150  31.201  1.00  0.00    -0.248 NA
ATOM     54  C   UNL A   1      44.033  26.729  30.146  1.00  0.00     0.031 C 
ATOM     55  C   UNL A   1      42.938  29.601  35.388  1.00  0.00     0.029 A 
ATOM     56  C   UNL A   1      42.814  29.120  34.095  1.00  0.00     0.049 A 
ATOM     57  H   UNL A   1      41.305  29.516  32.673  1.00  0.00     0.167 HD
ATOM     58  C   UNL A   1      43.516  27.816  32.100  1.00  0.00     0.074 A 
ATOM     59  C   UNL A   1      44.407  26.910  31.404  1.00  0.00     0.031 C 
ATOM     60  C   UNL A   1      43.690  28.215  33.386  1.00  0.00     0.034 A 
BRANCH  47  61
ATOM     61  C   UNL A   1      39.263  32.048  35.466  1.00  0.00     0.023 A 
ATOM     62  C   UNL A   1      39.644  33.395  35.598  1.00  0.00     0.031 A 
ATOM     63  C   UNL A   1      38.399  31.514  36.438  1.00  0.00     0.131 A 
ATOM     64  C   UNL A   1      39.237  34.135  36.718  1.00  0.00     0.055 A 
ATOM     65  C   UNL A   1      37.924  32.283  37.504  1.00  0.00     0.041 A 
ATOM     66  F   UNL A   1      38.014  30.229  36.381  1.00  0.00    -0.206 F 
ATOM     67  C   UNL A   1      38.357  33.595  37.660  1.00  0.00     0.022 A 
BRANCH  64  68
ATOM     68  S   UNL A   1      39.999  35.755  37.011  1.00  0.00     0.124 S 
ATOM     69  O   UNL A   1      41.404  35.391  37.179  1.00  0.00    -0.237 OA
ATOM     70  O   UNL A   1      39.668  36.484  35.791  1.00  0.00    -0.237 OA
ATOM     71  O   UNL A   1      39.337  36.232  38.222  1.00  0.00    -0.744 OA
ENDBRANCH  64  68
ENDBRANCH  47  61
BRANCH  48  72
ATOM     72  C   UNL A   1      42.535  26.697  27.625  1.00  0.00     0.023 A 
ATOM     73  C   UNL A   1      42.188  25.351  27.427  1.00  0.00     0.031 A 
ATOM     74  C   UNL A   1      43.419  27.293  26.708  1.00  0.00     0.131 A 
ATOM     75  C   UNL A   1      42.761  24.629  26.369  1.00  0.00     0.055 A 
ATOM     76  C   UNL A   1      43.945  26.584  25.626  1.00  0.00     0.041 A 
ATOM     77  F   UNL A   1      43.777  28.579  26.846  1.00  0.00    -0.206 F 
ATOM     78  C   UNL A   1      43.628  25.240  25.460  1.00  0.00     0.022 A 
BRANCH  75  79
ATOM     79  S   UNL A   1      42.426  22.851  26.248  1.00  0.00     0.124 S 
ATOM     80  O   UNL A   1      43.349  22.306  27.237  1.00  0.00    -0.237 OA
ATOM     81  O   UNL A   1      41.008  22.787  26.590  1.00  0.00    -0.237 OA
ATOM     82  O   UNL A   1      42.743  22.537  24.857  1.00  0.00    -0.744 OA
ENDBRANCH  75  79
ENDBRANCH  48  72
BRANCH  60  83
ATOM     83  C   UNL A   1      44.852  27.616  34.139  1.00  0.00     0.023 A 
ATOM     84  C   UNL A   1      44.730  26.424  34.873  1.00  0.00     0.031 A 
ATOM     85  C   UNL A   1      46.101  28.265  34.131  1.00  0.00     0.131 A 
ATOM     86  C   UNL A   1      45.818  25.951  35.622  1.00  0.00     0.055 A 
ATOM     87  C   UNL A   1      47.197  27.755  34.828  1.00  0.00     0.041 A 
ATOM     88  F   UNL A   1      46.275  29.407  33.448  1.00  0.00    -0.206 F 
ATOM     89  C   UNL A   1      47.055  26.600  35.591  1.00  0.00     0.022 A 
BRANCH  86  90
ATOM     90  S   UNL A   1      45.565  24.532  36.723  1.00  0.00     0.124 S 
ATOM     91  O   UNL A   1      45.103  23.505  35.795  1.00  0.00    -0.237 OA
ATOM     92  O   UNL A   1      46.898  24.331  37.282  1.00  0.00    -0.237 OA
ATOM     93  O   UNL A   1      44.561  25.008  37.672  1.00  0.00    -0.744 OA
ENDBRANCH  86  90
ENDBRANCH  60  83
ENDBRANCH  34  35
ENDBRANCH  26  29
ENDBRANCH  24  25
ENDBRANCH   1  24
TORSDOF 15
ENDMDL
