MODEL 1
REMARK VINA RESULT:     -12.1      0.000      0.000
REMARK SMILES CC(=O)c1cc(C(=O)NC[C@H]2CC[C@H](C(=O)NCCCNC(=O)c3ccc(-c4c5nc(c(-c6cc(S(=O)(=O)[O-])ccc6F)c6ccc([nH]6)c(-c6cc(S(=O)(=O)[O-])ccc6F)c6nc(c(-c7cc(S(=O)(=O)[O-])ccc7F)c7ccc4[nH]7)C=C6)C=C5)cc3)O2)n(C)c1
REMARK SMILES IDX 18 1 17 2 15 3 16 4 14 6 11 7 12 8 87 9 13 10 10 11 9 12
REMARK SMILES IDX 7 13 8 14 6 16 4 17 5 18 90 19 88 20 89 21 2 22 1 23 3 24
REMARK SMILES IDX 19 25 20 26 21 27 22 28 23 30 24 31 25 32 86 33 26 34 85 35
REMARK SMILES IDX 27 36 28 37 29 38 79 39 30 40 84 41 78 42 80 43 31 44 83 45
REMARK SMILES IDX 77 46 76 47 32 49 64 50 44 51 63 52 45 53 48 54 62 55 81 56
REMARK SMILES IDX 46 57 47 58 61 60 82 61 49 62 33 63 34 64 42 65 35 66 41 67
REMARK SMILES IDX 43 68 40 69 36 70 37 71 38 72 39 73 65 74 66 75 74 76 67 77
REMARK SMILES IDX 73 78 75 79 72 80 68 81 69 82 70 83 71 84 50 85 51 86 59 87
REMARK SMILES IDX 52 88 58 89 60 90 57 91 53 92 54 93 55 94 56 95
REMARK H PARENT 17 5 9 15 21 29 80 48 48 59
REMARK Flexibility Score: inf
ROOT
ATOM      1  C   UNL A   1      31.688  30.457  25.962  1.00  0.00     0.117 C 
ENDROOT
BRANCH   1   2
ATOM      2  N   UNL A   1      31.642  29.592  27.122  1.00  0.00    -0.354 N 
ATOM      3  C   UNL A   1      31.797  28.241  27.223  1.00  0.00     0.249 C 
ATOM      4  O   UNL A   1      31.699  27.743  28.349  1.00  0.00    -0.272 OA
ATOM      5  H   UNL A   1      31.472  30.053  27.975  1.00  0.00     0.163 HD
BRANCH   3   6
ATOM      6  C   UNL A   1      32.043  27.345  25.989  1.00  0.00     0.207 C 
ATOM      7  C   UNL A   1      32.092  25.011  25.685  1.00  0.00     0.138 C 
ATOM      8  C   UNL A   1      33.522  25.453  25.932  1.00  0.00     0.037 C 
ATOM      9  O   UNL A   1      31.252  26.158  25.925  1.00  0.00    -0.363 OA
ATOM     10  C   UNL A   1      33.497  26.954  25.795  1.00  0.00     0.045 C 
BRANCH   7  11
ATOM     11  C   UNL A   1      31.716  24.423  24.319  1.00  0.00     0.148 C 
BRANCH  11  12
ATOM     12  N   UNL A   1      32.537  24.778  23.186  1.00  0.00    -0.348 N 
ATOM     13  C   UNL A   1      32.753  25.884  22.418  1.00  0.00     0.268 C 
ATOM     14  O   UNL A   1      33.567  25.680  21.508  1.00  0.00    -0.268 OA
ATOM     15  H   UNL A   1      33.087  24.018  22.889  1.00  0.00     0.163 HD
BRANCH  13  16
ATOM     16  C   UNL A   1      32.092  27.180  22.529  1.00  0.00     0.107 A 
ATOM     17  C   UNL A   1      30.311  28.652  22.349  1.00  0.00     0.036 A 
ATOM     18  C   UNL A   1      30.703  27.292  22.364  1.00  0.00     0.045 A 
ATOM     19  C   UNL A   1      31.469  29.359  22.576  1.00  0.00     0.097 A 
ATOM     20  N   UNL A   1      32.532  28.486  22.662  1.00  0.00    -0.346 N 
ATOM     21  C   UNL A   1      33.874  29.009  22.732  1.00  0.00     0.150 C 
BRANCH  17  22
ATOM     22  C   UNL A   1      29.004  29.261  22.111  1.00  0.00     0.161 C 
ATOM     23  C   UNL A   1      27.862  28.879  23.017  1.00  0.00     0.093 C 
ATOM     24  O   UNL A   1      28.839  30.078  21.205  1.00  0.00    -0.294 OA
ENDBRANCH  17  22
ENDBRANCH  13  16
ENDBRANCH  11  12
ENDBRANCH   7  11
ENDBRANCH   3   6
ENDBRANCH   1   2
BRANCH   1  25
ATOM     25  C   UNL A   1      31.546  31.925  26.342  1.00  0.00     0.042 C 
BRANCH  25  26
ATOM     26  C   UNL A   1      32.638  32.408  27.286  1.00  0.00     0.118 C 
BRANCH  26  27
ATOM     27  N   UNL A   1      32.500  33.823  27.596  1.00  0.00    -0.352 N 
ATOM     28  C   UNL A   1      33.112  34.582  28.563  1.00  0.00     0.251 C 
ATOM     29  H   UNL A   1      31.867  34.315  27.022  1.00  0.00     0.163 HD
ATOM     30  O   UNL A   1      32.671  35.701  28.809  1.00  0.00    -0.269 OA
BRANCH  28  31
ATOM     31  C   UNL A   1      34.274  34.054  29.313  1.00  0.00     0.039 A 
ATOM     32  C   UNL A   1      34.045  33.228  30.418  1.00  0.00     0.014 A 
ATOM     33  C   UNL A   1      35.582  34.394  28.957  1.00  0.00     0.014 A 
ATOM     34  C   UNL A   1      35.128  32.698  31.124  1.00  0.00     0.010 A 
ATOM     35  C   UNL A   1      36.658  33.797  29.608  1.00  0.00     0.010 A 
ATOM     36  C   UNL A   1      36.443  32.950  30.704  1.00  0.00    -0.014 A 
BRANCH  36  37
ATOM     37  C   UNL A   1      37.607  32.352  31.409  1.00  0.00     0.031 A 
ATOM     38  C   UNL A   1      38.362  31.212  30.778  1.00  0.00     0.074 A 
ATOM     39  C   UNL A   1      37.941  32.792  32.637  1.00  0.00     0.049 A 
ATOM     40  N   UNL A   1      39.351  30.506  31.264  1.00  0.00    -0.248 NA
ATOM     41  C   UNL A   1      37.926  30.793  29.437  1.00  0.00     0.031 C 
ATOM     42  C   UNL A   1      37.257  33.865  33.364  1.00  0.00     0.029 A 
ATOM     43  N   UNL A   1      38.933  32.392  33.498  1.00  0.00    -0.354 N 
ATOM     44  C   UNL A   1      39.646  29.551  30.295  1.00  0.00     0.074 A 
ATOM     45  C   UNL A   1      38.687  29.730  29.226  1.00  0.00     0.031 C 
ATOM     46  C   UNL A   1      37.865  34.053  34.545  1.00  0.00     0.029 A 
ATOM     47  C   UNL A   1      38.948  33.085  34.687  1.00  0.00     0.049 A 
ATOM     48  H   UNL A   1      39.572  31.674  33.284  1.00  0.00     0.167 HD
ATOM     49  C   UNL A   1      40.639  28.628  30.289  1.00  0.00     0.034 A 
ATOM     50  C   UNL A   1      39.735  32.946  35.771  1.00  0.00     0.034 A 
ATOM     51  C   UNL A   1      41.594  28.477  31.360  1.00  0.00     0.049 A 
ATOM     52  C   UNL A   1      40.816  31.895  35.755  1.00  0.00     0.074 A 
ATOM     53  C   UNL A   1      42.675  27.616  31.435  1.00  0.00     0.029 A 
ATOM     54  N   UNL A   1      41.578  29.197  32.547  1.00  0.00    -0.354 N 
ATOM     55  N   UNL A   1      41.114  31.033  34.808  1.00  0.00    -0.248 NA
ATOM     56  C   UNL A   1      41.671  31.801  36.944  1.00  0.00     0.031 C 
ATOM     57  C   UNL A   1      43.268  27.766  32.692  1.00  0.00     0.029 A 
ATOM     58  C   UNL A   1      42.609  28.777  33.372  1.00  0.00     0.049 A 
ATOM     59  H   UNL A   1      40.930  29.904  32.770  1.00  0.00     0.167 HD
ATOM     60  C   UNL A   1      42.215  30.322  35.277  1.00  0.00     0.074 A 
ATOM     61  C   UNL A   1      42.530  30.858  36.585  1.00  0.00     0.031 C 
ATOM     62  C   UNL A   1      42.909  29.322  34.675  1.00  0.00     0.034 A 
BRANCH  49  63
ATOM     63  C   UNL A   1      40.723  27.701  29.099  1.00  0.00     0.023 A 
ATOM     64  C   UNL A   1      41.654  27.906  28.066  1.00  0.00     0.031 A 
ATOM     65  C   UNL A   1      39.843  26.610  28.982  1.00  0.00     0.131 A 
ATOM     66  C   UNL A   1      41.632  27.087  26.928  1.00  0.00     0.055 A 
ATOM     67  C   UNL A   1      39.884  25.745  27.886  1.00  0.00     0.041 A 
ATOM     68  F   UNL A   1      38.918  26.373  29.925  1.00  0.00    -0.206 F 
ATOM     69  C   UNL A   1      40.772  25.991  26.842  1.00  0.00     0.022 A 
BRANCH  66  70
ATOM     70  S   UNL A   1      42.641  27.564  25.499  1.00  0.00     0.124 S 
ATOM     71  O   UNL A   1      42.489  26.400  24.629  1.00  0.00    -0.237 OA
ATOM     72  O   UNL A   1      41.991  28.789  25.047  1.00  0.00    -0.237 OA
ATOM     73  O   UNL A   1      43.977  27.739  26.065  1.00  0.00    -0.744 OA
ENDBRANCH  66  70
ENDBRANCH  49  63
BRANCH  50  74
ATOM     74  C   UNL A   1      39.533  33.816  36.966  1.00  0.00     0.023 A 
ATOM     75  C   UNL A   1      38.910  33.323  38.123  1.00  0.00     0.031 A 
ATOM     76  C   UNL A   1      39.931  35.165  36.957  1.00  0.00     0.131 A 
ATOM     77  C   UNL A   1      38.660  34.182  39.204  1.00  0.00     0.055 A 
ATOM     78  C   UNL A   1      39.730  36.002  38.056  1.00  0.00     0.041 A 
ATOM     79  F   UNL A   1      40.537  35.688  35.879  1.00  0.00    -0.206 F 
ATOM     80  C   UNL A   1      39.077  35.514  39.184  1.00  0.00     0.022 A 
BRANCH  77  81
ATOM     81  S   UNL A   1      37.696  33.553  40.607  1.00  0.00     0.124 S 
ATOM     82  O   UNL A   1      36.633  32.819  39.930  1.00  0.00    -0.237 OA
ATOM     83  O   UNL A   1      38.685  32.745  41.314  1.00  0.00    -0.237 OA
ATOM     84  O   UNL A   1      37.274  34.767  41.300  1.00  0.00    -0.744 OA
ENDBRANCH  77  81
ENDBRANCH  50  74
BRANCH  62  85
ATOM     85  C   UNL A   1      44.113  28.781  35.405  1.00  0.00     0.023 A 
ATOM     86  C   UNL A   1      44.010  27.736  36.336  1.00  0.00     0.031 A 
ATOM     87  C   UNL A   1      45.388  29.314  35.141  1.00  0.00     0.131 A 
ATOM     88  C   UNL A   1      45.158  27.279  37.001  1.00  0.00     0.055 A 
ATOM     89  C   UNL A   1      46.534  28.818  35.764  1.00  0.00     0.041 A 
ATOM     90  F   UNL A   1      45.542  30.315  34.261  1.00  0.00    -0.206 F 
ATOM     91  C   UNL A   1      46.422  27.800  36.707  1.00  0.00     0.022 A 
BRANCH  88  92
ATOM     92  S   UNL A   1      44.974  26.031  38.305  1.00  0.00     0.124 S 
ATOM     93  O   UNL A   1      43.901  26.596  39.115  1.00  0.00    -0.237 OA
ATOM     94  O   UNL A   1      44.637  24.831  37.546  1.00  0.00    -0.237 OA
ATOM     95  O   UNL A   1      46.289  26.008  38.945  1.00  0.00    -0.744 OA
ENDBRANCH  88  92
ENDBRANCH  62  85
ENDBRANCH  36  37
ENDBRANCH  28  31
ENDBRANCH  26  27
ENDBRANCH  25  26
ENDBRANCH   1  25
TORSDOF 17
ENDMDL
MODEL 2
REMARK VINA RESULT:     -11.6      5.508      8.648
REMARK SMILES CC(=O)c1cc(C(=O)NC[C@H]2CC[C@H](C(=O)NCCCNC(=O)c3ccc(-c4c5nc(c(-c6cc(S(=O)(=O)[O-])ccc6F)c6ccc([nH]6)c(-c6cc(S(=O)(=O)[O-])ccc6F)c6nc(c(-c7cc(S(=O)(=O)[O-])ccc7F)c7ccc4[nH]7)C=C6)C=C5)cc3)O2)n(C)c1
REMARK SMILES IDX 18 1 17 2 15 3 16 4 14 6 11 7 12 8 87 9 13 10 10 11 9 12
REMARK SMILES IDX 7 13 8 14 6 16 4 17 5 18 90 19 88 20 89 21 2 22 1 23 3 24
REMARK SMILES IDX 19 25 20 26 21 27 22 28 23 30 24 31 25 32 86 33 26 34 85 35
REMARK SMILES IDX 27 36 28 37 29 38 79 39 30 40 84 41 78 42 80 43 31 44 83 45
REMARK SMILES IDX 77 46 76 47 32 49 64 50 44 51 63 52 45 53 48 54 62 55 81 56
REMARK SMILES IDX 46 57 47 58 61 60 82 61 49 62 33 63 34 64 42 65 35 66 41 67
REMARK SMILES IDX 43 68 40 69 36 70 37 71 38 72 39 73 65 74 66 75 74 76 67 77
REMARK SMILES IDX 73 78 75 79 72 80 68 81 69 82 70 83 71 84 50 85 51 86 59 87
REMARK SMILES IDX 52 88 58 89 60 90 57 91 53 92 54 93 55 94 56 95
REMARK H PARENT 17 5 9 15 21 29 80 48 48 59
REMARK Flexibility Score: inf
ROOT
ATOM      1  C   UNL A   1      35.307  21.047  25.795  1.00  0.00     0.117 C 
ENDROOT
BRANCH   1   2
ATOM      2  N   UNL A   1      34.592  21.529  26.958  1.00  0.00    -0.354 N 
ATOM      3  C   UNL A   1      33.373  22.132  27.059  1.00  0.00     0.249 C 
ATOM      4  O   UNL A   1      32.995  22.458  28.188  1.00  0.00    -0.272 OA
ATOM      5  H   UNL A   1      35.061  21.400  27.814  1.00  0.00     0.163 HD
BRANCH   3   6
ATOM      6  C   UNL A   1      32.502  22.442  25.821  1.00  0.00     0.207 C 
ATOM      7  C   UNL A   1      31.566  24.429  24.975  1.00  0.00     0.138 C 
ATOM      8  C   UNL A   1      30.505  23.777  25.841  1.00  0.00     0.037 C 
ATOM      9  O   UNL A   1      32.783  23.680  25.168  1.00  0.00    -0.363 OA
ATOM     10  C   UNL A   1      31.009  22.378  26.090  1.00  0.00     0.045 C 
BRANCH   7  11
ATOM     11  C   UNL A   1      31.323  24.563  23.466  1.00  0.00     0.148 C 
BRANCH  11  12
ATOM     12  N   UNL A   1      32.372  25.149  22.667  1.00  0.00    -0.348 N 
ATOM     13  C   UNL A   1      33.023  26.346  22.597  1.00  0.00     0.268 C 
ATOM     14  O   UNL A   1      33.864  26.377  21.689  1.00  0.00    -0.268 OA
ATOM     15  H   UNL A   1      32.706  24.516  21.991  1.00  0.00     0.163 HD
BRANCH  13  16
ATOM     16  C   UNL A   1      32.774  27.536  23.403  1.00  0.00     0.107 A 
ATOM     17  C   UNL A   1      33.113  28.970  25.191  1.00  0.00     0.036 A 
ATOM     18  C   UNL A   1      33.640  27.886  24.451  1.00  0.00     0.045 A 
ATOM     19  C   UNL A   1      31.954  29.317  24.539  1.00  0.00     0.097 A 
ATOM     20  N   UNL A   1      31.741  28.452  23.488  1.00  0.00    -0.346 N 
ATOM     21  C   UNL A   1      30.498  28.517  22.758  1.00  0.00     0.150 C 
BRANCH  17  22
ATOM     22  C   UNL A   1      33.600  29.613  26.410  1.00  0.00     0.161 C 
ATOM     23  C   UNL A   1      34.691  28.928  27.193  1.00  0.00     0.093 C 
ATOM     24  O   UNL A   1      33.146  30.694  26.783  1.00  0.00    -0.294 OA
ENDBRANCH  17  22
ENDBRANCH  13  16
ENDBRANCH  11  12
ENDBRANCH   7  11
ENDBRANCH   3   6
ENDBRANCH   1   2
BRANCH   1  25
ATOM     25  C   UNL A   1      35.929  22.186  24.997  1.00  0.00     0.042 C 
BRANCH  25  26
ATOM     26  C   UNL A   1      37.258  21.812  24.357  1.00  0.00     0.118 C 
BRANCH  26  27
ATOM     27  N   UNL A   1      37.953  20.782  25.115  1.00  0.00    -0.352 N 
ATOM     28  C   UNL A   1      39.083  20.865  25.892  1.00  0.00     0.251 C 
ATOM     29  H   UNL A   1      37.551  19.885  25.063  1.00  0.00     0.163 HD
ATOM     30  O   UNL A   1      39.639  19.830  26.245  1.00  0.00    -0.269 OA
BRANCH  28  31
ATOM     31  C   UNL A   1      39.634  22.182  26.284  1.00  0.00     0.039 A 
ATOM     32  C   UNL A   1      40.962  22.257  26.712  1.00  0.00     0.014 A 
ATOM     33  C   UNL A   1      38.842  23.334  26.266  1.00  0.00     0.014 A 
ATOM     34  C   UNL A   1      41.510  23.494  27.062  1.00  0.00     0.010 A 
ATOM     35  C   UNL A   1      39.413  24.576  26.533  1.00  0.00     0.010 A 
ATOM     36  C   UNL A   1      40.751  24.667  26.942  1.00  0.00    -0.014 A 
BRANCH  36  37
ATOM     37  C   UNL A   1      41.331  25.999  27.257  1.00  0.00     0.031 A 
ATOM     38  C   UNL A   1      42.703  26.360  26.752  1.00  0.00     0.074 A 
ATOM     39  C   UNL A   1      40.651  26.852  28.047  1.00  0.00     0.049 A 
ATOM     40  N   UNL A   1      43.414  27.434  26.983  1.00  0.00    -0.248 NA
ATOM     41  C   UNL A   1      43.375  25.366  25.900  1.00  0.00     0.031 C 
ATOM     42  C   UNL A   1      39.330  26.596  28.627  1.00  0.00     0.029 A 
ATOM     43  N   UNL A   1      40.975  28.105  28.507  1.00  0.00    -0.354 N 
ATOM     44  C   UNL A   1      44.620  27.240  26.317  1.00  0.00     0.074 A 
ATOM     45  C   UNL A   1      44.567  25.918  25.731  1.00  0.00     0.031 C 
ATOM     46  C   UNL A   1      38.948  27.665  29.341  1.00  0.00     0.029 A 
ATOM     47  C   UNL A   1      40.012  28.663  29.316  1.00  0.00     0.049 A 
ATOM     48  H   UNL A   1      41.818  28.559  28.281  1.00  0.00     0.167 HD
ATOM     49  C   UNL A   1      45.664  28.096  26.188  1.00  0.00     0.034 A 
ATOM     50  C   UNL A   1      39.995  29.840  29.973  1.00  0.00     0.034 A 
ATOM     51  C   UNL A   1      45.691  29.416  26.768  1.00  0.00     0.049 A 
ATOM     52  C   UNL A   1      41.178  30.765  29.838  1.00  0.00     0.074 A 
ATOM     53  C   UNL A   1      46.669  30.388  26.654  1.00  0.00     0.029 A 
ATOM     54  N   UNL A   1      44.696  29.947  27.580  1.00  0.00    -0.354 N 
ATOM     55  N   UNL A   1      42.290  30.587  29.162  1.00  0.00    -0.248 NA
ATOM     56  C   UNL A   1      41.102  32.050  30.544  1.00  0.00     0.031 C 
ATOM     57  C   UNL A   1      46.300  31.477  27.452  1.00  0.00     0.029 A 
ATOM     58  C   UNL A   1      45.054  31.219  27.999  1.00  0.00     0.049 A 
ATOM     59  H   UNL A   1      43.859  29.488  27.821  1.00  0.00     0.167 HD
ATOM     60  C   UNL A   1      43.029  31.755  29.334  1.00  0.00     0.074 A 
ATOM     61  C   UNL A   1      42.234  32.629  30.171  1.00  0.00     0.031 C 
ATOM     62  C   UNL A   1      44.250  32.078  28.836  1.00  0.00     0.034 A 
BRANCH  49  63
ATOM     63  C   UNL A   1      46.866  27.617  25.408  1.00  0.00     0.023 A 
ATOM     64  C   UNL A   1      47.105  28.033  24.087  1.00  0.00     0.031 A 
ATOM     65  C   UNL A   1      47.775  26.711  25.985  1.00  0.00     0.131 A 
ATOM     66  C   UNL A   1      48.173  27.486  23.360  1.00  0.00     0.055 A 
ATOM     67  C   UNL A   1      48.887  26.237  25.285  1.00  0.00     0.041 A 
ATOM     68  F   UNL A   1      47.591  26.261  27.237  1.00  0.00    -0.206 F 
ATOM     69  C   UNL A   1      49.082  26.611  23.959  1.00  0.00     0.022 A 
BRANCH  66  70
ATOM     70  S   UNL A   1      48.269  27.819  21.581  1.00  0.00     0.124 S 
ATOM     71  O   UNL A   1      46.912  28.280  21.294  1.00  0.00    -0.237 OA
ATOM     72  O   UNL A   1      49.317  28.829  21.504  1.00  0.00    -0.237 OA
ATOM     73  O   UNL A   1      48.611  26.519  21.006  1.00  0.00    -0.744 OA
ENDBRANCH  66  70
ENDBRANCH  49  63
BRANCH  50  74
ATOM     74  C   UNL A   1      38.826  30.213  30.822  1.00  0.00     0.023 A 
ATOM     75  C   UNL A   1      37.773  30.984  30.306  1.00  0.00     0.031 A 
ATOM     76  C   UNL A   1      38.760  29.831  32.174  1.00  0.00     0.131 A 
ATOM     77  C   UNL A   1      36.724  31.388  31.146  1.00  0.00     0.055 A 
ATOM     78  C   UNL A   1      37.687  30.189  32.991  1.00  0.00     0.041 A 
ATOM     79  F   UNL A   1      39.738  29.087  32.719  1.00  0.00    -0.206 F 
ATOM     80  C   UNL A   1      36.667  30.984  32.481  1.00  0.00     0.022 A 
BRANCH  77  81
ATOM     81  S   UNL A   1      35.476  32.529  30.487  1.00  0.00     0.124 S 
ATOM     82  O   UNL A   1      36.213  33.786  30.451  1.00  0.00    -0.237 OA
ATOM     83  O   UNL A   1      35.170  31.926  29.193  1.00  0.00    -0.237 OA
ATOM     84  O   UNL A   1      34.401  32.462  31.474  1.00  0.00    -0.744 OA
ENDBRANCH  77  81
ENDBRANCH  50  74
BRANCH  62  85
ATOM     85  C   UNL A   1      44.775  33.458  29.139  1.00  0.00     0.023 A 
ATOM     86  C   UNL A   1      44.416  34.576  28.370  1.00  0.00     0.031 A 
ATOM     87  C   UNL A   1      45.635  33.655  30.236  1.00  0.00     0.131 A 
ATOM     88  C   UNL A   1      44.945  35.838  28.684  1.00  0.00     0.055 A 
ATOM     89  C   UNL A   1      46.114  34.920  30.576  1.00  0.00     0.041 A 
ATOM     90  F   UNL A   1      46.011  32.619  31.003  1.00  0.00    -0.206 F 
ATOM     91  C   UNL A   1      45.776  36.019  29.793  1.00  0.00     0.022 A 
BRANCH  88  92
ATOM     92  S   UNL A   1      44.582  37.235  27.585  1.00  0.00     0.124 S 
ATOM     93  O   UNL A   1      44.214  38.280  28.534  1.00  0.00    -0.237 OA
ATOM     94  O   UNL A   1      45.850  37.423  26.888  1.00  0.00    -0.237 OA
ATOM     95  O   UNL A   1      43.486  36.740  26.752  1.00  0.00    -0.744 OA
ENDBRANCH  88  92
ENDBRANCH  62  85
ENDBRANCH  36  37
ENDBRANCH  28  31
ENDBRANCH  26  27
ENDBRANCH  25  26
ENDBRANCH   1  25
TORSDOF 17
ENDMDL
MODEL 3
REMARK VINA RESULT:     -11.6      4.133      9.419
REMARK SMILES CC(=O)c1cc(C(=O)NC[C@H]2CC[C@H](C(=O)NCCCNC(=O)c3ccc(-c4c5nc(c(-c6cc(S(=O)(=O)[O-])ccc6F)c6ccc([nH]6)c(-c6cc(S(=O)(=O)[O-])ccc6F)c6nc(c(-c7cc(S(=O)(=O)[O-])ccc7F)c7ccc4[nH]7)C=C6)C=C5)cc3)O2)n(C)c1
REMARK SMILES IDX 18 1 17 2 15 3 16 4 14 6 11 7 12 8 87 9 13 10 10 11 9 12
REMARK SMILES IDX 7 13 8 14 6 16 4 17 5 18 90 19 88 20 89 21 2 22 1 23 3 24
REMARK SMILES IDX 19 25 20 26 21 27 22 28 23 30 24 31 25 32 86 33 26 34 85 35
REMARK SMILES IDX 27 36 28 37 29 38 79 39 30 40 84 41 78 42 80 43 31 44 83 45
REMARK SMILES IDX 77 46 76 47 32 49 64 50 44 51 63 52 45 53 48 54 62 55 81 56
REMARK SMILES IDX 46 57 47 58 61 60 82 61 49 62 33 63 34 64 42 65 35 66 41 67
REMARK SMILES IDX 43 68 40 69 36 70 37 71 38 72 39 73 65 74 66 75 74 76 67 77
REMARK SMILES IDX 73 78 75 79 72 80 68 81 69 82 70 83 71 84 50 85 51 86 59 87
REMARK SMILES IDX 52 88 58 89 60 90 57 91 53 92 54 93 55 94 56 95
REMARK H PARENT 17 5 9 15 21 29 80 48 48 59
REMARK Flexibility Score: inf
ROOT
ATOM      1  C   UNL A   1      33.024  29.296  24.808  1.00  0.00     0.117 C 
ENDROOT
BRANCH   1   2
ATOM      2  N   UNL A   1      33.641  29.217  23.501  1.00  0.00    -0.354 N 
ATOM      3  C   UNL A   1      33.825  28.148  22.674  1.00  0.00     0.249 C 
ATOM      4  O   UNL A   1      34.400  28.356  21.600  1.00  0.00    -0.272 OA
ATOM      5  H   UNL A   1      33.983  30.072  23.153  1.00  0.00     0.163 HD
BRANCH   3   6
ATOM      6  C   UNL A   1      33.380  26.720  23.061  1.00  0.00     0.207 C 
ATOM      7  C   UNL A   1      32.816  24.817  21.796  1.00  0.00     0.138 C 
ATOM      8  C   UNL A   1      31.521  25.546  22.095  1.00  0.00     0.037 C 
ATOM      9  O   UNL A   1      33.890  25.674  22.235  1.00  0.00    -0.363 OA
ATOM     10  C   UNL A   1      31.875  26.553  23.161  1.00  0.00     0.045 C 
BRANCH   7  11
ATOM     11  C   UNL A   1      33.045  23.422  22.393  1.00  0.00     0.148 C 
BRANCH  11  12
ATOM     12  N   UNL A   1      32.512  23.160  23.708  1.00  0.00    -0.348 N 
ATOM     13  C   UNL A   1      32.618  22.179  24.650  1.00  0.00     0.268 C 
ATOM     14  O   UNL A   1      31.919  22.400  25.648  1.00  0.00    -0.268 OA
ATOM     15  H   UNL A   1      31.911  23.881  24.003  1.00  0.00     0.163 HD
BRANCH  13  16
ATOM     16  C   UNL A   1      33.380  20.939  24.553  1.00  0.00     0.107 A 
ATOM     17  C   UNL A   1      33.664  18.674  24.155  1.00  0.00     0.036 A 
ATOM     18  C   UNL A   1      32.806  19.787  23.992  1.00  0.00     0.045 A 
ATOM     19  C   UNL A   1      34.792  19.178  24.758  1.00  0.00     0.097 A 
ATOM     20  N   UNL A   1      34.617  20.521  25.014  1.00  0.00    -0.346 N 
ATOM     21  C   UNL A   1      35.602  21.228  25.794  1.00  0.00     0.150 C 
BRANCH  17  22
ATOM     22  C   UNL A   1      33.463  17.264  23.825  1.00  0.00     0.161 C 
ATOM     23  C   UNL A   1      32.901  16.355  24.888  1.00  0.00     0.093 C 
ATOM     24  O   UNL A   1      33.727  16.829  22.705  1.00  0.00    -0.294 OA
ENDBRANCH  17  22
ENDBRANCH  13  16
ENDBRANCH  11  12
ENDBRANCH   7  11
ENDBRANCH   3   6
ENDBRANCH   1   2
BRANCH   1  25
ATOM     25  C   UNL A   1      33.868  28.616  25.878  1.00  0.00     0.042 C 
BRANCH  25  26
ATOM     26  C   UNL A   1      33.461  28.998  27.294  1.00  0.00     0.118 C 
BRANCH  26  27
ATOM     27  N   UNL A   1      33.557  30.433  27.516  1.00  0.00    -0.352 N 
ATOM     28  C   UNL A   1      34.503  31.163  28.193  1.00  0.00     0.251 C 
ATOM     29  H   UNL A   1      32.829  30.965  27.119  1.00  0.00     0.163 HD
ATOM     30  O   UNL A   1      34.265  32.335  28.467  1.00  0.00    -0.269 OA
BRANCH  28  31
ATOM     31  C   UNL A   1      35.783  30.543  28.602  1.00  0.00     0.039 A 
ATOM     32  C   UNL A   1      36.907  30.715  27.788  1.00  0.00     0.014 A 
ATOM     33  C   UNL A   1      35.876  29.766  29.760  1.00  0.00     0.014 A 
ATOM     34  C   UNL A   1      38.131  30.160  28.167  1.00  0.00     0.010 A 
ATOM     35  C   UNL A   1      37.114  29.287  30.180  1.00  0.00     0.010 A 
ATOM     36  C   UNL A   1      38.253  29.471  29.384  1.00  0.00    -0.014 A 
BRANCH  36  37
ATOM     37  C   UNL A   1      39.558  28.920  29.833  1.00  0.00     0.031 A 
ATOM     38  C   UNL A   1      40.319  29.597  30.942  1.00  0.00     0.074 A 
ATOM     39  C   UNL A   1      40.083  27.852  29.201  1.00  0.00     0.049 A 
ATOM     40  N   UNL A   1      41.504  29.319  31.422  1.00  0.00    -0.248 NA
ATOM     41  C   UNL A   1      39.672  30.758  31.572  1.00  0.00     0.031 C 
ATOM     42  C   UNL A   1      39.456  27.137  28.087  1.00  0.00     0.029 A 
ATOM     43  N   UNL A   1      41.267  27.184  29.396  1.00  0.00    -0.354 N 
ATOM     44  C   UNL A   1      41.750  30.279  32.400  1.00  0.00     0.074 A 
ATOM     45  C   UNL A   1      40.619  31.182  32.395  1.00  0.00     0.031 C 
ATOM     46  C   UNL A   1      40.245  26.118  27.717  1.00  0.00     0.029 A 
ATOM     47  C   UNL A   1      41.459  26.134  28.528  1.00  0.00     0.049 A 
ATOM     48  H   UNL A   1      41.918  27.435  30.091  1.00  0.00     0.167 HD
ATOM     49  C   UNL A   1      42.811  30.381  33.238  1.00  0.00     0.034 A 
ATOM     50  C   UNL A   1      42.501  25.289  28.392  1.00  0.00     0.034 A 
ATOM     51  C   UNL A   1      43.922  29.461  33.236  1.00  0.00     0.049 A 
ATOM     52  C   UNL A   1      43.682  25.438  29.317  1.00  0.00     0.074 A 
ATOM     53  C   UNL A   1      45.020  29.434  34.078  1.00  0.00     0.029 A 
ATOM     54  N   UNL A   1      44.081  28.409  32.343  1.00  0.00    -0.354 N 
ATOM     55  N   UNL A   1      43.877  26.320  30.271  1.00  0.00    -0.248 NA
ATOM     56  C   UNL A   1      44.779  24.476  29.155  1.00  0.00     0.031 C 
ATOM     57  C   UNL A   1      45.875  28.413  33.650  1.00  0.00     0.029 A 
ATOM     58  C   UNL A   1      45.274  27.750  32.593  1.00  0.00     0.049 A 
ATOM     59  H   UNL A   1      43.439  28.167  31.637  1.00  0.00     0.167 HD
ATOM     60  C   UNL A   1      45.102  25.993  30.846  1.00  0.00     0.074 A 
ATOM     61  C   UNL A   1      45.597  24.833  30.135  1.00  0.00     0.031 C 
ATOM     62  C   UNL A   1      45.754  26.593  31.874  1.00  0.00     0.034 A 
BRANCH  49  63
ATOM     63  C   UNL A   1      42.825  31.540  34.207  1.00  0.00     0.023 A 
ATOM     64  C   UNL A   1      42.195  31.463  35.462  1.00  0.00     0.031 A 
ATOM     65  C   UNL A   1      43.455  32.750  33.863  1.00  0.00     0.131 A 
ATOM     66  C   UNL A   1      42.139  32.594  36.290  1.00  0.00     0.055 A 
ATOM     67  C   UNL A   1      43.470  33.845  34.730  1.00  0.00     0.041 A 
ATOM     68  F   UNL A   1      44.056  32.893  32.671  1.00  0.00    -0.206 F 
ATOM     69  C   UNL A   1      42.796  33.777  35.945  1.00  0.00     0.022 A 
BRANCH  66  70
ATOM     70  S   UNL A   1      41.070  32.542  37.754  1.00  0.00     0.124 S 
ATOM     71  O   UNL A   1      40.853  33.964  38.011  1.00  0.00    -0.237 OA
ATOM     72  O   UNL A   1      39.913  31.795  37.275  1.00  0.00    -0.237 OA
ATOM     73  O   UNL A   1      41.888  31.854  38.751  1.00  0.00    -0.744 OA
ENDBRANCH  66  70
ENDBRANCH  49  63
BRANCH  50  74
ATOM     74  C   UNL A   1      42.482  24.232  27.340  1.00  0.00     0.023 A 
ATOM     75  C   UNL A   1      41.851  22.998  27.566  1.00  0.00     0.031 A 
ATOM     76  C   UNL A   1      43.123  24.427  26.103  1.00  0.00     0.131 A 
ATOM     77  C   UNL A   1      41.916  21.990  26.590  1.00  0.00     0.055 A 
ATOM     78  C   UNL A   1      43.136  23.442  25.115  1.00  0.00     0.041 A 
ATOM     79  F   UNL A   1      43.736  25.591  25.832  1.00  0.00    -0.206 F 
ATOM     80  C   UNL A   1      42.541  22.209  25.362  1.00  0.00     0.022 A 
BRANCH  77  81
ATOM     81  S   UNL A   1      41.243  20.353  26.989  1.00  0.00     0.124 S 
ATOM     82  O   UNL A   1      42.389  19.490  26.727  1.00  0.00    -0.237 OA
ATOM     83  O   UNL A   1      40.868  20.515  28.391  1.00  0.00    -0.237 OA
ATOM     84  O   UNL A   1      40.126  20.209  26.060  1.00  0.00    -0.744 OA
ENDBRANCH  77  81
ENDBRANCH  50  74
BRANCH  62  85
ATOM     85  C   UNL A   1      47.049  25.969  32.328  1.00  0.00     0.023 A 
ATOM     86  C   UNL A   1      48.269  26.238  31.688  1.00  0.00     0.031 A 
ATOM     87  C   UNL A   1      47.058  25.104  33.438  1.00  0.00     0.131 A 
ATOM     88  C   UNL A   1      49.445  25.619  32.139  1.00  0.00     0.055 A 
ATOM     89  C   UNL A   1      48.238  24.535  33.917  1.00  0.00     0.041 A 
ATOM     90  F   UNL A   1      45.918  24.812  34.085  1.00  0.00    -0.206 F 
ATOM     91  C   UNL A   1      49.440  24.784  33.261  1.00  0.00     0.022 A 
BRANCH  88  92
ATOM     92  S   UNL A   1      50.978  25.869  31.203  1.00  0.00     0.124 S 
ATOM     93  O   UNL A   1      50.688  25.173  29.954  1.00  0.00    -0.237 OA
ATOM     94  O   UNL A   1      51.061  27.324  31.119  1.00  0.00    -0.237 OA
ATOM     95  O   UNL A   1      51.998  25.240  32.041  1.00  0.00    -0.744 OA
ENDBRANCH  88  92
ENDBRANCH  62  85
ENDBRANCH  36  37
ENDBRANCH  28  31
ENDBRANCH  26  27
ENDBRANCH  25  26
ENDBRANCH   1  25
TORSDOF 17
ENDMDL
