MODEL 1
REMARK VINA RESULT:     -12.2      0.000      0.000
REMARK SMILES CC(C)(C)[C@](O)(c1ccc(C(=O)NCCCNC(=O)c2ccc(-c3c4nc(c(-c5cc(S(=O)(=O)[O-])ccc5F)c5ccc([nH]5)c(-c5cc(S(=O)(=O)[O-])ccc5F)c5nc(c(-c6cc(S(=O)(=O)[O-])ccc6F)c6ccc3[nH]6)C=C5)C=C4)cc2)cc1)c1ccc(C(F)(F)F)cc1
REMARK SMILES IDX 15 1 14 2 13 3 11 4 12 5 10 7 7 8 8 9 84 10 9 11 83 12 5 13
REMARK SMILES IDX 2 14 1 15 3 16 4 17 85 18 86 19 94 20 87 21 93 22 88 23
REMARK SMILES IDX 89 24 90 25 91 26 92 27 6 28 16 30 17 31 18 32 19 34 20 35
REMARK SMILES IDX 21 36 82 37 22 38 81 39 23 40 24 41 25 42 75 43 26 44 80 45
REMARK SMILES IDX 74 46 76 47 27 48 79 49 73 50 72 51 28 53 60 54 40 55 59 56
REMARK SMILES IDX 41 57 44 58 58 59 77 60 42 61 43 62 57 64 78 65 45 66 29 67
REMARK SMILES IDX 30 68 38 69 31 70 37 71 39 72 36 73 32 74 33 75 34 76 35 77
REMARK SMILES IDX 61 78 62 79 70 80 63 81 69 82 71 83 68 84 64 85 65 86 66 87
REMARK SMILES IDX 67 88 46 89 47 90 55 91 48 92 54 93 56 94 53 95 49 96 50 97
REMARK SMILES IDX 51 98 52 99
REMARK H PARENT 13 6 6 29 17 33 76 52 44 63
REMARK Flexibility Score: inf
ROOT
ATOM      1  C   UNL A   1      33.461  28.953  23.505  1.00  0.00     0.042 C 
ENDROOT
BRANCH   1   2
ATOM      2  C   UNL A   1      32.285  28.181  22.915  1.00  0.00     0.118 C 
BRANCH   2   3
ATOM      3  N   UNL A   1      32.606  27.599  21.623  1.00  0.00    -0.352 N 
ATOM      4  C   UNL A   1      32.903  26.297  21.304  1.00  0.00     0.251 C 
ATOM      5  O   UNL A   1      32.994  25.953  20.131  1.00  0.00    -0.269 OA
ATOM      6  H   UNL A   1      32.613  28.230  20.867  1.00  0.00     0.163 HD
BRANCH   4   7
ATOM      7  C   UNL A   1      33.063  25.288  22.372  1.00  0.00     0.039 A 
ATOM      8  C   UNL A   1      33.430  23.406  24.458  1.00  0.00    -0.011 A 
ATOM      9  C   UNL A   1      34.421  24.361  24.148  1.00  0.00     0.008 A 
ATOM     10  C   UNL A   1      32.246  23.435  23.687  1.00  0.00     0.008 A 
ATOM     11  C   UNL A   1      34.224  25.316  23.143  1.00  0.00     0.014 A 
ATOM     12  C   UNL A   1      32.067  24.355  22.648  1.00  0.00     0.014 A 
BRANCH   8  13
ATOM     13  C   UNL A   1      33.629  22.355  25.599  1.00  0.00     0.119 C 
BRANCH  13  14
ATOM     14  C   UNL A   1      32.516  22.571  26.757  1.00  0.00    -0.001 C 
ATOM     15  C   UNL A   1      32.903  21.828  28.068  1.00  0.00     0.014 C 
ATOM     16  C   UNL A   1      31.086  22.178  26.306  1.00  0.00     0.014 C 
ATOM     17  C   UNL A   1      32.379  24.059  27.204  1.00  0.00     0.014 C 
ENDBRANCH  13  14
BRANCH  13  18
ATOM     18  C   UNL A   1      33.805  20.908  25.037  1.00  0.00    -0.011 A 
ATOM     19  C   UNL A   1      35.029  20.221  24.992  1.00  0.00     0.008 A 
ATOM     20  C   UNL A   1      32.693  20.207  24.518  1.00  0.00     0.008 A 
ATOM     21  C   UNL A   1      35.114  18.871  24.632  1.00  0.00     0.013 A 
ATOM     22  C   UNL A   1      32.765  18.850  24.169  1.00  0.00     0.013 A 
ATOM     23  C   UNL A   1      33.971  18.155  24.272  1.00  0.00     0.056 A 
BRANCH  23  24
ATOM     24  C   UNL A   1      34.069  16.675  24.004  1.00  0.00     0.416 C 
ATOM     25  F   UNL A   1      32.903  16.016  24.250  1.00  0.00    -0.166 F 
ATOM     26  F   UNL A   1      34.378  16.405  22.702  1.00  0.00    -0.166 F 
ATOM     27  F   UNL A   1      35.023  16.045  24.744  1.00  0.00    -0.166 F 
ENDBRANCH  23  24
ENDBRANCH  13  18
BRANCH  13  28
ATOM     28  O   UNL A   1      34.932  22.601  26.165  1.00  0.00    -0.380 OA
ATOM     29  H   UNL A   1      34.957  23.495  26.542  1.00  0.00     0.212 HD
ENDBRANCH  13  28
ENDBRANCH   8  13
ENDBRANCH   4   7
ENDBRANCH   2   3
ENDBRANCH   1   2
BRANCH   1  30
ATOM     30  C   UNL A   1      33.468  28.998  25.032  1.00  0.00     0.118 C 
BRANCH  30  31
ATOM     31  N   UNL A   1      32.937  30.251  25.546  1.00  0.00    -0.352 N 
ATOM     32  C   UNL A   1      33.252  30.947  26.685  1.00  0.00     0.251 C 
ATOM     33  H   UNL A   1      32.240  30.665  24.987  1.00  0.00     0.163 HD
ATOM     34  O   UNL A   1      32.512  31.862  27.039  1.00  0.00    -0.269 OA
BRANCH  32  35
ATOM     35  C   UNL A   1      34.451  30.607  27.490  1.00  0.00     0.039 A 
ATOM     36  C   UNL A   1      35.449  31.576  27.637  1.00  0.00     0.014 A 
ATOM     37  C   UNL A   1      34.637  29.335  28.037  1.00  0.00     0.014 A 
ATOM     38  C   UNL A   1      36.614  31.277  28.349  1.00  0.00     0.010 A 
ATOM     39  C   UNL A   1      35.765  29.062  28.813  1.00  0.00     0.010 A 
ATOM     40  C   UNL A   1      36.777  30.022  28.956  1.00  0.00    -0.014 A 
BRANCH  40  41
ATOM     41  C   UNL A   1      38.023  29.694  29.698  1.00  0.00     0.031 A 
ATOM     42  C   UNL A   1      38.260  30.268  31.071  1.00  0.00     0.074 A 
ATOM     43  C   UNL A   1      38.947  28.895  29.130  1.00  0.00     0.049 A 
ATOM     44  N   UNL A   1      39.282  30.108  31.873  1.00  0.00    -0.248 NA
ATOM     45  C   UNL A   1      37.222  31.168  31.597  1.00  0.00     0.031 C 
ATOM     46  C   UNL A   1      38.850  28.315  27.789  1.00  0.00     0.029 A 
ATOM     47  N   UNL A   1      40.146  28.430  29.606  1.00  0.00    -0.354 N 
ATOM     48  C   UNL A   1      39.016  30.893  32.992  1.00  0.00     0.074 A 
ATOM     49  C   UNL A   1      37.769  31.580  32.731  1.00  0.00     0.031 C 
ATOM     50  C   UNL A   1      39.928  27.546  27.563  1.00  0.00     0.029 A 
ATOM     51  C   UNL A   1      40.808  27.605  28.726  1.00  0.00     0.049 A 
ATOM     52  H   UNL A   1      40.501  28.665  30.494  1.00  0.00     0.167 HD
ATOM     53  C   UNL A   1      39.730  31.009  34.140  1.00  0.00     0.034 A 
ATOM     54  C   UNL A   1      41.988  26.965  28.844  1.00  0.00     0.034 A 
ATOM     55  C   UNL A   1      40.965  30.307  34.388  1.00  0.00     0.049 A 
ATOM     56  C   UNL A   1      42.759  27.099  30.134  1.00  0.00     0.074 A 
ATOM     57  C   UNL A   1      41.755  30.319  35.525  1.00  0.00     0.029 A 
ATOM     58  N   UNL A   1      41.596  29.463  33.480  1.00  0.00    -0.354 N 
ATOM     59  N   UNL A   1      42.469  27.808  31.201  1.00  0.00    -0.248 NA
ATOM     60  C   UNL A   1      44.002  26.327  30.241  1.00  0.00     0.031 C 
ATOM     61  C   UNL A   1      42.889  29.533  35.283  1.00  0.00     0.029 A 
ATOM     62  C   UNL A   1      42.771  28.966  34.024  1.00  0.00     0.049 A 
ATOM     63  H   UNL A   1      41.257  29.249  32.581  1.00  0.00     0.167 HD
ATOM     64  C   UNL A   1      43.479  27.536  32.121  1.00  0.00     0.074 A 
ATOM     65  C   UNL A   1      44.369  26.585  31.487  1.00  0.00     0.031 C 
ATOM     66  C   UNL A   1      43.655  28.025  33.376  1.00  0.00     0.034 A 
BRANCH  53  67
ATOM     67  C   UNL A   1      39.194  31.951  35.197  1.00  0.00     0.023 A 
ATOM     68  C   UNL A   1      39.653  33.276  35.306  1.00  0.00     0.031 A 
ATOM     69  C   UNL A   1      38.242  31.509  36.131  1.00  0.00     0.131 A 
ATOM     70  C   UNL A   1      39.227  34.082  36.374  1.00  0.00     0.055 A 
ATOM     71  C   UNL A   1      37.755  32.345  37.141  1.00  0.00     0.041 A 
ATOM     72  F   UNL A   1      37.779  30.250  36.094  1.00  0.00    -0.206 F 
ATOM     73  C   UNL A   1      38.262  33.634  37.276  1.00  0.00     0.022 A 
BRANCH  70  74
ATOM     74  S   UNL A   1      40.069  35.664  36.655  1.00  0.00     0.124 S 
ATOM     75  O   UNL A   1      41.470  35.252  36.677  1.00  0.00    -0.237 OA
ATOM     76  O   UNL A   1      39.653  36.453  35.501  1.00  0.00    -0.237 OA
ATOM     77  O   UNL A   1      39.539  36.111  37.941  1.00  0.00    -0.744 OA
ENDBRANCH  70  74
ENDBRANCH  53  67
BRANCH  54  78
ATOM     78  C   UNL A   1      42.512  26.130  27.726  1.00  0.00     0.023 A 
ATOM     79  C   UNL A   1      42.068  24.812  27.535  1.00  0.00     0.031 A 
ATOM     80  C   UNL A   1      43.497  26.627  26.853  1.00  0.00     0.131 A 
ATOM     81  C   UNL A   1      42.643  24.018  26.531  1.00  0.00     0.055 A 
ATOM     82  C   UNL A   1      44.027  25.850  25.822  1.00  0.00     0.041 A 
ATOM     83  F   UNL A   1      43.949  27.884  26.984  1.00  0.00    -0.206 F 
ATOM     84  C   UNL A   1      43.611  24.532  25.665  1.00  0.00     0.022 A 
BRANCH  81  85
ATOM     85  S   UNL A   1      42.164  22.271  26.425  1.00  0.00     0.124 S 
ATOM     86  O   UNL A   1      42.653  21.751  27.696  1.00  0.00    -0.237 OA
ATOM     87  O   UNL A   1      40.716  22.364  26.282  1.00  0.00    -0.237 OA
ATOM     88  O   UNL A   1      42.875  21.796  25.240  1.00  0.00    -0.744 OA
ENDBRANCH  81  85
ENDBRANCH  54  78
BRANCH  66  89
ATOM     89  C   UNL A   1      44.833  27.490  34.155  1.00  0.00     0.023 A 
ATOM     90  C   UNL A   1      44.727  26.350  34.972  1.00  0.00     0.031 A 
ATOM     91  C   UNL A   1      46.070  28.159  34.113  1.00  0.00     0.131 A 
ATOM     92  C   UNL A   1      45.811  25.962  35.774  1.00  0.00     0.055 A 
ATOM     93  C   UNL A   1      47.166  27.726  34.859  1.00  0.00     0.041 A 
ATOM     94  F   UNL A   1      46.230  29.253  33.350  1.00  0.00    -0.206 F 
ATOM     95  C   UNL A   1      47.035  26.633  35.711  1.00  0.00     0.022 A 
BRANCH  92  96
ATOM     96  S   UNL A   1      45.557  24.649  37.000  1.00  0.00     0.124 S 
ATOM     97  O   UNL A   1      45.766  23.445  36.203  1.00  0.00    -0.237 OA
ATOM     98  O   UNL A   1      46.589  24.945  37.990  1.00  0.00    -0.237 OA
ATOM     99  O   UNL A   1      44.185  24.863  37.453  1.00  0.00    -0.744 OA
ENDBRANCH  92  96
ENDBRANCH  66  89
ENDBRANCH  40  41
ENDBRANCH  32  35
ENDBRANCH  30  31
ENDBRANCH   1  30
TORSDOF 18
ENDMDL
MODEL 2
REMARK VINA RESULT:     -12.2      2.551      3.254
REMARK SMILES CC(C)(C)[C@](O)(c1ccc(C(=O)NCCCNC(=O)c2ccc(-c3c4nc(c(-c5cc(S(=O)(=O)[O-])ccc5F)c5ccc([nH]5)c(-c5cc(S(=O)(=O)[O-])ccc5F)c5nc(c(-c6cc(S(=O)(=O)[O-])ccc6F)c6ccc3[nH]6)C=C5)C=C4)cc2)cc1)c1ccc(C(F)(F)F)cc1
REMARK SMILES IDX 15 1 14 2 13 3 11 4 12 5 10 7 7 8 8 9 84 10 9 11 83 12 5 13
REMARK SMILES IDX 2 14 1 15 3 16 4 17 85 18 86 19 94 20 87 21 93 22 88 23
REMARK SMILES IDX 89 24 90 25 91 26 92 27 6 28 16 30 17 31 18 32 19 34 20 35
REMARK SMILES IDX 21 36 82 37 22 38 81 39 23 40 24 41 25 42 75 43 26 44 80 45
REMARK SMILES IDX 74 46 76 47 27 48 79 49 73 50 72 51 28 53 60 54 40 55 59 56
REMARK SMILES IDX 41 57 44 58 58 59 77 60 42 61 43 62 57 64 78 65 45 66 29 67
REMARK SMILES IDX 30 68 38 69 31 70 37 71 39 72 36 73 32 74 33 75 34 76 35 77
REMARK SMILES IDX 61 78 62 79 70 80 63 81 69 82 71 83 68 84 64 85 65 86 66 87
REMARK SMILES IDX 67 88 46 89 47 90 55 91 48 92 54 93 56 94 53 95 49 96 50 97
REMARK SMILES IDX 51 98 52 99
REMARK H PARENT 13 6 6 29 17 33 76 52 44 63
REMARK Flexibility Score: inf
ROOT
ATOM      1  C   UNL A   1      32.950  29.349  24.875  1.00  0.00     0.042 C 
ENDROOT
BRANCH   1   2
ATOM      2  C   UNL A   1      31.464  29.058  25.060  1.00  0.00     0.118 C 
BRANCH   2   3
ATOM      3  N   UNL A   1      30.793  28.809  23.795  1.00  0.00    -0.352 N 
ATOM      4  C   UNL A   1      30.849  27.703  22.984  1.00  0.00     0.251 C 
ATOM      5  O   UNL A   1      30.090  27.600  22.026  1.00  0.00    -0.269 OA
ATOM      6  H   UNL A   1      30.216  29.539  23.473  1.00  0.00     0.163 HD
BRANCH   4   7
ATOM      7  C   UNL A   1      31.788  26.604  23.289  1.00  0.00     0.039 A 
ATOM      8  C   UNL A   1      33.653  24.541  23.831  1.00  0.00    -0.011 A 
ATOM      9  C   UNL A   1      33.843  25.440  22.760  1.00  0.00     0.008 A 
ATOM     10  C   UNL A   1      32.497  24.720  24.623  1.00  0.00     0.008 A 
ATOM     11  C   UNL A   1      32.942  26.483  22.516  1.00  0.00     0.014 A 
ATOM     12  C   UNL A   1      31.568  25.730  24.350  1.00  0.00     0.014 A 
BRANCH   8  13
ATOM     13  C   UNL A   1      34.670  23.391  24.130  1.00  0.00     0.119 C 
BRANCH  13  14
ATOM     14  C   UNL A   1      35.554  23.754  25.439  1.00  0.00    -0.001 C 
ATOM     15  C   UNL A   1      37.062  23.442  25.215  1.00  0.00     0.014 C 
ATOM     16  C   UNL A   1      35.039  23.067  26.730  1.00  0.00     0.014 C 
ATOM     17  C   UNL A   1      35.540  25.274  25.785  1.00  0.00     0.014 C 
ENDBRANCH  13  14
BRANCH  13  18
ATOM     18  C   UNL A   1      33.990  21.984  24.094  1.00  0.00    -0.011 A 
ATOM     19  C   UNL A   1      32.788  21.705  23.425  1.00  0.00     0.008 A 
ATOM     20  C   UNL A   1      34.578  20.893  24.773  1.00  0.00     0.008 A 
ATOM     21  C   UNL A   1      32.300  20.401  23.281  1.00  0.00     0.013 A 
ATOM     22  C   UNL A   1      34.106  19.581  24.623  1.00  0.00     0.013 A 
ATOM     23  C   UNL A   1      32.986  19.317  23.831  1.00  0.00     0.056 A 
BRANCH  23  24
ATOM     24  C   UNL A   1      32.507  17.914  23.563  1.00  0.00     0.416 C 
ATOM     25  F   UNL A   1      31.692  17.833  22.476  1.00  0.00    -0.166 F 
ATOM     26  F   UNL A   1      33.539  17.054  23.316  1.00  0.00    -0.166 F 
ATOM     27  F   UNL A   1      31.813  17.363  24.598  1.00  0.00    -0.166 F 
ENDBRANCH  23  24
ENDBRANCH  13  18
BRANCH  13  28
ATOM     28  O   UNL A   1      35.551  23.311  22.991  1.00  0.00    -0.380 OA
ATOM     29  H   UNL A   1      35.292  23.978  22.336  1.00  0.00     0.212 HD
ENDBRANCH  13  28
ENDBRANCH   8  13
ENDBRANCH   4   7
ENDBRANCH   2   3
ENDBRANCH   1   2
BRANCH   1  30
ATOM     30  C   UNL A   1      33.737  29.408  26.182  1.00  0.00     0.118 C 
BRANCH  30  31
ATOM     31  N   UNL A   1      33.585  30.688  26.856  1.00  0.00    -0.352 N 
ATOM     32  C   UNL A   1      34.319  31.248  27.871  1.00  0.00     0.251 C 
ATOM     33  H   UNL A   1      32.837  31.239  26.533  1.00  0.00     0.163 HD
ATOM     34  O   UNL A   1      33.871  32.237  28.444  1.00  0.00    -0.269 OA
BRANCH  32  35
ATOM     35  C   UNL A   1      35.625  30.678  28.285  1.00  0.00     0.039 A 
ATOM     36  C   UNL A   1      35.656  29.821  29.390  1.00  0.00     0.014 A 
ATOM     37  C   UNL A   1      36.819  31.030  27.650  1.00  0.00     0.014 A 
ATOM     38  C   UNL A   1      36.873  29.302  29.839  1.00  0.00     0.010 A 
ATOM     39  C   UNL A   1      38.024  30.450  28.050  1.00  0.00     0.010 A 
ATOM     40  C   UNL A   1      38.067  29.599  29.164  1.00  0.00    -0.014 A 
BRANCH  40  41
ATOM     41  C   UNL A   1      39.367  29.064  29.649  1.00  0.00     0.031 A 
ATOM     42  C   UNL A   1      40.057  29.705  30.826  1.00  0.00     0.074 A 
ATOM     43  C   UNL A   1      39.935  28.017  29.020  1.00  0.00     0.049 A 
ATOM     44  N   UNL A   1      41.195  29.392  31.392  1.00  0.00    -0.248 NA
ATOM     45  C   UNL A   1      39.392  30.872  31.425  1.00  0.00     0.031 C 
ATOM     46  C   UNL A   1      39.385  27.341  27.842  1.00  0.00     0.029 A 
ATOM     47  N   UNL A   1      41.095  27.334  29.280  1.00  0.00    -0.354 N 
ATOM     48  C   UNL A   1      41.387  30.327  32.405  1.00  0.00     0.074 A 
ATOM     49  C   UNL A   1      40.281  31.258  32.327  1.00  0.00     0.031 C 
ATOM     50  C   UNL A   1      40.190  26.322  27.503  1.00  0.00     0.029 A 
ATOM     51  C   UNL A   1      41.330  26.291  28.414  1.00  0.00     0.049 A 
ATOM     52  H   UNL A   1      41.704  27.569  30.018  1.00  0.00     0.167 HD
ATOM     53  C   UNL A   1      42.377  30.389  33.331  1.00  0.00     0.034 A 
ATOM     54  C   UNL A   1      42.346  25.407  28.363  1.00  0.00     0.034 A 
ATOM     55  C   UNL A   1      43.466  29.445  33.402  1.00  0.00     0.049 A 
ATOM     56  C   UNL A   1      43.430  25.488  29.409  1.00  0.00     0.074 A 
ATOM     57  C   UNL A   1      44.504  29.387  34.316  1.00  0.00     0.029 A 
ATOM     58  N   UNL A   1      43.660  28.389  32.519  1.00  0.00    -0.354 N 
ATOM     59  N   UNL A   1      43.571  26.350  30.391  1.00  0.00    -0.248 NA
ATOM     60  C   UNL A   1      44.476  24.460  29.354  1.00  0.00     0.031 C 
ATOM     61  C   UNL A   1      45.355  28.337  33.952  1.00  0.00     0.029 A 
ATOM     62  C   UNL A   1      44.809  27.688  32.856  1.00  0.00     0.049 A 
ATOM     63  H   UNL A   1      43.067  28.170  31.764  1.00  0.00     0.167 HD
ATOM     64  C   UNL A   1      44.704  25.944  31.091  1.00  0.00     0.074 A 
ATOM     65  C   UNL A   1      45.192  24.751  30.429  1.00  0.00     0.031 C 
ATOM     66  C   UNL A   1      45.289  26.504  32.181  1.00  0.00     0.034 A 
BRANCH  53  67
ATOM     67  C   UNL A   1      42.331  31.534  34.321  1.00  0.00     0.023 A 
ATOM     68  C   UNL A   1      41.480  31.508  35.441  1.00  0.00     0.031 A 
ATOM     69  C   UNL A   1      43.117  32.681  34.123  1.00  0.00     0.131 A 
ATOM     70  C   UNL A   1      41.372  32.636  36.268  1.00  0.00     0.055 A 
ATOM     71  C   UNL A   1      43.071  33.768  35.000  1.00  0.00     0.041 A 
ATOM     72  F   UNL A   1      43.935  32.776  33.063  1.00  0.00    -0.206 F 
ATOM     73  C   UNL A   1      42.181  33.757  36.071  1.00  0.00     0.022 A 
BRANCH  70  74
ATOM     74  S   UNL A   1      40.050  32.678  37.508  1.00  0.00     0.124 S 
ATOM     75  O   UNL A   1      39.157  31.628  37.023  1.00  0.00    -0.237 OA
ATOM     76  O   UNL A   1      40.766  32.387  38.745  1.00  0.00    -0.237 OA
ATOM     77  O   UNL A   1      39.519  34.035  37.399  1.00  0.00    -0.744 OA
ENDBRANCH  70  74
ENDBRANCH  53  67
BRANCH  54  78
ATOM     78  C   UNL A   1      42.388  24.363  27.301  1.00  0.00     0.023 A 
ATOM     79  C   UNL A   1      41.606  23.200  27.395  1.00  0.00     0.031 A 
ATOM     80  C   UNL A   1      43.243  24.494  26.192  1.00  0.00     0.131 A 
ATOM     81  C   UNL A   1      41.732  22.191  26.427  1.00  0.00     0.055 A 
ATOM     82  C   UNL A   1      43.324  23.512  25.203  1.00  0.00     0.041 A 
ATOM     83  F   UNL A   1      44.004  25.590  26.046  1.00  0.00    -0.206 F 
ATOM     84  C   UNL A   1      42.577  22.344  25.325  1.00  0.00     0.022 A 
BRANCH  81  85
ATOM     85  S   UNL A   1      40.833  20.635  26.674  1.00  0.00     0.124 S 
ATOM     86  O   UNL A   1      41.662  19.692  25.933  1.00  0.00    -0.237 OA
ATOM     87  O   UNL A   1      40.850  20.504  28.126  1.00  0.00    -0.237 OA
ATOM     88  O   UNL A   1      39.520  20.906  26.091  1.00  0.00    -0.744 OA
ENDBRANCH  81  85
ENDBRANCH  54  78
BRANCH  66  89
ATOM     89  C   UNL A   1      46.492  25.790  32.749  1.00  0.00     0.023 A 
ATOM     90  C   UNL A   1      47.763  25.888  32.154  1.00  0.00     0.031 A 
ATOM     91  C   UNL A   1      46.355  24.963  33.879  1.00  0.00     0.131 A 
ATOM     92  C   UNL A   1      48.824  25.111  32.641  1.00  0.00     0.055 A 
ATOM     93  C   UNL A   1      47.432  24.248  34.403  1.00  0.00     0.041 A 
ATOM     94  F   UNL A   1      45.166  24.832  34.490  1.00  0.00    -0.206 F 
ATOM     95  C   UNL A   1      48.672  24.304  33.771  1.00  0.00     0.022 A 
BRANCH  92  96
ATOM     96  S   UNL A   1      50.373  25.068  31.697  1.00  0.00     0.124 S 
ATOM     97  O   UNL A   1      51.083  26.228  32.224  1.00  0.00    -0.237 OA
ATOM     98  O   UNL A   1      50.923  23.765  32.061  1.00  0.00    -0.237 OA
ATOM     99  O   UNL A   1      49.932  25.188  30.309  1.00  0.00    -0.744 OA
ENDBRANCH  92  96
ENDBRANCH  66  89
ENDBRANCH  40  41
ENDBRANCH  32  35
ENDBRANCH  30  31
ENDBRANCH   1  30
TORSDOF 18
ENDMDL
MODEL 3
REMARK VINA RESULT:     -12.1      1.997      2.716
REMARK SMILES CC(C)(C)[C@](O)(c1ccc(C(=O)NCCCNC(=O)c2ccc(-c3c4nc(c(-c5cc(S(=O)(=O)[O-])ccc5F)c5ccc([nH]5)c(-c5cc(S(=O)(=O)[O-])ccc5F)c5nc(c(-c6cc(S(=O)(=O)[O-])ccc6F)c6ccc3[nH]6)C=C5)C=C4)cc2)cc1)c1ccc(C(F)(F)F)cc1
REMARK SMILES IDX 15 1 14 2 13 3 11 4 12 5 10 7 7 8 8 9 84 10 9 11 83 12 5 13
REMARK SMILES IDX 2 14 1 15 3 16 4 17 85 18 86 19 94 20 87 21 93 22 88 23
REMARK SMILES IDX 89 24 90 25 91 26 92 27 6 28 16 30 17 31 18 32 19 34 20 35
REMARK SMILES IDX 21 36 82 37 22 38 81 39 23 40 24 41 25 42 75 43 26 44 80 45
REMARK SMILES IDX 74 46 76 47 27 48 79 49 73 50 72 51 28 53 60 54 40 55 59 56
REMARK SMILES IDX 41 57 44 58 58 59 77 60 42 61 43 62 57 64 78 65 45 66 29 67
REMARK SMILES IDX 30 68 38 69 31 70 37 71 39 72 36 73 32 74 33 75 34 76 35 77
REMARK SMILES IDX 61 78 62 79 70 80 63 81 69 82 71 83 68 84 64 85 65 86 66 87
REMARK SMILES IDX 67 88 46 89 47 90 55 91 48 92 54 93 56 94 53 95 49 96 50 97
REMARK SMILES IDX 51 98 52 99
REMARK H PARENT 13 6 6 29 17 33 76 52 44 63
REMARK Flexibility Score: inf
ROOT
ATOM      1  C   UNL A   1      32.886  29.355  25.016  1.00  0.00     0.042 C 
ENDROOT
BRANCH   1   2
ATOM      2  C   UNL A   1      31.405  29.002  25.113  1.00  0.00     0.118 C 
BRANCH   2   3
ATOM      3  N   UNL A   1      30.805  28.801  23.805  1.00  0.00    -0.352 N 
ATOM      4  C   UNL A   1      30.906  27.727  22.956  1.00  0.00     0.251 C 
ATOM      5  O   UNL A   1      30.201  27.660  21.956  1.00  0.00    -0.269 OA
ATOM      6  H   UNL A   1      30.244  29.543  23.480  1.00  0.00     0.163 HD
BRANCH   4   7
ATOM      7  C   UNL A   1      31.829  26.617  23.269  1.00  0.00     0.039 A 
ATOM      8  C   UNL A   1      33.665  24.533  23.830  1.00  0.00    -0.011 A 
ATOM      9  C   UNL A   1      33.895  25.452  22.785  1.00  0.00     0.008 A 
ATOM     10  C   UNL A   1      32.484  24.702  24.587  1.00  0.00     0.008 A 
ATOM     11  C   UNL A   1      33.007  26.504  22.533  1.00  0.00     0.014 A 
ATOM     12  C   UNL A   1      31.569  25.722  24.304  1.00  0.00     0.014 A 
BRANCH   8  13
ATOM     13  C   UNL A   1      34.666  23.371  24.140  1.00  0.00     0.119 C 
BRANCH  13  14
ATOM     14  C   UNL A   1      35.520  23.710  25.474  1.00  0.00    -0.001 C 
ATOM     15  C   UNL A   1      37.026  23.366  25.292  1.00  0.00     0.014 C 
ATOM     16  C   UNL A   1      34.953  23.032  26.748  1.00  0.00     0.014 C 
ATOM     17  C   UNL A   1      35.530  25.230  25.825  1.00  0.00     0.014 C 
ENDBRANCH  13  14
BRANCH  13  18
ATOM     18  C   UNL A   1      33.977  21.970  24.068  1.00  0.00    -0.011 A 
ATOM     19  C   UNL A   1      32.775  21.715  23.391  1.00  0.00     0.008 A 
ATOM     20  C   UNL A   1      34.556  20.859  24.722  1.00  0.00     0.008 A 
ATOM     21  C   UNL A   1      32.279  20.418  23.214  1.00  0.00     0.013 A 
ATOM     22  C   UNL A   1      34.076  19.554  24.540  1.00  0.00     0.013 A 
ATOM     23  C   UNL A   1      32.956  19.316  23.740  1.00  0.00     0.056 A 
BRANCH  23  24
ATOM     24  C   UNL A   1      32.469  17.923  23.437  1.00  0.00     0.416 C 
ATOM     25  F   UNL A   1      31.668  17.871  22.337  1.00  0.00    -0.166 F 
ATOM     26  F   UNL A   1      33.496  17.059  23.187  1.00  0.00    -0.166 F 
ATOM     27  F   UNL A   1      31.756  17.358  24.451  1.00  0.00    -0.166 F 
ENDBRANCH  23  24
ENDBRANCH  13  18
BRANCH  13  28
ATOM     28  O   UNL A   1      35.574  23.299  23.022  1.00  0.00    -0.380 OA
ATOM     29  H   UNL A   1      35.143  22.838  22.285  1.00  0.00     0.212 HD
ENDBRANCH  13  28
ENDBRANCH   8  13
ENDBRANCH   4   7
ENDBRANCH   2   3
ENDBRANCH   1   2
BRANCH   1  30
ATOM     30  C   UNL A   1      33.579  29.494  26.370  1.00  0.00     0.118 C 
BRANCH  30  31
ATOM     31  N   UNL A   1      33.551  30.862  26.863  1.00  0.00    -0.352 N 
ATOM     32  C   UNL A   1      34.360  31.493  27.772  1.00  0.00     0.251 C 
ATOM     33  H   UNL A   1      32.839  31.424  26.482  1.00  0.00     0.163 HD
ATOM     34  O   UNL A   1      34.011  32.586  28.212  1.00  0.00    -0.269 OA
BRANCH  32  35
ATOM     35  C   UNL A   1      35.629  30.879  28.234  1.00  0.00     0.039 A 
ATOM     36  C   UNL A   1      35.570  29.891  29.222  1.00  0.00     0.014 A 
ATOM     37  C   UNL A   1      36.872  31.310  27.763  1.00  0.00     0.014 A 
ATOM     38  C   UNL A   1      36.747  29.323  29.716  1.00  0.00     0.010 A 
ATOM     39  C   UNL A   1      38.043  30.688  28.199  1.00  0.00     0.010 A 
ATOM     40  C   UNL A   1      37.995  29.705  29.198  1.00  0.00    -0.014 A 
BRANCH  40  41
ATOM     41  C   UNL A   1      39.251  29.117  29.733  1.00  0.00     0.031 A 
ATOM     42  C   UNL A   1      39.882  29.685  30.978  1.00  0.00     0.074 A 
ATOM     43  C   UNL A   1      39.833  28.086  29.089  1.00  0.00     0.049 A 
ATOM     44  N   UNL A   1      40.977  29.319  31.595  1.00  0.00    -0.248 NA
ATOM     45  C   UNL A   1      39.207  30.839  31.591  1.00  0.00     0.031 C 
ATOM     46  C   UNL A   1      39.341  27.480  27.851  1.00  0.00     0.029 A 
ATOM     47  N   UNL A   1      40.961  27.365  29.385  1.00  0.00    -0.354 N 
ATOM     48  C   UNL A   1      41.128  30.201  32.661  1.00  0.00     0.074 A 
ATOM     49  C   UNL A   1      40.049  31.161  32.562  1.00  0.00     0.031 C 
ATOM     50  C   UNL A   1      40.143  26.458  27.512  1.00  0.00     0.029 A 
ATOM     51  C   UNL A   1      41.225  26.357  28.486  1.00  0.00     0.049 A 
ATOM     52  H   UNL A   1      41.529  27.550  30.168  1.00  0.00     0.167 HD
ATOM     53  C   UNL A   1      42.061  30.197  33.646  1.00  0.00     0.034 A 
ATOM     54  C   UNL A   1      42.223  25.452  28.453  1.00  0.00     0.034 A 
ATOM     55  C   UNL A   1      43.123  29.224  33.736  1.00  0.00     0.049 A 
ATOM     56  C   UNL A   1      43.243  25.458  29.564  1.00  0.00     0.074 A 
ATOM     57  C   UNL A   1      44.103  29.099  34.706  1.00  0.00     0.029 A 
ATOM     58  N   UNL A   1      43.348  28.205  32.817  1.00  0.00    -0.354 N 
ATOM     59  N   UNL A   1      43.343  26.270  30.592  1.00  0.00    -0.248 NA
ATOM     60  C   UNL A   1      44.268  24.409  29.521  1.00  0.00     0.031 C 
ATOM     61  C   UNL A   1      44.952  28.046  34.343  1.00  0.00     0.029 A 
ATOM     62  C   UNL A   1      44.459  27.462  33.187  1.00  0.00     0.049 A 
ATOM     63  H   UNL A   1      42.797  28.036  32.019  1.00  0.00     0.167 HD
ATOM     64  C   UNL A   1      44.424  25.805  31.338  1.00  0.00     0.074 A 
ATOM     65  C   UNL A   1      44.924  24.632  30.650  1.00  0.00     0.031 C 
ATOM     66  C   UNL A   1      44.953  26.299  32.486  1.00  0.00     0.034 A 
BRANCH  53  67
ATOM     67  C   UNL A   1      41.980  31.295  34.685  1.00  0.00     0.023 A 
ATOM     68  C   UNL A   1      40.937  31.344  35.627  1.00  0.00     0.031 A 
ATOM     69  C   UNL A   1      42.934  32.326  34.710  1.00  0.00     0.131 A 
ATOM     70  C   UNL A   1      40.825  32.442  36.494  1.00  0.00     0.055 A 
ATOM     71  C   UNL A   1      42.866  33.372  35.634  1.00  0.00     0.041 A 
ATOM     72  F   UNL A   1      43.943  32.347  33.824  1.00  0.00    -0.206 F 
ATOM     73  C   UNL A   1      41.796  33.443  36.522  1.00  0.00     0.022 A 
BRANCH  70  74
ATOM     74  S   UNL A   1      39.308  32.620  37.474  1.00  0.00     0.124 S 
ATOM     75  O   UNL A   1      39.839  32.666  38.834  1.00  0.00    -0.237 OA
ATOM     76  O   UNL A   1      38.747  33.867  36.965  1.00  0.00    -0.237 OA
ATOM     77  O   UNL A   1      38.547  31.415  37.150  1.00  0.00    -0.744 OA
ENDBRANCH  70  74
ENDBRANCH  53  67
BRANCH  54  78
ATOM     78  C   UNL A   1      42.307  24.458  27.346  1.00  0.00     0.023 A 
ATOM     79  C   UNL A   1      41.565  23.266  27.384  1.00  0.00     0.031 A 
ATOM     80  C   UNL A   1      43.162  24.667  26.250  1.00  0.00     0.131 A 
ATOM     81  C   UNL A   1      41.730  22.305  26.374  1.00  0.00     0.055 A 
ATOM     82  C   UNL A   1      43.283  23.732  25.220  1.00  0.00     0.041 A 
ATOM     83  F   UNL A   1      43.886  25.793  26.158  1.00  0.00    -0.206 F 
ATOM     84  C   UNL A   1      42.575  22.535  25.286  1.00  0.00     0.022 A 
BRANCH  81  85
ATOM     85  S   UNL A   1      40.883  20.710  26.546  1.00  0.00     0.124 S 
ATOM     86  O   UNL A   1      39.558  21.019  26.022  1.00  0.00    -0.237 OA
ATOM     87  O   UNL A   1      41.713  19.838  25.724  1.00  0.00    -0.237 OA
ATOM     88  O   UNL A   1      40.941  20.449  27.983  1.00  0.00    -0.744 OA
ENDBRANCH  81  85
ENDBRANCH  54  78
BRANCH  66  89
ATOM     89  C   UNL A   1      46.104  25.531  33.090  1.00  0.00     0.023 A 
ATOM     90  C   UNL A   1      45.901  24.369  33.857  1.00  0.00     0.031 A 
ATOM     91  C   UNL A   1      47.423  25.994  32.933  1.00  0.00     0.131 A 
ATOM     92  C   UNL A   1      46.987  23.759  34.502  1.00  0.00     0.055 A 
ATOM     93  C   UNL A   1      48.508  25.341  33.518  1.00  0.00     0.041 A 
ATOM     94  F   UNL A   1      47.678  27.099  32.211  1.00  0.00    -0.206 F 
ATOM     95  C   UNL A   1      48.291  24.228  34.324  1.00  0.00     0.022 A 
BRANCH  92  96
ATOM     96  S   UNL A   1      46.656  22.422  35.683  1.00  0.00     0.124 S 
ATOM     97  O   UNL A   1      45.950  21.451  34.853  1.00  0.00    -0.237 OA
ATOM     98  O   UNL A   1      48.000  22.041  36.106  1.00  0.00    -0.237 OA
ATOM     99  O   UNL A   1      45.842  23.066  36.711  1.00  0.00    -0.744 OA
ENDBRANCH  92  96
ENDBRANCH  66  89
ENDBRANCH  40  41
ENDBRANCH  32  35
ENDBRANCH  30  31
ENDBRANCH   1  30
TORSDOF 18
ENDMDL
