MODEL 1
REMARK VINA RESULT:     -13.5      0.000      0.000
REMARK SMILES Cc1cc(C(=O)N[C@@H]2C(=O)N3C(C(=O)NCCCNC(=O)c4ccc(-c5c6nc(c(-c7cc(S(=O)(=O)[O-])ccc7F)c7ccc([nH]7)c(-c7cc(S(=O)(=O)[O-])ccc7F)c7nc(c(-c8cc(S(=O)(=O)[O-])ccc8F)c8ccc5[nH]8)C=C7)C=C6)cc4)=C(CSc4nnc(C)s4)CS[C@H]23)n(C)n1
REMARK SMILES IDX 17 1 16 2 15 3 13 4 14 5 12 7 8 8 9 9 96 10 10 11 11 12
REMARK SMILES IDX 95 13 94 14 85 15 7 16 5 17 6 18 4 20 1 21 2 22 3 23 99 24
REMARK SMILES IDX 97 25 98 26 86 27 87 28 88 29 89 30 93 31 90 32 91 33 92 34
REMARK SMILES IDX 18 35 19 36 20 37 21 39 22 40 23 41 84 42 24 43 83 44 25 45
REMARK SMILES IDX 26 46 27 47 77 48 28 49 82 50 76 51 78 52 29 53 81 54 75 55
REMARK SMILES IDX 74 56 30 58 62 59 42 60 61 61 43 62 46 63 60 64 79 65 44 66
REMARK SMILES IDX 45 67 59 69 80 70 47 71 31 72 32 73 40 74 33 75 39 76 41 77
REMARK SMILES IDX 38 78 34 79 35 80 36 81 37 82 63 83 64 84 72 85 65 86 71 87
REMARK SMILES IDX 73 88 70 89 66 90 67 91 68 92 69 93 48 94 49 95 57 96 50 97
REMARK SMILES IDX 56 98 58 99 55 100 51 101 52 102 53 103 54 104
REMARK H PARENT 15 6 7 19 19 38 78 57 46 68
REMARK Flexibility Score: inf
ROOT
ATOM      1  C   UNL A   1      31.234  31.958  26.344  1.00  0.00     0.042 C 
ENDROOT
BRANCH   1   2
ATOM      2  C   UNL A   1      31.212  30.556  25.736  1.00  0.00     0.118 C 
BRANCH   2   3
ATOM      3  N   UNL A   1      32.508  30.197  25.190  1.00  0.00    -0.351 N 
ATOM      4  C   UNL A   1      33.038  29.179  24.467  1.00  0.00     0.268 C 
ATOM      5  O   UNL A   1      34.164  29.445  24.030  1.00  0.00    -0.268 OA
ATOM      6  H   UNL A   1      33.187  30.878  25.401  1.00  0.00     0.163 HD
BRANCH   4   7
ATOM      7  C   UNL A   1      32.329  27.891  23.998  1.00  0.00     0.111 C 
ATOM      8  C   UNL A   1      32.322  25.188  26.146  1.00  0.00     0.206 C 
ATOM      9  C   UNL A   1      32.290  26.743  26.240  1.00  0.00     0.253 C 
ATOM     10  C   UNL A   1      32.140  25.464  24.629  1.00  0.00     0.181 C 
ATOM     11  O   UNL A   1      32.047  27.528  27.136  1.00  0.00    -0.272 OA
ATOM     12  N   UNL A   1      32.511  26.838  24.890  1.00  0.00    -0.290 N 
ATOM     13  S   UNL A   1      30.438  25.417  23.990  1.00  0.00    -0.129 SA
ATOM     14  C   UNL A   1      30.975  26.313  22.537  1.00  0.00     0.106 C 
ATOM     15  C   UNL A   1      31.456  27.692  22.957  1.00  0.00    -0.020 C 
BRANCH   8  16
ATOM     16  N   UNL A   1      31.294  24.397  26.879  1.00  0.00    -0.336 N 
ATOM     17  C   UNL A   1      31.130  23.024  26.957  1.00  0.00     0.270 C 
ATOM     18  O   UNL A   1      30.212  22.600  27.657  1.00  0.00    -0.268 OA
ATOM     19  H   UNL A   1      30.636  24.929  27.383  1.00  0.00     0.164 HD
BRANCH  17  20
ATOM     20  C   UNL A   1      31.983  22.164  26.164  1.00  0.00     0.126 A 
ATOM     21  C   UNL A   1      32.527  19.242  24.066  1.00  0.00     0.069 C 
ATOM     22  C   UNL A   1      32.639  20.461  24.905  1.00  0.00     0.060 A 
ATOM     23  C   UNL A   1      31.803  21.599  24.908  1.00  0.00     0.059 A 
ATOM     24  N   UNL A   1      33.546  20.533  25.879  1.00  0.00    -0.178 NA
ATOM     25  N   UNL A   1      33.189  21.636  26.577  1.00  0.00    -0.263 N 
ATOM     26  C   UNL A   1      34.058  22.052  27.652  1.00  0.00     0.174 C 
ENDBRANCH  17  20
ENDBRANCH   8  16
BRANCH  15  27
ATOM     27  C   UNL A   1      30.574  28.743  22.325  1.00  0.00     0.111 C 
BRANCH  27  28
ATOM     28  S   UNL A   1      28.912  28.486  22.948  1.00  0.00    -0.089 SA
BRANCH  28  29
ATOM     29  C   UNL A   1      28.066  29.951  22.648  1.00  0.00     0.174 A 
ATOM     30  N   UNL A   1      27.121  30.402  23.440  1.00  0.00    -0.132 NA
ATOM     31  S   UNL A   1      28.808  31.149  21.677  1.00  0.00    -0.091 S 
ATOM     32  N   UNL A   1      27.245  31.776  23.593  1.00  0.00    -0.143 NA
ATOM     33  C   UNL A   1      28.244  32.247  22.870  1.00  0.00     0.115 A 
ATOM     34  C   UNL A   1      28.983  33.506  23.116  1.00  0.00     0.081 C 
ENDBRANCH  28  29
ENDBRANCH  27  28
ENDBRANCH  15  27
ENDBRANCH   4   7
ENDBRANCH   2   3
ENDBRANCH   1   2
BRANCH   1  35
ATOM     35  C   UNL A   1      32.511  32.373  27.044  1.00  0.00     0.118 C 
BRANCH  35  36
ATOM     36  N   UNL A   1      32.485  33.766  27.437  1.00  0.00    -0.352 N 
ATOM     37  C   UNL A   1      33.156  34.415  28.446  1.00  0.00     0.251 C 
ATOM     38  H   UNL A   1      31.895  34.339  26.896  1.00  0.00     0.163 HD
ATOM     39  O   UNL A   1      32.783  35.545  28.757  1.00  0.00    -0.269 OA
BRANCH  37  40
ATOM     40  C   UNL A   1      34.285  33.777  29.173  1.00  0.00     0.039 A 
ATOM     41  C   UNL A   1      35.589  34.194  28.885  1.00  0.00     0.014 A 
ATOM     42  C   UNL A   1      34.092  32.741  30.092  1.00  0.00     0.014 A 
ATOM     43  C   UNL A   1      36.676  33.611  29.544  1.00  0.00     0.010 A 
ATOM     44  C   UNL A   1      35.163  32.245  30.833  1.00  0.00     0.010 A 
ATOM     45  C   UNL A   1      36.473  32.653  30.549  1.00  0.00    -0.014 A 
BRANCH  45  46
ATOM     46  C   UNL A   1      37.616  32.034  31.274  1.00  0.00     0.031 A 
ATOM     47  C   UNL A   1      38.388  30.904  30.642  1.00  0.00     0.074 A 
ATOM     48  C   UNL A   1      37.944  32.468  32.507  1.00  0.00     0.049 A 
ATOM     49  N   UNL A   1      39.376  30.199  31.132  1.00  0.00    -0.248 NA
ATOM     50  C   UNL A   1      37.974  30.492  29.291  1.00  0.00     0.031 C 
ATOM     51  C   UNL A   1      37.256  33.537  33.236  1.00  0.00     0.029 A 
ATOM     52  N   UNL A   1      38.940  32.074  33.365  1.00  0.00    -0.354 N 
ATOM     53  C   UNL A   1      39.696  29.261  30.154  1.00  0.00     0.074 A 
ATOM     54  C   UNL A   1      38.743  29.435  29.080  1.00  0.00     0.031 C 
ATOM     55  C   UNL A   1      37.880  33.745  34.405  1.00  0.00     0.029 A 
ATOM     56  C   UNL A   1      38.974  32.788  34.540  1.00  0.00     0.049 A 
ATOM     57  H   UNL A   1      39.571  31.346  33.159  1.00  0.00     0.167 HD
ATOM     58  C   UNL A   1      40.711  28.361  30.137  1.00  0.00     0.034 A 
ATOM     59  C   UNL A   1      39.789  32.682  35.610  1.00  0.00     0.034 A 
ATOM     60  C   UNL A   1      41.658  28.206  31.213  1.00  0.00     0.049 A 
ATOM     61  C   UNL A   1      40.878  31.640  35.590  1.00  0.00     0.074 A 
ATOM     62  C   UNL A   1      42.738  27.343  31.291  1.00  0.00     0.029 A 
ATOM     63  N   UNL A   1      41.641  28.928  32.399  1.00  0.00    -0.354 N 
ATOM     64  N   UNL A   1      41.175  30.772  34.650  1.00  0.00    -0.248 NA
ATOM     65  C   UNL A   1      41.746  31.568  36.772  1.00  0.00     0.031 C 
ATOM     66  C   UNL A   1      43.325  27.490  32.551  1.00  0.00     0.029 A 
ATOM     67  C   UNL A   1      42.672  28.510  33.226  1.00  0.00     0.049 A 
ATOM     68  H   UNL A   1      40.991  29.634  32.621  1.00  0.00     0.167 HD
ATOM     69  C   UNL A   1      42.288  30.075  35.116  1.00  0.00     0.074 A 
ATOM     70  C   UNL A   1      42.614  30.634  36.412  1.00  0.00     0.031 C 
ATOM     71  C   UNL A   1      42.980  29.068  34.522  1.00  0.00     0.034 A 
BRANCH  58  72
ATOM     72  C   UNL A   1      40.831  27.468  28.924  1.00  0.00     0.023 A 
ATOM     73  C   UNL A   1      41.794  27.707  27.927  1.00  0.00     0.031 A 
ATOM     74  C   UNL A   1      39.965  26.374  28.749  1.00  0.00     0.131 A 
ATOM     75  C   UNL A   1      41.821  26.911  26.771  1.00  0.00     0.055 A 
ATOM     76  C   UNL A   1      40.053  25.533  27.639  1.00  0.00     0.041 A 
ATOM     77  F   UNL A   1      39.007  26.109  29.653  1.00  0.00    -0.206 F 
ATOM     78  C   UNL A   1      40.976  25.809  26.633  1.00  0.00     0.022 A 
BRANCH  75  79
ATOM     79  S   UNL A   1      42.874  27.430  25.389  1.00  0.00     0.124 S 
ATOM     80  O   UNL A   1      42.924  26.210  24.585  1.00  0.00    -0.237 OA
ATOM     81  O   UNL A   1      42.122  28.540  24.817  1.00  0.00    -0.237 OA
ATOM     82  O   UNL A   1      44.133  27.793  26.034  1.00  0.00    -0.744 OA
ENDBRANCH  75  79
ENDBRANCH  58  72
BRANCH  59  83
ATOM     83  C   UNL A   1      39.611  33.582  36.786  1.00  0.00     0.023 A 
ATOM     84  C   UNL A   1      39.080  33.099  37.992  1.00  0.00     0.031 A 
ATOM     85  C   UNL A   1      39.943  34.946  36.713  1.00  0.00     0.131 A 
ATOM     86  C   UNL A   1      38.857  33.979  39.062  1.00  0.00     0.055 A 
ATOM     87  C   UNL A   1      39.775  35.807  37.799  1.00  0.00     0.041 A 
ATOM     88  F   UNL A   1      40.456  35.462  35.584  1.00  0.00    -0.206 F 
ATOM     89  C   UNL A   1      39.216  35.327  38.980  1.00  0.00     0.022 A 
BRANCH  86  90
ATOM     90  S   UNL A   1      38.011  33.354  40.540  1.00  0.00     0.124 S 
ATOM     91  O   UNL A   1      36.662  33.127  40.035  1.00  0.00    -0.237 OA
ATOM     92  O   UNL A   1      38.789  32.161  40.853  1.00  0.00    -0.237 OA
ATOM     93  O   UNL A   1      38.144  34.451  41.497  1.00  0.00    -0.744 OA
ENDBRANCH  86  90
ENDBRANCH  59  83
BRANCH  71  94
ATOM     94  C   UNL A   1      44.190  28.540  35.254  1.00  0.00     0.023 A 
ATOM     95  C   UNL A   1      44.090  27.521  36.217  1.00  0.00     0.031 A 
ATOM     96  C   UNL A   1      45.466  29.068  34.981  1.00  0.00     0.131 A 
ATOM     97  C   UNL A   1      45.233  27.107  36.916  1.00  0.00     0.055 A 
ATOM     98  C   UNL A   1      46.609  28.601  35.628  1.00  0.00     0.041 A 
ATOM     99  F   UNL A   1      45.622  30.045  34.074  1.00  0.00    -0.206 F 
ATOM    100  C   UNL A   1      46.495  27.624  36.613  1.00  0.00     0.022 A 
BRANCH  97 101
ATOM    101  S   UNL A   1      45.032  25.958  38.304  1.00  0.00     0.124 S 
ATOM    102  O   UNL A   1      44.337  24.841  37.673  1.00  0.00    -0.237 OA
ATOM    103  O   UNL A   1      46.412  25.705  38.704  1.00  0.00    -0.237 OA
ATOM    104  O   UNL A   1      44.236  26.718  39.266  1.00  0.00    -0.744 OA
ENDBRANCH  97 101
ENDBRANCH  71  94
ENDBRANCH  45  46
ENDBRANCH  37  40
ENDBRANCH  35  36
ENDBRANCH   1  35
TORSDOF 18
ENDMDL
MODEL 2
REMARK VINA RESULT:     -13.3      1.731      7.192
REMARK SMILES Cc1cc(C(=O)N[C@@H]2C(=O)N3C(C(=O)NCCCNC(=O)c4ccc(-c5c6nc(c(-c7cc(S(=O)(=O)[O-])ccc7F)c7ccc([nH]7)c(-c7cc(S(=O)(=O)[O-])ccc7F)c7nc(c(-c8cc(S(=O)(=O)[O-])ccc8F)c8ccc5[nH]8)C=C7)C=C6)cc4)=C(CSc4nnc(C)s4)CS[C@H]23)n(C)n1
REMARK SMILES IDX 17 1 16 2 15 3 13 4 14 5 12 7 8 8 9 9 96 10 10 11 11 12
REMARK SMILES IDX 95 13 94 14 85 15 7 16 5 17 6 18 4 20 1 21 2 22 3 23 99 24
REMARK SMILES IDX 97 25 98 26 86 27 87 28 88 29 89 30 93 31 90 32 91 33 92 34
REMARK SMILES IDX 18 35 19 36 20 37 21 39 22 40 23 41 84 42 24 43 83 44 25 45
REMARK SMILES IDX 26 46 27 47 77 48 28 49 82 50 76 51 78 52 29 53 81 54 75 55
REMARK SMILES IDX 74 56 30 58 62 59 42 60 61 61 43 62 46 63 60 64 79 65 44 66
REMARK SMILES IDX 45 67 59 69 80 70 47 71 31 72 32 73 40 74 33 75 39 76 41 77
REMARK SMILES IDX 38 78 34 79 35 80 36 81 37 82 63 83 64 84 72 85 65 86 71 87
REMARK SMILES IDX 73 88 70 89 66 90 67 91 68 92 69 93 48 94 49 95 57 96 50 97
REMARK SMILES IDX 56 98 58 99 55 100 51 101 52 102 53 103 54 104
REMARK H PARENT 15 6 7 19 19 38 78 57 46 68
REMARK Flexibility Score: inf
ROOT
ATOM      1  C   UNL A   1      31.020  32.023  26.256  1.00  0.00     0.042 C 
ENDROOT
BRANCH   1   2
ATOM      2  C   UNL A   1      31.014  30.750  25.413  1.00  0.00     0.118 C 
BRANCH   2   3
ATOM      3  N   UNL A   1      32.362  30.291  25.138  1.00  0.00    -0.351 N 
ATOM      4  C   UNL A   1      32.952  29.197  24.593  1.00  0.00     0.268 C 
ATOM      5  O   UNL A   1      34.153  29.377  24.353  1.00  0.00    -0.268 OA
ATOM      6  H   UNL A   1      33.032  30.953  25.425  1.00  0.00     0.163 HD
BRANCH   4   7
ATOM      7  C   UNL A   1      32.264  27.913  24.087  1.00  0.00     0.111 C 
ATOM      8  C   UNL A   1      32.190  25.188  26.206  1.00  0.00     0.206 C 
ATOM      9  C   UNL A   1      32.150  26.742  26.314  1.00  0.00     0.253 C 
ATOM     10  C   UNL A   1      32.060  25.478  24.687  1.00  0.00     0.181 C 
ATOM     11  O   UNL A   1      31.874  27.518  27.209  1.00  0.00    -0.272 OA
ATOM     12  N   UNL A   1      32.417  26.851  24.974  1.00  0.00    -0.290 N 
ATOM     13  S   UNL A   1      30.381  25.433  23.988  1.00  0.00    -0.129 SA
ATOM     14  C   UNL A   1      30.967  26.345  22.563  1.00  0.00     0.106 C 
ATOM     15  C   UNL A   1      31.429  27.721  23.014  1.00  0.00    -0.020 C 
BRANCH   8  16
ATOM     16  N   UNL A   1      31.139  24.387  26.895  1.00  0.00    -0.336 N 
ATOM     17  C   UNL A   1      30.979  23.013  26.958  1.00  0.00     0.270 C 
ATOM     18  O   UNL A   1      30.037  22.580  27.621  1.00  0.00    -0.268 OA
ATOM     19  H   UNL A   1      30.460  24.913  27.377  1.00  0.00     0.164 HD
BRANCH  17  20
ATOM     20  C   UNL A   1      31.866  22.162  26.192  1.00  0.00     0.126 A 
ATOM     21  C   UNL A   1      32.524  19.203  24.182  1.00  0.00     0.069 C 
ATOM     22  C   UNL A   1      32.588  20.449  24.985  1.00  0.00     0.060 A 
ATOM     23  C   UNL A   1      31.711  21.555  24.953  1.00  0.00     0.059 A 
ATOM     24  N   UNL A   1      33.488  20.583  25.957  1.00  0.00    -0.178 NA
ATOM     25  N   UNL A   1      33.089  21.692  26.623  1.00  0.00    -0.263 N 
ATOM     26  C   UNL A   1      33.939  22.170  27.686  1.00  0.00     0.174 C 
ENDBRANCH  17  20
ENDBRANCH   8  16
BRANCH  15  27
ATOM     27  C   UNL A   1      30.566  28.776  22.362  1.00  0.00     0.111 C 
BRANCH  27  28
ATOM     28  S   UNL A   1      28.866  28.429  22.817  1.00  0.00    -0.089 SA
BRANCH  28  29
ATOM     29  C   UNL A   1      28.008  29.900  22.587  1.00  0.00     0.174 A 
ATOM     30  N   UNL A   1      27.102  30.334  23.431  1.00  0.00    -0.132 NA
ATOM     31  S   UNL A   1      28.705  31.118  21.608  1.00  0.00    -0.091 S 
ATOM     32  N   UNL A   1      27.233  31.704  23.606  1.00  0.00    -0.143 NA
ATOM     33  C   UNL A   1      28.198  32.191  22.848  1.00  0.00     0.115 A 
ATOM     34  C   UNL A   1      28.948  33.445  23.086  1.00  0.00     0.081 C 
ENDBRANCH  28  29
ENDBRANCH  27  28
ENDBRANCH  15  27
ENDBRANCH   4   7
ENDBRANCH   2   3
ENDBRANCH   1   2
BRANCH   1  35
ATOM     35  C   UNL A   1      32.345  32.420  26.873  1.00  0.00     0.118 C 
BRANCH  35  36
ATOM     36  N   UNL A   1      32.345  33.798  27.316  1.00  0.00    -0.352 N 
ATOM     37  C   UNL A   1      33.091  34.415  28.292  1.00  0.00     0.251 C 
ATOM     38  H   UNL A   1      31.712  34.385  26.845  1.00  0.00     0.163 HD
ATOM     39  O   UNL A   1      32.740  35.531  28.672  1.00  0.00    -0.269 OA
BRANCH  37  40
ATOM     40  C   UNL A   1      34.277  33.759  28.905  1.00  0.00     0.039 A 
ATOM     41  C   UNL A   1      34.073  32.675  29.764  1.00  0.00     0.014 A 
ATOM     42  C   UNL A   1      35.579  34.221  28.692  1.00  0.00     0.014 A 
ATOM     43  C   UNL A   1      35.164  32.038  30.365  1.00  0.00     0.010 A 
ATOM     44  C   UNL A   1      36.670  33.513  29.194  1.00  0.00     0.010 A 
ATOM     45  C   UNL A   1      36.476  32.429  30.060  1.00  0.00    -0.014 A 
BRANCH  45  46
ATOM     46  C   UNL A   1      37.650  31.751  30.675  1.00  0.00     0.031 A 
ATOM     47  C   UNL A   1      38.063  32.088  32.086  1.00  0.00     0.074 A 
ATOM     48  C   UNL A   1      38.360  30.856  29.959  1.00  0.00     0.049 A 
ATOM     49  N   UNL A   1      39.085  31.650  32.777  1.00  0.00    -0.248 NA
ATOM     50  C   UNL A   1      37.235  33.069  32.803  1.00  0.00     0.031 C 
ATOM     51  C   UNL A   1      38.075  30.466  28.576  1.00  0.00     0.029 A 
ATOM     52  N   UNL A   1      39.459  30.104  30.294  1.00  0.00    -0.354 N 
ATOM     53  C   UNL A   1      39.023  32.305  34.003  1.00  0.00     0.074 A 
ATOM     54  C   UNL A   1      37.913  33.229  33.929  1.00  0.00     0.031 C 
ATOM     55  C   UNL A   1      38.944  29.515  28.200  1.00  0.00     0.029 A 
ATOM     56  C   UNL A   1      39.885  29.268  29.288  1.00  0.00     0.049 A 
ATOM     57  H   UNL A   1      39.902  30.161  31.171  1.00  0.00     0.167 HD
ATOM     58  C   UNL A   1      39.798  32.129  35.103  1.00  0.00     0.034 A 
ATOM     59  C   UNL A   1      40.920  28.404  29.243  1.00  0.00     0.034 A 
ATOM     60  C   UNL A   1      40.896  31.197  35.164  1.00  0.00     0.049 A 
ATOM     61  C   UNL A   1      41.798  28.262  30.460  1.00  0.00     0.074 A 
ATOM     62  C   UNL A   1      41.732  30.920  36.233  1.00  0.00     0.029 A 
ATOM     63  N   UNL A   1      41.315  30.389  34.114  1.00  0.00    -0.354 N 
ATOM     64  N   UNL A   1      41.715  28.879  31.616  1.00  0.00    -0.248 NA
ATOM     65  C   UNL A   1      42.906  27.302  30.367  1.00  0.00     0.031 C 
ATOM     66  C   UNL A   1      42.699  30.005  35.807  1.00  0.00     0.029 A 
ATOM     67  C   UNL A   1      42.412  29.637  34.501  1.00  0.00     0.049 A 
ATOM     68  H   UNL A   1      40.893  30.355  33.226  1.00  0.00     0.167 HD
ATOM     69  C   UNL A   1      42.739  28.354  32.400  1.00  0.00     0.074 A 
ATOM     70  C   UNL A   1      43.416  27.363  31.588  1.00  0.00     0.031 C 
ATOM     71  C   UNL A   1      43.086  28.659  33.678  1.00  0.00     0.034 A 
BRANCH  58  72
ATOM     72  C   UNL A   1      39.490  32.975  36.316  1.00  0.00     0.023 A 
ATOM     73  C   UNL A   1      40.107  34.223  36.519  1.00  0.00     0.031 A 
ATOM     74  C   UNL A   1      38.583  32.528  37.292  1.00  0.00     0.131 A 
ATOM     75  C   UNL A   1      39.866  34.943  37.699  1.00  0.00     0.055 A 
ATOM     76  C   UNL A   1      38.279  33.289  38.422  1.00  0.00     0.041 A 
ATOM     77  F   UNL A   1      37.980  31.334  37.168  1.00  0.00    -0.206 F 
ATOM     78  C   UNL A   1      38.935  34.499  38.639  1.00  0.00     0.022 A 
BRANCH  75  79
ATOM     79  S   UNL A   1      40.897  36.392  38.054  1.00  0.00     0.124 S 
ATOM     80  O   UNL A   1      41.409  36.721  36.726  1.00  0.00    -0.237 OA
ATOM     81  O   UNL A   1      39.936  37.333  38.619  1.00  0.00    -0.237 OA
ATOM     82  O   UNL A   1      41.897  35.881  38.990  1.00  0.00    -0.744 OA
ENDBRANCH  75  79
ENDBRANCH  58  72
BRANCH  59  83
ATOM     83  C   UNL A   1      41.183  27.607  28.011  1.00  0.00     0.023 A 
ATOM     84  C   UNL A   1      40.897  26.233  27.964  1.00  0.00     0.031 A 
ATOM     85  C   UNL A   1      41.750  28.199  26.869  1.00  0.00     0.131 A 
ATOM     86  C   UNL A   1      41.217  25.489  26.817  1.00  0.00     0.055 A 
ATOM     87  C   UNL A   1      42.013  27.468  25.709  1.00  0.00     0.041 A 
ATOM     88  F   UNL A   1      42.043  29.510  26.858  1.00  0.00    -0.206 F 
ATOM     89  C   UNL A   1      41.758  26.100  25.684  1.00  0.00     0.022 A 
BRANCH  86  90
ATOM     90  S   UNL A   1      40.992  23.689  26.858  1.00  0.00     0.124 S 
ATOM     91  O   UNL A   1      39.571  23.562  26.556  1.00  0.00    -0.237 OA
ATOM     92  O   UNL A   1      41.913  23.245  25.817  1.00  0.00    -0.237 OA
ATOM     93  O   UNL A   1      41.376  23.330  28.222  1.00  0.00    -0.744 OA
ENDBRANCH  86  90
ENDBRANCH  59  83
BRANCH  71  94
ATOM     94  C   UNL A   1      44.222  27.876  34.290  1.00  0.00     0.023 A 
ATOM     95  C   UNL A   1      44.012  26.644  34.933  1.00  0.00     0.031 A 
ATOM     96  C   UNL A   1      45.537  28.374  34.228  1.00  0.00     0.131 A 
ATOM     97  C   UNL A   1      45.089  25.983  35.543  1.00  0.00     0.055 A 
ATOM     98  C   UNL A   1      46.614  27.676  34.773  1.00  0.00     0.041 A 
ATOM     99  F   UNL A   1      45.796  29.548  33.629  1.00  0.00    -0.206 F 
ATOM    100  C   UNL A   1      46.392  26.480  35.448  1.00  0.00     0.022 A 
BRANCH  97 101
ATOM    101  S   UNL A   1      44.747  24.518  36.554  1.00  0.00     0.124 S 
ATOM    102  O   UNL A   1      46.040  24.279  37.187  1.00  0.00    -0.237 OA
ATOM    103  O   UNL A   1      43.684  24.988  37.436  1.00  0.00    -0.237 OA
ATOM    104  O   UNL A   1      44.341  23.512  35.575  1.00  0.00    -0.744 OA
ENDBRANCH  97 101
ENDBRANCH  71  94
ENDBRANCH  45  46
ENDBRANCH  37  40
ENDBRANCH  35  36
ENDBRANCH   1  35
TORSDOF 18
ENDMDL
MODEL 3
REMARK VINA RESULT:     -12.9      5.654      9.906
REMARK SMILES Cc1cc(C(=O)N[C@@H]2C(=O)N3C(C(=O)NCCCNC(=O)c4ccc(-c5c6nc(c(-c7cc(S(=O)(=O)[O-])ccc7F)c7ccc([nH]7)c(-c7cc(S(=O)(=O)[O-])ccc7F)c7nc(c(-c8cc(S(=O)(=O)[O-])ccc8F)c8ccc5[nH]8)C=C7)C=C6)cc4)=C(CSc4nnc(C)s4)CS[C@H]23)n(C)n1
REMARK SMILES IDX 17 1 16 2 15 3 13 4 14 5 12 7 8 8 9 9 96 10 10 11 11 12
REMARK SMILES IDX 95 13 94 14 85 15 7 16 5 17 6 18 4 20 1 21 2 22 3 23 99 24
REMARK SMILES IDX 97 25 98 26 86 27 87 28 88 29 89 30 93 31 90 32 91 33 92 34
REMARK SMILES IDX 18 35 19 36 20 37 21 39 22 40 23 41 84 42 24 43 83 44 25 45
REMARK SMILES IDX 26 46 27 47 77 48 28 49 82 50 76 51 78 52 29 53 81 54 75 55
REMARK SMILES IDX 74 56 30 58 62 59 42 60 61 61 43 62 46 63 60 64 79 65 44 66
REMARK SMILES IDX 45 67 59 69 80 70 47 71 31 72 32 73 40 74 33 75 39 76 41 77
REMARK SMILES IDX 38 78 34 79 35 80 36 81 37 82 63 83 64 84 72 85 65 86 71 87
REMARK SMILES IDX 73 88 70 89 66 90 67 91 68 92 69 93 48 94 49 95 57 96 50 97
REMARK SMILES IDX 56 98 58 99 55 100 51 101 52 102 53 103 54 104
REMARK H PARENT 15 6 7 19 19 38 78 57 46 68
REMARK Flexibility Score: inf
ROOT
ATOM      1  C   UNL A   1      37.298  19.728  25.001  1.00  0.00     0.042 C 
ENDROOT
BRANCH   1   2
ATOM      2  C   UNL A   1      35.993  20.517  24.904  1.00  0.00     0.118 C 
BRANCH   2   3
ATOM      3  N   UNL A   1      35.629  21.096  26.183  1.00  0.00    -0.351 N 
ATOM      4  C   UNL A   1      34.631  21.870  26.680  1.00  0.00     0.268 C 
ATOM      5  O   UNL A   1      34.628  21.902  27.917  1.00  0.00    -0.268 OA
ATOM      6  H   UNL A   1      36.283  20.863  26.881  1.00  0.00     0.163 HD
BRANCH   4   7
ATOM      7  C   UNL A   1      33.456  22.500  25.905  1.00  0.00     0.111 C 
ATOM      8  C   UNL A   1      34.020  25.500  24.292  1.00  0.00     0.206 C 
ATOM      9  C   UNL A   1      34.814  24.207  24.647  1.00  0.00     0.253 C 
ATOM     10  C   UNL A   1      32.815  24.680  24.826  1.00  0.00     0.181 C 
ATOM     11  O   UNL A   1      35.879  23.746  24.282  1.00  0.00    -0.272 OA
ATOM     12  N   UNL A   1      33.769  23.764  25.415  1.00  0.00    -0.290 N 
ATOM     13  S   UNL A   1      31.822  23.791  23.589  1.00  0.00    -0.129 SA
ATOM     14  C   UNL A   1      31.140  22.770  24.892  1.00  0.00     0.106 C 
ATOM     15  C   UNL A   1      32.260  21.951  25.514  1.00  0.00    -0.020 C 
BRANCH   8  16
ATOM     16  N   UNL A   1      34.016  25.983  22.883  1.00  0.00    -0.336 N 
ATOM     17  C   UNL A   1      33.506  27.159  22.356  1.00  0.00     0.270 C 
ATOM     18  O   UNL A   1      33.648  27.351  21.150  1.00  0.00    -0.268 OA
ATOM     19  H   UNL A   1      34.438  25.378  22.230  1.00  0.00     0.164 HD
BRANCH  17  20
ATOM     20  C   UNL A   1      32.772  28.060  23.220  1.00  0.00     0.126 A 
ATOM     21  C   UNL A   1      32.271  29.751  26.402  1.00  0.00     0.069 C 
ATOM     22  C   UNL A   1      32.178  29.197  25.029  1.00  0.00     0.060 A 
ATOM     23  C   UNL A   1      33.203  29.075  24.064  1.00  0.00     0.059 A 
ATOM     24  N   UNL A   1      31.054  28.622  24.604  1.00  0.00    -0.178 NA
ATOM     25  N   UNL A   1      31.412  28.017  23.447  1.00  0.00    -0.263 N 
ATOM     26  C   UNL A   1      30.368  27.387  22.676  1.00  0.00     0.174 C 
ENDBRANCH  17  20
ENDBRANCH   8  16
BRANCH  15  27
ATOM     27  C   UNL A   1      31.989  20.482  25.285  1.00  0.00     0.111 C 
BRANCH  27  28
ATOM     28  S   UNL A   1      32.538  20.092  23.623  1.00  0.00    -0.089 SA
BRANCH  28  29
ATOM     29  C   UNL A   1      32.627  18.378  23.548  1.00  0.00     0.174 A 
ATOM     30  N   UNL A   1      33.098  17.734  22.506  1.00  0.00    -0.132 NA
ATOM     31  S   UNL A   1      32.673  17.488  25.009  1.00  0.00    -0.091 S 
ATOM     32  N   UNL A   1      33.886  16.670  22.920  1.00  0.00    -0.143 NA
ATOM     33  C   UNL A   1      33.906  16.578  24.237  1.00  0.00     0.115 A 
ATOM     34  C   UNL A   1      34.957  15.927  25.051  1.00  0.00     0.081 C 
ENDBRANCH  28  29
ENDBRANCH  27  28
ENDBRANCH  15  27
ENDBRANCH   4   7
ENDBRANCH   2   3
ENDBRANCH   1   2
BRANCH   1  35
ATOM     35  C   UNL A   1      38.523  20.498  25.447  1.00  0.00     0.118 C 
BRANCH  35  36
ATOM     36  N   UNL A   1      39.567  19.621  25.931  1.00  0.00    -0.352 N 
ATOM     37  C   UNL A   1      40.829  19.914  26.392  1.00  0.00     0.251 C 
ATOM     38  H   UNL A   1      39.339  18.664  25.931  1.00  0.00     0.163 HD
ATOM     39  O   UNL A   1      41.634  18.991  26.506  1.00  0.00    -0.269 OA
BRANCH  37  40
ATOM     40  C   UNL A   1      41.239  21.305  26.721  1.00  0.00     0.039 A 
ATOM     41  C   UNL A   1      41.521  22.186  25.673  1.00  0.00     0.014 A 
ATOM     42  C   UNL A   1      41.404  21.743  28.039  1.00  0.00     0.014 A 
ATOM     43  C   UNL A   1      41.916  23.500  25.945  1.00  0.00     0.010 A 
ATOM     44  C   UNL A   1      41.682  23.082  28.308  1.00  0.00     0.010 A 
ATOM     45  C   UNL A   1      41.969  23.972  27.265  1.00  0.00    -0.014 A 
BRANCH  45  46
ATOM     46  C   UNL A   1      42.371  25.371  27.574  1.00  0.00     0.031 A 
ATOM     47  C   UNL A   1      43.746  25.863  27.198  1.00  0.00     0.074 A 
ATOM     48  C   UNL A   1      41.512  26.191  28.213  1.00  0.00     0.049 A 
ATOM     49  N   UNL A   1      44.302  27.025  27.429  1.00  0.00    -0.248 NA
ATOM     50  C   UNL A   1      44.622  24.911  26.496  1.00  0.00     0.031 C 
ATOM     51  C   UNL A   1      40.164  25.824  28.652  1.00  0.00     0.029 A 
ATOM     52  N   UNL A   1      41.638  27.502  28.600  1.00  0.00    -0.354 N 
ATOM     53  C   UNL A   1      45.590  26.940  26.907  1.00  0.00     0.074 A 
ATOM     54  C   UNL A   1      45.757  25.588  26.423  1.00  0.00     0.031 C 
ATOM     55  C   UNL A   1      39.573  26.896  29.202  1.00  0.00     0.029 A 
ATOM     56  C   UNL A   1      40.515  28.010  29.210  1.00  0.00     0.049 A 
ATOM     57  H   UNL A   1      42.458  28.029  28.455  1.00  0.00     0.167 HD
ATOM     58  C   UNL A   1      46.534  27.909  26.808  1.00  0.00     0.034 A 
ATOM     59  C   UNL A   1      40.272  29.233  29.725  1.00  0.00     0.034 A 
ATOM     60  C   UNL A   1      46.349  29.256  27.288  1.00  0.00     0.049 A 
ATOM     61  C   UNL A   1      41.355  30.279  29.650  1.00  0.00     0.074 A 
ATOM     62  C   UNL A   1      47.228  30.323  27.219  1.00  0.00     0.029 A 
ATOM     63  N   UNL A   1      45.207  29.724  27.927  1.00  0.00    -0.354 N 
ATOM     64  N   UNL A   1      42.561  30.186  29.139  1.00  0.00    -0.248 NA
ATOM     65  C   UNL A   1      41.041  31.597  30.215  1.00  0.00     0.031 C 
ATOM     66  C   UNL A   1      46.650  31.410  27.882  1.00  0.00     0.029 A 
ATOM     67  C   UNL A   1      45.372  31.053  28.283  1.00  0.00     0.049 A 
ATOM     68  H   UNL A   1      44.399  29.189  28.102  1.00  0.00     0.167 HD
ATOM     69  C   UNL A   1      43.136  31.445  29.290  1.00  0.00     0.074 A 
ATOM     70  C   UNL A   1      42.139  32.281  29.928  1.00  0.00     0.031 C 
ATOM     71  C   UNL A   1      44.374  31.874  28.929  1.00  0.00     0.034 A 
BRANCH  58  72
ATOM     72  C   UNL A   1      47.853  27.536  26.173  1.00  0.00     0.023 A 
ATOM     73  C   UNL A   1      48.077  27.695  24.793  1.00  0.00     0.031 A 
ATOM     74  C   UNL A   1      48.896  26.999  26.947  1.00  0.00     0.131 A 
ATOM     75  C   UNL A   1      49.281  27.256  24.221  1.00  0.00     0.055 A 
ATOM     76  C   UNL A   1      50.125  26.646  26.386  1.00  0.00     0.041 A 
ATOM     77  F   UNL A   1      48.736  26.799  28.265  1.00  0.00    -0.206 F 
ATOM     78  C   UNL A   1      50.317  26.760  25.012  1.00  0.00     0.022 A 
BRANCH  75  79
ATOM     79  S   UNL A   1      49.412  27.208  22.413  1.00  0.00     0.124 S 
ATOM     80  O   UNL A   1      48.811  28.488  22.041  1.00  0.00    -0.237 OA
ATOM     81  O   UNL A   1      50.851  27.095  22.203  1.00  0.00    -0.237 OA
ATOM     82  O   UNL A   1      48.631  26.030  22.043  1.00  0.00    -0.744 OA
ENDBRANCH  75  79
ENDBRANCH  58  72
BRANCH  59  83
ATOM     83  C   UNL A   1      38.955  29.537  30.355  1.00  0.00     0.023 A 
ATOM     84  C   UNL A   1      37.990  30.300  29.678  1.00  0.00     0.031 A 
ATOM     85  C   UNL A   1      38.650  29.095  31.654  1.00  0.00     0.131 A 
ATOM     86  C   UNL A   1      36.785  30.633  30.317  1.00  0.00     0.055 A 
ATOM     87  C   UNL A   1      37.427  29.378  32.264  1.00  0.00     0.041 A 
ATOM     88  F   UNL A   1      39.536  28.361  32.347  1.00  0.00    -0.206 F 
ATOM     89  C   UNL A   1      36.490  30.163  31.599  1.00  0.00     0.022 A 
BRANCH  86  90
ATOM     90  S   UNL A   1      35.639  31.761  29.479  1.00  0.00     0.124 S 
ATOM     91  O   UNL A   1      35.039  30.884  28.479  1.00  0.00    -0.237 OA
ATOM     92  O   UNL A   1      34.769  32.178  30.572  1.00  0.00    -0.237 OA
ATOM     93  O   UNL A   1      36.515  32.804  28.949  1.00  0.00    -0.744 OA
ENDBRANCH  86  90
ENDBRANCH  59  83
BRANCH  71  94
ATOM     94  C   UNL A   1      44.699  33.327  29.175  1.00  0.00     0.023 A 
ATOM     95  C   UNL A   1      44.202  34.349  28.348  1.00  0.00     0.031 A 
ATOM     96  C   UNL A   1      45.522  33.693  30.256  1.00  0.00     0.131 A 
ATOM     97  C   UNL A   1      44.583  35.679  28.578  1.00  0.00     0.055 A 
ATOM     98  C   UNL A   1      45.838  35.024  30.523  1.00  0.00     0.041 A 
ATOM     99  F   UNL A   1      46.028  32.759  31.077  1.00  0.00    -0.206 F 
ATOM    100  C   UNL A   1      45.380  36.026  29.673  1.00  0.00     0.022 A 
BRANCH  97 101
ATOM    101  S   UNL A   1      44.110  36.939  27.363  1.00  0.00     0.124 S 
ATOM    102  O   UNL A   1      43.302  37.848  28.170  1.00  0.00    -0.237 OA
ATOM    103  O   UNL A   1      45.403  37.454  26.926  1.00  0.00    -0.237 OA
ATOM    104  O   UNL A   1      43.370  36.182  26.355  1.00  0.00    -0.744 OA
ENDBRANCH  97 101
ENDBRANCH  71  94
ENDBRANCH  45  46
ENDBRANCH  37  40
ENDBRANCH  35  36
ENDBRANCH   1  35
TORSDOF 18
ENDMDL
