MODEL 1
REMARK VINA RESULT:     -10.5      0.000      0.000
REMARK SMILES [NH3+]CCOCC(=O)N[C@]1(C(=O)NCCCNC(=O)c2ccc(-c3c4nc(c(-c5cc(S(=O)(=O)[O-])ccc5F)c5ccc([nH]5)c(-c5cc(S(=O)(=O)[O-])ccc5F)c5nc(c(-c6cc(S(=O)(=O)[O-])ccc6F)c6ccc3[nH]6)C=C5)C=C4)cc2)CCOC1
REMARK SMILES IDX 10 1 11 2 12 3 9 5 82 6 85 7 83 8 84 9 8 10 6 11 7 12 5 14
REMARK SMILES IDX 4 15 3 16 2 17 1 18 13 22 14 23 15 24 16 25 17 26 18 28
REMARK SMILES IDX 19 29 20 30 81 31 21 32 80 33 22 34 23 35 24 36 74 37 25 38
REMARK SMILES IDX 79 39 73 40 75 41 26 42 78 43 72 44 71 45 27 47 59 48 39 49
REMARK SMILES IDX 58 50 40 51 43 52 57 53 76 54 41 55 42 56 56 58 77 59 44 60
REMARK SMILES IDX 28 61 29 62 37 63 30 64 36 65 38 66 35 67 31 68 32 69 33 70
REMARK SMILES IDX 34 71 60 72 61 73 69 74 62 75 68 76 70 77 67 78 63 79 64 80
REMARK SMILES IDX 65 81 66 82 45 83 46 84 54 85 47 86 53 87 55 88 52 89 48 90
REMARK SMILES IDX 49 91 50 92 51 93
REMARK H PARENT 12 4 8 13 1 19 1 20 1 21 16 27 75 46 43 57
REMARK Flexibility Score: inf
ROOT
ATOM      1  C   UNL A   1      32.582  29.080  24.459  1.00  0.00     0.248 C 
ATOM      2  O   UNL A   1      33.456  29.151  23.581  1.00  0.00    -0.272 OA
ATOM      3  N   UNL A   1      32.858  29.769  25.591  1.00  0.00    -0.354 N 
ATOM      4  H   UNL A   1      33.796  30.062  25.655  1.00  0.00     0.163 HD
ENDROOT
BRANCH   1   5
ATOM      5  C   UNL A   1      31.216  28.408  24.155  1.00  0.00     0.144 C 
ATOM      6  C   UNL A   1      29.969  29.240  23.878  1.00  0.00     0.069 C 
ATOM      7  C   UNL A   1      31.451  27.669  22.814  1.00  0.00     0.198 C 
ATOM      8  C   UNL A   1      29.371  28.634  22.625  1.00  0.00     0.163 C 
ATOM      9  O   UNL A   1      30.445  28.079  21.879  1.00  0.00    -0.378 OA
BRANCH   5  10
ATOM     10  N   UNL A   1      30.943  27.451  25.258  1.00  0.00    -0.338 N 
ATOM     11  C   UNL A   1      31.646  26.346  25.648  1.00  0.00     0.246 C 
ATOM     12  O   UNL A   1      31.177  25.648  26.552  1.00  0.00    -0.272 OA
ATOM     13  H   UNL A   1      30.134  27.641  25.786  1.00  0.00     0.164 HD
BRANCH  11  14
ATOM     14  C   UNL A   1      32.990  25.969  24.990  1.00  0.00     0.260 C 
BRANCH  14  15
ATOM     15  O   UNL A   1      33.009  24.981  23.982  1.00  0.00    -0.366 OA
BRANCH  15  16
ATOM     16  C   UNL A   1      33.080  23.634  24.461  1.00  0.00     0.222 C 
BRANCH  16  17
ATOM     17  C   UNL A   1      33.209  22.575  23.353  1.00  0.00     0.287 C 
BRANCH  17  18
ATOM     18  N   UNL A   1      32.744  23.003  22.030  1.00  0.00    -0.356 N 
ATOM     19  H   UNL A   1      32.842  24.015  21.948  1.00  0.00     0.344 HD
ATOM     20  H   UNL A   1      31.764  22.746  21.914  1.00  0.00     0.344 HD
ATOM     21  H   UNL A   1      33.305  22.547  21.310  1.00  0.00     0.344 HD
ENDBRANCH  17  18
ENDBRANCH  16  17
ENDBRANCH  15  16
ENDBRANCH  14  15
ENDBRANCH  11  14
ENDBRANCH   5  10
ENDBRANCH   1   5
BRANCH   3  22
ATOM     22  C   UNL A   1      32.047  30.162  26.726  1.00  0.00     0.117 C 
BRANCH  22  23
ATOM     23  C   UNL A   1      31.832  31.669  26.762  1.00  0.00     0.042 C 
BRANCH  23  24
ATOM     24  C   UNL A   1      33.047  32.449  27.264  1.00  0.00     0.118 C 
BRANCH  24  25
ATOM     25  N   UNL A   1      32.722  33.826  27.616  1.00  0.00    -0.352 N 
ATOM     26  C   UNL A   1      33.195  34.615  28.639  1.00  0.00     0.251 C 
ATOM     27  H   UNL A   1      32.062  34.260  27.029  1.00  0.00     0.163 HD
ATOM     28  O   UNL A   1      32.633  35.672  28.895  1.00  0.00    -0.269 OA
BRANCH  26  29
ATOM     29  C   UNL A   1      34.357  34.169  29.435  1.00  0.00     0.039 A 
ATOM     30  C   UNL A   1      34.139  33.501  30.642  1.00  0.00     0.014 A 
ATOM     31  C   UNL A   1      35.660  34.404  28.989  1.00  0.00     0.014 A 
ATOM     32  C   UNL A   1      35.227  32.999  31.359  1.00  0.00     0.010 A 
ATOM     33  C   UNL A   1      36.733  33.820  29.652  1.00  0.00     0.010 A 
ATOM     34  C   UNL A   1      36.529  33.114  30.847  1.00  0.00    -0.014 A 
BRANCH  34  35
ATOM     35  C   UNL A   1      37.693  32.507  31.545  1.00  0.00     0.031 A 
ATOM     36  C   UNL A   1      38.426  31.352  30.923  1.00  0.00     0.074 A 
ATOM     37  C   UNL A   1      38.041  32.949  32.770  1.00  0.00     0.049 A 
ATOM     38  N   UNL A   1      39.401  30.628  31.410  1.00  0.00    -0.248 NA
ATOM     39  C   UNL A   1      37.973  30.929  29.590  1.00  0.00     0.031 C 
ATOM     40  C   UNL A   1      37.371  34.027  33.501  1.00  0.00     0.029 A 
ATOM     41  N   UNL A   1      39.034  32.538  33.624  1.00  0.00    -0.354 N 
ATOM     42  C   UNL A   1      39.670  29.658  30.449  1.00  0.00     0.074 A 
ATOM     43  C   UNL A   1      38.696  29.839  29.394  1.00  0.00     0.031 C 
ATOM     44  C   UNL A   1      37.985  34.206  34.681  1.00  0.00     0.029 A 
ATOM     45  C   UNL A   1      39.058  33.227  34.815  1.00  0.00     0.049 A 
ATOM     46  H   UNL A   1      39.669  31.818  33.405  1.00  0.00     0.167 HD
ATOM     47  C   UNL A   1      40.656  28.728  30.432  1.00  0.00     0.034 A 
ATOM     48  C   UNL A   1      39.843  33.077  35.900  1.00  0.00     0.034 A 
ATOM     49  C   UNL A   1      41.617  28.564  31.498  1.00  0.00     0.049 A 
ATOM     50  C   UNL A   1      40.916  32.018  35.879  1.00  0.00     0.074 A 
ATOM     51  C   UNL A   1      42.687  27.689  31.570  1.00  0.00     0.029 A 
ATOM     52  N   UNL A   1      41.617  29.287  32.685  1.00  0.00    -0.354 N 
ATOM     53  N   UNL A   1      41.196  31.144  34.938  1.00  0.00    -0.248 NA
ATOM     54  C   UNL A   1      41.787  31.935  37.057  1.00  0.00     0.031 C 
ATOM     55  C   UNL A   1      43.284  27.829  32.828  1.00  0.00     0.029 A 
ATOM     56  C   UNL A   1      42.646  28.853  33.510  1.00  0.00     0.049 A 
ATOM     57  H   UNL A   1      40.980  30.003  32.910  1.00  0.00     0.167 HD
ATOM     58  C   UNL A   1      42.292  30.423  35.403  1.00  0.00     0.074 A 
ATOM     59  C   UNL A   1      42.630  30.978  36.699  1.00  0.00     0.031 C 
ATOM     60  C   UNL A   1      42.961  29.401  34.810  1.00  0.00     0.034 A 
BRANCH  47  61
ATOM     61  C   UNL A   1      40.714  27.806  29.234  1.00  0.00     0.023 A 
ATOM     62  C   UNL A   1      41.655  27.995  28.205  1.00  0.00     0.031 A 
ATOM     63  C   UNL A   1      39.780  26.767  29.079  1.00  0.00     0.131 A 
ATOM     64  C   UNL A   1      41.572  27.238  27.028  1.00  0.00     0.055 A 
ATOM     65  C   UNL A   1      39.768  25.947  27.948  1.00  0.00     0.041 A 
ATOM     66  F   UNL A   1      38.842  26.544  30.014  1.00  0.00    -0.206 F 
ATOM     67  C   UNL A   1      40.653  26.195  26.903  1.00  0.00     0.022 A 
BRANCH  64  68
ATOM     68  S   UNL A   1      42.551  27.765  25.593  1.00  0.00     0.124 S 
ATOM     69  O   UNL A   1      41.845  28.979  25.187  1.00  0.00    -0.237 OA
ATOM     70  O   UNL A   1      43.876  27.961  26.171  1.00  0.00    -0.237 OA
ATOM     71  O   UNL A   1      42.432  26.644  24.665  1.00  0.00    -0.744 OA
ENDBRANCH  64  68
ENDBRANCH  47  61
BRANCH  48  72
ATOM     72  C   UNL A   1      39.633  33.937  37.098  1.00  0.00     0.023 A 
ATOM     73  C   UNL A   1      38.961  33.457  38.232  1.00  0.00     0.031 A 
ATOM     74  C   UNL A   1      40.102  35.264  37.121  1.00  0.00     0.131 A 
ATOM     75  C   UNL A   1      38.747  34.306  39.330  1.00  0.00     0.055 A 
ATOM     76  C   UNL A   1      39.931  36.088  38.234  1.00  0.00     0.041 A 
ATOM     77  F   UNL A   1      40.759  35.771  36.065  1.00  0.00    -0.206 F 
ATOM     78  C   UNL A   1      39.241  35.613  39.344  1.00  0.00     0.022 A 
BRANCH  75  79
ATOM     79  S   UNL A   1      37.758  33.697  40.723  1.00  0.00     0.124 S 
ATOM     80  O   UNL A   1      37.335  34.941  41.354  1.00  0.00    -0.237 OA
ATOM     81  O   UNL A   1      36.716  32.934  40.043  1.00  0.00    -0.237 OA
ATOM     82  O   UNL A   1      38.709  32.897  41.491  1.00  0.00    -0.744 OA
ENDBRANCH  75  79
ENDBRANCH  48  72
BRANCH  60  83
ATOM     83  C   UNL A   1      44.155  28.842  35.548  1.00  0.00     0.023 A 
ATOM     84  C   UNL A   1      44.033  27.777  36.459  1.00  0.00     0.031 A 
ATOM     85  C   UNL A   1      45.433  29.390  35.340  1.00  0.00     0.131 A 
ATOM     86  C   UNL A   1      45.159  27.333  37.168  1.00  0.00     0.055 A 
ATOM     87  C   UNL A   1      46.560  28.899  35.999  1.00  0.00     0.041 A 
ATOM     88  F   UNL A   1      45.608  30.411  34.486  1.00  0.00    -0.206 F 
ATOM     89  C   UNL A   1      46.425  27.874  36.930  1.00  0.00     0.022 A 
BRANCH  86  90
ATOM     90  S   UNL A   1      44.932  26.105  38.484  1.00  0.00     0.124 S 
ATOM     91  O   UNL A   1      46.178  26.230  39.234  1.00  0.00    -0.237 OA
ATOM     92  O   UNL A   1      43.731  26.588  39.158  1.00  0.00    -0.237 OA
ATOM     93  O   UNL A   1      44.770  24.848  37.756  1.00  0.00    -0.744 OA
ENDBRANCH  86  90
ENDBRANCH  60  83
ENDBRANCH  34  35
ENDBRANCH  26  29
ENDBRANCH  24  25
ENDBRANCH  23  24
ENDBRANCH  22  23
ENDBRANCH   3  22
TORSDOF 19
ENDMDL
MODEL 2
REMARK VINA RESULT:     -10.3      5.720      8.621
REMARK SMILES [NH3+]CCOCC(=O)N[C@]1(C(=O)NCCCNC(=O)c2ccc(-c3c4nc(c(-c5cc(S(=O)(=O)[O-])ccc5F)c5ccc([nH]5)c(-c5cc(S(=O)(=O)[O-])ccc5F)c5nc(c(-c6cc(S(=O)(=O)[O-])ccc6F)c6ccc3[nH]6)C=C5)C=C4)cc2)CCOC1
REMARK SMILES IDX 10 1 11 2 12 3 9 5 82 6 85 7 83 8 84 9 8 10 6 11 7 12 5 14
REMARK SMILES IDX 4 15 3 16 2 17 1 18 13 22 14 23 15 24 16 25 17 26 18 28
REMARK SMILES IDX 19 29 20 30 81 31 21 32 80 33 22 34 23 35 24 36 74 37 25 38
REMARK SMILES IDX 79 39 73 40 75 41 26 42 78 43 72 44 71 45 27 47 59 48 39 49
REMARK SMILES IDX 58 50 40 51 43 52 57 53 76 54 41 55 42 56 56 58 77 59 44 60
REMARK SMILES IDX 28 61 29 62 37 63 30 64 36 65 38 66 35 67 31 68 32 69 33 70
REMARK SMILES IDX 34 71 60 72 61 73 69 74 62 75 68 76 70 77 67 78 63 79 64 80
REMARK SMILES IDX 65 81 66 82 45 83 46 84 54 85 47 86 53 87 55 88 52 89 48 90
REMARK SMILES IDX 49 91 50 92 51 93
REMARK H PARENT 12 4 8 13 1 19 1 20 1 21 16 27 75 46 43 57
REMARK Flexibility Score: inf
ROOT
ATOM      1  C   UNL A   1      32.326  23.001  23.764  1.00  0.00     0.248 C 
ATOM      2  O   UNL A   1      31.404  22.516  23.092  1.00  0.00    -0.272 OA
ATOM      3  N   UNL A   1      33.552  22.492  23.496  1.00  0.00    -0.354 N 
ATOM      4  H   UNL A   1      33.527  21.667  22.959  1.00  0.00     0.163 HD
ENDROOT
BRANCH   1   5
ATOM      5  C   UNL A   1      32.070  24.228  24.681  1.00  0.00     0.144 C 
ATOM      6  C   UNL A   1      30.658  24.746  24.931  1.00  0.00     0.069 C 
ATOM      7  C   UNL A   1      32.523  23.750  26.083  1.00  0.00     0.198 C 
ATOM      8  C   UNL A   1      30.570  24.913  26.434  1.00  0.00     0.163 C 
ATOM      9  O   UNL A   1      31.451  23.960  27.010  1.00  0.00    -0.378 OA
BRANCH   5  10
ATOM     10  N   UNL A   1      32.927  25.335  24.183  1.00  0.00    -0.338 N 
ATOM     11  C   UNL A   1      32.795  26.103  23.061  1.00  0.00     0.246 C 
ATOM     12  O   UNL A   1      33.686  26.919  22.808  1.00  0.00    -0.272 OA
ATOM     13  H   UNL A   1      33.707  25.546  24.746  1.00  0.00     0.164 HD
BRANCH  11  14
ATOM     14  C   UNL A   1      31.573  25.968  22.128  1.00  0.00     0.260 C 
BRANCH  14  15
ATOM     15  O   UNL A   1      30.863  27.129  21.753  1.00  0.00    -0.366 OA
BRANCH  15  16
ATOM     16  C   UNL A   1      30.193  27.798  22.827  1.00  0.00     0.222 C 
BRANCH  16  17
ATOM     17  C   UNL A   1      30.070  29.320  22.644  1.00  0.00     0.287 C 
BRANCH  17  18
ATOM     18  N   UNL A   1      30.918  29.887  21.591  1.00  0.00    -0.356 N 
ATOM     19  H   UNL A   1      31.546  30.581  21.997  1.00  0.00     0.344 HD
ATOM     20  H   UNL A   1      30.332  30.331  20.885  1.00  0.00     0.344 HD
ATOM     21  H   UNL A   1      31.467  29.142  21.160  1.00  0.00     0.344 HD
ENDBRANCH  17  18
ENDBRANCH  16  17
ENDBRANCH  15  16
ENDBRANCH  14  15
ENDBRANCH  11  14
ENDBRANCH   5  10
ENDBRANCH   1   5
BRANCH   3  22
ATOM     22  C   UNL A   1      34.892  22.922  23.841  1.00  0.00     0.117 C 
BRANCH  22  23
ATOM     23  C   UNL A   1      35.608  21.881  24.691  1.00  0.00     0.042 C 
BRANCH  23  24
ATOM     24  C   UNL A   1      36.776  22.447  25.498  1.00  0.00     0.118 C 
BRANCH  24  25
ATOM     25  N   UNL A   1      37.804  21.451  25.771  1.00  0.00    -0.352 N 
ATOM     26  C   UNL A   1      39.096  21.609  26.217  1.00  0.00     0.251 C 
ATOM     27  H   UNL A   1      37.531  20.519  25.613  1.00  0.00     0.163 HD
ATOM     28  O   UNL A   1      39.869  20.661  26.173  1.00  0.00    -0.269 OA
BRANCH  26  29
ATOM     29  C   UNL A   1      39.546  22.924  26.718  1.00  0.00     0.039 A 
ATOM     30  C   UNL A   1      40.526  22.975  27.712  1.00  0.00     0.014 A 
ATOM     31  C   UNL A   1      39.006  24.106  26.204  1.00  0.00     0.014 A 
ATOM     32  C   UNL A   1      41.020  24.212  28.131  1.00  0.00     0.010 A 
ATOM     33  C   UNL A   1      39.566  25.329  26.551  1.00  0.00     0.010 A 
ATOM     34  C   UNL A   1      40.578  25.397  27.522  1.00  0.00    -0.014 A 
BRANCH  34  35
ATOM     35  C   UNL A   1      41.155  26.718  27.885  1.00  0.00     0.031 A 
ATOM     36  C   UNL A   1      42.597  27.017  27.587  1.00  0.00     0.074 A 
ATOM     37  C   UNL A   1      40.400  27.616  28.548  1.00  0.00     0.049 A 
ATOM     38  N   UNL A   1      43.310  28.067  27.905  1.00  0.00    -0.248 NA
ATOM     39  C   UNL A   1      43.349  25.976  26.870  1.00  0.00     0.031 C 
ATOM     40  C   UNL A   1      39.003  27.419  28.943  1.00  0.00     0.029 A 
ATOM     41  N   UNL A   1      40.703  28.868  29.021  1.00  0.00    -0.354 N 
ATOM     42  C   UNL A   1      44.595  27.809  27.437  1.00  0.00     0.074 A 
ATOM     43  C   UNL A   1      44.577  26.468  26.893  1.00  0.00     0.031 C 
ATOM     44  C   UNL A   1      38.566  28.518  29.576  1.00  0.00     0.029 A 
ATOM     45  C   UNL A   1      39.660  29.478  29.679  1.00  0.00     0.049 A 
ATOM     46  H   UNL A   1      41.585  29.290  28.902  1.00  0.00     0.167 HD
ATOM     47  C   UNL A   1      45.679  28.624  27.432  1.00  0.00     0.034 A 
ATOM     48  C   UNL A   1      39.595  30.667  30.310  1.00  0.00     0.034 A 
ATOM     49  C   UNL A   1      45.675  29.959  27.983  1.00  0.00     0.049 A 
ATOM     50  C   UNL A   1      40.816  31.550  30.322  1.00  0.00     0.074 A 
ATOM     51  C   UNL A   1      46.697  30.892  27.993  1.00  0.00     0.029 A 
ATOM     52  N   UNL A   1      44.596  30.547  28.633  1.00  0.00    -0.354 N 
ATOM     53  N   UNL A   1      42.010  31.316  29.825  1.00  0.00    -0.248 NA
ATOM     54  C   UNL A   1      40.677  32.862  30.965  1.00  0.00     0.031 C 
ATOM     55  C   UNL A   1      46.262  32.010  28.713  1.00  0.00     0.029 A 
ATOM     56  C   UNL A   1      44.939  31.816  29.078  1.00  0.00     0.049 A 
ATOM     57  H   UNL A   1      43.716  30.125  28.760  1.00  0.00     0.167 HD
ATOM     58  C   UNL A   1      42.758  32.462  30.076  1.00  0.00     0.074 A 
ATOM     59  C   UNL A   1      41.873  33.391  30.752  1.00  0.00     0.031 C 
ATOM     60  C   UNL A   1      44.054  32.726  29.770  1.00  0.00     0.034 A 
BRANCH  47  61
ATOM     61  C   UNL A   1      46.955  28.071  26.836  1.00  0.00     0.023 A 
ATOM     62  C   UNL A   1      47.243  28.204  25.465  1.00  0.00     0.031 A 
ATOM     63  C   UNL A   1      47.863  27.346  27.626  1.00  0.00     0.131 A 
ATOM     64  C   UNL A   1      48.342  27.532  24.910  1.00  0.00     0.055 A 
ATOM     65  C   UNL A   1      49.012  26.766  27.084  1.00  0.00     0.041 A 
ATOM     66  F   UNL A   1      47.638  27.165  28.937  1.00  0.00    -0.206 F 
ATOM     67  C   UNL A   1      49.246  26.837  25.714  1.00  0.00     0.022 A 
BRANCH  64  68
ATOM     68  S   UNL A   1      48.459  27.421  23.102  1.00  0.00     0.124 S 
ATOM     69  O   UNL A   1      47.270  28.162  22.685  1.00  0.00    -0.237 OA
ATOM     70  O   UNL A   1      49.740  28.064  22.829  1.00  0.00    -0.237 OA
ATOM     71  O   UNL A   1      48.412  25.984  22.843  1.00  0.00    -0.744 OA
ENDBRANCH  64  68
ENDBRANCH  47  61
BRANCH  48  72
ATOM     72  C   UNL A   1      38.337  31.081  30.994  1.00  0.00     0.023 A 
ATOM     73  C   UNL A   1      37.313  31.743  30.299  1.00  0.00     0.031 A 
ATOM     74  C   UNL A   1      38.144  30.820  32.363  1.00  0.00     0.131 A 
ATOM     75  C   UNL A   1      36.156  32.152  30.982  1.00  0.00     0.055 A 
ATOM     76  C   UNL A   1      36.971  31.184  33.026  1.00  0.00     0.041 A 
ATOM     77  F   UNL A   1      39.088  30.181  33.072  1.00  0.00    -0.206 F 
ATOM     78  C   UNL A   1      35.972  31.864  32.336  1.00  0.00     0.022 A 
BRANCH  75  79
ATOM     79  S   UNL A   1      34.915  33.126  30.087  1.00  0.00     0.124 S 
ATOM     80  O   UNL A   1      34.360  32.133  29.174  1.00  0.00    -0.237 OA
ATOM     81  O   UNL A   1      34.039  33.567  31.167  1.00  0.00    -0.237 OA
ATOM     82  O   UNL A   1      35.702  34.184  29.457  1.00  0.00    -0.744 OA
ENDBRANCH  75  79
ENDBRANCH  48  72
BRANCH  60  83
ATOM     83  C   UNL A   1      44.581  34.094  30.134  1.00  0.00     0.023 A 
ATOM     84  C   UNL A   1      44.425  35.201  29.280  1.00  0.00     0.031 A 
ATOM     85  C   UNL A   1      45.255  34.291  31.352  1.00  0.00     0.131 A 
ATOM     86  C   UNL A   1      44.985  36.439  29.631  1.00  0.00     0.055 A 
ATOM     87  C   UNL A   1      45.751  35.540  31.726  1.00  0.00     0.041 A 
ATOM     88  F   UNL A   1      45.437  33.269  32.205  1.00  0.00    -0.206 F 
ATOM     89  C   UNL A   1      45.631  36.620  30.857  1.00  0.00     0.022 A 
BRANCH  86  90
ATOM     90  S   UNL A   1      44.950  37.787  28.418  1.00  0.00     0.124 S 
ATOM     91  O   UNL A   1      45.935  37.339  27.438  1.00  0.00    -0.237 OA
ATOM     92  O   UNL A   1      43.559  37.773  27.975  1.00  0.00    -0.237 OA
ATOM     93  O   UNL A   1      45.340  38.960  29.197  1.00  0.00    -0.744 OA
ENDBRANCH  86  90
ENDBRANCH  60  83
ENDBRANCH  34  35
ENDBRANCH  26  29
ENDBRANCH  24  25
ENDBRANCH  23  24
ENDBRANCH  22  23
ENDBRANCH   3  22
TORSDOF 19
ENDMDL
MODEL 3
REMARK VINA RESULT:     -10.3      2.231      3.460
REMARK SMILES [NH3+]CCOCC(=O)N[C@]1(C(=O)NCCCNC(=O)c2ccc(-c3c4nc(c(-c5cc(S(=O)(=O)[O-])ccc5F)c5ccc([nH]5)c(-c5cc(S(=O)(=O)[O-])ccc5F)c5nc(c(-c6cc(S(=O)(=O)[O-])ccc6F)c6ccc3[nH]6)C=C5)C=C4)cc2)CCOC1
REMARK SMILES IDX 10 1 11 2 12 3 9 5 82 6 85 7 83 8 84 9 8 10 6 11 7 12 5 14
REMARK SMILES IDX 4 15 3 16 2 17 1 18 13 22 14 23 15 24 16 25 17 26 18 28
REMARK SMILES IDX 19 29 20 30 81 31 21 32 80 33 22 34 23 35 24 36 74 37 25 38
REMARK SMILES IDX 79 39 73 40 75 41 26 42 78 43 72 44 71 45 27 47 59 48 39 49
REMARK SMILES IDX 58 50 40 51 43 52 57 53 76 54 41 55 42 56 56 58 77 59 44 60
REMARK SMILES IDX 28 61 29 62 37 63 30 64 36 65 38 66 35 67 31 68 32 69 33 70
REMARK SMILES IDX 34 71 60 72 61 73 69 74 62 75 68 76 70 77 67 78 63 79 64 80
REMARK SMILES IDX 65 81 66 82 45 83 46 84 54 85 47 86 53 87 55 88 52 89 48 90
REMARK SMILES IDX 49 91 50 92 51 93
REMARK H PARENT 12 4 8 13 1 19 1 20 1 21 16 27 75 46 43 57
REMARK Flexibility Score: inf
ROOT
ATOM      1  C   UNL A   1      33.653  26.278  22.865  1.00  0.00     0.248 C 
ATOM      2  O   UNL A   1      33.639  26.270  21.625  1.00  0.00    -0.272 OA
ATOM      3  N   UNL A   1      33.866  27.493  23.422  1.00  0.00    -0.354 N 
ATOM      4  H   UNL A   1      34.186  28.170  22.782  1.00  0.00     0.163 HD
ENDROOT
BRANCH   1   5
ATOM      5  C   UNL A   1      33.256  25.007  23.664  1.00  0.00     0.144 C 
ATOM      6  C   UNL A   1      32.604  23.813  22.976  1.00  0.00     0.069 C 
ATOM      7  C   UNL A   1      34.609  24.434  24.155  1.00  0.00     0.198 C 
ATOM      8  C   UNL A   1      33.387  22.612  23.464  1.00  0.00     0.163 C 
ATOM      9  O   UNL A   1      34.703  23.063  23.750  1.00  0.00    -0.378 OA
BRANCH   5  10
ATOM     10  N   UNL A   1      32.412  25.450  24.803  1.00  0.00    -0.338 N 
ATOM     11  C   UNL A   1      31.121  25.901  24.808  1.00  0.00     0.246 C 
ATOM     12  O   UNL A   1      30.648  26.295  25.878  1.00  0.00    -0.272 OA
ATOM     13  H   UNL A   1      32.846  25.414  25.685  1.00  0.00     0.164 HD
BRANCH  11  14
ATOM     14  C   UNL A   1      30.267  25.921  23.523  1.00  0.00     0.260 C 
BRANCH  14  15
ATOM     15  O   UNL A   1      30.355  27.032  22.657  1.00  0.00    -0.366 OA
BRANCH  15  16
ATOM     16  C   UNL A   1      29.861  28.261  23.201  1.00  0.00     0.222 C 
BRANCH  16  17
ATOM     17  C   UNL A   1      29.517  29.326  22.146  1.00  0.00     0.287 C 
BRANCH  17  18
ATOM     18  N   UNL A   1      30.664  30.078  21.628  1.00  0.00    -0.356 N 
ATOM     19  H   UNL A   1      30.845  30.880  22.231  1.00  0.00     0.344 HD
ATOM     20  H   UNL A   1      30.460  30.402  20.683  1.00  0.00     0.344 HD
ATOM     21  H   UNL A   1      31.486  29.473  21.611  1.00  0.00     0.344 HD
ENDBRANCH  17  18
ENDBRANCH  16  17
ENDBRANCH  15  16
ENDBRANCH  14  15
ENDBRANCH  11  14
ENDBRANCH   5  10
ENDBRANCH   1   5
BRANCH   3  22
ATOM     22  C   UNL A   1      33.714  27.997  24.772  1.00  0.00     0.117 C 
BRANCH  22  23
ATOM     23  C   UNL A   1      32.971  29.326  24.791  1.00  0.00     0.042 C 
BRANCH  23  24
ATOM     24  C   UNL A   1      32.311  29.640  26.133  1.00  0.00     0.118 C 
BRANCH  24  25
ATOM     25  N   UNL A   1      32.112  31.069  26.340  1.00  0.00    -0.352 N 
ATOM     26  C   UNL A   1      32.808  31.957  27.125  1.00  0.00     0.251 C 
ATOM     27  H   UNL A   1      31.361  31.460  25.837  1.00  0.00     0.163 HD
ATOM     28  O   UNL A   1      32.346  33.072  27.331  1.00  0.00    -0.269 OA
BRANCH  26  29
ATOM     29  C   UNL A   1      34.092  31.551  27.734  1.00  0.00     0.039 A 
ATOM     30  C   UNL A   1      35.062  32.522  27.989  1.00  0.00     0.014 A 
ATOM     31  C   UNL A   1      34.335  30.214  28.059  1.00  0.00     0.014 A 
ATOM     32  C   UNL A   1      36.243  32.164  28.642  1.00  0.00     0.010 A 
ATOM     33  C   UNL A   1      35.465  29.876  28.794  1.00  0.00     0.010 A 
ATOM     34  C   UNL A   1      36.434  30.847  29.091  1.00  0.00    -0.014 A 
BRANCH  34  35
ATOM     35  C   UNL A   1      37.641  30.460  29.870  1.00  0.00     0.031 A 
ATOM     36  C   UNL A   1      38.654  29.524  29.273  1.00  0.00     0.074 A 
ATOM     37  C   UNL A   1      37.782  30.893  31.138  1.00  0.00     0.049 A 
ATOM     38  N   UNL A   1      39.719  28.996  29.820  1.00  0.00    -0.248 NA
ATOM     39  C   UNL A   1      38.414  29.094  27.888  1.00  0.00     0.031 C 
ATOM     40  C   UNL A   1      36.838  31.760  31.846  1.00  0.00     0.029 A 
ATOM     41  N   UNL A   1      38.767  30.652  32.064  1.00  0.00    -0.354 N 
ATOM     42  C   UNL A   1      40.269  28.163  28.850  1.00  0.00     0.074 A 
ATOM     43  C   UNL A   1      39.369  28.194  27.717  1.00  0.00     0.031 C 
ATOM     44  C   UNL A   1      37.300  31.997  33.083  1.00  0.00     0.029 A 
ATOM     45  C   UNL A   1      38.544  31.260  33.278  1.00  0.00     0.049 A 
ATOM     46  H   UNL A   1      39.558  30.097  31.876  1.00  0.00     0.167 HD
ATOM     47  C   UNL A   1      41.431  27.464  28.889  1.00  0.00     0.034 A 
ATOM     48  C   UNL A   1      39.251  31.216  34.424  1.00  0.00     0.034 A 
ATOM     49  C   UNL A   1      42.314  27.446  30.031  1.00  0.00     0.049 A 
ATOM     50  C   UNL A   1      40.525  30.412  34.461  1.00  0.00     0.074 A 
ATOM     51  C   UNL A   1      43.537  26.814  30.168  1.00  0.00     0.029 A 
ATOM     52  N   UNL A   1      42.060  28.082  31.242  1.00  0.00    -0.354 N 
ATOM     53  N   UNL A   1      41.064  29.673  33.517  1.00  0.00    -0.248 NA
ATOM     54  C   UNL A   1      41.293  30.446  35.711  1.00  0.00     0.031 C 
ATOM     55  C   UNL A   1      43.984  27.004  31.480  1.00  0.00     0.029 A 
ATOM     56  C   UNL A   1      43.086  27.828  32.140  1.00  0.00     0.049 A 
ATOM     57  H   UNL A   1      41.266  28.633  31.434  1.00  0.00     0.167 HD
ATOM     58  C   UNL A   1      42.247  29.174  34.053  1.00  0.00     0.074 A 
ATOM     59  C   UNL A   1      42.350  29.712  35.396  1.00  0.00     0.031 C 
ATOM     60  C   UNL A   1      43.168  28.353  33.485  1.00  0.00     0.034 A 
BRANCH  47  61
ATOM     61  C   UNL A   1      41.784  26.647  27.665  1.00  0.00     0.023 A 
ATOM     62  C   UNL A   1      41.648  25.246  27.652  1.00  0.00     0.031 A 
ATOM     63  C   UNL A   1      42.325  27.260  26.522  1.00  0.00     0.131 A 
ATOM     64  C   UNL A   1      42.146  24.502  26.573  1.00  0.00     0.055 A 
ATOM     65  C   UNL A   1      42.724  26.520  25.407  1.00  0.00     0.041 A 
ATOM     66  F   UNL A   1      42.499  28.590  26.476  1.00  0.00    -0.206 F 
ATOM     67  C   UNL A   1      42.657  25.129  25.437  1.00  0.00     0.022 A 
BRANCH  64  68
ATOM     68  S   UNL A   1      42.293  22.703  26.763  1.00  0.00     0.124 S 
ATOM     69  O   UNL A   1      41.524  22.223  25.616  1.00  0.00    -0.237 OA
ATOM     70  O   UNL A   1      43.735  22.495  26.697  1.00  0.00    -0.237 OA
ATOM     71  O   UNL A   1      41.682  22.444  28.064  1.00  0.00    -0.744 OA
ENDBRANCH  64  68
ENDBRANCH  47  61
BRANCH  48  72
ATOM     72  C   UNL A   1      38.762  31.942  35.631  1.00  0.00     0.023 A 
ATOM     73  C   UNL A   1      38.156  31.259  36.697  1.00  0.00     0.031 A 
ATOM     74  C   UNL A   1      38.892  33.339  35.730  1.00  0.00     0.131 A 
ATOM     75  C   UNL A   1      37.673  31.977  37.802  1.00  0.00     0.055 A 
ATOM     76  C   UNL A   1      38.455  34.043  36.854  1.00  0.00     0.041 A 
ATOM     77  F   UNL A   1      39.472  34.040  34.743  1.00  0.00    -0.206 F 
ATOM     78  C   UNL A   1      37.832  33.362  37.895  1.00  0.00     0.022 A 
BRANCH  75  79
ATOM     79  S   UNL A   1      36.775  31.081  39.098  1.00  0.00     0.124 S 
ATOM     80  O   UNL A   1      36.645  29.754  38.507  1.00  0.00    -0.237 OA
ATOM     81  O   UNL A   1      37.686  31.193  40.232  1.00  0.00    -0.237 OA
ATOM     82  O   UNL A   1      35.528  31.832  39.229  1.00  0.00    -0.744 OA
ENDBRANCH  75  79
ENDBRANCH  48  72
BRANCH  60  83
ATOM     83  C   UNL A   1      44.389  28.018  34.308  1.00  0.00     0.023 A 
ATOM     84  C   UNL A   1      44.492  26.814  35.029  1.00  0.00     0.031 A 
ATOM     85  C   UNL A   1      45.465  28.921  34.376  1.00  0.00     0.131 A 
ATOM     86  C   UNL A   1      45.618  26.573  35.830  1.00  0.00     0.055 A 
ATOM     87  C   UNL A   1      46.611  28.645  35.122  1.00  0.00     0.041 A 
ATOM     88  F   UNL A   1      45.420  30.088  33.712  1.00  0.00    -0.206 F 
ATOM     89  C   UNL A   1      46.687  27.473  35.865  1.00  0.00     0.022 A 
BRANCH  86  90
ATOM     90  S   UNL A   1      45.625  25.114  36.908  1.00  0.00     0.124 S 
ATOM     91  O   UNL A   1      47.051  24.818  37.006  1.00  0.00    -0.237 OA
ATOM     92  O   UNL A   1      44.994  25.620  38.122  1.00  0.00    -0.237 OA
ATOM     93  O   UNL A   1      44.839  24.133  36.163  1.00  0.00    -0.744 OA
ENDBRANCH  86  90
ENDBRANCH  60  83
ENDBRANCH  34  35
ENDBRANCH  26  29
ENDBRANCH  24  25
ENDBRANCH  23  24
ENDBRANCH  22  23
ENDBRANCH   3  22
TORSDOF 19
ENDMDL
