MODEL 1
REMARK VINA RESULT:     -10.6      0.000      0.000
REMARK SMILES O=C(NCCCNC(=O)c1cc2c(C(F)(F)F)onc2c2ccccc12)c1ccc(-c2c3nc(c(-c4cc(S(=O)(=O)[O-])ccc4F)c4ccc([nH]4)c(-c4cc(S(=O)(=O)[O-])ccc4F)c4nc(c(-c5cc(S(=O)(=O)[O-])ccc5F)c5ccc2[nH]5)C=C4)C=C3)cc1
REMARK SMILES IDX 4 1 3 2 1 3 2 4 27 6 28 7 89 8 29 9 88 10 30 11 31 12 32 13
REMARK SMILES IDX 82 14 33 15 87 16 81 17 83 18 34 19 86 20 80 21 79 22 35 24
REMARK SMILES IDX 67 25 47 26 66 27 48 28 51 29 65 30 84 31 49 32 50 33 64 35
REMARK SMILES IDX 85 36 52 37 36 38 37 39 45 40 38 41 44 42 46 43 43 44 39 45
REMARK SMILES IDX 40 46 41 47 42 48 68 49 69 50 77 51 70 52 76 53 78 54 75 55
REMARK SMILES IDX 71 56 72 57 73 58 74 59 53 60 54 61 62 62 55 63 61 64 63 65
REMARK SMILES IDX 60 66 56 67 57 68 58 69 59 70 5 71 6 72 7 73 8 74 9 76 10 77
REMARK SMILES IDX 11 78 26 79 12 80 21 81 25 82 13 83 20 84 22 85 24 86 18 87
REMARK SMILES IDX 19 88 23 89 14 90 15 91 16 92 17 93
REMARK H PARENT 3 5 83 23 51 34 7 75
REMARK Flexibility Score: inf
ROOT
ATOM      1  C   UNL A   1      42.765  22.204  25.210  1.00  0.00     0.118 C 
ENDROOT
BRANCH   1   2
ATOM      2  N   UNL A   1      41.754  21.620  26.111  1.00  0.00    -0.352 N 
ATOM      3  O   UNL A   1      40.555  21.617  28.061  1.00  0.00    -0.269 OA
ATOM      4  C   UNL A   1      41.152  22.241  27.212  1.00  0.00     0.251 C 
ATOM      5  H   UNL A   1      41.472  20.696  25.917  1.00  0.00     0.163 HD
BRANCH   4   6
ATOM      6  C   UNL A   1      41.250  23.715  27.257  1.00  0.00     0.039 A 
ATOM      7  C   UNL A   1      40.439  24.581  26.524  1.00  0.00     0.014 A 
ATOM      8  C   UNL A   1      42.067  24.186  28.267  1.00  0.00     0.014 A 
ATOM      9  C   UNL A   1      40.399  25.921  26.916  1.00  0.00     0.010 A 
ATOM     10  C   UNL A   1      41.698  25.350  28.863  1.00  0.00     0.010 A 
ATOM     11  C   UNL A   1      41.016  26.291  28.125  1.00  0.00    -0.014 A 
BRANCH  11  12
ATOM     12  C   UNL A   1      40.956  27.626  28.704  1.00  0.00     0.031 A 
ATOM     13  C   UNL A   1      41.902  28.597  28.108  1.00  0.00     0.074 A 
ATOM     14  C   UNL A   1      39.996  28.002  29.585  1.00  0.00     0.049 A 
ATOM     15  N   UNL A   1      43.026  28.984  28.609  1.00  0.00    -0.248 NA
ATOM     16  C   UNL A   1      41.690  29.028  26.718  1.00  0.00     0.031 C 
ATOM     17  C   UNL A   1      38.797  27.273  30.038  1.00  0.00     0.029 A 
ATOM     18  N   UNL A   1      39.846  29.194  30.218  1.00  0.00    -0.354 N 
ATOM     19  C   UNL A   1      43.542  29.912  27.712  1.00  0.00     0.074 A 
ATOM     20  C   UNL A   1      42.807  29.723  26.487  1.00  0.00     0.031 C 
ATOM     21  C   UNL A   1      37.936  28.118  30.646  1.00  0.00     0.029 A 
ATOM     22  C   UNL A   1      38.612  29.383  30.831  1.00  0.00     0.049 A 
ATOM     23  H   UNL A   1      40.557  29.875  30.239  1.00  0.00     0.167 HD
ATOM     24  C   UNL A   1      44.355  30.921  28.142  1.00  0.00     0.034 A 
ATOM     25  C   UNL A   1      38.174  30.496  31.468  1.00  0.00     0.034 A 
ATOM     26  C   UNL A   1      44.759  30.696  29.510  1.00  0.00     0.049 A 
ATOM     27  C   UNL A   1      39.370  31.306  31.803  1.00  0.00     0.074 A 
ATOM     28  C   UNL A   1      45.483  29.714  30.155  1.00  0.00     0.029 A 
ATOM     29  N   UNL A   1      44.038  31.343  30.487  1.00  0.00    -0.354 N 
ATOM     30  N   UNL A   1      40.262  30.943  32.683  1.00  0.00    -0.248 NA
ATOM     31  C   UNL A   1      39.826  32.260  30.804  1.00  0.00     0.031 C 
ATOM     32  C   UNL A   1      44.808  29.515  31.393  1.00  0.00     0.029 A 
ATOM     33  C   UNL A   1      43.769  30.445  31.489  1.00  0.00     0.049 A 
ATOM     34  H   UNL A   1      43.762  32.288  30.470  1.00  0.00     0.167 HD
ATOM     35  C   UNL A   1      41.478  31.236  32.083  1.00  0.00     0.074 A 
ATOM     36  C   UNL A   1      41.145  32.129  30.970  1.00  0.00     0.031 C 
ATOM     37  C   UNL A   1      42.596  30.496  32.345  1.00  0.00     0.034 A 
BRANCH  24  38
ATOM     38  C   UNL A   1      44.478  32.269  27.476  1.00  0.00     0.023 A 
ATOM     39  C   UNL A   1      43.713  33.390  27.847  1.00  0.00     0.031 A 
ATOM     40  C   UNL A   1      45.538  32.522  26.580  1.00  0.00     0.131 A 
ATOM     41  C   UNL A   1      43.993  34.671  27.355  1.00  0.00     0.055 A 
ATOM     42  C   UNL A   1      45.861  33.810  26.138  1.00  0.00     0.041 A 
ATOM     43  F   UNL A   1      46.331  31.527  26.150  1.00  0.00    -0.206 F 
ATOM     44  C   UNL A   1      45.088  34.896  26.528  1.00  0.00     0.022 A 
BRANCH  41  45
ATOM     45  S   UNL A   1      42.936  36.075  27.802  1.00  0.00     0.124 S 
ATOM     46  O   UNL A   1      42.611  36.636  26.496  1.00  0.00    -0.237 OA
ATOM     47  O   UNL A   1      41.838  35.408  28.497  1.00  0.00    -0.237 OA
ATOM     48  O   UNL A   1      43.798  36.894  28.651  1.00  0.00    -0.744 OA
ENDBRANCH  41  45
ENDBRANCH  24  38
BRANCH  25  49
ATOM     49  C   UNL A   1      36.831  31.106  31.334  1.00  0.00     0.023 A 
ATOM     50  C   UNL A   1      36.293  31.330  30.052  1.00  0.00     0.031 A 
ATOM     51  C   UNL A   1      36.228  31.776  32.414  1.00  0.00     0.131 A 
ATOM     52  C   UNL A   1      35.252  32.250  29.870  1.00  0.00     0.055 A 
ATOM     53  C   UNL A   1      35.169  32.672  32.233  1.00  0.00     0.041 A 
ATOM     54  F   UNL A   1      36.713  31.631  33.657  1.00  0.00    -0.206 F 
ATOM     55  C   UNL A   1      34.689  32.929  30.951  1.00  0.00     0.022 A 
BRANCH  52  56
ATOM     56  S   UNL A   1      34.692  32.678  28.197  1.00  0.00     0.124 S 
ATOM     57  O   UNL A   1      35.867  33.339  27.638  1.00  0.00    -0.237 OA
ATOM     58  O   UNL A   1      34.387  31.363  27.643  1.00  0.00    -0.237 OA
ATOM     59  O   UNL A   1      33.543  33.548  28.433  1.00  0.00    -0.744 OA
ENDBRANCH  52  56
ENDBRANCH  25  49
BRANCH  37  60
ATOM     60  C   UNL A   1      42.559  29.486  33.476  1.00  0.00     0.023 A 
ATOM     61  C   UNL A   1      43.134  29.883  34.697  1.00  0.00     0.031 A 
ATOM     62  C   UNL A   1      42.218  28.126  33.340  1.00  0.00     0.131 A 
ATOM     63  C   UNL A   1      43.405  28.943  35.697  1.00  0.00     0.055 A 
ATOM     64  C   UNL A   1      42.423  27.200  34.370  1.00  0.00     0.041 A 
ATOM     65  F   UNL A   1      41.757  27.630  32.186  1.00  0.00    -0.206 F 
ATOM     66  C   UNL A   1      43.039  27.604  35.549  1.00  0.00     0.022 A 
BRANCH  63  67
ATOM     67  S   UNL A   1      44.392  29.414  37.138  1.00  0.00     0.124 S 
ATOM     68  O   UNL A   1      44.487  28.155  37.870  1.00  0.00    -0.237 OA
ATOM     69  O   UNL A   1      45.636  29.877  36.525  1.00  0.00    -0.237 OA
ATOM     70  O   UNL A   1      43.600  30.455  37.786  1.00  0.00    -0.744 OA
ENDBRANCH  63  67
ENDBRANCH  37  60
ENDBRANCH  11  12
ENDBRANCH   4   6
ENDBRANCH   1   2
BRANCH   1  71
ATOM     71  C   UNL A   1      44.175  22.202  25.746  1.00  0.00     0.042 C 
BRANCH  71  72
ATOM     72  C   UNL A   1      44.965  23.435  25.333  1.00  0.00     0.118 C 
BRANCH  72  73
ATOM     73  N   UNL A   1      44.187  24.641  25.038  1.00  0.00    -0.352 N 
ATOM     74  C   UNL A   1      44.418  25.943  25.438  1.00  0.00     0.251 C 
ATOM     75  H   UNL A   1      43.390  24.505  24.476  1.00  0.00     0.163 HD
ATOM     76  O   UNL A   1      43.780  26.881  24.977  1.00  0.00    -0.269 OA
BRANCH  74  77
ATOM     77  C   UNL A   1      45.436  26.197  26.482  1.00  0.00     0.048 A 
ATOM     78  C   UNL A   1      44.946  26.110  27.809  1.00  0.00     0.029 A 
ATOM     79  C   UNL A   1      46.830  26.306  26.093  1.00  0.00    -0.003 A 
ATOM     80  C   UNL A   1      45.995  26.013  28.713  1.00  0.00     0.056 A 
ATOM     81  C   UNL A   1      47.861  26.105  27.055  1.00  0.00     0.012 A 
ATOM     82  C   UNL A   1      47.246  26.507  24.756  1.00  0.00     0.009 A 
ATOM     83  C   UNL A   1      45.897  25.873  30.070  1.00  0.00     0.248 A 
ATOM     84  C   UNL A   1      47.406  25.980  28.403  1.00  0.00     0.122 A 
ATOM     85  C   UNL A   1      49.210  25.974  26.666  1.00  0.00     0.011 A 
ATOM     86  C   UNL A   1      48.580  26.359  24.370  1.00  0.00     0.001 A 
ATOM     87  O   UNL A   1      47.161  25.747  30.568  1.00  0.00    -0.350 OA
ATOM     88  N   UNL A   1      48.092  25.801  29.547  1.00  0.00    -0.079 NA
ATOM     89  C   UNL A   1      49.555  26.065  25.319  1.00  0.00     0.001 A 
BRANCH  83  90
ATOM     90  C   UNL A   1      44.815  25.836  31.068  1.00  0.00     0.453 C 
ATOM     91  F   UNL A   1      45.236  26.262  32.286  1.00  0.00    -0.163 F 
ATOM     92  F   UNL A   1      43.783  26.645  30.708  1.00  0.00    -0.163 F 
ATOM     93  F   UNL A   1      44.299  24.596  31.237  1.00  0.00    -0.163 F 
ENDBRANCH  83  90
ENDBRANCH  74  77
ENDBRANCH  72  73
ENDBRANCH  71  72
ENDBRANCH   1  71
TORSDOF 14
ENDMDL
MODEL 2
REMARK VINA RESULT:     -10.6      5.461     11.690
REMARK SMILES O=C(NCCCNC(=O)c1cc2c(C(F)(F)F)onc2c2ccccc12)c1ccc(-c2c3nc(c(-c4cc(S(=O)(=O)[O-])ccc4F)c4ccc([nH]4)c(-c4cc(S(=O)(=O)[O-])ccc4F)c4nc(c(-c5cc(S(=O)(=O)[O-])ccc5F)c5ccc2[nH]5)C=C4)C=C3)cc1
REMARK SMILES IDX 4 1 3 2 1 3 2 4 27 6 28 7 89 8 29 9 88 10 30 11 31 12 32 13
REMARK SMILES IDX 82 14 33 15 87 16 81 17 83 18 34 19 86 20 80 21 79 22 35 24
REMARK SMILES IDX 67 25 47 26 66 27 48 28 51 29 65 30 84 31 49 32 50 33 64 35
REMARK SMILES IDX 85 36 52 37 36 38 37 39 45 40 38 41 44 42 46 43 43 44 39 45
REMARK SMILES IDX 40 46 41 47 42 48 68 49 69 50 77 51 70 52 76 53 78 54 75 55
REMARK SMILES IDX 71 56 72 57 73 58 74 59 53 60 54 61 62 62 55 63 61 64 63 65
REMARK SMILES IDX 60 66 56 67 57 68 58 69 59 70 5 71 6 72 7 73 8 74 9 76 10 77
REMARK SMILES IDX 11 78 26 79 12 80 21 81 25 82 13 83 20 84 22 85 24 86 18 87
REMARK SMILES IDX 19 88 23 89 14 90 15 91 16 92 17 93
REMARK H PARENT 3 5 83 23 51 34 7 75
REMARK Flexibility Score: inf
ROOT
ATOM      1  C   UNL A   1      34.055  31.223  27.309  1.00  0.00     0.118 C 
ENDROOT
BRANCH   1   2
ATOM      2  N   UNL A   1      34.005  31.967  28.581  1.00  0.00    -0.352 N 
ATOM      3  O   UNL A   1      34.689  32.319  30.738  1.00  0.00    -0.269 OA
ATOM      4  C   UNL A   1      34.935  31.908  29.626  1.00  0.00     0.251 C 
ATOM      5  H   UNL A   1      33.236  32.570  28.710  1.00  0.00     0.163 HD
BRANCH   4   6
ATOM      6  C   UNL A   1      36.261  31.352  29.280  1.00  0.00     0.039 A 
ATOM      7  C   UNL A   1      37.452  32.077  29.315  1.00  0.00     0.014 A 
ATOM      8  C   UNL A   1      36.266  29.978  29.136  1.00  0.00     0.014 A 
ATOM      9  C   UNL A   1      38.650  31.358  29.308  1.00  0.00     0.010 A 
ATOM     10  C   UNL A   1      37.384  29.322  29.542  1.00  0.00     0.010 A 
ATOM     11  C   UNL A   1      38.601  29.960  29.457  1.00  0.00    -0.014 A 
BRANCH  11  12
ATOM     12  C   UNL A   1      39.773  29.104  29.576  1.00  0.00     0.031 A 
ATOM     13  C   UNL A   1      40.096  28.696  30.963  1.00  0.00     0.074 A 
ATOM     14  C   UNL A   1      40.408  28.573  28.501  1.00  0.00     0.049 A 
ATOM     15  N   UNL A   1      41.016  29.195  31.718  1.00  0.00    -0.248 NA
ATOM     16  C   UNL A   1      39.177  27.788  31.666  1.00  0.00     0.031 C 
ATOM     17  C   UNL A   1      40.033  28.609  27.075  1.00  0.00     0.029 A 
ATOM     18  N   UNL A   1      41.518  27.793  28.473  1.00  0.00    -0.354 N 
ATOM     19  C   UNL A   1      40.960  28.479  32.908  1.00  0.00     0.074 A 
ATOM     20  C   UNL A   1      39.685  27.807  32.900  1.00  0.00     0.031 C 
ATOM     21  C   UNL A   1      40.736  27.688  26.383  1.00  0.00     0.029 A 
ATOM     22  C   UNL A   1      41.764  27.164  27.256  1.00  0.00     0.049 A 
ATOM     23  H   UNL A   1      42.105  27.679  29.255  1.00  0.00     0.167 HD
ATOM     24  C   UNL A   1      42.077  28.309  33.673  1.00  0.00     0.034 A 
ATOM     25  C   UNL A   1      42.755  26.285  26.973  1.00  0.00     0.034 A 
ATOM     26  C   UNL A   1      43.146  29.158  33.204  1.00  0.00     0.049 A 
ATOM     27  C   UNL A   1      43.794  26.447  28.017  1.00  0.00     0.074 A 
ATOM     28  C   UNL A   1      43.318  30.523  33.094  1.00  0.00     0.029 A 
ATOM     29  N   UNL A   1      44.071  28.588  32.360  1.00  0.00    -0.354 N 
ATOM     30  N   UNL A   1      44.538  27.513  28.133  1.00  0.00    -0.248 NA
ATOM     31  C   UNL A   1      43.655  25.645  29.222  1.00  0.00     0.031 C 
ATOM     32  C   UNL A   1      43.998  30.709  31.857  1.00  0.00     0.029 A 
ATOM     33  C   UNL A   1      44.295  29.453  31.319  1.00  0.00     0.049 A 
ATOM     34  H   UNL A   1      44.499  27.710  32.482  1.00  0.00     0.167 HD
ATOM     35  C   UNL A   1      44.561  27.770  29.496  1.00  0.00     0.074 A 
ATOM     36  C   UNL A   1      44.080  26.536  30.122  1.00  0.00     0.031 C 
ATOM     37  C   UNL A   1      44.674  29.044  29.977  1.00  0.00     0.034 A 
BRANCH  24  38
ATOM     38  C   UNL A   1      42.324  27.131  34.583  1.00  0.00     0.023 A 
ATOM     39  C   UNL A   1      43.076  26.003  34.205  1.00  0.00     0.031 A 
ATOM     40  C   UNL A   1      41.985  27.209  35.950  1.00  0.00     0.131 A 
ATOM     41  C   UNL A   1      43.459  25.027  35.133  1.00  0.00     0.055 A 
ATOM     42  C   UNL A   1      42.422  26.269  36.891  1.00  0.00     0.041 A 
ATOM     43  F   UNL A   1      41.263  28.237  36.425  1.00  0.00    -0.206 F 
ATOM     44  C   UNL A   1      43.168  25.171  36.485  1.00  0.00     0.022 A 
BRANCH  41  45
ATOM     45  S   UNL A   1      44.365  23.552  34.590  1.00  0.00     0.124 S 
ATOM     46  O   UNL A   1      45.493  24.137  33.875  1.00  0.00    -0.237 OA
ATOM     47  O   UNL A   1      44.683  22.915  35.866  1.00  0.00    -0.237 OA
ATOM     48  O   UNL A   1      43.392  22.836  33.769  1.00  0.00    -0.744 OA
ENDBRANCH  41  45
ENDBRANCH  24  38
BRANCH  25  49
ATOM     49  C   UNL A   1      42.610  25.026  26.204  1.00  0.00     0.023 A 
ATOM     50  C   UNL A   1      41.632  24.088  26.583  1.00  0.00     0.031 A 
ATOM     51  C   UNL A   1      43.626  24.588  25.336  1.00  0.00     0.131 A 
ATOM     52  C   UNL A   1      41.730  22.753  26.169  1.00  0.00     0.055 A 
ATOM     53  C   UNL A   1      43.706  23.260  24.900  1.00  0.00     0.041 A 
ATOM     54  F   UNL A   1      44.606  25.423  24.961  1.00  0.00    -0.206 F 
ATOM     55  C   UNL A   1      42.765  22.330  25.333  1.00  0.00     0.022 A 
BRANCH  52  56
ATOM     56  S   UNL A   1      40.579  21.507  26.814  1.00  0.00     0.124 S 
ATOM     57  O   UNL A   1      41.066  20.282  26.186  1.00  0.00    -0.237 OA
ATOM     58  O   UNL A   1      40.806  21.611  28.251  1.00  0.00    -0.237 OA
ATOM     59  O   UNL A   1      39.276  21.969  26.344  1.00  0.00    -0.744 OA
ENDBRANCH  52  56
ENDBRANCH  25  49
BRANCH  37  60
ATOM     60  C   UNL A   1      45.003  30.166  29.012  1.00  0.00     0.023 A 
ATOM     61  C   UNL A   1      46.355  30.542  28.917  1.00  0.00     0.031 A 
ATOM     62  C   UNL A   1      44.058  31.007  28.391  1.00  0.00     0.131 A 
ATOM     63  C   UNL A   1      46.721  31.735  28.285  1.00  0.00     0.055 A 
ATOM     64  C   UNL A   1      44.434  32.163  27.695  1.00  0.00     0.041 A 
ATOM     65  F   UNL A   1      42.743  30.790  28.507  1.00  0.00    -0.206 F 
ATOM     66  C   UNL A   1      45.770  32.543  27.658  1.00  0.00     0.022 A 
BRANCH  63  67
ATOM     67  S   UNL A   1      48.419  32.344  28.414  1.00  0.00     0.124 S 
ATOM     68  O   UNL A   1      49.138  31.158  28.870  1.00  0.00    -0.237 OA
ATOM     69  O   UNL A   1      48.706  32.761  27.042  1.00  0.00    -0.237 OA
ATOM     70  O   UNL A   1      48.333  33.434  29.383  1.00  0.00    -0.744 OA
ENDBRANCH  63  67
ENDBRANCH  37  60
ENDBRANCH  11  12
ENDBRANCH   4   6
ENDBRANCH   1   2
BRANCH   1  71
ATOM     71  C   UNL A   1      33.038  30.117  27.175  1.00  0.00     0.042 C 
BRANCH  71  72
ATOM     72  C   UNL A   1      33.651  28.805  26.712  1.00  0.00     0.118 C 
BRANCH  72  73
ATOM     73  N   UNL A   1      34.195  28.782  25.351  1.00  0.00    -0.352 N 
ATOM     74  C   UNL A   1      33.522  28.710  24.148  1.00  0.00     0.251 C 
ATOM     75  H   UNL A   1      35.177  28.823  25.287  1.00  0.00     0.163 HD
ATOM     76  O   UNL A   1      34.096  28.871  23.078  1.00  0.00    -0.269 OA
BRANCH  74  77
ATOM     77  C   UNL A   1      32.077  28.390  24.158  1.00  0.00     0.048 A 
ATOM     78  C   UNL A   1      31.229  29.511  23.965  1.00  0.00     0.029 A 
ATOM     79  C   UNL A   1      31.663  27.000  24.159  1.00  0.00    -0.003 A 
ATOM     80  C   UNL A   1      29.943  29.101  23.643  1.00  0.00     0.056 A 
ATOM     81  C   UNL A   1      30.354  26.640  23.730  1.00  0.00     0.012 A 
ATOM     82  C   UNL A   1      32.538  25.934  24.475  1.00  0.00     0.009 A 
ATOM     83  C   UNL A   1      28.877  29.907  23.350  1.00  0.00     0.248 A 
ATOM     84  C   UNL A   1      29.478  27.742  23.493  1.00  0.00     0.122 A 
ATOM     85  C   UNL A   1      30.004  25.294  23.499  1.00  0.00     0.011 A 
ATOM     86  C   UNL A   1      32.195  24.602  24.228  1.00  0.00     0.001 A 
ATOM     87  O   UNL A   1      27.824  29.102  23.026  1.00  0.00    -0.350 OA
ATOM     88  N   UNL A   1      28.191  27.771  23.101  1.00  0.00    -0.079 NA
ATOM     89  C   UNL A   1      30.941  24.286  23.715  1.00  0.00     0.001 A 
BRANCH  83  90
ATOM     90  C   UNL A   1      28.605  31.353  23.312  1.00  0.00     0.453 C 
ATOM     91  F   UNL A   1      27.274  31.619  23.362  1.00  0.00    -0.163 F 
ATOM     92  F   UNL A   1      29.169  31.991  24.372  1.00  0.00    -0.163 F 
ATOM     93  F   UNL A   1      29.087  31.948  22.196  1.00  0.00    -0.163 F 
ENDBRANCH  83  90
ENDBRANCH  74  77
ENDBRANCH  72  73
ENDBRANCH  71  72
ENDBRANCH   1  71
TORSDOF 14
ENDMDL
MODEL 3
REMARK VINA RESULT:     -10.6      4.902      9.868
REMARK SMILES O=C(NCCCNC(=O)c1cc2c(C(F)(F)F)onc2c2ccccc12)c1ccc(-c2c3nc(c(-c4cc(S(=O)(=O)[O-])ccc4F)c4ccc([nH]4)c(-c4cc(S(=O)(=O)[O-])ccc4F)c4nc(c(-c5cc(S(=O)(=O)[O-])ccc5F)c5ccc2[nH]5)C=C4)C=C3)cc1
REMARK SMILES IDX 4 1 3 2 1 3 2 4 27 6 28 7 89 8 29 9 88 10 30 11 31 12 32 13
REMARK SMILES IDX 82 14 33 15 87 16 81 17 83 18 34 19 86 20 80 21 79 22 35 24
REMARK SMILES IDX 67 25 47 26 66 27 48 28 51 29 65 30 84 31 49 32 50 33 64 35
REMARK SMILES IDX 85 36 52 37 36 38 37 39 45 40 38 41 44 42 46 43 43 44 39 45
REMARK SMILES IDX 40 46 41 47 42 48 68 49 69 50 77 51 70 52 76 53 78 54 75 55
REMARK SMILES IDX 71 56 72 57 73 58 74 59 53 60 54 61 62 62 55 63 61 64 63 65
REMARK SMILES IDX 60 66 56 67 57 68 58 69 59 70 5 71 6 72 7 73 8 74 9 76 10 77
REMARK SMILES IDX 11 78 26 79 12 80 21 81 25 82 13 83 20 84 22 85 24 86 18 87
REMARK SMILES IDX 19 88 23 89 14 90 15 91 16 92 17 93
REMARK H PARENT 3 5 83 23 51 34 7 75
REMARK Flexibility Score: inf
ROOT
ATOM      1  C   UNL A   1      38.853  20.861  25.547  1.00  0.00     0.118 C 
ENDROOT
BRANCH   1   2
ATOM      2  N   UNL A   1      39.647  19.622  25.654  1.00  0.00    -0.352 N 
ATOM      3  O   UNL A   1      41.646  18.506  25.667  1.00  0.00    -0.269 OA
ATOM      4  C   UNL A   1      41.027  19.526  25.872  1.00  0.00     0.251 C 
ATOM      5  H   UNL A   1      39.155  18.774  25.562  1.00  0.00     0.163 HD
BRANCH   4   6
ATOM      6  C   UNL A   1      41.682  20.736  26.414  1.00  0.00     0.039 A 
ATOM      7  C   UNL A   1      42.075  21.830  25.644  1.00  0.00     0.014 A 
ATOM      8  C   UNL A   1      41.672  20.801  27.795  1.00  0.00     0.014 A 
ATOM      9  C   UNL A   1      42.353  23.026  26.311  1.00  0.00     0.010 A 
ATOM     10  C   UNL A   1      41.540  22.034  28.350  1.00  0.00     0.010 A 
ATOM     11  C   UNL A   1      42.046  23.125  27.680  1.00  0.00    -0.014 A 
BRANCH  11  12
ATOM     12  C   UNL A   1      42.182  24.343  28.468  1.00  0.00     0.031 A 
ATOM     13  C   UNL A   1      41.056  25.294  28.326  1.00  0.00     0.074 A 
ATOM     14  C   UNL A   1      43.160  24.514  29.391  1.00  0.00     0.049 A 
ATOM     15  N   UNL A   1      41.040  26.367  27.610  1.00  0.00    -0.248 NA
ATOM     16  C   UNL A   1      39.739  24.917  28.862  1.00  0.00     0.031 C 
ATOM     17  C   UNL A   1      44.162  23.555  29.890  1.00  0.00     0.029 A 
ATOM     18  N   UNL A   1      43.415  25.602  30.163  1.00  0.00    -0.354 N 
ATOM     19  C   UNL A   1      39.790  26.941  27.813  1.00  0.00     0.074 A 
ATOM     20  C   UNL A   1      38.974  25.905  28.391  1.00  0.00     0.031 C 
ATOM     21  C   UNL A   1      44.721  24.011  31.031  1.00  0.00     0.029 A 
ATOM     22  C   UNL A   1      44.294  25.381  31.218  1.00  0.00     0.049 A 
ATOM     23  H   UNL A   1      43.007  26.481  29.990  1.00  0.00     0.167 HD
ATOM     24  C   UNL A   1      39.619  28.292  27.719  1.00  0.00     0.034 A 
ATOM     25  C   UNL A   1      44.667  26.265  32.174  1.00  0.00     0.034 A 
ATOM     26  C   UNL A   1      40.793  28.912  27.152  1.00  0.00     0.049 A 
ATOM     27  C   UNL A   1      44.351  27.620  31.663  1.00  0.00     0.074 A 
ATOM     28  C   UNL A   1      41.447  28.818  25.941  1.00  0.00     0.029 A 
ATOM     29  N   UNL A   1      41.703  29.449  28.035  1.00  0.00    -0.354 N 
ATOM     30  N   UNL A   1      44.977  28.175  30.661  1.00  0.00    -0.248 NA
ATOM     31  C   UNL A   1      43.021  28.139  31.938  1.00  0.00     0.031 C 
ATOM     32  C   UNL A   1      42.833  28.855  26.267  1.00  0.00     0.029 A 
ATOM     33  C   UNL A   1      42.961  29.068  27.643  1.00  0.00     0.049 A 
ATOM     34  H   UNL A   1      41.487  30.010  28.815  1.00  0.00     0.167 HD
ATOM     35  C   UNL A   1      43.969  28.754  29.904  1.00  0.00     0.074 A 
ATOM     36  C   UNL A   1      42.800  28.780  30.787  1.00  0.00     0.031 C 
ATOM     37  C   UNL A   1      44.082  28.878  28.548  1.00  0.00     0.034 A 
BRANCH  24  38
ATOM     38  C   UNL A   1      38.573  29.081  28.467  1.00  0.00     0.023 A 
ATOM     39  C   UNL A   1      38.487  29.119  29.871  1.00  0.00     0.031 A 
ATOM     40  C   UNL A   1      37.753  30.000  27.779  1.00  0.00     0.131 A 
ATOM     41  C   UNL A   1      37.641  30.016  30.535  1.00  0.00     0.055 A 
ATOM     42  C   UNL A   1      36.957  30.942  28.441  1.00  0.00     0.041 A 
ATOM     43  F   UNL A   1      37.745  30.050  26.437  1.00  0.00    -0.206 F 
ATOM     44  C   UNL A   1      36.900  30.956  29.828  1.00  0.00     0.022 A 
BRANCH  41  45
ATOM     45  S   UNL A   1      37.508  29.982  32.343  1.00  0.00     0.124 S 
ATOM     46  O   UNL A   1      38.804  30.508  32.752  1.00  0.00    -0.237 OA
ATOM     47  O   UNL A   1      36.365  30.863  32.571  1.00  0.00    -0.237 OA
ATOM     48  O   UNL A   1      37.269  28.571  32.641  1.00  0.00    -0.744 OA
ENDBRANCH  41  45
ENDBRANCH  24  38
BRANCH  25  49
ATOM     49  C   UNL A   1      44.780  25.985  33.625  1.00  0.00     0.023 A 
ATOM     50  C   UNL A   1      43.613  25.839  34.398  1.00  0.00     0.031 A 
ATOM     51  C   UNL A   1      45.989  26.198  34.312  1.00  0.00     0.131 A 
ATOM     52  C   UNL A   1      43.660  25.986  35.791  1.00  0.00     0.055 A 
ATOM     53  C   UNL A   1      46.038  26.316  35.705  1.00  0.00     0.041 A 
ATOM     54  F   UNL A   1      47.132  26.377  33.633  1.00  0.00    -0.206 F 
ATOM     55  C   UNL A   1      44.865  26.230  36.451  1.00  0.00     0.022 A 
BRANCH  52  56
ATOM     56  S   UNL A   1      42.128  25.988  36.763  1.00  0.00     0.124 S 
ATOM     57  O   UNL A   1      41.360  27.056  36.128  1.00  0.00    -0.237 OA
ATOM     58  O   UNL A   1      41.632  24.636  36.535  1.00  0.00    -0.237 OA
ATOM     59  O   UNL A   1      42.584  26.275  38.120  1.00  0.00    -0.744 OA
ENDBRANCH  52  56
ENDBRANCH  25  49
BRANCH  37  60
ATOM     60  C   UNL A   1      45.418  28.586  27.892  1.00  0.00     0.023 A 
ATOM     61  C   UNL A   1      45.596  27.293  27.368  1.00  0.00     0.031 A 
ATOM     62  C   UNL A   1      46.559  29.409  27.973  1.00  0.00     0.131 A 
ATOM     63  C   UNL A   1      46.869  26.839  27.006  1.00  0.00     0.055 A 
ATOM     64  C   UNL A   1      47.819  28.977  27.542  1.00  0.00     0.041 A 
ATOM     65  F   UNL A   1      46.514  30.617  28.546  1.00  0.00    -0.206 F 
ATOM     66  C   UNL A   1      47.983  27.678  27.075  1.00  0.00     0.022 A 
BRANCH  63  67
ATOM     67  S   UNL A   1      47.126  25.095  26.602  1.00  0.00     0.124 S 
ATOM     68  O   UNL A   1      48.289  24.758  27.418  1.00  0.00    -0.237 OA
ATOM     69  O   UNL A   1      45.866  24.487  27.026  1.00  0.00    -0.237 OA
ATOM     70  O   UNL A   1      47.355  25.096  25.159  1.00  0.00    -0.744 OA
ENDBRANCH  63  67
ENDBRANCH  37  60
ENDBRANCH  11  12
ENDBRANCH   4   6
ENDBRANCH   1   2
BRANCH   1  71
ATOM     71  C   UNL A   1      37.524  20.709  24.851  1.00  0.00     0.042 C 
BRANCH  71  72
ATOM     72  C   UNL A   1      36.543  21.817  25.205  1.00  0.00     0.118 C 
BRANCH  72  73
ATOM     73  N   UNL A   1      35.859  21.698  26.495  1.00  0.00    -0.352 N 
ATOM     74  C   UNL A   1      34.534  21.938  26.801  1.00  0.00     0.251 C 
ATOM     75  H   UNL A   1      36.422  21.406  27.248  1.00  0.00     0.163 HD
ATOM     76  O   UNL A   1      34.059  21.634  27.888  1.00  0.00    -0.269 OA
BRANCH  74  77
ATOM     77  C   UNL A   1      33.684  22.618  25.798  1.00  0.00     0.048 A 
ATOM     78  C   UNL A   1      33.751  24.034  25.839  1.00  0.00     0.029 A 
ATOM     79  C   UNL A   1      33.039  21.825  24.769  1.00  0.00    -0.003 A 
ATOM     80  C   UNL A   1      33.220  24.582  24.680  1.00  0.00     0.056 A 
ATOM     81  C   UNL A   1      32.598  22.438  23.561  1.00  0.00     0.012 A 
ATOM     82  C   UNL A   1      32.905  20.419  24.847  1.00  0.00     0.009 A 
ATOM     83  C   UNL A   1      33.157  25.910  24.356  1.00  0.00     0.248 A 
ATOM     84  C   UNL A   1      32.680  23.863  23.549  1.00  0.00     0.122 A 
ATOM     85  C   UNL A   1      32.185  21.665  22.456  1.00  0.00     0.011 A 
ATOM     86  C   UNL A   1      32.513  19.654  23.745  1.00  0.00     0.001 A 
ATOM     87  O   UNL A   1      32.626  26.008  23.103  1.00  0.00    -0.350 OA
ATOM     88  N   UNL A   1      32.341  24.753  22.598  1.00  0.00    -0.079 NA
ATOM     89  C   UNL A   1      32.181  20.275  22.545  1.00  0.00     0.001 A 
BRANCH  83  90
ATOM     90  C   UNL A   1      33.497  27.187  25.004  1.00  0.00     0.453 C 
ATOM     91  F   UNL A   1      34.433  27.029  25.975  1.00  0.00    -0.163 F 
ATOM     92  F   UNL A   1      34.010  28.075  24.110  1.00  0.00    -0.163 F 
ATOM     93  F   UNL A   1      32.428  27.786  25.578  1.00  0.00    -0.163 F 
ENDBRANCH  83  90
ENDBRANCH  74  77
ENDBRANCH  72  73
ENDBRANCH  71  72
ENDBRANCH   1  71
TORSDOF 14
ENDMDL
