MODEL 1
REMARK VINA RESULT:     -11.6      0.000      0.000
REMARK SMILES CC[C@@H](C)[C@@H](C(=O)NCCCNC(=O)c1ccc(-c2c3nc(c(-c4cc(S(=O)(=O)[O-])ccc4F)c4ccc([nH]4)c(-c4cc(S(=O)(=O)[O-])ccc4F)c4nc(c(-c5cc(S(=O)(=O)[O-])ccc5F)c5ccc2[nH]5)C=C4)C=C3)cc1)S(=O)(=O)c1ccc(OC)cc1
REMARK SMILES IDX 10 1 9 2 8 3 6 4 7 5 5 7 3 8 4 9 2 10 1 11 78 12 79 13 80 14
REMARK SMILES IDX 81 15 82 16 88 17 83 18 87 19 84 20 85 21 86 22 11 23 12 24
REMARK SMILES IDX 13 25 14 27 15 28 16 29 77 30 17 31 76 32 18 33 19 34 20 35
REMARK SMILES IDX 70 36 21 37 75 38 69 39 71 40 22 41 74 42 68 43 67 44 23 46
REMARK SMILES IDX 55 47 35 48 54 49 36 50 39 51 53 52 72 53 37 54 38 55 52 57
REMARK SMILES IDX 73 58 40 59 24 60 25 61 33 62 26 63 32 64 34 65 31 66 27 67
REMARK SMILES IDX 28 68 29 69 30 70 56 71 57 72 65 73 58 74 64 75 66 76 63 77
REMARK SMILES IDX 59 78 60 79 61 80 62 81 41 82 42 83 50 84 43 85 49 86 51 87
REMARK SMILES IDX 48 88 44 89 45 90 46 91 47 92
REMARK H PARENT 8 6 12 26 71 45 39 56
REMARK Flexibility Score: inf
ROOT
ATOM      1  C   UNL A   1      38.129  19.668  25.005  1.00  0.00     0.042 C 
ENDROOT
BRANCH   1   2
ATOM      2  C   UNL A   1      37.045  20.691  24.629  1.00  0.00     0.117 C 
BRANCH   2   3
ATOM      3  N   UNL A   1      35.919  20.604  25.542  1.00  0.00    -0.355 N 
ATOM      4  C   UNL A   1      34.690  21.185  25.581  1.00  0.00     0.239 C 
ATOM      5  O   UNL A   1      34.183  21.163  26.704  1.00  0.00    -0.274 OA
ATOM      6  H   UNL A   1      36.079  19.992  26.295  1.00  0.00     0.163 HD
BRANCH   4   7
ATOM      7  C   UNL A   1      33.972  21.775  24.352  1.00  0.00     0.205 C 
BRANCH   7   8
ATOM      8  C   UNL A   1      33.658  23.315  24.324  1.00  0.00     0.014 C 
ATOM      9  C   UNL A   1      33.824  23.947  22.932  1.00  0.00     0.009 C 
BRANCH   8  10
ATOM     10  C   UNL A   1      34.512  24.090  25.332  1.00  0.00     0.002 C 
ATOM     11  C   UNL A   1      34.326  25.600  25.353  1.00  0.00     0.004 C 
ENDBRANCH   8  10
ENDBRANCH   7   8
BRANCH   7  12
ATOM     12  S   UNL A   1      32.500  20.727  24.122  1.00  0.00     0.190 S 
ATOM     13  O   UNL A   1      31.553  21.001  25.196  1.00  0.00    -0.223 OA
ATOM     14  O   UNL A   1      32.038  20.910  22.758  1.00  0.00    -0.223 OA
BRANCH  12  15
ATOM     15  C   UNL A   1      32.899  18.987  24.299  1.00  0.00     0.068 A 
ATOM     16  C   UNL A   1      32.590  18.370  25.515  1.00  0.00     0.024 A 
ATOM     17  C   UNL A   1      33.465  18.224  23.277  1.00  0.00     0.024 A 
ATOM     18  C   UNL A   1      32.860  17.005  25.695  1.00  0.00     0.048 A 
ATOM     19  C   UNL A   1      33.740  16.868  23.462  1.00  0.00     0.048 A 
ATOM     20  C   UNL A   1      33.439  16.249  24.670  1.00  0.00     0.118 A 
BRANCH  20  21
ATOM     21  O   UNL A   1      33.651  14.928  24.953  1.00  0.00    -0.497 OA
ATOM     22  C   UNL A   1      32.616  14.265  25.675  1.00  0.00     0.278 C 
ENDBRANCH  20  21
ENDBRANCH  12  15
ENDBRANCH   7  12
ENDBRANCH   4   7
ENDBRANCH   2   3
ENDBRANCH   1   2
BRANCH   1  23
ATOM     23  C   UNL A   1      39.204  20.197  25.951  1.00  0.00     0.118 C 
BRANCH  23  24
ATOM     24  N   UNL A   1      40.338  19.299  26.032  1.00  0.00    -0.352 N 
ATOM     25  C   UNL A   1      41.685  19.579  26.059  1.00  0.00     0.251 C 
ATOM     26  H   UNL A   1      40.111  18.343  26.076  1.00  0.00     0.163 HD
ATOM     27  O   UNL A   1      42.475  18.662  25.847  1.00  0.00    -0.269 OA
BRANCH  25  28
ATOM     28  C   UNL A   1      42.195  20.953  26.311  1.00  0.00     0.039 A 
ATOM     29  C   UNL A   1      42.459  21.334  27.630  1.00  0.00     0.014 A 
ATOM     30  C   UNL A   1      42.346  21.894  25.287  1.00  0.00     0.014 A 
ATOM     31  C   UNL A   1      42.910  22.630  27.916  1.00  0.00     0.010 A 
ATOM     32  C   UNL A   1      42.879  23.158  25.562  1.00  0.00     0.010 A 
ATOM     33  C   UNL A   1      43.151  23.548  26.882  1.00  0.00    -0.014 A 
BRANCH  33  34
ATOM     34  C   UNL A   1      43.644  24.927  27.171  1.00  0.00     0.031 A 
ATOM     35  C   UNL A   1      42.701  25.970  27.717  1.00  0.00     0.074 A 
ATOM     36  C   UNL A   1      44.928  25.253  26.914  1.00  0.00     0.049 A 
ATOM     37  N   UNL A   1      42.921  27.237  27.968  1.00  0.00    -0.248 NA
ATOM     38  C   UNL A   1      41.322  25.538  27.991  1.00  0.00     0.031 C 
ATOM     39  C   UNL A   1      45.937  24.345  26.362  1.00  0.00     0.029 A 
ATOM     40  N   UNL A   1      45.607  26.436  27.078  1.00  0.00    -0.354 N 
ATOM     41  C   UNL A   1      41.708  27.753  28.416  1.00  0.00     0.074 A 
ATOM     42  C   UNL A   1      40.744  26.677  28.341  1.00  0.00     0.031 C 
ATOM     43  C   UNL A   1      47.107  24.995  26.260  1.00  0.00     0.029 A 
ATOM     44  C   UNL A   1      46.926  26.379  26.688  1.00  0.00     0.049 A 
ATOM     45  H   UNL A   1      45.187  27.250  27.440  1.00  0.00     0.167 HD
ATOM     46  C   UNL A   1      41.429  28.999  28.874  1.00  0.00     0.034 A 
ATOM     47  C   UNL A   1      47.880  27.332  26.666  1.00  0.00     0.034 A 
ATOM     48  C   UNL A   1      42.402  30.060  28.964  1.00  0.00     0.049 A 
ATOM     49  C   UNL A   1      47.535  28.721  27.150  1.00  0.00     0.074 A 
ATOM     50  C   UNL A   1      42.234  31.345  29.453  1.00  0.00     0.029 A 
ATOM     51  N   UNL A   1      43.726  29.964  28.555  1.00  0.00    -0.354 N 
ATOM     52  N   UNL A   1      46.392  29.177  27.606  1.00  0.00    -0.248 NA
ATOM     53  C   UNL A   1      48.613  29.719  27.124  1.00  0.00     0.031 C 
ATOM     54  C   UNL A   1      43.434  32.044  29.279  1.00  0.00     0.029 A 
ATOM     55  C   UNL A   1      44.375  31.173  28.754  1.00  0.00     0.049 A 
ATOM     56  H   UNL A   1      44.143  29.156  28.179  1.00  0.00     0.167 HD
ATOM     57  C   UNL A   1      46.626  30.505  27.954  1.00  0.00     0.074 A 
ATOM     58  C   UNL A   1      48.021  30.770  27.672  1.00  0.00     0.031 C 
ATOM     59  C   UNL A   1      45.767  31.424  28.464  1.00  0.00     0.034 A 
BRANCH  46  60
ATOM     60  C   UNL A   1      40.006  29.287  29.295  1.00  0.00     0.023 A 
ATOM     61  C   UNL A   1      39.633  29.340  30.649  1.00  0.00     0.031 A 
ATOM     62  C   UNL A   1      39.007  29.506  28.330  1.00  0.00     0.131 A 
ATOM     63  C   UNL A   1      38.289  29.535  31.000  1.00  0.00     0.055 A 
ATOM     64  C   UNL A   1      37.685  29.780  28.687  1.00  0.00     0.041 A 
ATOM     65  F   UNL A   1      39.296  29.450  27.020  1.00  0.00    -0.206 F 
ATOM     66  C   UNL A   1      37.316  29.783  30.029  1.00  0.00     0.022 A 
BRANCH  63  67
ATOM     67  S   UNL A   1      37.807  29.329  32.736  1.00  0.00     0.124 S 
ATOM     68  O   UNL A   1      38.933  29.953  33.429  1.00  0.00    -0.237 OA
ATOM     69  O   UNL A   1      36.541  30.049  32.800  1.00  0.00    -0.237 OA
ATOM     70  O   UNL A   1      37.712  27.880  32.897  1.00  0.00    -0.744 OA
ENDBRANCH  63  67
ENDBRANCH  46  60
BRANCH  47  71
ATOM     71  C   UNL A   1      49.250  27.030  26.157  1.00  0.00     0.023 A 
ATOM     72  C   UNL A   1      49.665  27.469  24.890  1.00  0.00     0.031 A 
ATOM     73  C   UNL A   1      50.143  26.239  26.903  1.00  0.00     0.131 A 
ATOM     74  C   UNL A   1      50.910  27.065  24.381  1.00  0.00     0.055 A 
ATOM     75  C   UNL A   1      51.405  25.891  26.417  1.00  0.00     0.041 A 
ATOM     76  F   UNL A   1      49.801  25.792  28.122  1.00  0.00    -0.206 F 
ATOM     77  C   UNL A   1      51.788  26.292  25.140  1.00  0.00     0.022 A 
BRANCH  74  78
ATOM     78  S   UNL A   1      51.317  27.474  22.661  1.00  0.00     0.124 S 
ATOM     79  O   UNL A   1      51.242  28.930  22.677  1.00  0.00    -0.237 OA
ATOM     80  O   UNL A   1      52.653  26.903  22.523  1.00  0.00    -0.237 OA
ATOM     81  O   UNL A   1      50.270  26.802  21.894  1.00  0.00    -0.744 OA
ENDBRANCH  74  78
ENDBRANCH  47  71
BRANCH  59  82
ATOM     82  C   UNL A   1      46.332  32.785  28.795  1.00  0.00     0.023 A 
ATOM     83  C   UNL A   1      46.285  33.850  27.879  1.00  0.00     0.031 A 
ATOM     84  C   UNL A   1      46.938  33.014  30.044  1.00  0.00     0.131 A 
ATOM     85  C   UNL A   1      46.885  35.076  28.201  1.00  0.00     0.055 A 
ATOM     86  C   UNL A   1      47.479  34.255  30.383  1.00  0.00     0.041 A 
ATOM     87  F   UNL A   1      47.013  32.032  30.957  1.00  0.00    -0.206 F 
ATOM     88  C   UNL A   1      47.466  35.290  29.454  1.00  0.00     0.022 A 
BRANCH  85  89
ATOM     89  S   UNL A   1      46.981  36.361  26.924  1.00  0.00     0.124 S 
ATOM     90  O   UNL A   1      45.572  36.609  26.636  1.00  0.00    -0.237 OA
ATOM     91  O   UNL A   1      47.688  37.435  27.616  1.00  0.00    -0.237 OA
ATOM     92  O   UNL A   1      47.732  35.720  25.846  1.00  0.00    -0.744 OA
ENDBRANCH  85  89
ENDBRANCH  59  82
ENDBRANCH  33  34
ENDBRANCH  25  28
ENDBRANCH  23  24
ENDBRANCH   1  23
TORSDOF 18
ENDMDL
MODEL 2
REMARK VINA RESULT:     -11.4      6.208     11.538
REMARK SMILES CC[C@@H](C)[C@@H](C(=O)NCCCNC(=O)c1ccc(-c2c3nc(c(-c4cc(S(=O)(=O)[O-])ccc4F)c4ccc([nH]4)c(-c4cc(S(=O)(=O)[O-])ccc4F)c4nc(c(-c5cc(S(=O)(=O)[O-])ccc5F)c5ccc2[nH]5)C=C4)C=C3)cc1)S(=O)(=O)c1ccc(OC)cc1
REMARK SMILES IDX 10 1 9 2 8 3 6 4 7 5 5 7 3 8 4 9 2 10 1 11 78 12 79 13 80 14
REMARK SMILES IDX 81 15 82 16 88 17 83 18 87 19 84 20 85 21 86 22 11 23 12 24
REMARK SMILES IDX 13 25 14 27 15 28 16 29 77 30 17 31 76 32 18 33 19 34 20 35
REMARK SMILES IDX 70 36 21 37 75 38 69 39 71 40 22 41 74 42 68 43 67 44 23 46
REMARK SMILES IDX 55 47 35 48 54 49 36 50 39 51 53 52 72 53 37 54 38 55 52 57
REMARK SMILES IDX 73 58 40 59 24 60 25 61 33 62 26 63 32 64 34 65 31 66 27 67
REMARK SMILES IDX 28 68 29 69 30 70 56 71 57 72 65 73 58 74 64 75 66 76 63 77
REMARK SMILES IDX 59 78 60 79 61 80 62 81 41 82 42 83 50 84 43 85 49 86 51 87
REMARK SMILES IDX 48 88 44 89 45 90 46 91 47 92
REMARK H PARENT 8 6 12 26 71 45 39 56
REMARK Flexibility Score: inf
ROOT
ATOM      1  C   UNL A   1      31.402  31.897  26.437  1.00  0.00     0.042 C 
ENDROOT
BRANCH   1   2
ATOM      2  C   UNL A   1      31.356  30.401  26.086  1.00  0.00     0.117 C 
BRANCH   2   3
ATOM      3  N   UNL A   1      32.231  30.109  24.964  1.00  0.00    -0.355 N 
ATOM      4  C   UNL A   1      32.658  28.961  24.375  1.00  0.00     0.239 C 
ATOM      5  O   UNL A   1      33.685  29.114  23.711  1.00  0.00    -0.274 OA
ATOM      6  H   UNL A   1      32.591  30.918  24.536  1.00  0.00     0.163 HD
BRANCH   4   7
ATOM      7  C   UNL A   1      31.926  27.610  24.480  1.00  0.00     0.205 C 
BRANCH   7   8
ATOM      8  C   UNL A   1      30.399  27.543  24.112  1.00  0.00     0.014 C 
ATOM      9  C   UNL A   1      29.874  26.107  23.945  1.00  0.00     0.009 C 
BRANCH   8  10
ATOM     10  C   UNL A   1      30.083  28.343  22.845  1.00  0.00     0.002 C 
ATOM     11  C   UNL A   1      29.024  29.428  22.980  1.00  0.00     0.004 C 
ENDBRANCH   8  10
ENDBRANCH   7   8
BRANCH   7  12
ATOM     12  S   UNL A   1      32.297  27.006  26.159  1.00  0.00     0.190 S 
ATOM     13  O   UNL A   1      33.422  27.762  26.694  1.00  0.00    -0.223 OA
ATOM     14  O   UNL A   1      31.059  27.021  26.916  1.00  0.00    -0.223 OA
BRANCH  12  15
ATOM     15  C   UNL A   1      32.862  25.304  26.134  1.00  0.00     0.068 A 
ATOM     16  C   UNL A   1      32.026  24.333  26.694  1.00  0.00     0.024 A 
ATOM     17  C   UNL A   1      34.068  24.907  25.557  1.00  0.00     0.024 A 
ATOM     18  C   UNL A   1      32.411  22.985  26.678  1.00  0.00     0.048 A 
ATOM     19  C   UNL A   1      34.452  23.564  25.549  1.00  0.00     0.048 A 
ATOM     20  C   UNL A   1      33.627  22.595  26.108  1.00  0.00     0.118 A 
BRANCH  20  21
ATOM     21  O   UNL A   1      33.898  21.254  26.141  1.00  0.00    -0.497 OA
ATOM     22  C   UNL A   1      34.526  20.710  24.982  1.00  0.00     0.278 C 
ENDBRANCH  20  21
ENDBRANCH  12  15
ENDBRANCH   7  12
ENDBRANCH   4   7
ENDBRANCH   2   3
ENDBRANCH   1   2
BRANCH   1  23
ATOM     23  C   UNL A   1      32.686  32.351  27.127  1.00  0.00     0.118 C 
BRANCH  23  24
ATOM     24  N   UNL A   1      32.627  33.748  27.506  1.00  0.00    -0.352 N 
ATOM     25  C   UNL A   1      33.259  34.411  28.533  1.00  0.00     0.251 C 
ATOM     26  H   UNL A   1      32.048  34.309  26.943  1.00  0.00     0.163 HD
ATOM     27  O   UNL A   1      32.852  35.528  28.843  1.00  0.00    -0.269 OA
BRANCH  25  28
ATOM     28  C   UNL A   1      34.392  33.802  29.280  1.00  0.00     0.039 A 
ATOM     29  C   UNL A   1      35.694  34.190  28.949  1.00  0.00     0.014 A 
ATOM     30  C   UNL A   1      34.203  32.804  30.242  1.00  0.00     0.014 A 
ATOM     31  C   UNL A   1      36.791  33.618  29.605  1.00  0.00     0.010 A 
ATOM     32  C   UNL A   1      35.291  32.297  30.958  1.00  0.00     0.010 A 
ATOM     33  C   UNL A   1      36.601  32.683  30.636  1.00  0.00    -0.014 A 
BRANCH  33  34
ATOM     34  C   UNL A   1      37.761  32.076  31.352  1.00  0.00     0.031 A 
ATOM     35  C   UNL A   1      38.546  30.958  30.712  1.00  0.00     0.074 A 
ATOM     36  C   UNL A   1      38.091  32.503  32.589  1.00  0.00     0.049 A 
ATOM     37  N   UNL A   1      39.540  30.257  31.199  1.00  0.00    -0.248 NA
ATOM     38  C   UNL A   1      38.143  30.558  29.355  1.00  0.00     0.031 C 
ATOM     39  C   UNL A   1      37.398  33.559  33.331  1.00  0.00     0.029 A 
ATOM     40  N   UNL A   1      39.089  32.102  33.444  1.00  0.00    -0.354 N 
ATOM     41  C   UNL A   1      39.871  29.329  30.216  1.00  0.00     0.074 A 
ATOM     42  C   UNL A   1      38.930  29.516  29.133  1.00  0.00     0.031 C 
ATOM     43  C   UNL A   1      38.007  33.738  34.514  1.00  0.00     0.029 A 
ATOM     44  C   UNL A   1      39.100  32.780  34.642  1.00  0.00     0.049 A 
ATOM     45  H   UNL A   1      39.734  31.392  33.221  1.00  0.00     0.167 HD
ATOM     46  C   UNL A   1      40.881  28.423  30.203  1.00  0.00     0.034 A 
ATOM     47  C   UNL A   1      39.892  32.641  35.725  1.00  0.00     0.034 A 
ATOM     48  C   UNL A   1      41.827  28.257  31.279  1.00  0.00     0.049 A 
ATOM     49  C   UNL A   1      40.988  31.602  35.700  1.00  0.00     0.074 A 
ATOM     50  C   UNL A   1      42.912  27.400  31.349  1.00  0.00     0.029 A 
ATOM     51  N   UNL A   1      41.802  28.960  32.477  1.00  0.00    -0.354 N 
ATOM     52  N   UNL A   1      41.308  30.761  34.743  1.00  0.00    -0.248 NA
ATOM     53  C   UNL A   1      41.836  31.503  36.896  1.00  0.00     0.031 C 
ATOM     54  C   UNL A   1      43.501  27.537  32.611  1.00  0.00     0.029 A 
ATOM     55  C   UNL A   1      42.833  28.535  33.300  1.00  0.00     0.049 A 
ATOM     56  H   UNL A   1      41.147  29.658  32.708  1.00  0.00     0.167 HD
ATOM     57  C   UNL A   1      42.415  30.059  35.212  1.00  0.00     0.074 A 
ATOM     58  C   UNL A   1      42.718  30.587  36.526  1.00  0.00     0.031 C 
ATOM     59  C   UNL A   1      43.122  29.068  34.611  1.00  0.00     0.034 A 
BRANCH  46  60
ATOM     60  C   UNL A   1      41.001  27.527  28.992  1.00  0.00     0.023 A 
ATOM     61  C   UNL A   1      42.007  27.719  28.029  1.00  0.00     0.031 A 
ATOM     62  C   UNL A   1      40.095  26.470  28.792  1.00  0.00     0.131 A 
ATOM     63  C   UNL A   1      42.042  26.915  26.880  1.00  0.00     0.055 A 
ATOM     64  C   UNL A   1      40.183  25.621  27.687  1.00  0.00     0.041 A 
ATOM     65  F   UNL A   1      39.101  26.248  29.667  1.00  0.00    -0.206 F 
ATOM     66  C   UNL A   1      41.153  25.849  26.715  1.00  0.00     0.022 A 
BRANCH  63  67
ATOM     67  S   UNL A   1      43.180  27.363  25.541  1.00  0.00     0.124 S 
ATOM     68  O   UNL A   1      44.196  28.127  26.263  1.00  0.00    -0.237 OA
ATOM     69  O   UNL A   1      43.601  26.062  25.035  1.00  0.00    -0.237 OA
ATOM     70  O   UNL A   1      42.349  28.149  24.633  1.00  0.00    -0.744 OA
ENDBRANCH  63  67
ENDBRANCH  46  60
BRANCH  47  71
ATOM     71  C   UNL A   1      39.682  33.485  36.938  1.00  0.00     0.023 A 
ATOM     72  C   UNL A   1      40.467  34.625  37.173  1.00  0.00     0.031 A 
ATOM     73  C   UNL A   1      38.736  33.126  37.917  1.00  0.00     0.131 A 
ATOM     74  C   UNL A   1      40.337  35.330  38.380  1.00  0.00     0.055 A 
ATOM     75  C   UNL A   1      38.569  33.866  39.089  1.00  0.00     0.041 A 
ATOM     76  F   UNL A   1      37.957  32.047  37.746  1.00  0.00    -0.206 F 
ATOM     77  C   UNL A   1      39.385  34.967  39.333  1.00  0.00     0.022 A 
BRANCH  74  78
ATOM     78  S   UNL A   1      41.514  36.664  38.736  1.00  0.00     0.124 S 
ATOM     79  O   UNL A   1      40.627  37.728  39.191  1.00  0.00    -0.237 OA
ATOM     80  O   UNL A   1      42.361  36.055  39.756  1.00  0.00    -0.237 OA
ATOM     81  O   UNL A   1      42.162  36.899  37.447  1.00  0.00    -0.744 OA
ENDBRANCH  74  78
ENDBRANCH  47  71
BRANCH  59  82
ATOM     82  C   UNL A   1      44.321  28.530  35.353  1.00  0.00     0.023 A 
ATOM     83  C   UNL A   1      44.201  27.524  36.327  1.00  0.00     0.031 A 
ATOM     84  C   UNL A   1      45.604  29.044  35.089  1.00  0.00     0.131 A 
ATOM     85  C   UNL A   1      45.333  27.105  37.042  1.00  0.00     0.055 A 
ATOM     86  C   UNL A   1      46.736  28.579  35.760  1.00  0.00     0.041 A 
ATOM     87  F   UNL A   1      45.778  30.008  34.170  1.00  0.00    -0.206 F 
ATOM     88  C   UNL A   1      46.602  27.613  36.752  1.00  0.00     0.022 A 
BRANCH  85  89
ATOM     89  S   UNL A   1      45.111  25.951  38.425  1.00  0.00     0.124 S 
ATOM     90  O   UNL A   1      44.454  26.793  39.420  1.00  0.00    -0.237 OA
ATOM     91  O   UNL A   1      44.285  24.907  37.829  1.00  0.00    -0.237 OA
ATOM     92  O   UNL A   1      46.476  25.547  38.758  1.00  0.00    -0.744 OA
ENDBRANCH  85  89
ENDBRANCH  59  82
ENDBRANCH  33  34
ENDBRANCH  25  28
ENDBRANCH  23  24
ENDBRANCH   1  23
TORSDOF 18
ENDMDL
MODEL 3
REMARK VINA RESULT:     -11.2      0.506      7.825
REMARK SMILES CC[C@@H](C)[C@@H](C(=O)NCCCNC(=O)c1ccc(-c2c3nc(c(-c4cc(S(=O)(=O)[O-])ccc4F)c4ccc([nH]4)c(-c4cc(S(=O)(=O)[O-])ccc4F)c4nc(c(-c5cc(S(=O)(=O)[O-])ccc5F)c5ccc2[nH]5)C=C4)C=C3)cc1)S(=O)(=O)c1ccc(OC)cc1
REMARK SMILES IDX 10 1 9 2 8 3 6 4 7 5 5 7 3 8 4 9 2 10 1 11 78 12 79 13 80 14
REMARK SMILES IDX 81 15 82 16 88 17 83 18 87 19 84 20 85 21 86 22 11 23 12 24
REMARK SMILES IDX 13 25 14 27 15 28 16 29 77 30 17 31 76 32 18 33 19 34 20 35
REMARK SMILES IDX 70 36 21 37 75 38 69 39 71 40 22 41 74 42 68 43 67 44 23 46
REMARK SMILES IDX 55 47 35 48 54 49 36 50 39 51 53 52 72 53 37 54 38 55 52 57
REMARK SMILES IDX 73 58 40 59 24 60 25 61 33 62 26 63 32 64 34 65 31 66 27 67
REMARK SMILES IDX 28 68 29 69 30 70 56 71 57 72 65 73 58 74 64 75 66 76 63 77
REMARK SMILES IDX 59 78 60 79 61 80 62 81 41 82 42 83 50 84 43 85 49 86 51 87
REMARK SMILES IDX 48 88 44 89 45 90 46 91 47 92
REMARK H PARENT 8 6 12 26 71 45 39 56
REMARK Flexibility Score: inf
ROOT
ATOM      1  C   UNL A   1      38.248  19.409  25.092  1.00  0.00     0.042 C 
ENDROOT
BRANCH   1   2
ATOM      2  C   UNL A   1      37.173  20.396  24.608  1.00  0.00     0.117 C 
BRANCH   2   3
ATOM      3  N   UNL A   1      36.057  20.437  25.537  1.00  0.00    -0.355 N 
ATOM      4  C   UNL A   1      34.838  21.038  25.520  1.00  0.00     0.239 C 
ATOM      5  O   UNL A   1      34.345  21.157  26.643  1.00  0.00    -0.274 OA
ATOM      6  H   UNL A   1      36.218  19.915  26.355  1.00  0.00     0.163 HD
BRANCH   4   7
ATOM      7  C   UNL A   1      34.114  21.491  24.238  1.00  0.00     0.205 C 
BRANCH   7   8
ATOM      8  C   UNL A   1      33.797  23.019  24.045  1.00  0.00     0.014 C 
ATOM      9  C   UNL A   1      33.527  23.406  22.581  1.00  0.00     0.009 C 
BRANCH   8  10
ATOM     10  C   UNL A   1      34.914  23.908  24.601  1.00  0.00     0.002 C 
ATOM     11  C   UNL A   1      36.268  23.795  23.916  1.00  0.00     0.004 C 
ENDBRANCH   8  10
ENDBRANCH   7   8
BRANCH   7  12
ATOM     12  S   UNL A   1      32.642  20.423  24.130  1.00  0.00     0.190 S 
ATOM     13  O   UNL A   1      31.729  20.767  25.212  1.00  0.00    -0.223 OA
ATOM     14  O   UNL A   1      32.136  20.508  22.772  1.00  0.00    -0.223 OA
BRANCH  12  15
ATOM     15  C   UNL A   1      33.059  18.702  24.415  1.00  0.00     0.068 A 
ATOM     16  C   UNL A   1      32.595  18.107  25.592  1.00  0.00     0.024 A 
ATOM     17  C   UNL A   1      33.786  17.930  23.508  1.00  0.00     0.024 A 
ATOM     18  C   UNL A   1      32.873  16.757  25.850  1.00  0.00     0.048 A 
ATOM     19  C   UNL A   1      34.068  16.588  23.772  1.00  0.00     0.048 A 
ATOM     20  C   UNL A   1      33.613  15.993  24.942  1.00  0.00     0.118 A 
BRANCH  20  21
ATOM     21  O   UNL A   1      33.818  14.686  25.292  1.00  0.00    -0.497 OA
ATOM     22  C   UNL A   1      32.664  13.955  25.701  1.00  0.00     0.278 C 
ENDBRANCH  20  21
ENDBRANCH  12  15
ENDBRANCH   7  12
ENDBRANCH   4   7
ENDBRANCH   2   3
ENDBRANCH   1   2
BRANCH   1  23
ATOM     23  C   UNL A   1      39.347  20.034  25.948  1.00  0.00     0.118 C 
BRANCH  23  24
ATOM     24  N   UNL A   1      40.540  19.213  25.975  1.00  0.00    -0.352 N 
ATOM     25  C   UNL A   1      41.865  19.582  26.014  1.00  0.00     0.251 C 
ATOM     26  H   UNL A   1      40.379  18.242  25.964  1.00  0.00     0.163 HD
ATOM     27  O   UNL A   1      42.714  18.735  25.748  1.00  0.00    -0.269 OA
BRANCH  25  28
ATOM     28  C   UNL A   1      42.282  20.971  26.343  1.00  0.00     0.039 A 
ATOM     29  C   UNL A   1      42.418  21.891  25.298  1.00  0.00     0.014 A 
ATOM     30  C   UNL A   1      42.612  21.365  27.644  1.00  0.00     0.014 A 
ATOM     31  C   UNL A   1      42.840  23.201  25.559  1.00  0.00     0.010 A 
ATOM     32  C   UNL A   1      42.948  22.694  27.916  1.00  0.00     0.010 A 
ATOM     33  C   UNL A   1      43.084  23.626  26.875  1.00  0.00    -0.014 A 
BRANCH  33  34
ATOM     34  C   UNL A   1      43.521  25.022  27.169  1.00  0.00     0.031 A 
ATOM     35  C   UNL A   1      44.949  25.439  26.916  1.00  0.00     0.074 A 
ATOM     36  C   UNL A   1      42.647  25.908  27.692  1.00  0.00     0.049 A 
ATOM     37  N   UNL A   1      45.537  26.582  27.169  1.00  0.00    -0.248 NA
ATOM     38  C   UNL A   1      45.839  24.428  26.327  1.00  0.00     0.031 C 
ATOM     39  C   UNL A   1      41.244  25.625  28.007  1.00  0.00     0.029 A 
ATOM     40  N   UNL A   1      42.806  27.223  28.055  1.00  0.00    -0.354 N 
ATOM     41  C   UNL A   1      46.864  26.423  26.781  1.00  0.00     0.074 A 
ATOM     42  C   UNL A   1      47.006  25.053  26.337  1.00  0.00     0.031 C 
ATOM     43  C   UNL A   1      40.669  26.739  28.489  1.00  0.00     0.029 A 
ATOM     44  C   UNL A   1      41.666  27.801  28.567  1.00  0.00     0.049 A 
ATOM     45  H   UNL A   1      43.659  27.707  27.959  1.00  0.00     0.167 HD
ATOM     46  C   UNL A   1      47.865  27.338  26.771  1.00  0.00     0.034 A 
ATOM     47  C   UNL A   1      41.450  29.039  29.056  1.00  0.00     0.034 A 
ATOM     48  C   UNL A   1      47.708  28.707  27.197  1.00  0.00     0.049 A 
ATOM     49  C   UNL A   1      42.590  30.030  29.064  1.00  0.00     0.074 A 
ATOM     50  C   UNL A   1      48.645  29.727  27.186  1.00  0.00     0.029 A 
ATOM     51  N   UNL A   1      46.539  29.252  27.713  1.00  0.00    -0.354 N 
ATOM     52  N   UNL A   1      43.828  29.870  28.656  1.00  0.00    -0.248 NA
ATOM     53  C   UNL A   1      42.298  31.371  29.588  1.00  0.00     0.031 C 
ATOM     54  C   UNL A   1      48.065  30.866  27.755  1.00  0.00     0.029 A 
ATOM     55  C   UNL A   1      46.741  30.581  28.050  1.00  0.00     0.049 A 
ATOM     56  H   UNL A   1      45.691  28.765  27.825  1.00  0.00     0.167 HD
ATOM     57  C   UNL A   1      44.450  31.102  28.843  1.00  0.00     0.074 A 
ATOM     58  C   UNL A   1      43.448  31.997  29.382  1.00  0.00     0.031 C 
ATOM     59  C   UNL A   1      45.734  31.463  28.591  1.00  0.00     0.034 A 
BRANCH  46  60
ATOM     60  C   UNL A   1      49.226  26.880  26.299  1.00  0.00     0.023 A 
ATOM     61  C   UNL A   1      49.766  27.311  25.075  1.00  0.00     0.031 A 
ATOM     62  C   UNL A   1      49.992  25.997  27.080  1.00  0.00     0.131 A 
ATOM     63  C   UNL A   1      50.999  26.806  24.635  1.00  0.00     0.055 A 
ATOM     64  C   UNL A   1      51.255  25.560  26.675  1.00  0.00     0.041 A 
ATOM     65  F   UNL A   1      49.523  25.535  28.249  1.00  0.00    -0.206 F 
ATOM     66  C   UNL A   1      51.761  25.955  25.439  1.00  0.00     0.022 A 
BRANCH  63  67
ATOM     67  S   UNL A   1      51.533  27.174  22.942  1.00  0.00     0.124 S 
ATOM     68  O   UNL A   1      51.761  28.616  23.013  1.00  0.00    -0.237 OA
ATOM     69  O   UNL A   1      52.725  26.347  22.799  1.00  0.00    -0.237 OA
ATOM     70  O   UNL A   1      50.390  26.771  22.126  1.00  0.00    -0.744 OA
ENDBRANCH  63  67
ENDBRANCH  46  60
BRANCH  47  71
ATOM     71  C   UNL A   1      40.113  29.423  29.597  1.00  0.00     0.023 A 
ATOM     72  C   UNL A   1      39.871  29.448  30.980  1.00  0.00     0.031 A 
ATOM     73  C   UNL A   1      39.036  29.706  28.737  1.00  0.00     0.131 A 
ATOM     74  C   UNL A   1      38.574  29.688  31.460  1.00  0.00     0.055 A 
ATOM     75  C   UNL A   1      37.762  30.005  29.222  1.00  0.00     0.041 A 
ATOM     76  F   UNL A   1      39.209  29.699  27.406  1.00  0.00    -0.206 F 
ATOM     77  C   UNL A   1      37.521  29.980  30.593  1.00  0.00     0.022 A 
BRANCH  74  78
ATOM     78  S   UNL A   1      38.259  29.501  33.237  1.00  0.00     0.124 S 
ATOM     79  O   UNL A   1      37.151  28.554  33.244  1.00  0.00    -0.237 OA
ATOM     80  O   UNL A   1      39.540  28.992  33.718  1.00  0.00    -0.237 OA
ATOM     81  O   UNL A   1      37.927  30.857  33.669  1.00  0.00    -0.744 OA
ENDBRANCH  74  78
ENDBRANCH  47  71
BRANCH  59  82
ATOM     82  C   UNL A   1      46.107  32.902  28.848  1.00  0.00     0.023 A 
ATOM     83  C   UNL A   1      45.889  33.908  27.890  1.00  0.00     0.031 A 
ATOM     84  C   UNL A   1      46.703  33.271  30.069  1.00  0.00     0.131 A 
ATOM     85  C   UNL A   1      46.316  35.220  28.144  1.00  0.00     0.055 A 
ATOM     86  C   UNL A   1      47.069  34.589  30.340  1.00  0.00     0.041 A 
ATOM     87  F   UNL A   1      46.936  32.352  31.020  1.00  0.00    -0.206 F 
ATOM     88  C   UNL A   1      46.889  35.570  29.370  1.00  0.00     0.022 A 
BRANCH  85  89
ATOM     89  S   UNL A   1      46.200  36.447  26.812  1.00  0.00     0.124 S 
ATOM     90  O   UNL A   1      47.134  37.473  27.264  1.00  0.00    -0.237 OA
ATOM     91  O   UNL A   1      46.615  35.678  25.644  1.00  0.00    -0.237 OA
ATOM     92  O   UNL A   1      44.792  36.839  26.828  1.00  0.00    -0.744 OA
ENDBRANCH  85  89
ENDBRANCH  59  82
ENDBRANCH  33  34
ENDBRANCH  25  28
ENDBRANCH  23  24
ENDBRANCH   1  23
TORSDOF 18
ENDMDL
