MODEL 1
REMARK VINA RESULT:     -12.2      0.000      0.000
REMARK SMILES CC1(C)C(C(=O)N[C@H](C(=O)NCCCNC(=O)c2ccc(-c3c4nc(c(-c5cc(S(=O)(=O)[O-])ccc5F)c5ccc([nH]5)c(-c5cc(S(=O)(=O)[O-])ccc5F)c5nc(c(-c6cc(S(=O)(=O)[O-])ccc6F)c6ccc3[nH]6)C=C5)C=C4)cc2)c2ccccc2)C1(C)C
REMARK SMILES IDX 13 1 12 2 11 3 9 4 10 5 8 7 7 8 5 9 6 10 4 12 1 13 2 14 3 15
REMARK SMILES IDX 87 16 88 17 89 18 81 19 82 20 86 21 83 22 85 23 84 24 14 25
REMARK SMILES IDX 15 26 16 27 17 29 18 30 19 31 80 32 20 33 79 34 21 35 22 36
REMARK SMILES IDX 23 37 73 38 24 39 78 40 72 41 74 42 25 43 77 44 71 45 70 46
REMARK SMILES IDX 26 48 58 49 38 50 57 51 39 52 42 53 56 54 75 55 40 56 41 57
REMARK SMILES IDX 55 59 76 60 43 61 27 62 28 63 36 64 29 65 35 66 37 67 34 68
REMARK SMILES IDX 30 69 31 70 32 71 33 72 59 73 60 74 68 75 61 76 67 77 69 78
REMARK SMILES IDX 66 79 62 80 63 81 64 82 65 83 44 84 45 85 53 86 46 87 52 88
REMARK SMILES IDX 54 89 51 90 47 91 48 92 49 93 50 94
REMARK H PARENT 11 6 7 11 15 28 74 47 42 58
REMARK Flexibility Score: inf
ROOT
ATOM      1  C   UNL A   1      33.850  31.336  27.060  1.00  0.00     0.042 C 
ENDROOT
BRANCH   1   2
ATOM      2  C   UNL A   1      33.844  29.817  26.804  1.00  0.00     0.117 C 
BRANCH   2   3
ATOM      3  N   UNL A   1      32.829  29.166  27.626  1.00  0.00    -0.354 N 
ATOM      4  C   UNL A   1      31.851  28.257  27.319  1.00  0.00     0.247 C 
ATOM      5  O   UNL A   1      31.004  28.059  28.202  1.00  0.00    -0.272 OA
ATOM      6  H   UNL A   1      32.851  29.427  28.574  1.00  0.00     0.163 HD
BRANCH   4   7
ATOM      7  C   UNL A   1      31.848  27.403  26.005  1.00  0.00     0.202 C 
BRANCH   7   8
ATOM      8  N   UNL A   1      31.334  26.107  26.436  1.00  0.00    -0.340 N 
ATOM      9  C   UNL A   1      31.831  24.841  26.478  1.00  0.00     0.225 C 
ATOM     10  O   UNL A   1      31.288  24.063  27.245  1.00  0.00    -0.275 OA
ATOM     11  H   UNL A   1      30.411  26.162  26.776  1.00  0.00     0.164 HD
BRANCH   9  12
ATOM     12  C   UNL A   1      32.872  24.269  25.580  1.00  0.00     0.091 C 
ATOM     13  C   UNL A   1      34.827  22.850  24.766  1.00  0.00     0.012 C 
ATOM     14  C   UNL A   1      33.312  22.946  24.959  1.00  0.00    -0.017 C 
ATOM     15  C   UNL A   1      32.729  21.559  25.061  1.00  0.00     0.012 C 
ATOM     16  C   UNL A   1      32.495  23.957  24.137  1.00  0.00    -0.017 C 
ATOM     17  C   UNL A   1      33.178  24.703  23.018  1.00  0.00     0.012 C 
ATOM     18  C   UNL A   1      31.026  23.710  23.844  1.00  0.00     0.012 C 
ENDBRANCH   9  12
ENDBRANCH   7   8
BRANCH   7  19
ATOM     19  C   UNL A   1      31.142  27.974  24.779  1.00  0.00    -0.016 A 
ATOM     20  C   UNL A   1      31.021  29.352  24.550  1.00  0.00     0.006 A 
ATOM     21  C   UNL A   1      30.360  27.158  23.963  1.00  0.00     0.006 A 
ATOM     22  C   UNL A   1      30.018  29.868  23.719  1.00  0.00     0.000 A 
ATOM     23  C   UNL A   1      29.339  27.650  23.152  1.00  0.00     0.000 A 
ATOM     24  C   UNL A   1      29.136  29.015  23.067  1.00  0.00     0.000 A 
ENDBRANCH   7  19
ENDBRANCH   4   7
ENDBRANCH   2   3
ENDBRANCH   1   2
BRANCH   1  25
ATOM     25  C   UNL A   1      32.476  31.943  27.312  1.00  0.00     0.118 C 
BRANCH  25  26
ATOM     26  N   UNL A   1      32.546  33.382  27.474  1.00  0.00    -0.352 N 
ATOM     27  C   UNL A   1      33.239  34.180  28.354  1.00  0.00     0.251 C 
ATOM     28  H   UNL A   1      31.991  33.882  26.833  1.00  0.00     0.163 HD
ATOM     29  O   UNL A   1      32.887  35.359  28.431  1.00  0.00    -0.269 OA
BRANCH  27  30
ATOM     30  C   UNL A   1      34.354  33.698  29.221  1.00  0.00     0.039 A 
ATOM     31  C   UNL A   1      35.662  34.071  28.872  1.00  0.00     0.014 A 
ATOM     32  C   UNL A   1      34.188  32.800  30.276  1.00  0.00     0.014 A 
ATOM     33  C   UNL A   1      36.769  33.564  29.568  1.00  0.00     0.010 A 
ATOM     34  C   UNL A   1      35.287  32.367  31.031  1.00  0.00     0.010 A 
ATOM     35  C   UNL A   1      36.598  32.715  30.670  1.00  0.00    -0.014 A 
BRANCH  35  36
ATOM     36  C   UNL A   1      37.764  32.127  31.401  1.00  0.00     0.031 A 
ATOM     37  C   UNL A   1      38.574  31.016  30.769  1.00  0.00     0.074 A 
ATOM     38  C   UNL A   1      38.092  32.563  32.635  1.00  0.00     0.049 A 
ATOM     39  N   UNL A   1      39.553  30.307  31.275  1.00  0.00    -0.248 NA
ATOM     40  C   UNL A   1      38.211  30.633  29.396  1.00  0.00     0.031 C 
ATOM     41  C   UNL A   1      37.395  33.620  33.371  1.00  0.00     0.029 A 
ATOM     42  N   UNL A   1      39.090  32.170  33.495  1.00  0.00    -0.354 N 
ATOM     43  C   UNL A   1      39.909  29.386  30.292  1.00  0.00     0.074 A 
ATOM     44  C   UNL A   1      38.994  29.584  29.188  1.00  0.00     0.031 C 
ATOM     45  C   UNL A   1      38.003  33.811  34.552  1.00  0.00     0.029 A 
ATOM     46  C   UNL A   1      39.099  32.856  34.690  1.00  0.00     0.049 A 
ATOM     47  H   UNL A   1      39.739  31.462  33.276  1.00  0.00     0.167 HD
ATOM     48  C   UNL A   1      40.918  28.478  30.292  1.00  0.00     0.034 A 
ATOM     49  C   UNL A   1      39.887  32.723  35.777  1.00  0.00     0.034 A 
ATOM     50  C   UNL A   1      41.845  28.303  31.384  1.00  0.00     0.049 A 
ATOM     51  C   UNL A   1      40.978  31.677  35.769  1.00  0.00     0.074 A 
ATOM     52  C   UNL A   1      42.921  27.436  31.473  1.00  0.00     0.029 A 
ATOM     53  N   UNL A   1      41.813  29.014  32.577  1.00  0.00    -0.354 N 
ATOM     54  N   UNL A   1      41.305  30.830  34.822  1.00  0.00    -0.248 NA
ATOM     55  C   UNL A   1      41.811  31.580  36.977  1.00  0.00     0.031 C 
ATOM     56  C   UNL A   1      43.500  27.578  32.738  1.00  0.00     0.029 A 
ATOM     57  C   UNL A   1      42.835  28.589  33.412  1.00  0.00     0.049 A 
ATOM     58  H   UNL A   1      41.160  29.716  32.797  1.00  0.00     0.167 HD
ATOM     59  C   UNL A   1      42.406  30.128  35.306  1.00  0.00     0.074 A 
ATOM     60  C   UNL A   1      42.696  30.663  36.620  1.00  0.00     0.031 C 
ATOM     61  C   UNL A   1      43.118  29.132  34.718  1.00  0.00     0.034 A 
BRANCH  48  62
ATOM     62  C   UNL A   1      41.063  27.593  29.074  1.00  0.00     0.023 A 
ATOM     63  C   UNL A   1      42.060  27.825  28.110  1.00  0.00     0.031 A 
ATOM     64  C   UNL A   1      40.190  26.509  28.868  1.00  0.00     0.131 A 
ATOM     65  C   UNL A   1      42.112  27.036  26.951  1.00  0.00     0.055 A 
ATOM     66  C   UNL A   1      40.302  25.675  27.752  1.00  0.00     0.041 A 
ATOM     67  F   UNL A   1      39.207  26.246  29.743  1.00  0.00    -0.206 F 
ATOM     68  C   UNL A   1      41.258  25.945  26.778  1.00  0.00     0.022 A 
BRANCH  65  69
ATOM     69  S   UNL A   1      43.224  27.542  25.611  1.00  0.00     0.124 S 
ATOM     70  O   UNL A   1      42.278  28.058  24.624  1.00  0.00    -0.237 OA
ATOM     71  O   UNL A   1      44.074  28.532  26.261  1.00  0.00    -0.237 OA
ATOM     72  O   UNL A   1      43.891  26.298  25.231  1.00  0.00    -0.744 OA
ENDBRANCH  65  69
ENDBRANCH  48  62
BRANCH  49  73
ATOM     73  C   UNL A   1      39.681  33.583  36.981  1.00  0.00     0.023 A 
ATOM     74  C   UNL A   1      39.017  33.089  38.116  1.00  0.00     0.031 A 
ATOM     75  C   UNL A   1      40.078  34.933  36.988  1.00  0.00     0.131 A 
ATOM     76  C   UNL A   1      38.713  33.951  39.182  1.00  0.00     0.055 A 
ATOM     77  C   UNL A   1      39.829  35.769  38.078  1.00  0.00     0.041 A 
ATOM     78  F   UNL A   1      40.717  35.460  35.931  1.00  0.00    -0.206 F 
ATOM     79  C   UNL A   1      39.128  35.284  39.177  1.00  0.00     0.022 A 
BRANCH  76  80
ATOM     80  S   UNL A   1      37.663  33.330  40.525  1.00  0.00     0.124 S 
ATOM     81  O   UNL A   1      38.584  32.453  41.239  1.00  0.00    -0.237 OA
ATOM     82  O   UNL A   1      37.290  34.564  41.209  1.00  0.00    -0.237 OA
ATOM     83  O   UNL A   1      36.575  32.655  39.821  1.00  0.00    -0.744 OA
ENDBRANCH  76  80
ENDBRANCH  49  73
BRANCH  61  84
ATOM     84  C   UNL A   1      44.315  28.604  35.470  1.00  0.00     0.023 A 
ATOM     85  C   UNL A   1      44.203  27.570  36.416  1.00  0.00     0.031 A 
ATOM     86  C   UNL A   1      45.590  29.156  35.243  1.00  0.00     0.131 A 
ATOM     87  C   UNL A   1      45.331  27.161  37.142  1.00  0.00     0.055 A 
ATOM     88  C   UNL A   1      46.719  28.703  35.923  1.00  0.00     0.041 A 
ATOM     89  F   UNL A   1      45.756  30.147  34.352  1.00  0.00    -0.206 F 
ATOM     90  C   UNL A   1      46.592  27.709  36.890  1.00  0.00     0.022 A 
BRANCH  87  91
ATOM     91  S   UNL A   1      45.114  25.967  38.490  1.00  0.00     0.124 S 
ATOM     92  O   UNL A   1      44.386  24.890  37.827  1.00  0.00    -0.237 OA
ATOM     93  O   UNL A   1      46.492  25.668  38.866  1.00  0.00    -0.237 OA
ATOM     94  O   UNL A   1      44.347  26.711  39.488  1.00  0.00    -0.744 OA
ENDBRANCH  87  91
ENDBRANCH  61  84
ENDBRANCH  35  36
ENDBRANCH  27  30
ENDBRANCH  25  26
ENDBRANCH   1  25
TORSDOF 16
ENDMDL
MODEL 2
REMARK VINA RESULT:     -12.0      1.371      1.606
REMARK SMILES CC1(C)C(C(=O)N[C@H](C(=O)NCCCNC(=O)c2ccc(-c3c4nc(c(-c5cc(S(=O)(=O)[O-])ccc5F)c5ccc([nH]5)c(-c5cc(S(=O)(=O)[O-])ccc5F)c5nc(c(-c6cc(S(=O)(=O)[O-])ccc6F)c6ccc3[nH]6)C=C5)C=C4)cc2)c2ccccc2)C1(C)C
REMARK SMILES IDX 13 1 12 2 11 3 9 4 10 5 8 7 7 8 5 9 6 10 4 12 1 13 2 14 3 15
REMARK SMILES IDX 87 16 88 17 89 18 81 19 82 20 86 21 83 22 85 23 84 24 14 25
REMARK SMILES IDX 15 26 16 27 17 29 18 30 19 31 80 32 20 33 79 34 21 35 22 36
REMARK SMILES IDX 23 37 73 38 24 39 78 40 72 41 74 42 25 43 77 44 71 45 70 46
REMARK SMILES IDX 26 48 58 49 38 50 57 51 39 52 42 53 56 54 75 55 40 56 41 57
REMARK SMILES IDX 55 59 76 60 43 61 27 62 28 63 36 64 29 65 35 66 37 67 34 68
REMARK SMILES IDX 30 69 31 70 32 71 33 72 59 73 60 74 68 75 61 76 67 77 69 78
REMARK SMILES IDX 66 79 62 80 63 81 64 82 65 83 44 84 45 85 53 86 46 87 52 88
REMARK SMILES IDX 54 89 51 90 47 91 48 92 49 93 50 94
REMARK H PARENT 11 6 7 11 15 28 74 47 42 58
REMARK Flexibility Score: inf
ROOT
ATOM      1  C   UNL A   1      33.881  31.412  27.262  1.00  0.00     0.042 C 
ENDROOT
BRANCH   1   2
ATOM      2  C   UNL A   1      33.902  29.909  26.923  1.00  0.00     0.117 C 
BRANCH   2   3
ATOM      3  N   UNL A   1      32.860  29.206  27.663  1.00  0.00    -0.354 N 
ATOM      4  C   UNL A   1      31.973  28.232  27.287  1.00  0.00     0.247 C 
ATOM      5  O   UNL A   1      31.064  27.992  28.095  1.00  0.00    -0.272 OA
ATOM      6  H   UNL A   1      32.779  29.482  28.604  1.00  0.00     0.163 HD
BRANCH   4   7
ATOM      7  C   UNL A   1      32.143  27.361  25.996  1.00  0.00     0.202 C 
BRANCH   7   8
ATOM      8  N   UNL A   1      31.554  26.077  26.365  1.00  0.00    -0.340 N 
ATOM      9  C   UNL A   1      32.046  24.843  26.661  1.00  0.00     0.225 C 
ATOM     10  O   UNL A   1      31.316  24.099  27.295  1.00  0.00    -0.275 OA
ATOM     11  H   UNL A   1      30.570  26.112  26.409  1.00  0.00     0.164 HD
BRANCH   9  12
ATOM     12  C   UNL A   1      33.321  24.257  26.165  1.00  0.00     0.091 C 
ATOM     13  C   UNL A   1      35.471  22.887  26.098  1.00  0.00     0.012 C 
ATOM     14  C   UNL A   1      33.964  22.913  25.833  1.00  0.00    -0.017 C 
ATOM     15  C   UNL A   1      33.418  21.508  25.898  1.00  0.00     0.012 C 
ATOM     16  C   UNL A   1      33.395  23.800  24.713  1.00  0.00    -0.017 C 
ATOM     17  C   UNL A   1      34.355  24.485  23.773  1.00  0.00     0.012 C 
ATOM     18  C   UNL A   1      32.086  23.445  24.032  1.00  0.00     0.012 C 
ENDBRANCH   9  12
ENDBRANCH   7   8
BRANCH   7  19
ATOM     19  C   UNL A   1      31.625  27.925  24.676  1.00  0.00    -0.016 A 
ATOM     20  C   UNL A   1      30.989  29.170  24.585  1.00  0.00     0.006 A 
ATOM     21  C   UNL A   1      31.531  27.116  23.545  1.00  0.00     0.006 A 
ATOM     22  C   UNL A   1      30.131  29.474  23.519  1.00  0.00     0.000 A 
ATOM     23  C   UNL A   1      30.663  27.387  22.488  1.00  0.00     0.000 A 
ATOM     24  C   UNL A   1      29.922  28.554  22.499  1.00  0.00     0.000 A 
ENDBRANCH   7  19
ENDBRANCH   4   7
ENDBRANCH   2   3
ENDBRANCH   1   2
BRANCH   1  25
ATOM     25  C   UNL A   1      32.495  32.044  27.257  1.00  0.00     0.118 C 
BRANCH  25  26
ATOM     26  N   UNL A   1      32.558  33.478  27.466  1.00  0.00    -0.352 N 
ATOM     27  C   UNL A   1      33.243  34.250  28.376  1.00  0.00     0.251 C 
ATOM     28  H   UNL A   1      32.006  33.997  26.838  1.00  0.00     0.163 HD
ATOM     29  O   UNL A   1      32.886  35.424  28.488  1.00  0.00    -0.269 OA
BRANCH  27  30
ATOM     30  C   UNL A   1      34.353  33.743  29.235  1.00  0.00     0.039 A 
ATOM     31  C   UNL A   1      35.661  34.142  28.914  1.00  0.00     0.014 A 
ATOM     32  C   UNL A   1      34.185  32.804  30.252  1.00  0.00     0.014 A 
ATOM     33  C   UNL A   1      36.766  33.617  29.601  1.00  0.00     0.010 A 
ATOM     34  C   UNL A   1      35.280  32.352  31.002  1.00  0.00     0.010 A 
ATOM     35  C   UNL A   1      36.591  32.724  30.668  1.00  0.00    -0.014 A 
BRANCH  35  36
ATOM     36  C   UNL A   1      37.756  32.119  31.387  1.00  0.00     0.031 A 
ATOM     37  C   UNL A   1      38.560  31.015  30.735  1.00  0.00     0.074 A 
ATOM     38  C   UNL A   1      38.086  32.531  32.629  1.00  0.00     0.049 A 
ATOM     39  N   UNL A   1      39.536  30.294  31.228  1.00  0.00    -0.248 NA
ATOM     40  C   UNL A   1      38.195  30.658  29.355  1.00  0.00     0.031 C 
ATOM     41  C   UNL A   1      37.395  33.578  33.383  1.00  0.00     0.029 A 
ATOM     42  N   UNL A   1      39.083  32.119  33.480  1.00  0.00    -0.354 N 
ATOM     43  C   UNL A   1      39.887  29.388  30.228  1.00  0.00     0.074 A 
ATOM     44  C   UNL A   1      38.973  29.610  29.129  1.00  0.00     0.031 C 
ATOM     45  C   UNL A   1      38.005  33.746  34.567  1.00  0.00     0.029 A 
ATOM     46  C   UNL A   1      39.096  32.784  34.687  1.00  0.00     0.049 A 
ATOM     47  H   UNL A   1      39.729  31.413  33.248  1.00  0.00     0.167 HD
ATOM     48  C   UNL A   1      40.892  28.476  30.212  1.00  0.00     0.034 A 
ATOM     49  C   UNL A   1      39.884  32.629  35.771  1.00  0.00     0.034 A 
ATOM     50  C   UNL A   1      41.820  28.278  31.299  1.00  0.00     0.049 A 
ATOM     51  C   UNL A   1      40.971  31.578  35.744  1.00  0.00     0.074 A 
ATOM     52  C   UNL A   1      42.892  27.405  31.372  1.00  0.00     0.029 A 
ATOM     53  N   UNL A   1      41.792  28.968  32.504  1.00  0.00    -0.354 N 
ATOM     54  N   UNL A   1      41.293  30.746  34.782  1.00  0.00    -0.248 NA
ATOM     55  C   UNL A   1      41.805  31.456  36.949  1.00  0.00     0.031 C 
ATOM     56  C   UNL A   1      43.472  27.522  32.639  1.00  0.00     0.029 A 
ATOM     57  C   UNL A   1      42.813  28.523  33.331  1.00  0.00     0.049 A 
ATOM     58  H   UNL A   1      41.142  29.669  32.737  1.00  0.00     0.167 HD
ATOM     59  C   UNL A   1      42.392  30.031  35.252  1.00  0.00     0.074 A 
ATOM     60  C   UNL A   1      42.686  30.541  36.575  1.00  0.00     0.031 C 
ATOM     61  C   UNL A   1      43.099  29.042  34.647  1.00  0.00     0.034 A 
BRANCH  48  62
ATOM     62  C   UNL A   1      41.033  27.612  28.978  1.00  0.00     0.023 A 
ATOM     63  C   UNL A   1      42.034  27.852  28.020  1.00  0.00     0.031 A 
ATOM     64  C   UNL A   1      40.151  26.540  28.749  1.00  0.00     0.131 A 
ATOM     65  C   UNL A   1      42.083  27.084  26.848  1.00  0.00     0.055 A 
ATOM     66  C   UNL A   1      40.258  25.726  27.619  1.00  0.00     0.041 A 
ATOM     67  F   UNL A   1      39.163  26.270  29.617  1.00  0.00    -0.206 F 
ATOM     68  C   UNL A   1      41.219  26.004  26.653  1.00  0.00     0.022 A 
BRANCH  65  69
ATOM     69  S   UNL A   1      43.202  27.604  25.519  1.00  0.00     0.124 S 
ATOM     70  O   UNL A   1      43.729  26.320  25.060  1.00  0.00    -0.237 OA
ATOM     71  O   UNL A   1      42.305  28.292  24.600  1.00  0.00    -0.237 OA
ATOM     72  O   UNL A   1      44.172  28.457  26.203  1.00  0.00    -0.744 OA
ENDBRANCH  65  69
ENDBRANCH  48  62
BRANCH  49  73
ATOM     73  C   UNL A   1      39.684  33.468  36.990  1.00  0.00     0.023 A 
ATOM     74  C   UNL A   1      40.466  34.612  37.215  1.00  0.00     0.031 A 
ATOM     75  C   UNL A   1      38.760  33.099  37.985  1.00  0.00     0.131 A 
ATOM     76  C   UNL A   1      40.358  35.309  38.429  1.00  0.00     0.055 A 
ATOM     77  C   UNL A   1      38.611  33.833  39.163  1.00  0.00     0.041 A 
ATOM     78  F   UNL A   1      37.984  32.014  37.824  1.00  0.00    -0.206 F 
ATOM     79  C   UNL A   1      39.425  34.936  39.398  1.00  0.00     0.022 A 
BRANCH  76  80
ATOM     80  S   UNL A   1      41.540  36.643  38.771  1.00  0.00     0.124 S 
ATOM     81  O   UNL A   1      40.650  37.777  38.991  1.00  0.00    -0.237 OA
ATOM     82  O   UNL A   1      42.236  36.134  39.947  1.00  0.00    -0.237 OA
ATOM     83  O   UNL A   1      42.342  36.707  37.551  1.00  0.00    -0.744 OA
ENDBRANCH  76  80
ENDBRANCH  49  73
BRANCH  61  84
ATOM     84  C   UNL A   1      44.295  28.496  35.388  1.00  0.00     0.023 A 
ATOM     85  C   UNL A   1      44.172  27.479  36.350  1.00  0.00     0.031 A 
ATOM     86  C   UNL A   1      45.578  29.014  35.133  1.00  0.00     0.131 A 
ATOM     87  C   UNL A   1      45.301  27.053  37.065  1.00  0.00     0.055 A 
ATOM     88  C   UNL A   1      46.707  28.542  35.803  1.00  0.00     0.041 A 
ATOM     89  F   UNL A   1      45.755  29.987  34.226  1.00  0.00    -0.206 F 
ATOM     90  C   UNL A   1      46.570  27.566  36.787  1.00  0.00     0.022 A 
BRANCH  87  91
ATOM     91  S   UNL A   1      45.075  25.883  38.433  1.00  0.00     0.124 S 
ATOM     92  O   UNL A   1      44.740  24.651  37.728  1.00  0.00    -0.237 OA
ATOM     93  O   UNL A   1      46.381  25.910  39.085  1.00  0.00    -0.237 OA
ATOM     94  O   UNL A   1      43.984  26.470  39.210  1.00  0.00    -0.744 OA
ENDBRANCH  87  91
ENDBRANCH  61  84
ENDBRANCH  35  36
ENDBRANCH  27  30
ENDBRANCH  25  26
ENDBRANCH   1  25
TORSDOF 16
ENDMDL
MODEL 3
REMARK VINA RESULT:     -11.9      1.816      7.851
REMARK SMILES CC1(C)C(C(=O)N[C@H](C(=O)NCCCNC(=O)c2ccc(-c3c4nc(c(-c5cc(S(=O)(=O)[O-])ccc5F)c5ccc([nH]5)c(-c5cc(S(=O)(=O)[O-])ccc5F)c5nc(c(-c6cc(S(=O)(=O)[O-])ccc6F)c6ccc3[nH]6)C=C5)C=C4)cc2)c2ccccc2)C1(C)C
REMARK SMILES IDX 13 1 12 2 11 3 9 4 10 5 8 7 7 8 5 9 6 10 4 12 1 13 2 14 3 15
REMARK SMILES IDX 87 16 88 17 89 18 81 19 82 20 86 21 83 22 85 23 84 24 14 25
REMARK SMILES IDX 15 26 16 27 17 29 18 30 19 31 80 32 20 33 79 34 21 35 22 36
REMARK SMILES IDX 23 37 73 38 24 39 78 40 72 41 74 42 25 43 77 44 71 45 70 46
REMARK SMILES IDX 26 48 58 49 38 50 57 51 39 52 42 53 56 54 75 55 40 56 41 57
REMARK SMILES IDX 55 59 76 60 43 61 27 62 28 63 36 64 29 65 35 66 37 67 34 68
REMARK SMILES IDX 30 69 31 70 32 71 33 72 59 73 60 74 68 75 61 76 67 77 69 78
REMARK SMILES IDX 66 79 62 80 63 81 64 82 65 83 44 84 45 85 53 86 46 87 52 88
REMARK SMILES IDX 54 89 51 90 47 91 48 92 49 93 50 94
REMARK H PARENT 11 6 7 11 15 28 74 47 42 58
REMARK Flexibility Score: inf
ROOT
ATOM      1  C   UNL A   1      31.236  31.987  26.131  1.00  0.00     0.042 C 
ENDROOT
BRANCH   1   2
ATOM      2  C   UNL A   1      31.063  30.515  25.709  1.00  0.00     0.117 C 
BRANCH   2   3
ATOM      3  N   UNL A   1      32.171  30.095  24.860  1.00  0.00    -0.354 N 
ATOM      4  C   UNL A   1      32.359  28.977  24.090  1.00  0.00     0.247 C 
ATOM      5  O   UNL A   1      33.507  28.811  23.655  1.00  0.00    -0.272 OA
ATOM      6  H   UNL A   1      32.922  30.731  24.834  1.00  0.00     0.163 HD
BRANCH   4   7
ATOM      7  C   UNL A   1      31.195  28.023  23.655  1.00  0.00     0.202 C 
BRANCH   7   8
ATOM      8  N   UNL A   1      30.793  27.378  24.901  1.00  0.00    -0.340 N 
ATOM      9  C   UNL A   1      31.196  26.274  25.587  1.00  0.00     0.225 C 
ATOM     10  O   UNL A   1      30.917  26.232  26.774  1.00  0.00    -0.275 OA
ATOM     11  H   UNL A   1      30.056  27.853  25.352  1.00  0.00     0.164 HD
BRANCH   9  12
ATOM     12  C   UNL A   1      31.813  25.049  25.007  1.00  0.00     0.091 C 
ATOM     13  C   UNL A   1      32.382  23.203  23.342  1.00  0.00     0.012 C 
ATOM     14  C   UNL A   1      32.722  24.601  23.865  1.00  0.00    -0.017 C 
ATOM     15  C   UNL A   1      33.417  25.387  22.782  1.00  0.00     0.012 C 
ATOM     16  C   UNL A   1      33.286  24.775  25.285  1.00  0.00    -0.017 C 
ATOM     17  C   UNL A   1      33.671  23.545  26.068  1.00  0.00     0.012 C 
ATOM     18  C   UNL A   1      34.158  25.967  25.631  1.00  0.00     0.012 C 
ENDBRANCH   9  12
ENDBRANCH   7   8
BRANCH   7  19
ATOM     19  C   UNL A   1      30.035  28.619  22.863  1.00  0.00    -0.016 A 
ATOM     20  C   UNL A   1      30.191  29.721  22.010  1.00  0.00     0.006 A 
ATOM     21  C   UNL A   1      28.719  28.260  23.148  1.00  0.00     0.006 A 
ATOM     22  C   UNL A   1      29.103  30.532  21.661  1.00  0.00     0.000 A 
ATOM     23  C   UNL A   1      27.627  29.067  22.833  1.00  0.00     0.000 A 
ATOM     24  C   UNL A   1      27.827  30.237  22.125  1.00  0.00     0.000 A 
ENDBRANCH   7  19
ENDBRANCH   4   7
ENDBRANCH   2   3
ENDBRANCH   1   2
BRANCH   1  25
ATOM     25  C   UNL A   1      32.247  32.211  27.249  1.00  0.00     0.118 C 
BRANCH  25  26
ATOM     26  N   UNL A   1      32.524  33.620  27.447  1.00  0.00    -0.352 N 
ATOM     27  C   UNL A   1      33.398  34.283  28.278  1.00  0.00     0.251 C 
ATOM     28  H   UNL A   1      31.984  34.216  26.880  1.00  0.00     0.163 HD
ATOM     29  O   UNL A   1      33.215  35.493  28.425  1.00  0.00    -0.269 OA
BRANCH  27  30
ATOM     30  C   UNL A   1      34.514  33.622  29.016  1.00  0.00     0.039 A 
ATOM     31  C   UNL A   1      35.826  33.892  28.595  1.00  0.00     0.014 A 
ATOM     32  C   UNL A   1      34.329  32.660  30.010  1.00  0.00     0.014 A 
ATOM     33  C   UNL A   1      36.920  33.221  29.160  1.00  0.00     0.010 A 
ATOM     34  C   UNL A   1      35.427  32.059  30.642  1.00  0.00     0.010 A 
ATOM     35  C   UNL A   1      36.739  32.304  30.206  1.00  0.00    -0.014 A 
BRANCH  35  36
ATOM     36  C   UNL A   1      37.885  31.546  30.796  1.00  0.00     0.031 A 
ATOM     37  C   UNL A   1      38.327  31.821  32.217  1.00  0.00     0.074 A 
ATOM     38  C   UNL A   1      38.552  30.629  30.063  1.00  0.00     0.049 A 
ATOM     39  N   UNL A   1      39.356  31.348  32.876  1.00  0.00    -0.248 NA
ATOM     40  C   UNL A   1      37.519  32.779  32.986  1.00  0.00     0.031 C 
ATOM     41  C   UNL A   1      38.244  30.268  28.678  1.00  0.00     0.029 A 
ATOM     42  N   UNL A   1      39.631  29.836  30.376  1.00  0.00    -0.354 N 
ATOM     43  C   UNL A   1      39.329  31.963  34.126  1.00  0.00     0.074 A 
ATOM     44  C   UNL A   1      38.219  32.893  34.105  1.00  0.00     0.031 C 
ATOM     45  C   UNL A   1      39.090  29.307  28.273  1.00  0.00     0.029 A 
ATOM     46  C   UNL A   1      40.040  29.019  29.345  1.00  0.00     0.049 A 
ATOM     47  H   UNL A   1      40.070  29.851  31.257  1.00  0.00     0.167 HD
ATOM     48  C   UNL A   1      40.130  31.758  35.201  1.00  0.00     0.034 A 
ATOM     49  C   UNL A   1      41.068  28.150  29.263  1.00  0.00     0.034 A 
ATOM     50  C   UNL A   1      41.217  30.809  35.227  1.00  0.00     0.049 A 
ATOM     51  C   UNL A   1      41.972  27.967  30.460  1.00  0.00     0.074 A 
ATOM     52  C   UNL A   1      42.069  30.500  36.274  1.00  0.00     0.029 A 
ATOM     53  N   UNL A   1      41.600  30.008  34.159  1.00  0.00    -0.354 N 
ATOM     54  N   UNL A   1      41.915  28.549  31.635  1.00  0.00    -0.248 NA
ATOM     55  C   UNL A   1      43.072  27.003  30.319  1.00  0.00     0.031 C 
ATOM     56  C   UNL A   1      43.002  29.562  35.822  1.00  0.00     0.029 A 
ATOM     57  C   UNL A   1      42.687  29.225  34.517  1.00  0.00     0.049 A 
ATOM     58  H   UNL A   1      41.164  30.000  33.277  1.00  0.00     0.167 HD
ATOM     59  C   UNL A   1      42.948  27.989  32.384  1.00  0.00     0.074 A 
ATOM     60  C   UNL A   1      43.598  27.015  31.534  1.00  0.00     0.031 C 
ATOM     61  C   UNL A   1      43.325  28.253  33.662  1.00  0.00     0.034 A 
BRANCH  48  62
ATOM     62  C   UNL A   1      39.867  32.586  36.439  1.00  0.00     0.023 A 
ATOM     63  C   UNL A   1      38.953  32.170  37.424  1.00  0.00     0.031 A 
ATOM     64  C   UNL A   1      40.529  33.812  36.635  1.00  0.00     0.131 A 
ATOM     65  C   UNL A   1      38.672  33.003  38.517  1.00  0.00     0.055 A 
ATOM     66  C   UNL A   1      40.306  34.597  37.769  1.00  0.00     0.041 A 
ATOM     67  F   UNL A   1      41.400  34.273  35.723  1.00  0.00    -0.206 F 
ATOM     68  C   UNL A   1      39.362  34.201  38.711  1.00  0.00     0.022 A 
BRANCH  65  69
ATOM     69  S   UNL A   1      37.291  32.561  39.607  1.00  0.00     0.124 S 
ATOM     70  O   UNL A   1      37.604  31.170  39.928  1.00  0.00    -0.237 OA
ATOM     71  O   UNL A   1      37.433  33.516  40.700  1.00  0.00    -0.237 OA
ATOM     72  O   UNL A   1      36.114  32.749  38.762  1.00  0.00    -0.744 OA
ENDBRANCH  65  69
ENDBRANCH  48  62
BRANCH  49  73
ATOM     73  C   UNL A   1      41.326  27.385  28.006  1.00  0.00     0.023 A 
ATOM     74  C   UNL A   1      41.019  26.017  27.918  1.00  0.00     0.031 A 
ATOM     75  C   UNL A   1      41.951  27.989  26.900  1.00  0.00     0.131 A 
ATOM     76  C   UNL A   1      41.393  25.285  26.780  1.00  0.00     0.055 A 
ATOM     77  C   UNL A   1      42.264  27.270  25.745  1.00  0.00     0.041 A 
ATOM     78  F   UNL A   1      42.267  29.294  26.928  1.00  0.00    -0.206 F 
ATOM     79  C   UNL A   1      42.000  25.906  25.687  1.00  0.00     0.022 A 
BRANCH  76  80
ATOM     80  S   UNL A   1      41.180  23.483  26.799  1.00  0.00     0.124 S 
ATOM     81  O   UNL A   1      39.749  23.352  26.551  1.00  0.00    -0.237 OA
ATOM     82  O   UNL A   1      42.061  23.064  25.714  1.00  0.00    -0.237 OA
ATOM     83  O   UNL A   1      41.619  23.104  28.140  1.00  0.00    -0.744 OA
ENDBRANCH  76  80
ENDBRANCH  49  73
BRANCH  61  84
ATOM     84  C   UNL A   1      44.454  27.430  34.231  1.00  0.00     0.023 A 
ATOM     85  C   UNL A   1      44.244  26.145  34.761  1.00  0.00     0.031 A 
ATOM     86  C   UNL A   1      45.763  27.948  34.253  1.00  0.00     0.131 A 
ATOM     87  C   UNL A   1      45.311  25.446  35.344  1.00  0.00     0.055 A 
ATOM     88  C   UNL A   1      46.832  27.222  34.778  1.00  0.00     0.041 A 
ATOM     89  F   UNL A   1      46.022  29.170  33.762  1.00  0.00    -0.206 F 
ATOM     90  C   UNL A   1      46.607  25.969  35.341  1.00  0.00     0.022 A 
BRANCH  87  91
ATOM     91  S   UNL A   1      44.967  23.880  36.193  1.00  0.00     0.124 S 
ATOM     92  O   UNL A   1      46.198  23.133  35.964  1.00  0.00    -0.237 OA
ATOM     93  O   UNL A   1      44.730  24.315  37.566  1.00  0.00    -0.237 OA
ATOM     94  O   UNL A   1      43.789  23.364  35.497  1.00  0.00    -0.744 OA
ENDBRANCH  87  91
ENDBRANCH  61  84
ENDBRANCH  35  36
ENDBRANCH  27  30
ENDBRANCH  25  26
ENDBRANCH   1  25
TORSDOF 16
ENDMDL
