MODEL 1
REMARK VINA RESULT:     -12.5      0.000      0.000
REMARK SMILES C[C@]1(C(=O)N2CCC(CC(=O)NCCCNC(=O)c3ccc(-c4c5nc(c(-c6cc(S(=O)(=O)[O-])ccc6F)c6ccc([nH]6)c(-c6cc(S(=O)(=O)[O-])ccc6F)c6nc(c(-c7cc(S(=O)(=O)[O-])ccc7F)c7ccc4[nH]7)C=C6)C=C5)cc3)CC2)CCC[NH2+]C1
REMARK SMILES IDX 14 1 13 2 12 3 10 4 11 5 9 7 8 8 3 9 4 10 5 11 6 12 83 13
REMARK SMILES IDX 7 14 82 15 2 16 1 17 84 18 88 19 85 20 87 21 86 22 15 25
REMARK SMILES IDX 16 26 17 27 18 29 19 30 20 31 81 32 21 33 80 34 22 35 23 36
REMARK SMILES IDX 24 37 74 38 25 39 79 40 73 41 75 42 26 43 78 44 72 45 71 46
REMARK SMILES IDX 27 48 59 49 39 50 58 51 40 52 43 53 57 54 76 55 41 56 42 57
REMARK SMILES IDX 56 59 77 60 44 61 28 62 29 63 37 64 30 65 36 66 38 67 35 68
REMARK SMILES IDX 31 69 32 70 33 71 34 72 60 73 61 74 69 75 62 76 68 77 70 78
REMARK SMILES IDX 67 79 63 80 64 81 65 82 66 83 45 84 46 85 54 86 47 87 53 88
REMARK SMILES IDX 55 89 52 90 48 91 49 92 50 93 51 94
REMARK H PARENT 12 6 87 23 87 24 16 28 75 47 43 58
REMARK Flexibility Score: inf
ROOT
ATOM      1  C   UNL A   1      33.569  28.990  25.661  1.00  0.00     0.042 C 
ENDROOT
BRANCH   1   2
ATOM      2  C   UNL A   1      33.742  27.470  25.668  1.00  0.00     0.117 C 
BRANCH   2   3
ATOM      3  N   UNL A   1      32.652  26.791  26.360  1.00  0.00    -0.356 N 
ATOM      4  C   UNL A   1      32.063  25.576  26.150  1.00  0.00     0.220 C 
ATOM      5  O   UNL A   1      31.119  25.254  26.872  1.00  0.00    -0.275 OA
ATOM      6  H   UNL A   1      32.272  27.298  27.114  1.00  0.00     0.163 HD
BRANCH   4   7
ATOM      7  C   UNL A   1      32.560  24.639  25.064  1.00  0.00     0.103 C 
BRANCH   7   8
ATOM      8  C   UNL A   1      33.784  23.776  25.457  1.00  0.00     0.002 C 
ATOM      9  C   UNL A   1      34.611  19.645  24.882  1.00  0.00     0.234 C 
ATOM     10  O   UNL A   1      35.740  19.152  24.821  1.00  0.00    -0.274 OA
ATOM     11  N   UNL A   1      34.457  20.989  25.149  1.00  0.00    -0.342 N 
ATOM     12  C   UNL A   1      35.232  21.940  24.377  1.00  0.00     0.120 C 
ATOM     13  C   UNL A   1      34.216  21.432  26.506  1.00  0.00     0.120 C 
ATOM     14  C   UNL A   1      34.404  23.198  24.162  1.00  0.00     0.026 C 
ATOM     15  C   UNL A   1      33.381  22.699  26.478  1.00  0.00     0.026 C 
BRANCH   9  16
ATOM     16  C   UNL A   1      33.350  18.858  24.420  1.00  0.00     0.095 C 
ATOM     17  C   UNL A   1      32.375  19.918  23.849  1.00  0.00     0.028 C 
ATOM     18  C   UNL A   1      33.542  17.781  23.329  1.00  0.00     0.028 C 
ATOM     19  C   UNL A   1      32.695  18.235  25.679  1.00  0.00     0.277 C 
ATOM     20  C   UNL A   1      33.995  16.418  23.851  1.00  0.00     0.063 C 
ATOM     21  N   UNL A   1      33.310  16.978  26.129  1.00  0.00    -0.345 N 
ATOM     22  C   UNL A   1      33.232  15.964  25.084  1.00  0.00     0.260 C 
ATOM     23  H   UNL A   1      34.290  17.148  26.359  1.00  0.00     0.346 HD
ATOM     24  H   UNL A   1      32.808  16.642  26.950  1.00  0.00     0.346 HD
ENDBRANCH   9  16
ENDBRANCH   7   8
ENDBRANCH   4   7
ENDBRANCH   2   3
ENDBRANCH   1   2
BRANCH   1  25
ATOM     25  C   UNL A   1      32.766  29.537  26.830  1.00  0.00     0.118 C 
BRANCH  25  26
ATOM     26  N   UNL A   1      32.896  30.977  26.943  1.00  0.00    -0.352 N 
ATOM     27  C   UNL A   1      33.836  31.737  27.601  1.00  0.00     0.251 C 
ATOM     28  H   UNL A   1      32.200  31.493  26.475  1.00  0.00     0.163 HD
ATOM     29  O   UNL A   1      33.593  32.930  27.780  1.00  0.00    -0.269 OA
BRANCH  27  30
ATOM     30  C   UNL A   1      35.109  31.157  28.109  1.00  0.00     0.039 A 
ATOM     31  C   UNL A   1      35.073  29.898  28.722  1.00  0.00     0.014 A 
ATOM     32  C   UNL A   1      36.319  31.856  28.073  1.00  0.00     0.014 A 
ATOM     33  C   UNL A   1      36.237  29.342  29.269  1.00  0.00     0.010 A 
ATOM     34  C   UNL A   1      37.496  31.260  28.526  1.00  0.00     0.010 A 
ATOM     35  C   UNL A   1      37.465  30.011  29.163  1.00  0.00    -0.014 A 
BRANCH  35  36
ATOM     36  C   UNL A   1      38.704  29.471  29.793  1.00  0.00     0.031 A 
ATOM     37  C   UNL A   1      39.143  29.989  31.142  1.00  0.00     0.074 A 
ATOM     38  C   UNL A   1      39.456  28.556  29.152  1.00  0.00     0.049 A 
ATOM     39  N   UNL A   1      40.229  29.724  31.824  1.00  0.00    -0.248 NA
ATOM     40  C   UNL A   1      38.253  30.963  31.791  1.00  0.00     0.031 C 
ATOM     41  C   UNL A   1      39.160  27.990  27.834  1.00  0.00     0.029 A 
ATOM     42  N   UNL A   1      40.627  27.939  29.521  1.00  0.00    -0.354 N 
ATOM     43  C   UNL A   1      40.164  30.516  32.967  1.00  0.00     0.074 A 
ATOM     44  C   UNL A   1      38.967  31.321  32.847  1.00  0.00     0.031 C 
ATOM     45  C   UNL A   1      40.108  27.092  27.519  1.00  0.00     0.029 A 
ATOM     46  C   UNL A   1      41.101  27.046  28.589  1.00  0.00     0.049 A 
ATOM     47  H   UNL A   1      41.084  28.121  30.374  1.00  0.00     0.167 HD
ATOM     48  C   UNL A   1      41.005  30.553  34.032  1.00  0.00     0.034 A 
ATOM     49  C   UNL A   1      42.212  26.282  28.592  1.00  0.00     0.034 A 
ATOM     50  C   UNL A   1      42.180  29.725  34.154  1.00  0.00     0.049 A 
ATOM     51  C   UNL A   1      43.139  26.341  29.781  1.00  0.00     0.074 A 
ATOM     52  C   UNL A   1      43.080  29.650  35.202  1.00  0.00     0.029 A 
ATOM     53  N   UNL A   1      42.618  28.822  33.192  1.00  0.00    -0.354 N 
ATOM     54  N   UNL A   1      43.049  27.078  30.864  1.00  0.00    -0.248 NA
ATOM     55  C   UNL A   1      44.308  25.453  29.752  1.00  0.00     0.031 C 
ATOM     56  C   UNL A   1      44.089  28.745  34.854  1.00  0.00     0.029 A 
ATOM     57  C   UNL A   1      43.782  28.201  33.616  1.00  0.00     0.049 A 
ATOM     58  H   UNL A   1      42.166  28.649  32.335  1.00  0.00     0.167 HD
ATOM     59  C   UNL A   1      44.131  26.713  31.661  1.00  0.00     0.074 A 
ATOM     60  C   UNL A   1      44.852  25.687  30.937  1.00  0.00     0.031 C 
ATOM     61  C   UNL A   1      44.492  27.179  32.884  1.00  0.00     0.034 A 
BRANCH  48  62
ATOM     62  C   UNL A   1      40.684  31.540  35.132  1.00  0.00     0.023 A 
ATOM     63  C   UNL A   1      39.678  31.282  36.083  1.00  0.00     0.031 A 
ATOM     64  C   UNL A   1      41.353  32.773  35.205  1.00  0.00     0.131 A 
ATOM     65  C   UNL A   1      39.305  32.279  36.997  1.00  0.00     0.055 A 
ATOM     66  C   UNL A   1      41.040  33.726  36.178  1.00  0.00     0.041 A 
ATOM     67  F   UNL A   1      42.310  33.086  34.316  1.00  0.00    -0.206 F 
ATOM     68  C   UNL A   1      39.997  33.490  37.068  1.00  0.00     0.022 A 
BRANCH  65  69
ATOM     69  S   UNL A   1      37.797  32.033  37.972  1.00  0.00     0.124 S 
ATOM     70  O   UNL A   1      36.935  33.093  37.452  1.00  0.00    -0.237 OA
ATOM     71  O   UNL A   1      37.414  30.670  37.627  1.00  0.00    -0.237 OA
ATOM     72  O   UNL A   1      38.244  32.228  39.350  1.00  0.00    -0.744 OA
ENDBRANCH  65  69
ENDBRANCH  48  62
BRANCH  49  73
ATOM     73  C   UNL A   1      42.516  25.387  27.440  1.00  0.00     0.023 A 
ATOM     74  C   UNL A   1      42.067  24.056  27.423  1.00  0.00     0.031 A 
ATOM     75  C   UNL A   1      43.293  25.835  26.358  1.00  0.00     0.131 A 
ATOM     76  C   UNL A   1      42.436  23.206  26.369  1.00  0.00     0.055 A 
ATOM     77  C   UNL A   1      43.616  25.000  25.287  1.00  0.00     0.041 A 
ATOM     78  F   UNL A   1      43.741  27.100  26.322  1.00  0.00    -0.206 F 
ATOM     79  C   UNL A   1      43.198  23.672  25.295  1.00  0.00     0.022 A 
BRANCH  76  80
ATOM     80  S   UNL A   1      41.966  21.457  26.460  1.00  0.00     0.124 S 
ATOM     81  O   UNL A   1      40.526  21.524  26.244  1.00  0.00    -0.237 OA
ATOM     82  O   UNL A   1      42.751  20.875  25.376  1.00  0.00    -0.237 OA
ATOM     83  O   UNL A   1      42.378  21.064  27.806  1.00  0.00    -0.744 OA
ENDBRANCH  76  80
ENDBRANCH  49  73
BRANCH  61  84
ATOM     84  C   UNL A   1      45.688  26.534  33.538  1.00  0.00     0.023 A 
ATOM     85  C   UNL A   1      45.567  25.399  34.358  1.00  0.00     0.031 A 
ATOM     86  C   UNL A   1      46.972  27.076  33.343  1.00  0.00     0.131 A 
ATOM     87  C   UNL A   1      46.701  24.876  34.998  1.00  0.00     0.055 A 
ATOM     88  C   UNL A   1      48.104  26.517  33.938  1.00  0.00     0.041 A 
ATOM     89  F   UNL A   1      47.145  28.160  32.569  1.00  0.00    -0.206 F 
ATOM     90  C   UNL A   1      47.969  25.419  34.782  1.00  0.00     0.022 A 
BRANCH  87  91
ATOM     91  S   UNL A   1      46.483  23.527  36.191  1.00  0.00     0.124 S 
ATOM     92  O   UNL A   1      45.761  22.535  35.401  1.00  0.00    -0.237 OA
ATOM     93  O   UNL A   1      47.860  23.189  36.535  1.00  0.00    -0.237 OA
ATOM     94  O   UNL A   1      45.709  24.143  37.268  1.00  0.00    -0.744 OA
ENDBRANCH  87  91
ENDBRANCH  61  84
ENDBRANCH  35  36
ENDBRANCH  27  30
ENDBRANCH  25  26
ENDBRANCH   1  25
TORSDOF 15
ENDMDL
MODEL 2
REMARK VINA RESULT:     -12.4      4.988     10.479
REMARK SMILES C[C@]1(C(=O)N2CCC(CC(=O)NCCCNC(=O)c3ccc(-c4c5nc(c(-c6cc(S(=O)(=O)[O-])ccc6F)c6ccc([nH]6)c(-c6cc(S(=O)(=O)[O-])ccc6F)c6nc(c(-c7cc(S(=O)(=O)[O-])ccc7F)c7ccc4[nH]7)C=C6)C=C5)cc3)CC2)CCC[NH2+]C1
REMARK SMILES IDX 14 1 13 2 12 3 10 4 11 5 9 7 8 8 3 9 4 10 5 11 6 12 83 13
REMARK SMILES IDX 7 14 82 15 2 16 1 17 84 18 88 19 85 20 87 21 86 22 15 25
REMARK SMILES IDX 16 26 17 27 18 29 19 30 20 31 81 32 21 33 80 34 22 35 23 36
REMARK SMILES IDX 24 37 74 38 25 39 79 40 73 41 75 42 26 43 78 44 72 45 71 46
REMARK SMILES IDX 27 48 59 49 39 50 58 51 40 52 43 53 57 54 76 55 41 56 42 57
REMARK SMILES IDX 56 59 77 60 44 61 28 62 29 63 37 64 30 65 36 66 38 67 35 68
REMARK SMILES IDX 31 69 32 70 33 71 34 72 60 73 61 74 69 75 62 76 68 77 70 78
REMARK SMILES IDX 67 79 63 80 64 81 65 82 66 83 45 84 46 85 54 86 47 87 53 88
REMARK SMILES IDX 55 89 52 90 48 91 49 92 50 93 51 94
REMARK H PARENT 12 6 87 23 87 24 16 28 75 47 43 58
REMARK Flexibility Score: inf
ROOT
ATOM      1  C   UNL A   1      36.043  20.998  25.484  1.00  0.00     0.042 C 
ENDROOT
BRANCH   1   2
ATOM      2  C   UNL A   1      35.594  22.362  26.010  1.00  0.00     0.117 C 
BRANCH   2   3
ATOM      3  N   UNL A   1      34.488  22.256  26.955  1.00  0.00    -0.356 N 
ATOM      4  C   UNL A   1      33.251  22.836  26.972  1.00  0.00     0.220 C 
ATOM      5  O   UNL A   1      32.509  22.598  27.925  1.00  0.00    -0.275 OA
ATOM      6  H   UNL A   1      34.663  21.657  27.719  1.00  0.00     0.163 HD
BRANCH   4   7
ATOM      7  C   UNL A   1      32.794  23.742  25.844  1.00  0.00     0.103 C 
BRANCH   7   8
ATOM      8  C   UNL A   1      32.978  25.257  26.107  1.00  0.00     0.002 C 
ATOM      9  C   UNL A   1      31.170  28.663  24.313  1.00  0.00     0.234 C 
ATOM     10  O   UNL A   1      31.038  29.761  24.858  1.00  0.00    -0.274 OA
ATOM     11  N   UNL A   1      31.843  27.647  24.961  1.00  0.00    -0.342 N 
ATOM     12  C   UNL A   1      31.475  27.338  26.328  1.00  0.00     0.120 C 
ATOM     13  C   UNL A   1      33.248  27.427  24.694  1.00  0.00     0.120 C 
ATOM     14  C   UNL A   1      31.615  25.840  26.554  1.00  0.00     0.026 C 
ATOM     15  C   UNL A   1      33.567  25.954  24.869  1.00  0.00     0.026 C 
BRANCH   9  16
ATOM     16  C   UNL A   1      30.389  28.293  23.020  1.00  0.00     0.095 C 
ATOM     17  C   UNL A   1      30.937  26.914  22.574  1.00  0.00     0.028 C 
ATOM     18  C   UNL A   1      28.853  28.160  23.127  1.00  0.00     0.028 C 
ATOM     19  C   UNL A   1      30.763  29.329  21.930  1.00  0.00     0.277 C 
ATOM     20  C   UNL A   1      28.090  29.478  23.011  1.00  0.00     0.063 C 
ATOM     21  N   UNL A   1      30.020  30.596  22.012  1.00  0.00    -0.345 N 
ATOM     22  C   UNL A   1      28.587  30.361  21.879  1.00  0.00     0.260 C 
ATOM     23  H   UNL A   1      30.205  31.035  22.915  1.00  0.00     0.346 HD
ATOM     24  H   UNL A   1      30.324  31.205  21.253  1.00  0.00     0.346 HD
ENDBRANCH   9  16
ENDBRANCH   7   8
ENDBRANCH   4   7
ENDBRANCH   2   3
ENDBRANCH   1   2
BRANCH   1  25
ATOM     25  C   UNL A   1      37.381  21.010  24.764  1.00  0.00     0.118 C 
BRANCH  25  26
ATOM     26  N   UNL A   1      38.301  20.036  25.322  1.00  0.00    -0.352 N 
ATOM     27  C   UNL A   1      39.522  20.212  25.931  1.00  0.00     0.251 C 
ATOM     28  H   UNL A   1      38.003  19.100  25.254  1.00  0.00     0.163 HD
ATOM     29  O   UNL A   1      40.239  19.225  26.084  1.00  0.00    -0.269 OA
BRANCH  27  30
ATOM     30  C   UNL A   1      39.996  21.549  26.383  1.00  0.00     0.039 A 
ATOM     31  C   UNL A   1      39.343  22.690  25.899  1.00  0.00     0.014 A 
ATOM     32  C   UNL A   1      41.118  21.709  27.201  1.00  0.00     0.014 A 
ATOM     33  C   UNL A   1      39.795  23.968  26.250  1.00  0.00     0.010 A 
ATOM     34  C   UNL A   1      41.506  22.979  27.632  1.00  0.00     0.010 A 
ATOM     35  C   UNL A   1      40.874  24.127  27.133  1.00  0.00    -0.014 A 
BRANCH  35  36
ATOM     36  C   UNL A   1      41.415  25.474  27.471  1.00  0.00     0.031 A 
ATOM     37  C   UNL A   1      42.814  25.846  27.044  1.00  0.00     0.074 A 
ATOM     38  C   UNL A   1      40.681  26.348  28.186  1.00  0.00     0.049 A 
ATOM     39  N   UNL A   1      43.509  26.923  27.310  1.00  0.00    -0.248 NA
ATOM     40  C   UNL A   1      43.540  24.851  26.239  1.00  0.00     0.031 C 
ATOM     41  C   UNL A   1      39.324  26.106  28.683  1.00  0.00     0.029 A 
ATOM     42  N   UNL A   1      40.972  27.616  28.625  1.00  0.00    -0.354 N 
ATOM     43  C   UNL A   1      44.758  26.724  26.727  1.00  0.00     0.074 A 
ATOM     44  C   UNL A   1      44.745  25.395  26.158  1.00  0.00     0.031 C 
ATOM     45  C   UNL A   1      38.894  27.201  29.333  1.00  0.00     0.029 A 
ATOM     46  C   UNL A   1      39.953  28.206  29.337  1.00  0.00     0.049 A 
ATOM     47  H   UNL A   1      41.831  28.063  28.445  1.00  0.00     0.167 HD
ATOM     48  C   UNL A   1      45.811  27.578  26.647  1.00  0.00     0.034 A 
ATOM     49  C   UNL A   1      39.882  29.414  29.931  1.00  0.00     0.034 A 
ATOM     50  C   UNL A   1      45.803  28.913  27.194  1.00  0.00     0.049 A 
ATOM     51  C   UNL A   1      41.065  30.347  29.838  1.00  0.00     0.074 A 
ATOM     52  C   UNL A   1      46.795  29.876  27.138  1.00  0.00     0.029 A 
ATOM     53  N   UNL A   1      44.744  29.477  27.897  1.00  0.00    -0.354 N 
ATOM     54  N   UNL A   1      42.229  30.152  29.262  1.00  0.00    -0.248 NA
ATOM     55  C   UNL A   1      40.915  31.667  30.462  1.00  0.00     0.031 C 
ATOM     56  C   UNL A   1      46.360  31.000  27.851  1.00  0.00     0.029 A 
ATOM     57  C   UNL A   1      45.067  30.766  28.293  1.00  0.00     0.049 A 
ATOM     58  H   UNL A   1      43.890  29.027  28.085  1.00  0.00     0.167 HD
ATOM     59  C   UNL A   1      42.935  31.340  29.424  1.00  0.00     0.074 A 
ATOM     60  C   UNL A   1      42.063  32.247  30.144  1.00  0.00     0.031 C 
ATOM     61  C   UNL A   1      44.188  31.658  29.010  1.00  0.00     0.034 A 
BRANCH  48  62
ATOM     62  C   UNL A   1      47.060  27.073  25.960  1.00  0.00     0.023 A 
ATOM     63  C   UNL A   1      48.053  26.367  26.664  1.00  0.00     0.031 A 
ATOM     64  C   UNL A   1      47.287  27.343  24.600  1.00  0.00     0.131 A 
ATOM     65  C   UNL A   1      49.264  26.044  26.033  1.00  0.00     0.055 A 
ATOM     66  C   UNL A   1      48.456  26.935  23.953  1.00  0.00     0.041 A 
ATOM     67  F   UNL A   1      46.385  28.028  23.879  1.00  0.00    -0.206 F 
ATOM     68  C   UNL A   1      49.462  26.300  24.675  1.00  0.00     0.022 A 
BRANCH  65  69
ATOM     69  S   UNL A   1      50.634  25.439  27.055  1.00  0.00     0.124 S 
ATOM     70  O   UNL A   1      51.073  26.667  27.714  1.00  0.00    -0.237 OA
ATOM     71  O   UNL A   1      49.983  24.452  27.907  1.00  0.00    -0.237 OA
ATOM     72  O   UNL A   1      51.577  24.897  26.078  1.00  0.00    -0.744 OA
ENDBRANCH  65  69
ENDBRANCH  48  62
BRANCH  49  73
ATOM     73  C   UNL A   1      38.651  29.824  30.663  1.00  0.00     0.023 A 
ATOM     74  C   UNL A   1      37.679  30.628  30.045  1.00  0.00     0.031 A 
ATOM     75  C   UNL A   1      38.446  29.453  32.003  1.00  0.00     0.131 A 
ATOM     76  C   UNL A   1      36.569  31.073  30.779  1.00  0.00     0.055 A 
ATOM     77  C   UNL A   1      37.316  29.858  32.715  1.00  0.00     0.041 A 
ATOM     78  F   UNL A   1      39.342  28.681  32.638  1.00  0.00    -0.206 F 
ATOM     79  C   UNL A   1      36.374  30.684  32.107  1.00  0.00     0.022 A 
BRANCH  76  80
ATOM     80  S   UNL A   1      35.417  32.232  29.992  1.00  0.00     0.124 S 
ATOM     81  O   UNL A   1      34.419  32.417  31.039  1.00  0.00    -0.237 OA
ATOM     82  O   UNL A   1      36.280  33.376  29.718  1.00  0.00    -0.237 OA
ATOM     83  O   UNL A   1      34.957  31.504  28.811  1.00  0.00    -0.744 OA
ENDBRANCH  76  80
ENDBRANCH  49  73
BRANCH  61  84
ATOM     84  C   UNL A   1      44.662  33.066  29.275  1.00  0.00     0.023 A 
ATOM     85  C   UNL A   1      44.518  34.090  28.323  1.00  0.00     0.031 A 
ATOM     86  C   UNL A   1      45.280  33.381  30.499  1.00  0.00     0.131 A 
ATOM     87  C   UNL A   1      45.035  35.367  28.589  1.00  0.00     0.055 A 
ATOM     88  C   UNL A   1      45.742  34.666  30.779  1.00  0.00     0.041 A 
ATOM     89  F   UNL A   1      45.442  32.439  31.443  1.00  0.00    -0.206 F 
ATOM     90  C   UNL A   1      45.633  35.665  29.817  1.00  0.00     0.022 A 
BRANCH  87  91
ATOM     91  S   UNL A   1      44.996  36.615  27.273  1.00  0.00     0.124 S 
ATOM     92  O   UNL A   1      43.581  36.640  26.919  1.00  0.00    -0.237 OA
ATOM     93  O   UNL A   1      45.505  37.802  27.953  1.00  0.00    -0.237 OA
ATOM     94  O   UNL A   1      45.882  36.061  26.249  1.00  0.00    -0.744 OA
ENDBRANCH  87  91
ENDBRANCH  61  84
ENDBRANCH  35  36
ENDBRANCH  27  30
ENDBRANCH  25  26
ENDBRANCH   1  25
TORSDOF 15
ENDMDL
MODEL 3
REMARK VINA RESULT:     -12.3      4.856     10.339
REMARK SMILES C[C@]1(C(=O)N2CCC(CC(=O)NCCCNC(=O)c3ccc(-c4c5nc(c(-c6cc(S(=O)(=O)[O-])ccc6F)c6ccc([nH]6)c(-c6cc(S(=O)(=O)[O-])ccc6F)c6nc(c(-c7cc(S(=O)(=O)[O-])ccc7F)c7ccc4[nH]7)C=C6)C=C5)cc3)CC2)CCC[NH2+]C1
REMARK SMILES IDX 14 1 13 2 12 3 10 4 11 5 9 7 8 8 3 9 4 10 5 11 6 12 83 13
REMARK SMILES IDX 7 14 82 15 2 16 1 17 84 18 88 19 85 20 87 21 86 22 15 25
REMARK SMILES IDX 16 26 17 27 18 29 19 30 20 31 81 32 21 33 80 34 22 35 23 36
REMARK SMILES IDX 24 37 74 38 25 39 79 40 73 41 75 42 26 43 78 44 72 45 71 46
REMARK SMILES IDX 27 48 59 49 39 50 58 51 40 52 43 53 57 54 76 55 41 56 42 57
REMARK SMILES IDX 56 59 77 60 44 61 28 62 29 63 37 64 30 65 36 66 38 67 35 68
REMARK SMILES IDX 31 69 32 70 33 71 34 72 60 73 61 74 69 75 62 76 68 77 70 78
REMARK SMILES IDX 67 79 63 80 64 81 65 82 66 83 45 84 46 85 54 86 47 87 53 88
REMARK SMILES IDX 55 89 52 90 48 91 49 92 50 93 51 94
REMARK H PARENT 12 6 87 23 87 24 16 28 75 47 43 58
REMARK Flexibility Score: inf
ROOT
ATOM      1  C   UNL A   1      36.269  21.907  24.315  1.00  0.00     0.042 C 
ENDROOT
BRANCH   1   2
ATOM      2  C   UNL A   1      34.819  22.379  24.190  1.00  0.00     0.117 C 
BRANCH   2   3
ATOM      3  N   UNL A   1      33.869  21.273  24.249  1.00  0.00    -0.356 N 
ATOM      4  C   UNL A   1      32.747  21.083  25.004  1.00  0.00     0.220 C 
ATOM      5  O   UNL A   1      32.135  20.021  24.881  1.00  0.00    -0.275 OA
ATOM      6  H   UNL A   1      34.073  20.530  23.635  1.00  0.00     0.163 HD
BRANCH   4   7
ATOM      7  C   UNL A   1      32.254  22.151  25.963  1.00  0.00     0.103 C 
BRANCH   7   8
ATOM      8  C   UNL A   1      31.024  22.953  25.472  1.00  0.00     0.002 C 
ATOM      9  C   UNL A   1      30.560  27.060  24.472  1.00  0.00     0.234 C 
ATOM     10  O   UNL A   1      29.712  27.507  23.696  1.00  0.00    -0.274 OA
ATOM     11  N   UNL A   1      30.572  25.716  24.785  1.00  0.00    -0.342 N 
ATOM     12  C   UNL A   1      30.521  24.755  23.701  1.00  0.00     0.120 C 
ATOM     13  C   UNL A   1      29.906  25.249  25.982  1.00  0.00     0.120 C 
ATOM     14  C   UNL A   1      31.353  23.538  24.077  1.00  0.00     0.026 C 
ATOM     15  C   UNL A   1      30.625  24.019  26.506  1.00  0.00     0.026 C 
BRANCH   9  16
ATOM     16  C   UNL A   1      31.783  27.910  24.923  1.00  0.00     0.095 C 
ATOM     17  C   UNL A   1      31.610  28.125  26.447  1.00  0.00     0.028 C 
ATOM     18  C   UNL A   1      33.189  27.307  24.704  1.00  0.00     0.028 C 
ATOM     19  C   UNL A   1      31.678  29.292  24.230  1.00  0.00     0.277 C 
ATOM     20  C   UNL A   1      33.766  27.525  23.306  1.00  0.00     0.063 C 
ATOM     21  N   UNL A   1      32.174  29.320  22.846  1.00  0.00    -0.345 N 
ATOM     22  C   UNL A   1      33.581  28.943  22.795  1.00  0.00     0.260 C 
ATOM     23  H   UNL A   1      31.630  28.665  22.282  1.00  0.00     0.346 HD
ATOM     24  H   UNL A   1      32.074  30.267  22.480  1.00  0.00     0.346 HD
ENDBRANCH   9  16
ENDBRANCH   7   8
ENDBRANCH   4   7
ENDBRANCH   2   3
ENDBRANCH   1   2
BRANCH   1  25
ATOM     25  C   UNL A   1      36.867  22.071  25.702  1.00  0.00     0.118 C 
BRANCH  25  26
ATOM     26  N   UNL A   1      37.970  21.155  25.923  1.00  0.00    -0.352 N 
ATOM     27  C   UNL A   1      39.282  21.406  26.254  1.00  0.00     0.251 C 
ATOM     28  H   UNL A   1      37.744  20.202  25.820  1.00  0.00     0.163 HD
ATOM     29  O   UNL A   1      40.095  20.492  26.129  1.00  0.00    -0.269 OA
BRANCH  27  30
ATOM     30  C   UNL A   1      39.736  22.740  26.734  1.00  0.00     0.039 A 
ATOM     31  C   UNL A   1      39.212  23.886  26.122  1.00  0.00     0.014 A 
ATOM     32  C   UNL A   1      40.726  22.890  27.708  1.00  0.00     0.014 A 
ATOM     33  C   UNL A   1      39.656  25.159  26.499  1.00  0.00     0.010 A 
ATOM     34  C   UNL A   1      41.096  24.159  28.155  1.00  0.00     0.010 A 
ATOM     35  C   UNL A   1      40.594  25.310  27.532  1.00  0.00    -0.014 A 
BRANCH  35  36
ATOM     36  C   UNL A   1      41.132  26.649  27.908  1.00  0.00     0.031 A 
ATOM     37  C   UNL A   1      42.563  26.999  27.575  1.00  0.00     0.074 A 
ATOM     38  C   UNL A   1      40.366  27.532  28.575  1.00  0.00     0.049 A 
ATOM     39  N   UNL A   1      43.255  28.066  27.889  1.00  0.00    -0.248 NA
ATOM     40  C   UNL A   1      43.325  25.995  26.818  1.00  0.00     0.031 C 
ATOM     41  C   UNL A   1      38.977  27.312  28.981  1.00  0.00     0.029 A 
ATOM     42  N   UNL A   1      40.648  28.796  29.035  1.00  0.00    -0.354 N 
ATOM     43  C   UNL A   1      44.537  27.848  27.390  1.00  0.00     0.074 A 
ATOM     44  C   UNL A   1      44.541  26.519  26.818  1.00  0.00     0.031 C 
ATOM     45  C   UNL A   1      38.521  28.412  29.603  1.00  0.00     0.029 A 
ATOM     46  C   UNL A   1      39.593  29.400  29.679  1.00  0.00     0.049 A 
ATOM     47  H   UNL A   1      41.524  29.229  28.914  1.00  0.00     0.167 HD
ATOM     48  C   UNL A   1      45.606  28.685  27.382  1.00  0.00     0.034 A 
ATOM     49  C   UNL A   1      39.502  30.609  30.270  1.00  0.00     0.034 A 
ATOM     50  C   UNL A   1      45.582  30.020  27.930  1.00  0.00     0.049 A 
ATOM     51  C   UNL A   1      40.702  31.523  30.258  1.00  0.00     0.074 A 
ATOM     52  C   UNL A   1      46.591  30.967  27.942  1.00  0.00     0.029 A 
ATOM     53  N   UNL A   1      44.488  30.599  28.562  1.00  0.00    -0.354 N 
ATOM     54  N   UNL A   1      41.898  31.311  29.760  1.00  0.00    -0.248 NA
ATOM     55  C   UNL A   1      40.532  32.845  30.874  1.00  0.00     0.031 C 
ATOM     56  C   UNL A   1      46.127  32.097  28.627  1.00  0.00     0.029 A 
ATOM     57  C   UNL A   1      44.804  31.882  28.982  1.00  0.00     0.049 A 
ATOM     58  H   UNL A   1      43.616  30.161  28.692  1.00  0.00     0.167 HD
ATOM     59  C   UNL A   1      42.610  32.488  29.972  1.00  0.00     0.074 A 
ATOM     60  C   UNL A   1      41.707  33.407  30.634  1.00  0.00     0.031 C 
ATOM     61  C   UNL A   1      43.893  32.787  29.642  1.00  0.00     0.034 A 
BRANCH  48  62
ATOM     62  C   UNL A   1      46.889  28.162  26.778  1.00  0.00     0.023 A 
ATOM     63  C   UNL A   1      47.137  28.238  25.395  1.00  0.00     0.031 A 
ATOM     64  C   UNL A   1      47.855  27.534  27.583  1.00  0.00     0.131 A 
ATOM     65  C   UNL A   1      48.268  27.611  24.849  1.00  0.00     0.055 A 
ATOM     66  C   UNL A   1      49.026  26.994  27.044  1.00  0.00     0.041 A 
ATOM     67  F   UNL A   1      47.669  27.415  28.908  1.00  0.00    -0.206 F 
ATOM     68  C   UNL A   1      49.227  27.012  25.668  1.00  0.00     0.022 A 
BRANCH  65  69
ATOM     69  S   UNL A   1      48.376  27.444  23.047  1.00  0.00     0.124 S 
ATOM     70  O   UNL A   1      47.208  28.207  22.611  1.00  0.00    -0.237 OA
ATOM     71  O   UNL A   1      49.674  28.038  22.752  1.00  0.00    -0.237 OA
ATOM     72  O   UNL A   1      48.283  26.002  22.829  1.00  0.00    -0.744 OA
ENDBRANCH  65  69
ENDBRANCH  48  62
BRANCH  49  73
ATOM     73  C   UNL A   1      38.231  31.037  30.920  1.00  0.00     0.023 A 
ATOM     74  C   UNL A   1      37.239  31.711  30.190  1.00  0.00     0.031 A 
ATOM     75  C   UNL A   1      38.006  30.815  32.290  1.00  0.00     0.131 A 
ATOM     76  C   UNL A   1      36.087  32.180  30.840  1.00  0.00     0.055 A 
ATOM     77  C   UNL A   1      36.837  31.240  32.923  1.00  0.00     0.041 A 
ATOM     78  F   UNL A   1      38.919  30.169  33.031  1.00  0.00    -0.206 F 
ATOM     79  C   UNL A   1      35.874  31.939  32.200  1.00  0.00     0.022 A 
BRANCH  76  80
ATOM     80  S   UNL A   1      34.904  33.178  29.896  1.00  0.00     0.124 S 
ATOM     81  O   UNL A   1      34.334  32.188  28.991  1.00  0.00    -0.237 OA
ATOM     82  O   UNL A   1      34.019  33.673  30.946  1.00  0.00    -0.237 OA
ATOM     83  O   UNL A   1      35.744  34.193  29.263  1.00  0.00    -0.744 OA
ENDBRANCH  76  80
ENDBRANCH  49  73
BRANCH  61  84
ATOM     84  C   UNL A   1      44.370  34.186  29.941  1.00  0.00     0.023 A 
ATOM     85  C   UNL A   1      44.224  35.235  29.016  1.00  0.00     0.031 A 
ATOM     86  C   UNL A   1      44.992  34.469  31.170  1.00  0.00     0.131 A 
ATOM     87  C   UNL A   1      44.745  36.504  29.313  1.00  0.00     0.055 A 
ATOM     88  C   UNL A   1      45.458  35.747  31.482  1.00  0.00     0.041 A 
ATOM     89  F   UNL A   1      45.157  33.504  32.090  1.00  0.00    -0.206 F 
ATOM     90  C   UNL A   1      45.347  36.770  30.545  1.00  0.00     0.022 A 
BRANCH  87  91
ATOM     91  S   UNL A   1      44.703  37.785  28.029  1.00  0.00     0.124 S 
ATOM     92  O   UNL A   1      44.858  36.999  26.809  1.00  0.00    -0.237 OA
ATOM     93  O   UNL A   1      43.392  38.391  28.235  1.00  0.00    -0.237 OA
ATOM     94  O   UNL A   1      45.840  38.642  28.362  1.00  0.00    -0.744 OA
ENDBRANCH  87  91
ENDBRANCH  61  84
ENDBRANCH  35  36
ENDBRANCH  27  30
ENDBRANCH  25  26
ENDBRANCH   1  25
TORSDOF 15
ENDMDL
