MODEL 1
REMARK VINA RESULT:     -11.5      0.000      0.000
REMARK SMILES COc1ccc(CC(=O)N[C@H](C)C(=O)NCCCNC(=O)c2ccc(-c3c4nc(c(-c5cc(S(=O)(=O)[O-])ccc5F)c5ccc([nH]5)c(-c5cc(S(=O)(=O)[O-])ccc5F)c5nc(c(-c6cc(S(=O)(=O)[O-])ccc6F)c6ccc3[nH]6)C=C5)C=C4)cc2)cc1F
REMARK SMILES IDX 16 1 15 2 13 3 14 4 11 6 12 7 10 8 8 9 9 10 7 12 6 13 3 14
REMARK SMILES IDX 4 15 86 16 5 17 85 18 87 19 2 20 1 21 17 22 18 23 19 24
REMARK SMILES IDX 20 25 21 27 22 28 23 29 84 30 24 31 83 32 25 33 26 34 27 35
REMARK SMILES IDX 77 36 28 37 82 38 76 39 78 40 29 41 81 42 75 43 74 44 30 46
REMARK SMILES IDX 62 47 42 48 61 49 43 50 46 51 60 52 79 53 44 54 45 55 59 57
REMARK SMILES IDX 80 58 47 59 31 60 32 61 40 62 33 63 39 64 41 65 38 66 34 67
REMARK SMILES IDX 35 68 36 69 37 70 63 71 64 72 72 73 65 74 71 75 73 76 70 77
REMARK SMILES IDX 66 78 67 79 68 80 69 81 48 82 49 83 57 84 50 85 56 86 58 87
REMARK SMILES IDX 55 88 51 89 52 90 53 91 54 92
REMARK H PARENT 15 5 10 11 19 26 78 45 46 56
REMARK Flexibility Score: inf
ROOT
ATOM      1  C   UNL A   1      31.753  30.464  25.965  1.00  0.00     0.117 C 
ENDROOT
BRANCH   1   2
ATOM      2  N   UNL A   1      33.014  29.890  26.406  1.00  0.00    -0.354 N 
ATOM      3  C   UNL A   1      33.521  28.636  26.236  1.00  0.00     0.242 C 
ATOM      4  O   UNL A   1      34.525  28.326  26.881  1.00  0.00    -0.273 OA
ATOM      5  H   UNL A   1      33.596  30.506  26.909  1.00  0.00     0.163 HD
BRANCH   3   6
ATOM      6  C   UNL A   1      32.823  27.622  25.310  1.00  0.00     0.168 C 
ATOM      7  C   UNL A   1      33.845  26.719  24.626  1.00  0.00     0.041 C 
BRANCH   6   8
ATOM      8  N   UNL A   1      31.803  26.895  26.073  1.00  0.00    -0.344 N 
ATOM      9  C   UNL A   1      30.709  26.200  25.662  1.00  0.00     0.225 C 
ATOM     10  O   UNL A   1      29.962  25.732  26.524  1.00  0.00    -0.275 OA
ATOM     11  H   UNL A   1      31.931  26.916  27.048  1.00  0.00     0.164 HD
BRANCH   9  12
ATOM     12  C   UNL A   1      30.431  25.989  24.185  1.00  0.00     0.135 C 
BRANCH  12  13
ATOM     13  C   UNL A   1      29.706  27.144  23.540  1.00  0.00    -0.036 A 
ATOM     14  C   UNL A   1      28.394  29.405  22.488  1.00  0.00     0.154 A 
ATOM     15  C   UNL A   1      27.686  28.455  23.227  1.00  0.00     0.050 A 
ATOM     16  C   UNL A   1      29.759  29.208  22.270  1.00  0.00     0.165 A 
ATOM     17  C   UNL A   1      28.330  27.325  23.737  1.00  0.00     0.008 A 
ATOM     18  C   UNL A   1      30.408  28.083  22.773  1.00  0.00     0.047 A 
ATOM     19  F   UNL A   1      30.500  30.106  21.608  1.00  0.00    -0.203 F 
BRANCH  14  20
ATOM     20  O   UNL A   1      27.653  30.478  22.074  1.00  0.00    -0.494 OA
ATOM     21  C   UNL A   1      27.619  31.578  22.974  1.00  0.00     0.278 C 
ENDBRANCH  14  20
ENDBRANCH  12  13
ENDBRANCH   9  12
ENDBRANCH   6   8
ENDBRANCH   3   6
ENDBRANCH   1   2
BRANCH   1  22
ATOM     22  C   UNL A   1      31.470  31.797  26.645  1.00  0.00     0.042 C 
BRANCH  22  23
ATOM     23  C   UNL A   1      32.706  32.445  27.260  1.00  0.00     0.118 C 
BRANCH  23  24
ATOM     24  N   UNL A   1      32.505  33.858  27.546  1.00  0.00    -0.352 N 
ATOM     25  C   UNL A   1      33.065  34.650  28.514  1.00  0.00     0.251 C 
ATOM     26  H   UNL A   1      31.866  34.316  26.952  1.00  0.00     0.163 HD
ATOM     27  O   UNL A   1      32.583  35.763  28.731  1.00  0.00    -0.269 OA
BRANCH  25  28
ATOM     28  C   UNL A   1      34.221  34.172  29.298  1.00  0.00     0.039 A 
ATOM     29  C   UNL A   1      33.991  33.411  30.447  1.00  0.00     0.014 A 
ATOM     30  C   UNL A   1      35.528  34.488  28.919  1.00  0.00     0.014 A 
ATOM     31  C   UNL A   1      35.074  32.913  31.175  1.00  0.00     0.010 A 
ATOM     32  C   UNL A   1      36.604  33.921  29.596  1.00  0.00     0.010 A 
ATOM     33  C   UNL A   1      36.389  33.130  30.732  1.00  0.00    -0.014 A 
BRANCH  33  34
ATOM     34  C   UNL A   1      37.550  32.537  31.446  1.00  0.00     0.031 A 
ATOM     35  C   UNL A   1      38.304  31.385  30.837  1.00  0.00     0.074 A 
ATOM     36  C   UNL A   1      37.894  33.006  32.662  1.00  0.00     0.049 A 
ATOM     37  N   UNL A   1      39.288  30.687  31.341  1.00  0.00    -0.248 NA
ATOM     38  C   UNL A   1      37.881  30.946  29.497  1.00  0.00     0.031 C 
ATOM     39  C   UNL A   1      37.223  34.103  33.364  1.00  0.00     0.029 A 
ATOM     40  N   UNL A   1      38.892  32.625  33.522  1.00  0.00    -0.354 N 
ATOM     41  C   UNL A   1      39.598  29.725  30.388  1.00  0.00     0.074 A 
ATOM     42  C   UNL A   1      38.661  29.893  29.298  1.00  0.00     0.031 C 
ATOM     43  C   UNL A   1      37.853  34.330  34.529  1.00  0.00     0.029 A 
ATOM     44  C   UNL A   1      38.936  33.364  34.683  1.00  0.00     0.049 A 
ATOM     45  H   UNL A   1      39.519  31.890  33.329  1.00  0.00     0.167 HD
ATOM     46  C   UNL A   1      40.590  28.803  30.408  1.00  0.00     0.034 A 
ATOM     47  C   UNL A   1      39.746  33.269  35.755  1.00  0.00     0.034 A 
ATOM     48  C   UNL A   1      41.533  28.661  31.488  1.00  0.00     0.049 A 
ATOM     49  C   UNL A   1      40.814  32.209  35.773  1.00  0.00     0.074 A 
ATOM     50  C   UNL A   1      42.603  27.789  31.582  1.00  0.00     0.029 A 
ATOM     51  N   UNL A   1      41.521  29.406  32.659  1.00  0.00    -0.354 N 
ATOM     52  N   UNL A   1      41.097  31.312  34.857  1.00  0.00    -0.248 NA
ATOM     53  C   UNL A   1      41.669  32.143  36.966  1.00  0.00     0.031 C 
ATOM     54  C   UNL A   1      43.197  27.960  32.835  1.00  0.00     0.029 A 
ATOM     55  C   UNL A   1      42.546  28.990  33.494  1.00  0.00     0.049 A 
ATOM     56  H   UNL A   1      40.879  30.124  32.866  1.00  0.00     0.167 HD
ATOM     57  C   UNL A   1      42.176  30.589  35.356  1.00  0.00     0.074 A 
ATOM     58  C   UNL A   1      42.497  31.156  36.649  1.00  0.00     0.031 C 
ATOM     59  C   UNL A   1      42.844  29.554  34.788  1.00  0.00     0.034 A 
BRANCH  46  60
ATOM     60  C   UNL A   1      40.703  27.865  29.234  1.00  0.00     0.023 A 
ATOM     61  C   UNL A   1      41.680  28.048  28.242  1.00  0.00     0.031 A 
ATOM     62  C   UNL A   1      39.849  26.754  29.128  1.00  0.00     0.131 A 
ATOM     63  C   UNL A   1      41.755  27.154  27.163  1.00  0.00     0.055 A 
ATOM     64  C   UNL A   1      39.969  25.833  28.086  1.00  0.00     0.041 A 
ATOM     65  F   UNL A   1      38.887  26.544  30.039  1.00  0.00    -0.206 F 
ATOM     66  C   UNL A   1      40.922  26.034  27.092  1.00  0.00     0.022 A 
BRANCH  63  67
ATOM     67  S   UNL A   1      42.908  27.517  25.812  1.00  0.00     0.124 S 
ATOM     68  O   UNL A   1      42.850  28.975  25.759  1.00  0.00    -0.237 OA
ATOM     69  O   UNL A   1      44.157  26.945  26.299  1.00  0.00    -0.237 OA
ATOM     70  O   UNL A   1      42.315  26.833  24.663  1.00  0.00    -0.744 OA
ENDBRANCH  63  67
ENDBRANCH  46  60
BRANCH  47  71
ATOM     71  C   UNL A   1      39.571  34.202  36.904  1.00  0.00     0.023 A 
ATOM     72  C   UNL A   1      39.040  33.754  38.122  1.00  0.00     0.031 A 
ATOM     73  C   UNL A   1      39.945  35.554  36.799  1.00  0.00     0.131 A 
ATOM     74  C   UNL A   1      38.880  34.655  39.187  1.00  0.00     0.055 A 
ATOM     75  C   UNL A   1      39.821  36.436  37.873  1.00  0.00     0.041 A 
ATOM     76  F   UNL A   1      40.468  36.027  35.657  1.00  0.00    -0.206 F 
ATOM     77  C   UNL A   1      39.279  35.990  39.075  1.00  0.00     0.022 A 
BRANCH  74  78
ATOM     78  S   UNL A   1      38.115  34.065  40.721  1.00  0.00     0.124 S 
ATOM     79  O   UNL A   1      37.660  35.313  41.325  1.00  0.00    -0.237 OA
ATOM     80  O   UNL A   1      37.073  33.175  40.220  1.00  0.00    -0.237 OA
ATOM     81  O   UNL A   1      39.217  33.401  41.416  1.00  0.00    -0.744 OA
ENDBRANCH  74  78
ENDBRANCH  47  71
BRANCH  59  82
ATOM     82  C   UNL A   1      44.010  28.977  35.547  1.00  0.00     0.023 A 
ATOM     83  C   UNL A   1      43.852  27.886  36.418  1.00  0.00     0.031 A 
ATOM     84  C   UNL A   1      45.305  29.487  35.345  1.00  0.00     0.131 A 
ATOM     85  C   UNL A   1      44.971  27.354  37.075  1.00  0.00     0.055 A 
ATOM     86  C   UNL A   1      46.420  28.923  35.964  1.00  0.00     0.041 A 
ATOM     87  F   UNL A   1      45.508  30.526  34.519  1.00  0.00    -0.206 F 
ATOM     88  C   UNL A   1      46.255  27.853  36.839  1.00  0.00     0.022 A 
BRANCH  85  89
ATOM     89  S   UNL A   1      44.722  26.014  38.271  1.00  0.00     0.124 S 
ATOM     90  O   UNL A   1      45.825  26.231  39.202  1.00  0.00    -0.237 OA
ATOM     91  O   UNL A   1      43.387  26.292  38.788  1.00  0.00    -0.237 OA
ATOM     92  O   UNL A   1      44.830  24.804  37.456  1.00  0.00    -0.744 OA
ENDBRANCH  85  89
ENDBRANCH  59  82
ENDBRANCH  33  34
ENDBRANCH  25  28
ENDBRANCH  23  24
ENDBRANCH  22  23
ENDBRANCH   1  22
TORSDOF 17
ENDMDL
MODEL 2
REMARK VINA RESULT:     -11.4      1.771      3.069
REMARK SMILES COc1ccc(CC(=O)N[C@H](C)C(=O)NCCCNC(=O)c2ccc(-c3c4nc(c(-c5cc(S(=O)(=O)[O-])ccc5F)c5ccc([nH]5)c(-c5cc(S(=O)(=O)[O-])ccc5F)c5nc(c(-c6cc(S(=O)(=O)[O-])ccc6F)c6ccc3[nH]6)C=C5)C=C4)cc2)cc1F
REMARK SMILES IDX 16 1 15 2 13 3 14 4 11 6 12 7 10 8 8 9 9 10 7 12 6 13 3 14
REMARK SMILES IDX 4 15 86 16 5 17 85 18 87 19 2 20 1 21 17 22 18 23 19 24
REMARK SMILES IDX 20 25 21 27 22 28 23 29 84 30 24 31 83 32 25 33 26 34 27 35
REMARK SMILES IDX 77 36 28 37 82 38 76 39 78 40 29 41 81 42 75 43 74 44 30 46
REMARK SMILES IDX 62 47 42 48 61 49 43 50 46 51 60 52 79 53 44 54 45 55 59 57
REMARK SMILES IDX 80 58 47 59 31 60 32 61 40 62 33 63 39 64 41 65 38 66 34 67
REMARK SMILES IDX 35 68 36 69 37 70 63 71 64 72 72 73 65 74 71 75 73 76 70 77
REMARK SMILES IDX 66 78 67 79 68 80 69 81 48 82 49 83 57 84 50 85 56 86 58 87
REMARK SMILES IDX 55 88 51 89 52 90 53 91 54 92
REMARK H PARENT 15 5 10 11 19 26 78 45 46 56
REMARK Flexibility Score: inf
ROOT
ATOM      1  C   UNL A   1      31.782  30.488  25.766  1.00  0.00     0.117 C 
ENDROOT
BRANCH   1   2
ATOM      2  N   UNL A   1      30.817  30.326  24.690  1.00  0.00    -0.354 N 
ATOM      3  C   UNL A   1      30.617  29.284  23.834  1.00  0.00     0.242 C 
ATOM      4  O   UNL A   1      29.870  29.465  22.869  1.00  0.00    -0.273 OA
ATOM      5  H   UNL A   1      30.211  31.092  24.559  1.00  0.00     0.163 HD
BRANCH   3   6
ATOM      6  C   UNL A   1      31.348  27.945  24.036  1.00  0.00     0.168 C 
ATOM      7  C   UNL A   1      30.829  27.225  25.277  1.00  0.00     0.041 C 
BRANCH   6   8
ATOM      8  N   UNL A   1      31.253  27.153  22.806  1.00  0.00    -0.344 N 
ATOM      9  C   UNL A   1      32.194  26.446  22.124  1.00  0.00     0.225 C 
ATOM     10  O   UNL A   1      31.865  25.916  21.061  1.00  0.00    -0.275 OA
ATOM     11  H   UNL A   1      30.355  27.130  22.404  1.00  0.00     0.164 HD
BRANCH   9  12
ATOM     12  C   UNL A   1      33.602  26.299  22.671  1.00  0.00     0.135 C 
BRANCH  12  13
ATOM     13  C   UNL A   1      33.758  25.139  23.624  1.00  0.00    -0.036 A 
ATOM     14  C   UNL A   1      33.881  23.020  25.477  1.00  0.00     0.154 A 
ATOM     15  C   UNL A   1      34.449  24.260  25.779  1.00  0.00     0.050 A 
ATOM     16  C   UNL A   1      33.264  22.846  24.237  1.00  0.00     0.165 A 
ATOM     17  C   UNL A   1      34.404  25.308  24.856  1.00  0.00     0.008 A 
ATOM     18  C   UNL A   1      33.216  23.886  23.310  1.00  0.00     0.047 A 
ATOM     19  F   UNL A   1      32.663  21.695  23.908  1.00  0.00    -0.203 F 
BRANCH  14  20
ATOM     20  O   UNL A   1      33.967  22.091  26.478  1.00  0.00    -0.494 OA
ATOM     21  C   UNL A   1      33.207  22.382  27.644  1.00  0.00     0.278 C 
ENDBRANCH  14  20
ENDBRANCH  12  13
ENDBRANCH   9  12
ENDBRANCH   6   8
ENDBRANCH   3   6
ENDBRANCH   1   2
BRANCH   1  22
ATOM     22  C   UNL A   1      31.493  31.727  26.602  1.00  0.00     0.042 C 
BRANCH  22  23
ATOM     23  C   UNL A   1      32.747  32.404  27.144  1.00  0.00     0.118 C 
BRANCH  23  24
ATOM     24  N   UNL A   1      32.519  33.803  27.480  1.00  0.00    -0.352 N 
ATOM     25  C   UNL A   1      33.064  34.572  28.475  1.00  0.00     0.251 C 
ATOM     26  H   UNL A   1      31.871  34.269  26.902  1.00  0.00     0.163 HD
ATOM     27  O   UNL A   1      32.562  35.667  28.731  1.00  0.00    -0.269 OA
BRANCH  25  28
ATOM     28  C   UNL A   1      34.230  34.088  29.243  1.00  0.00     0.039 A 
ATOM     29  C   UNL A   1      34.013  33.331  30.397  1.00  0.00     0.014 A 
ATOM     30  C   UNL A   1      35.533  34.396  28.842  1.00  0.00     0.014 A 
ATOM     31  C   UNL A   1      35.104  32.828  31.108  1.00  0.00     0.010 A 
ATOM     32  C   UNL A   1      36.616  33.824  29.504  1.00  0.00     0.010 A 
ATOM     33  C   UNL A   1      36.414  33.036  30.645  1.00  0.00    -0.014 A 
BRANCH  33  34
ATOM     34  C   UNL A   1      37.582  32.438  31.342  1.00  0.00     0.031 A 
ATOM     35  C   UNL A   1      38.328  31.290  30.718  1.00  0.00     0.074 A 
ATOM     36  C   UNL A   1      37.940  32.900  32.557  1.00  0.00     0.049 A 
ATOM     37  N   UNL A   1      39.318  30.589  31.206  1.00  0.00    -0.248 NA
ATOM     38  C   UNL A   1      37.891  30.860  29.380  1.00  0.00     0.031 C 
ATOM     39  C   UNL A   1      37.278  33.993  33.274  1.00  0.00     0.029 A 
ATOM     40  N   UNL A   1      38.947  32.512  33.404  1.00  0.00    -0.354 N 
ATOM     41  C   UNL A   1      39.617  29.632  30.243  1.00  0.00     0.074 A 
ATOM     42  C   UNL A   1      38.667  29.807  29.166  1.00  0.00     0.031 C 
ATOM     43  C   UNL A   1      37.921  34.212  34.432  1.00  0.00     0.029 A 
ATOM     44  C   UNL A   1      39.004  33.244  34.569  1.00  0.00     0.049 A 
ATOM     45  H   UNL A   1      39.572  31.779  33.199  1.00  0.00     0.167 HD
ATOM     46  C   UNL A   1      40.608  28.709  30.247  1.00  0.00     0.034 A 
ATOM     47  C   UNL A   1      39.827  33.142  35.631  1.00  0.00     0.034 A 
ATOM     48  C   UNL A   1      41.562  28.560  31.315  1.00  0.00     0.049 A 
ATOM     49  C   UNL A   1      40.894  32.081  35.631  1.00  0.00     0.074 A 
ATOM     50  C   UNL A   1      42.633  27.687  31.392  1.00  0.00     0.029 A 
ATOM     51  N   UNL A   1      41.564  29.297  32.491  1.00  0.00    -0.354 N 
ATOM     52  N   UNL A   1      41.166  31.190  34.706  1.00  0.00    -0.248 NA
ATOM     53  C   UNL A   1      41.762  32.007  36.814  1.00  0.00     0.031 C 
ATOM     54  C   UNL A   1      43.241  27.850  32.639  1.00  0.00     0.029 A 
ATOM     55  C   UNL A   1      42.598  28.876  33.312  1.00  0.00     0.049 A 
ATOM     56  H   UNL A   1      40.925  30.014  32.710  1.00  0.00     0.167 HD
ATOM     57  C   UNL A   1      42.250  30.464  35.188  1.00  0.00     0.074 A 
ATOM     58  C   UNL A   1      42.586  31.022  36.481  1.00  0.00     0.031 C 
ATOM     59  C   UNL A   1      42.912  29.432  34.606  1.00  0.00     0.034 A 
BRANCH  46  60
ATOM     60  C   UNL A   1      40.708  27.779  29.066  1.00  0.00     0.023 A 
ATOM     61  C   UNL A   1      41.616  28.015  28.022  1.00  0.00     0.031 A 
ATOM     62  C   UNL A   1      39.911  26.622  29.004  1.00  0.00     0.131 A 
ATOM     63  C   UNL A   1      41.680  27.126  26.938  1.00  0.00     0.055 A 
ATOM     64  C   UNL A   1      40.024  25.709  27.955  1.00  0.00     0.041 A 
ATOM     65  F   UNL A   1      39.014  26.359  29.967  1.00  0.00    -0.206 F 
ATOM     66  C   UNL A   1      40.908  25.962  26.911  1.00  0.00     0.022 A 
BRANCH  63  67
ATOM     67  S   UNL A   1      42.734  27.552  25.526  1.00  0.00     0.124 S 
ATOM     68  O   UNL A   1      42.634  26.344  24.710  1.00  0.00    -0.237 OA
ATOM     69  O   UNL A   1      42.083  28.740  24.990  1.00  0.00    -0.237 OA
ATOM     70  O   UNL A   1      44.044  27.780  26.134  1.00  0.00    -0.744 OA
ENDBRANCH  63  67
ENDBRANCH  46  60
BRANCH  47  71
ATOM     71  C   UNL A   1      39.665  34.068  36.787  1.00  0.00     0.023 A 
ATOM     72  C   UNL A   1      39.127  33.618  38.002  1.00  0.00     0.031 A 
ATOM     73  C   UNL A   1      40.059  35.415  36.694  1.00  0.00     0.131 A 
ATOM     74  C   UNL A   1      38.980  34.513  39.074  1.00  0.00     0.055 A 
ATOM     75  C   UNL A   1      39.948  36.290  37.776  1.00  0.00     0.041 A 
ATOM     76  F   UNL A   1      40.590  35.890  35.556  1.00  0.00    -0.206 F 
ATOM     77  C   UNL A   1      39.399  35.841  38.973  1.00  0.00     0.022 A 
BRANCH  74  78
ATOM     78  S   UNL A   1      38.205  33.921  40.603  1.00  0.00     0.124 S 
ATOM     79  O   UNL A   1      37.860  35.174  41.265  1.00  0.00    -0.237 OA
ATOM     80  O   UNL A   1      37.087  33.133  40.094  1.00  0.00    -0.237 OA
ATOM     81  O   UNL A   1      39.267  33.148  41.244  1.00  0.00    -0.744 OA
ENDBRANCH  74  78
ENDBRANCH  47  71
BRANCH  59  82
ATOM     82  C   UNL A   1      44.085  28.849  35.348  1.00  0.00     0.023 A 
ATOM     83  C   UNL A   1      43.927  27.789  36.257  1.00  0.00     0.031 A 
ATOM     84  C   UNL A   1      45.385  29.320  35.093  1.00  0.00     0.131 A 
ATOM     85  C   UNL A   1      45.052  27.250  36.898  1.00  0.00     0.055 A 
ATOM     86  C   UNL A   1      46.505  28.748  35.697  1.00  0.00     0.041 A 
ATOM     87  F   UNL A   1      45.588  30.329  34.230  1.00  0.00    -0.206 F 
ATOM     88  C   UNL A   1      46.340  27.709  36.609  1.00  0.00     0.022 A 
BRANCH  85  89
ATOM     89  S   UNL A   1      44.808  25.953  38.141  1.00  0.00     0.124 S 
ATOM     90  O   UNL A   1      46.163  25.439  38.311  1.00  0.00    -0.237 OA
ATOM     91  O   UNL A   1      44.261  26.695  39.271  1.00  0.00    -0.237 OA
ATOM     92  O   UNL A   1      43.872  25.032  37.495  1.00  0.00    -0.744 OA
ENDBRANCH  85  89
ENDBRANCH  59  82
ENDBRANCH  33  34
ENDBRANCH  25  28
ENDBRANCH  23  24
ENDBRANCH  22  23
ENDBRANCH   1  22
TORSDOF 17
ENDMDL
MODEL 3
REMARK VINA RESULT:     -11.4      6.616     12.305
REMARK SMILES COc1ccc(CC(=O)N[C@H](C)C(=O)NCCCNC(=O)c2ccc(-c3c4nc(c(-c5cc(S(=O)(=O)[O-])ccc5F)c5ccc([nH]5)c(-c5cc(S(=O)(=O)[O-])ccc5F)c5nc(c(-c6cc(S(=O)(=O)[O-])ccc6F)c6ccc3[nH]6)C=C5)C=C4)cc2)cc1F
REMARK SMILES IDX 16 1 15 2 13 3 14 4 11 6 12 7 10 8 8 9 9 10 7 12 6 13 3 14
REMARK SMILES IDX 4 15 86 16 5 17 85 18 87 19 2 20 1 21 17 22 18 23 19 24
REMARK SMILES IDX 20 25 21 27 22 28 23 29 84 30 24 31 83 32 25 33 26 34 27 35
REMARK SMILES IDX 77 36 28 37 82 38 76 39 78 40 29 41 81 42 75 43 74 44 30 46
REMARK SMILES IDX 62 47 42 48 61 49 43 50 46 51 60 52 79 53 44 54 45 55 59 57
REMARK SMILES IDX 80 58 47 59 31 60 32 61 40 62 33 63 39 64 41 65 38 66 34 67
REMARK SMILES IDX 35 68 36 69 37 70 63 71 64 72 72 73 65 74 71 75 73 76 70 77
REMARK SMILES IDX 66 78 67 79 68 80 69 81 48 82 49 83 57 84 50 85 56 86 58 87
REMARK SMILES IDX 55 88 51 89 52 90 53 91 54 92
REMARK H PARENT 15 5 10 11 19 26 78 45 46 56
REMARK Flexibility Score: inf
ROOT
ATOM      1  C   UNL A   1      37.118  20.437  24.737  1.00  0.00     0.117 C 
ENDROOT
BRANCH   1   2
ATOM      2  N   UNL A   1      37.422  21.706  25.378  1.00  0.00    -0.354 N 
ATOM      3  C   UNL A   1      36.595  22.716  25.771  1.00  0.00     0.242 C 
ATOM      4  O   UNL A   1      37.110  23.785  26.108  1.00  0.00    -0.273 OA
ATOM      5  H   UNL A   1      38.378  21.860  25.557  1.00  0.00     0.163 HD
BRANCH   3   6
ATOM      6  C   UNL A   1      35.066  22.543  25.739  1.00  0.00     0.168 C 
ATOM      7  C   UNL A   1      34.414  23.249  26.924  1.00  0.00     0.041 C 
BRANCH   6   8
ATOM      8  N   UNL A   1      34.558  22.979  24.434  1.00  0.00    -0.344 N 
ATOM      9  C   UNL A   1      33.393  22.700  23.791  1.00  0.00     0.225 C 
ATOM     10  O   UNL A   1      33.238  23.146  22.652  1.00  0.00    -0.275 OA
ATOM     11  H   UNL A   1      35.166  23.574  23.939  1.00  0.00     0.164 HD
BRANCH   9  12
ATOM     12  C   UNL A   1      32.310  21.880  24.467  1.00  0.00     0.135 C 
BRANCH  12  13
ATOM     13  C   UNL A   1      32.526  20.391  24.356  1.00  0.00    -0.036 A 
ATOM     14  C   UNL A   1      32.743  17.587  24.180  1.00  0.00     0.154 A 
ATOM     15  C   UNL A   1      32.943  18.239  25.399  1.00  0.00     0.050 A 
ATOM     16  C   UNL A   1      32.446  18.351  23.050  1.00  0.00     0.165 A 
ATOM     17  C   UNL A   1      32.852  19.630  25.487  1.00  0.00     0.008 A 
ATOM     18  C   UNL A   1      32.354  19.739  23.128  1.00  0.00     0.047 A 
ATOM     19  F   UNL A   1      32.198  17.780  21.863  1.00  0.00    -0.203 F 
BRANCH  14  20
ATOM     20  O   UNL A   1      32.830  16.223  24.238  1.00  0.00    -0.494 OA
ATOM     21  C   UNL A   1      33.598  15.708  25.318  1.00  0.00     0.278 C 
ENDBRANCH  14  20
ENDBRANCH  12  13
ENDBRANCH   9  12
ENDBRANCH   6   8
ENDBRANCH   3   6
ENDBRANCH   1   2
BRANCH   1  22
ATOM     22  C   UNL A   1      38.210  19.404  24.981  1.00  0.00     0.042 C 
BRANCH  22  23
ATOM     23  C   UNL A   1      39.226  19.826  26.036  1.00  0.00     0.118 C 
BRANCH  23  24
ATOM     24  N   UNL A   1      40.427  19.003  26.007  1.00  0.00    -0.352 N 
ATOM     25  C   UNL A   1      41.748  19.369  26.012  1.00  0.00     0.251 C 
ATOM     26  H   UNL A   1      40.265  18.032  25.977  1.00  0.00     0.163 HD
ATOM     27  O   UNL A   1      42.606  18.526  25.748  1.00  0.00    -0.269 OA
BRANCH  25  28
ATOM     28  C   UNL A   1      42.139  20.760  26.317  1.00  0.00     0.039 A 
ATOM     29  C   UNL A   1      42.380  21.121  27.645  1.00  0.00     0.014 A 
ATOM     30  C   UNL A   1      42.247  21.716  25.302  1.00  0.00     0.014 A 
ATOM     31  C   UNL A   1      42.794  22.420  27.945  1.00  0.00     0.010 A 
ATOM     32  C   UNL A   1      42.740  22.984  25.593  1.00  0.00     0.010 A 
ATOM     33  C   UNL A   1      43.016  23.351  26.917  1.00  0.00    -0.014 A 
BRANCH  33  34
ATOM     34  C   UNL A   1      43.537  24.712  27.210  1.00  0.00     0.031 A 
ATOM     35  C   UNL A   1      42.610  25.783  27.717  1.00  0.00     0.074 A 
ATOM     36  C   UNL A   1      44.834  24.993  26.973  1.00  0.00     0.049 A 
ATOM     37  N   UNL A   1      42.861  27.045  27.952  1.00  0.00    -0.248 NA
ATOM     38  C   UNL A   1      41.214  25.391  27.972  1.00  0.00     0.031 C 
ATOM     39  C   UNL A   1      45.824  24.043  26.459  1.00  0.00     0.029 A 
ATOM     40  N   UNL A   1      45.545  26.155  27.134  1.00  0.00    -0.354 N 
ATOM     41  C   UNL A   1      41.658  27.599  28.374  1.00  0.00     0.074 A 
ATOM     42  C   UNL A   1      40.664  26.549  28.310  1.00  0.00     0.031 C 
ATOM     43  C   UNL A   1      47.019  24.650  26.384  1.00  0.00     0.029 A 
ATOM     44  C   UNL A   1      46.874  26.044  26.791  1.00  0.00     0.049 A 
ATOM     45  H   UNL A   1      45.143  26.992  27.463  1.00  0.00     0.167 HD
ATOM     46  C   UNL A   1      41.411  28.861  28.800  1.00  0.00     0.034 A 
ATOM     47  C   UNL A   1      47.862  26.960  26.793  1.00  0.00     0.034 A 
ATOM     48  C   UNL A   1      42.413  29.891  28.883  1.00  0.00     0.049 A 
ATOM     49  C   UNL A   1      47.553  28.367  27.230  1.00  0.00     0.074 A 
ATOM     50  C   UNL A   1      42.274  31.188  29.346  1.00  0.00     0.029 A 
ATOM     51  N   UNL A   1      43.738  29.747  28.494  1.00  0.00    -0.354 N 
ATOM     52  N   UNL A   1      46.410  28.870  27.634  1.00  0.00    -0.248 NA
ATOM     53  C   UNL A   1      48.662  29.330  27.210  1.00  0.00     0.031 C 
ATOM     54  C   UNL A   1      43.494  31.846  29.176  1.00  0.00     0.029 A 
ATOM     55  C   UNL A   1      44.418  30.941  28.678  1.00  0.00     0.049 A 
ATOM     56  H   UNL A   1      44.137  28.919  28.141  1.00  0.00     0.167 HD
ATOM     57  C   UNL A   1      46.668  30.203  27.936  1.00  0.00     0.074 A 
ATOM     58  C   UNL A   1      48.074  30.426  27.673  1.00  0.00     0.031 C 
ATOM     59  C   UNL A   1      45.816  31.153  28.397  1.00  0.00     0.034 A 
BRANCH  46  60
ATOM     60  C   UNL A   1      40.000  29.204  29.201  1.00  0.00     0.023 A 
ATOM     61  C   UNL A   1      39.596  29.191  30.546  1.00  0.00     0.031 A 
ATOM     62  C   UNL A   1      39.059  29.587  28.229  1.00  0.00     0.131 A 
ATOM     63  C   UNL A   1      38.273  29.516  30.880  1.00  0.00     0.055 A 
ATOM     64  C   UNL A   1      37.762  29.971  28.574  1.00  0.00     0.041 A 
ATOM     65  F   UNL A   1      39.388  29.600  26.929  1.00  0.00    -0.206 F 
ATOM     66  C   UNL A   1      37.361  29.931  29.906  1.00  0.00     0.022 A 
BRANCH  63  67
ATOM     67  S   UNL A   1      37.738  29.319  32.601  1.00  0.00     0.124 S 
ATOM     68  O   UNL A   1      38.733  30.118  33.312  1.00  0.00    -0.237 OA
ATOM     69  O   UNL A   1      36.384  29.861  32.577  1.00  0.00    -0.237 OA
ATOM     70  O   UNL A   1      37.828  27.877  32.825  1.00  0.00    -0.744 OA
ENDBRANCH  63  67
ENDBRANCH  46  60
BRANCH  47  71
ATOM     71  C   UNL A   1      49.233  26.575  26.357  1.00  0.00     0.023 A 
ATOM     72  C   UNL A   1      49.756  27.026  25.136  1.00  0.00     0.031 A 
ATOM     73  C   UNL A   1      50.045  25.759  27.165  1.00  0.00     0.131 A 
ATOM     74  C   UNL A   1      51.049  26.643  24.747  1.00  0.00     0.055 A 
ATOM     75  C   UNL A   1      51.345  25.414  26.792  1.00  0.00     0.041 A 
ATOM     76  F   UNL A   1      49.594  25.311  28.348  1.00  0.00    -0.206 F 
ATOM     77  C   UNL A   1      51.852  25.852  25.572  1.00  0.00     0.022 A 
BRANCH  74  78
ATOM     78  S   UNL A   1      51.664  27.175  23.126  1.00  0.00     0.124 S 
ATOM     79  O   UNL A   1      51.867  28.604  23.340  1.00  0.00    -0.237 OA
ATOM     80  O   UNL A   1      52.872  26.369  22.979  1.00  0.00    -0.237 OA
ATOM     81  O   UNL A   1      50.573  26.828  22.218  1.00  0.00    -0.744 OA
ENDBRANCH  74  78
ENDBRANCH  47  71
BRANCH  59  82
ATOM     82  C   UNL A   1      46.382  32.521  28.672  1.00  0.00     0.023 A 
ATOM     83  C   UNL A   1      46.391  33.525  27.690  1.00  0.00     0.031 A 
ATOM     84  C   UNL A   1      46.860  32.841  29.956  1.00  0.00     0.131 A 
ATOM     85  C   UNL A   1      46.892  34.797  28.001  1.00  0.00     0.055 A 
ATOM     86  C   UNL A   1      47.312  34.121  30.273  1.00  0.00     0.041 A 
ATOM     87  F   UNL A   1      46.869  31.917  30.930  1.00  0.00    -0.206 F 
ATOM     88  C   UNL A   1      47.334  35.107  29.290  1.00  0.00     0.022 A 
BRANCH  85  89
ATOM     89  S   UNL A   1      46.985  36.042  26.685  1.00  0.00     0.124 S 
ATOM     90  O   UNL A   1      48.010  36.946  27.197  1.00  0.00    -0.237 OA
ATOM     91  O   UNL A   1      47.361  35.246  25.522  1.00  0.00    -0.237 OA
ATOM     92  O   UNL A   1      45.633  36.598  26.643  1.00  0.00    -0.744 OA
ENDBRANCH  85  89
ENDBRANCH  59  82
ENDBRANCH  33  34
ENDBRANCH  25  28
ENDBRANCH  23  24
ENDBRANCH  22  23
ENDBRANCH   1  22
TORSDOF 17
ENDMDL
