MODEL 1
REMARK VINA RESULT:     -11.9      0.000      0.000
REMARK SMILES O=C(CSc1ccc(NC(=O)c2cccc3ccccc23)cc1)NCCCNC(=O)c1ccc(-c2c3nc(c(-c4cc(S(=O)(=O)[O-])ccc4F)c4ccc([nH]4)c(-c4cc(S(=O)(=O)[O-])ccc4F)c4nc(c(-c5cc(S(=O)(=O)[O-])ccc5F)c5ccc2[nH]5)C=C4)C=C3)cc1
REMARK SMILES IDX 25 1 24 2 1 3 2 4 3 6 4 7 5 8 6 9 23 10 7 11 22 12 8 13 9 14
REMARK SMILES IDX 10 15 11 17 12 18 13 19 21 20 14 21 16 22 20 23 15 24 17 25
REMARK SMILES IDX 19 26 18 27 26 28 27 29 28 30 29 31 30 33 31 34 32 35 93 36
REMARK SMILES IDX 33 37 92 38 34 39 35 40 36 41 86 42 37 43 91 44 85 45 87 46
REMARK SMILES IDX 38 47 90 48 84 49 83 50 39 52 71 53 51 54 70 55 52 56 55 57
REMARK SMILES IDX 69 58 88 59 53 60 54 61 68 63 89 64 56 65 40 66 41 67 49 68
REMARK SMILES IDX 42 69 48 70 50 71 47 72 43 73 44 74 45 75 46 76 72 77 73 78
REMARK SMILES IDX 81 79 74 80 80 81 82 82 79 83 75 84 76 85 77 86 78 87 57 88
REMARK SMILES IDX 58 89 66 90 59 91 65 92 67 93 64 94 60 95 61 96 62 97 63 98
REMARK H PARENT 24 5 9 16 28 32 87 51 55 62
REMARK Flexibility Score: inf
ROOT
ATOM      1  C   UNL A   1      31.593  28.311  26.759  1.00  0.00     0.117 C 
ENDROOT
BRANCH   1   2
ATOM      2  N   UNL A   1      31.263  27.662  25.505  1.00  0.00    -0.355 N 
ATOM      3  O   UNL A   1      30.733  29.589  24.390  1.00  0.00    -0.274 OA
ATOM      4  C   UNL A   1      30.936  28.375  24.376  1.00  0.00     0.230 C 
ATOM      5  H   UNL A   1      31.274  26.679  25.461  1.00  0.00     0.163 HD
BRANCH   4   6
ATOM      6  C   UNL A   1      30.830  27.583  23.084  1.00  0.00     0.174 C 
BRANCH   6   7
ATOM      7  S   UNL A   1      32.428  26.987  22.435  1.00  0.00    -0.116 SA
BRANCH   7   8
ATOM      8  C   UNL A   1      32.237  25.210  22.366  1.00  0.00     0.008 A 
ATOM      9  C   UNL A   1      33.096  24.352  21.679  1.00  0.00     0.017 A 
ATOM     10  C   UNL A   1      31.233  24.639  23.156  1.00  0.00     0.017 A 
ATOM     11  C   UNL A   1      33.032  22.971  21.859  1.00  0.00     0.027 A 
ATOM     12  C   UNL A   1      31.176  23.254  23.350  1.00  0.00     0.027 A 
ATOM     13  C   UNL A   1      32.150  22.430  22.782  1.00  0.00     0.041 A 
BRANCH  13  14
ATOM     14  N   UNL A   1      32.243  21.121  23.269  1.00  0.00    -0.322 N 
ATOM     15  C   UNL A   1      32.868  20.590  24.374  1.00  0.00     0.256 C 
ATOM     16  H   UNL A   1      31.773  20.456  22.717  1.00  0.00     0.170 HD
ATOM     17  O   UNL A   1      32.821  19.366  24.529  1.00  0.00    -0.269 OA
BRANCH  15  18
ATOM     18  C   UNL A   1      33.600  21.378  25.401  1.00  0.00     0.048 A 
ATOM     19  C   UNL A   1      32.929  21.455  26.635  1.00  0.00     0.014 A 
ATOM     20  C   UNL A   1      34.815  22.099  25.187  1.00  0.00    -0.006 A 
ATOM     21  C   UNL A   1      33.426  22.245  27.663  1.00  0.00     0.001 A 
ATOM     22  C   UNL A   1      35.291  22.915  26.251  1.00  0.00    -0.018 A 
ATOM     23  C   UNL A   1      35.611  22.061  24.012  1.00  0.00     0.009 A 
ATOM     24  C   UNL A   1      34.586  22.986  27.462  1.00  0.00     0.009 A 
ATOM     25  C   UNL A   1      36.479  23.651  26.111  1.00  0.00     0.009 A 
ATOM     26  C   UNL A   1      36.837  22.731  23.924  1.00  0.00     0.001 A 
ATOM     27  C   UNL A   1      37.259  23.545  24.964  1.00  0.00     0.001 A 
ENDBRANCH  15  18
ENDBRANCH  13  14
ENDBRANCH   7   8
ENDBRANCH   6   7
ENDBRANCH   4   6
ENDBRANCH   1   2
BRANCH   1  28
ATOM     28  C   UNL A   1      33.086  28.344  27.049  1.00  0.00     0.042 C 
BRANCH  28  29
ATOM     29  C   UNL A   1      33.840  29.454  26.327  1.00  0.00     0.118 C 
BRANCH  29  30
ATOM     30  N   UNL A   1      33.707  30.753  26.971  1.00  0.00    -0.352 N 
ATOM     31  C   UNL A   1      34.469  31.346  27.950  1.00  0.00     0.251 C 
ATOM     32  H   UNL A   1      32.948  31.295  26.656  1.00  0.00     0.163 HD
ATOM     33  O   UNL A   1      34.074  32.393  28.451  1.00  0.00    -0.269 OA
BRANCH  31  34
ATOM     34  C   UNL A   1      35.732  30.722  28.418  1.00  0.00     0.039 A 
ATOM     35  C   UNL A   1      36.922  31.038  27.755  1.00  0.00     0.014 A 
ATOM     36  C   UNL A   1      35.754  29.813  29.478  1.00  0.00     0.014 A 
ATOM     37  C   UNL A   1      38.132  30.485  28.188  1.00  0.00     0.010 A 
ATOM     38  C   UNL A   1      36.970  29.339  29.968  1.00  0.00     0.010 A 
ATOM     39  C   UNL A   1      38.173  29.653  29.319  1.00  0.00    -0.014 A 
BRANCH  39  40
ATOM     40  C   UNL A   1      39.455  29.071  29.803  1.00  0.00     0.031 A 
ATOM     41  C   UNL A   1      40.158  29.680  30.990  1.00  0.00     0.074 A 
ATOM     42  C   UNL A   1      40.006  28.022  29.159  1.00  0.00     0.049 A 
ATOM     43  N   UNL A   1      41.300  29.347  31.539  1.00  0.00    -0.248 NA
ATOM     44  C   UNL A   1      39.504  30.834  31.625  1.00  0.00     0.031 C 
ATOM     45  C   UNL A   1      39.444  27.369  27.975  1.00  0.00     0.029 A 
ATOM     46  N   UNL A   1      41.160  27.320  29.406  1.00  0.00    -0.354 N 
ATOM     47  C   UNL A   1      41.504  30.256  32.573  1.00  0.00     0.074 A 
ATOM     48  C   UNL A   1      40.407  31.198  32.522  1.00  0.00     0.031 C 
ATOM     49  C   UNL A   1      40.233  26.341  27.624  1.00  0.00     0.029 A 
ATOM     50  C   UNL A   1      41.382  26.289  28.523  1.00  0.00     0.049 A 
ATOM     51  H   UNL A   1      41.771  27.534  30.148  1.00  0.00     0.167 HD
ATOM     52  C   UNL A   1      42.496  30.286  33.497  1.00  0.00     0.034 A 
ATOM     53  C   UNL A   1      42.399  25.406  28.440  1.00  0.00     0.034 A 
ATOM     54  C   UNL A   1      43.578  29.333  33.540  1.00  0.00     0.049 A 
ATOM     55  C   UNL A   1      43.508  25.476  29.462  1.00  0.00     0.074 A 
ATOM     56  C   UNL A   1      44.612  29.243  34.456  1.00  0.00     0.029 A 
ATOM     57  N   UNL A   1      43.772  28.305  32.624  1.00  0.00    -0.354 N 
ATOM     58  N   UNL A   1      43.661  26.314  30.462  1.00  0.00    -0.248 NA
ATOM     59  C   UNL A   1      44.571  24.470  29.352  1.00  0.00     0.031 C 
ATOM     60  C   UNL A   1      45.470  28.216  34.051  1.00  0.00     0.029 A 
ATOM     61  C   UNL A   1      44.924  27.599  32.937  1.00  0.00     0.049 A 
ATOM     62  H   UNL A   1      43.178  28.108  31.864  1.00  0.00     0.167 HD
ATOM     63  C   UNL A   1      44.815  25.906  31.125  1.00  0.00     0.074 A 
ATOM     64  C   UNL A   1      45.308  24.743  30.418  1.00  0.00     0.031 C 
ATOM     65  C   UNL A   1      45.410  26.440  32.223  1.00  0.00     0.034 A 
BRANCH  52  66
ATOM     66  C   UNL A   1      42.464  31.403  34.516  1.00  0.00     0.023 A 
ATOM     67  C   UNL A   1      41.525  31.422  35.564  1.00  0.00     0.031 A 
ATOM     68  C   UNL A   1      43.365  32.479  34.426  1.00  0.00     0.131 A 
ATOM     69  C   UNL A   1      41.452  32.530  36.422  1.00  0.00     0.055 A 
ATOM     70  C   UNL A   1      43.349  33.534  35.341  1.00  0.00     0.041 A 
ATOM     71  F   UNL A   1      44.270  32.531  33.436  1.00  0.00    -0.206 F 
ATOM     72  C   UNL A   1      42.376  33.573  36.335  1.00  0.00     0.022 A 
BRANCH  69  73
ATOM     73  S   UNL A   1      40.033  32.663  37.543  1.00  0.00     0.124 S 
ATOM     74  O   UNL A   1      40.657  32.408  38.839  1.00  0.00    -0.237 OA
ATOM     75  O   UNL A   1      39.574  34.027  37.311  1.00  0.00    -0.237 OA
ATOM     76  O   UNL A   1      39.130  31.612  37.079  1.00  0.00    -0.744 OA
ENDBRANCH  69  73
ENDBRANCH  52  66
BRANCH  53  77
ATOM     77  C   UNL A   1      42.427  24.380  27.356  1.00  0.00     0.023 A 
ATOM     78  C   UNL A   1      41.611  23.238  27.417  1.00  0.00     0.031 A 
ATOM     79  C   UNL A   1      43.311  24.499  26.269  1.00  0.00     0.131 A 
ATOM     80  C   UNL A   1      41.736  22.236  26.442  1.00  0.00     0.055 A 
ATOM     81  C   UNL A   1      43.385  23.528  25.268  1.00  0.00     0.041 A 
ATOM     82  F   UNL A   1      44.112  25.571  26.158  1.00  0.00    -0.206 F 
ATOM     83  C   UNL A   1      42.606  22.380  25.359  1.00  0.00     0.022 A 
BRANCH  80  84
ATOM     84  S   UNL A   1      40.815  20.688  26.665  1.00  0.00     0.124 S 
ATOM     85  O   UNL A   1      41.627  19.749  25.900  1.00  0.00    -0.237 OA
ATOM     86  O   UNL A   1      40.841  20.527  28.115  1.00  0.00    -0.237 OA
ATOM     87  O   UNL A   1      39.503  20.988  26.096  1.00  0.00    -0.744 OA
ENDBRANCH  80  84
ENDBRANCH  53  77
BRANCH  65  88
ATOM     88  C   UNL A   1      46.626  25.727  32.766  1.00  0.00     0.023 A 
ATOM     89  C   UNL A   1      46.529  24.720  33.743  1.00  0.00     0.031 A 
ATOM     90  C   UNL A   1      47.910  26.077  32.307  1.00  0.00     0.131 A 
ATOM     91  C   UNL A   1      47.695  24.150  34.278  1.00  0.00     0.055 A 
ATOM     92  C   UNL A   1      49.061  25.453  32.790  1.00  0.00     0.041 A 
ATOM     93  F   UNL A   1      48.067  27.035  31.379  1.00  0.00    -0.206 F 
ATOM     94  C   UNL A   1      48.958  24.495  33.793  1.00  0.00     0.022 A 
BRANCH  91  95
ATOM     95  S   UNL A   1      47.544  23.034  35.700  1.00  0.00     0.124 S 
ATOM     96  O   UNL A   1      48.548  22.018  35.396  1.00  0.00    -0.237 OA
ATOM     97  O   UNL A   1      47.851  23.916  36.822  1.00  0.00    -0.237 OA
ATOM     98  O   UNL A   1      46.158  22.576  35.634  1.00  0.00    -0.744 OA
ENDBRANCH  91  95
ENDBRANCH  65  88
ENDBRANCH  39  40
ENDBRANCH  31  34
ENDBRANCH  29  30
ENDBRANCH  28  29
ENDBRANCH   1  28
TORSDOF 17
ENDMDL
MODEL 2
REMARK VINA RESULT:     -11.8      5.501      8.673
REMARK SMILES O=C(CSc1ccc(NC(=O)c2cccc3ccccc23)cc1)NCCCNC(=O)c1ccc(-c2c3nc(c(-c4cc(S(=O)(=O)[O-])ccc4F)c4ccc([nH]4)c(-c4cc(S(=O)(=O)[O-])ccc4F)c4nc(c(-c5cc(S(=O)(=O)[O-])ccc5F)c5ccc2[nH]5)C=C4)C=C3)cc1
REMARK SMILES IDX 25 1 24 2 1 3 2 4 3 6 4 7 5 8 6 9 23 10 7 11 22 12 8 13 9 14
REMARK SMILES IDX 10 15 11 17 12 18 13 19 21 20 14 21 16 22 20 23 15 24 17 25
REMARK SMILES IDX 19 26 18 27 26 28 27 29 28 30 29 31 30 33 31 34 32 35 93 36
REMARK SMILES IDX 33 37 92 38 34 39 35 40 36 41 86 42 37 43 91 44 85 45 87 46
REMARK SMILES IDX 38 47 90 48 84 49 83 50 39 52 71 53 51 54 70 55 52 56 55 57
REMARK SMILES IDX 69 58 88 59 53 60 54 61 68 63 89 64 56 65 40 66 41 67 49 68
REMARK SMILES IDX 42 69 48 70 50 71 47 72 43 73 44 74 45 75 46 76 72 77 73 78
REMARK SMILES IDX 81 79 74 80 80 81 82 82 79 83 75 84 76 85 77 86 78 87 57 88
REMARK SMILES IDX 58 89 66 90 59 91 65 92 67 93 64 94 60 95 61 96 62 97 63 98
REMARK H PARENT 24 5 9 16 28 32 87 51 55 62
REMARK Flexibility Score: inf
ROOT
ATOM      1  C   UNL A   1      37.396  20.913  24.504  1.00  0.00     0.117 C 
ENDROOT
BRANCH   1   2
ATOM      2  N   UNL A   1      36.456  21.485  25.448  1.00  0.00    -0.355 N 
ATOM      3  O   UNL A   1      37.259  23.622  25.292  1.00  0.00    -0.274 OA
ATOM      4  C   UNL A   1      36.408  22.835  25.705  1.00  0.00     0.230 C 
ATOM      5  H   UNL A   1      35.832  20.887  25.919  1.00  0.00     0.163 HD
BRANCH   4   6
ATOM      6  C   UNL A   1      35.237  23.321  26.543  1.00  0.00     0.174 C 
BRANCH   6   7
ATOM      7  S   UNL A   1      33.963  22.054  26.858  1.00  0.00    -0.116 SA
BRANCH   7   8
ATOM      8  C   UNL A   1      32.467  22.759  26.177  1.00  0.00     0.008 A 
ATOM      9  C   UNL A   1      31.457  23.347  26.938  1.00  0.00     0.017 A 
ATOM     10  C   UNL A   1      32.367  22.834  24.783  1.00  0.00     0.017 A 
ATOM     11  C   UNL A   1      30.438  24.085  26.337  1.00  0.00     0.027 A 
ATOM     12  C   UNL A   1      31.354  23.586  24.178  1.00  0.00     0.027 A 
ATOM     13  C   UNL A   1      30.451  24.303  24.968  1.00  0.00     0.041 A 
BRANCH  13  14
ATOM     14  N   UNL A   1      29.684  25.285  24.330  1.00  0.00    -0.322 N 
ATOM     15  C   UNL A   1      29.991  26.549  23.881  1.00  0.00     0.256 C 
ATOM     16  H   UNL A   1      28.748  25.022  24.176  1.00  0.00     0.170 HD
ATOM     17  O   UNL A   1      29.081  27.223  23.390  1.00  0.00    -0.269 OA
BRANCH  15  18
ATOM     18  C   UNL A   1      31.341  27.170  23.940  1.00  0.00     0.048 A 
ATOM     19  C   UNL A   1      32.006  27.191  22.701  1.00  0.00     0.014 A 
ATOM     20  C   UNL A   1      31.997  27.623  25.126  1.00  0.00    -0.006 A 
ATOM     21  C   UNL A   1      33.318  27.636  22.609  1.00  0.00     0.001 A 
ATOM     22  C   UNL A   1      33.346  28.057  25.005  1.00  0.00    -0.018 A 
ATOM     23  C   UNL A   1      31.419  27.704  26.420  1.00  0.00     0.009 A 
ATOM     24  C   UNL A   1      33.987  28.044  23.757  1.00  0.00     0.009 A 
ATOM     25  C   UNL A   1      34.054  28.516  26.129  1.00  0.00     0.009 A 
ATOM     26  C   UNL A   1      32.110  28.247  27.509  1.00  0.00     0.001 A 
ATOM     27  C   UNL A   1      33.435  28.631  27.369  1.00  0.00     0.001 A 
ENDBRANCH  15  18
ENDBRANCH  13  14
ENDBRANCH   7   8
ENDBRANCH   6   7
ENDBRANCH   4   6
ENDBRANCH   1   2
BRANCH   1  28
ATOM     28  C   UNL A   1      38.186  19.742  25.069  1.00  0.00     0.042 C 
BRANCH  28  29
ATOM     29  C   UNL A   1      39.318  20.145  26.007  1.00  0.00     0.118 C 
BRANCH  29  30
ATOM     30  N   UNL A   1      40.437  19.213  25.990  1.00  0.00    -0.352 N 
ATOM     31  C   UNL A   1      41.791  19.442  26.066  1.00  0.00     0.251 C 
ATOM     32  H   UNL A   1      40.184  18.265  25.910  1.00  0.00     0.163 HD
ATOM     33  O   UNL A   1      42.558  18.505  25.877  1.00  0.00    -0.269 OA
BRANCH  31  34
ATOM     34  C   UNL A   1      42.322  20.800  26.341  1.00  0.00     0.039 A 
ATOM     35  C   UNL A   1      42.524  21.673  25.268  1.00  0.00     0.014 A 
ATOM     36  C   UNL A   1      42.648  21.213  27.635  1.00  0.00     0.014 A 
ATOM     37  C   UNL A   1      43.001  22.967  25.499  1.00  0.00     0.010 A 
ATOM     38  C   UNL A   1      43.031  22.533  27.874  1.00  0.00     0.010 A 
ATOM     39  C   UNL A   1      43.230  23.421  26.808  1.00  0.00    -0.014 A 
BRANCH  39  40
ATOM     40  C   UNL A   1      43.720  24.803  27.071  1.00  0.00     0.031 A 
ATOM     41  C   UNL A   1      42.787  25.836  27.650  1.00  0.00     0.074 A 
ATOM     42  C   UNL A   1      44.988  25.139  26.759  1.00  0.00     0.049 A 
ATOM     43  N   UNL A   1      43.008  27.099  27.913  1.00  0.00    -0.248 NA
ATOM     44  C   UNL A   1      41.414  25.396  27.943  1.00  0.00     0.031 C 
ATOM     45  C   UNL A   1      45.977  24.242  26.157  1.00  0.00     0.029 A 
ATOM     46  N   UNL A   1      45.665  26.326  26.903  1.00  0.00    -0.354 N 
ATOM     47  C   UNL A   1      41.803  27.605  28.392  1.00  0.00     0.074 A 
ATOM     48  C   UNL A   1      40.837  26.531  28.307  1.00  0.00     0.031 C 
ATOM     49  C   UNL A   1      47.140  24.898  26.020  1.00  0.00     0.029 A 
ATOM     50  C   UNL A   1      46.971  26.275  26.475  1.00  0.00     0.049 A 
ATOM     51  H   UNL A   1      45.252  27.138  27.278  1.00  0.00     0.167 HD
ATOM     52  C   UNL A   1      41.532  28.839  28.883  1.00  0.00     0.034 A 
ATOM     53  C   UNL A   1      47.924  27.229  26.444  1.00  0.00     0.034 A 
ATOM     54  C   UNL A   1      42.509  29.898  28.970  1.00  0.00     0.049 A 
ATOM     55  C   UNL A   1      47.592  28.605  26.970  1.00  0.00     0.074 A 
ATOM     56  C   UNL A   1      42.357  31.171  29.489  1.00  0.00     0.029 A 
ATOM     57  N   UNL A   1      43.821  29.810  28.521  1.00  0.00    -0.354 N 
ATOM     58  N   UNL A   1      46.459  29.053  27.462  1.00  0.00    -0.248 NA
ATOM     59  C   UNL A   1      48.674  29.598  26.951  1.00  0.00     0.031 C 
ATOM     60  C   UNL A   1      43.547  31.876  29.283  1.00  0.00     0.029 A 
ATOM     61  C   UNL A   1      44.477  31.015  28.724  1.00  0.00     0.049 A 
ATOM     62  H   UNL A   1      44.227  29.008  28.118  1.00  0.00     0.167 HD
ATOM     63  C   UNL A   1      46.708  30.367  27.850  1.00  0.00     0.074 A 
ATOM     64  C   UNL A   1      48.099  30.632  27.546  1.00  0.00     0.031 C 
ATOM     65  C   UNL A   1      45.865  31.270  28.415  1.00  0.00     0.034 A 
BRANCH  52  66
ATOM     66  C   UNL A   1      40.116  29.112  29.338  1.00  0.00     0.023 A 
ATOM     67  C   UNL A   1      39.760  29.098  30.699  1.00  0.00     0.031 A 
ATOM     68  C   UNL A   1      39.100  29.362  28.398  1.00  0.00     0.131 A 
ATOM     69  C   UNL A   1      38.416  29.244  31.075  1.00  0.00     0.055 A 
ATOM     70  C   UNL A   1      37.779  29.599  28.786  1.00  0.00     0.041 A 
ATOM     71  F   UNL A   1      39.369  29.366  27.084  1.00  0.00    -0.206 F 
ATOM     72  C   UNL A   1      37.427  29.523  30.130  1.00  0.00     0.022 A 
BRANCH  69  73
ATOM     73  S   UNL A   1      37.958  28.899  32.795  1.00  0.00     0.124 S 
ATOM     74  O   UNL A   1      37.985  27.439  32.821  1.00  0.00    -0.237 OA
ATOM     75  O   UNL A   1      39.011  29.573  33.544  1.00  0.00    -0.237 OA
ATOM     76  O   UNL A   1      36.626  29.490  32.920  1.00  0.00    -0.744 OA
ENDBRANCH  69  73
ENDBRANCH  52  66
BRANCH  53  77
ATOM     77  C   UNL A   1      49.281  26.931  25.899  1.00  0.00     0.023 A 
ATOM     78  C   UNL A   1      49.663  27.373  24.621  1.00  0.00     0.031 A 
ATOM     79  C   UNL A   1      50.199  26.152  26.627  1.00  0.00     0.131 A 
ATOM     80  C   UNL A   1      50.903  26.987  24.089  1.00  0.00     0.055 A 
ATOM     81  C   UNL A   1      51.457  25.824  26.116  1.00  0.00     0.041 A 
ATOM     82  F   UNL A   1      49.889  25.705  27.853  1.00  0.00    -0.206 F 
ATOM     83  C   UNL A   1      51.809  26.229  24.833  1.00  0.00     0.022 A 
BRANCH  80  84
ATOM     84  S   UNL A   1      51.275  27.405  22.362  1.00  0.00     0.124 S 
ATOM     85  O   UNL A   1      52.607  26.835  22.200  1.00  0.00    -0.237 OA
ATOM     86  O   UNL A   1      50.195  26.731  21.648  1.00  0.00    -0.237 OA
ATOM     87  O   UNL A   1      51.213  28.865  22.346  1.00  0.00    -0.744 OA
ENDBRANCH  80  84
ENDBRANCH  53  77
BRANCH  65  88
ATOM     88  C   UNL A   1      46.447  32.611  28.801  1.00  0.00     0.023 A 
ATOM     89  C   UNL A   1      46.318  33.746  27.981  1.00  0.00     0.031 A 
ATOM     90  C   UNL A   1      47.160  32.747  30.006  1.00  0.00     0.131 A 
ATOM     91  C   UNL A   1      46.951  34.945  28.343  1.00  0.00     0.055 A 
ATOM     92  C   UNL A   1      47.724  33.961  30.396  1.00  0.00     0.041 A 
ATOM     93  F   UNL A   1      47.321  31.697  30.828  1.00  0.00    -0.206 F 
ATOM     94  C   UNL A   1      47.636  35.066  29.554  1.00  0.00     0.022 A 
BRANCH  91  95
ATOM     95  S   UNL A   1      46.967  36.314  27.153  1.00  0.00     0.124 S 
ATOM     96  O   UNL A   1      46.257  35.737  26.016  1.00  0.00    -0.237 OA
ATOM     97  O   UNL A   1      46.261  37.366  27.878  1.00  0.00    -0.237 OA
ATOM     98  O   UNL A   1      48.391  36.562  26.934  1.00  0.00    -0.744 OA
ENDBRANCH  91  95
ENDBRANCH  65  88
ENDBRANCH  39  40
ENDBRANCH  31  34
ENDBRANCH  29  30
ENDBRANCH  28  29
ENDBRANCH   1  28
TORSDOF 17
ENDMDL
MODEL 3
REMARK VINA RESULT:     -11.8      2.312      3.188
REMARK SMILES O=C(CSc1ccc(NC(=O)c2cccc3ccccc23)cc1)NCCCNC(=O)c1ccc(-c2c3nc(c(-c4cc(S(=O)(=O)[O-])ccc4F)c4ccc([nH]4)c(-c4cc(S(=O)(=O)[O-])ccc4F)c4nc(c(-c5cc(S(=O)(=O)[O-])ccc5F)c5ccc2[nH]5)C=C4)C=C3)cc1
REMARK SMILES IDX 25 1 24 2 1 3 2 4 3 6 4 7 5 8 6 9 23 10 7 11 22 12 8 13 9 14
REMARK SMILES IDX 10 15 11 17 12 18 13 19 21 20 14 21 16 22 20 23 15 24 17 25
REMARK SMILES IDX 19 26 18 27 26 28 27 29 28 30 29 31 30 33 31 34 32 35 93 36
REMARK SMILES IDX 33 37 92 38 34 39 35 40 36 41 86 42 37 43 91 44 85 45 87 46
REMARK SMILES IDX 38 47 90 48 84 49 83 50 39 52 71 53 51 54 70 55 52 56 55 57
REMARK SMILES IDX 69 58 88 59 53 60 54 61 68 63 89 64 56 65 40 66 41 67 49 68
REMARK SMILES IDX 42 69 48 70 50 71 47 72 43 73 44 74 45 75 46 76 72 77 73 78
REMARK SMILES IDX 81 79 74 80 80 81 82 82 79 83 75 84 76 85 77 86 78 87 57 88
REMARK SMILES IDX 58 89 66 90 59 91 65 92 67 93 64 94 60 95 61 96 62 97 63 98
REMARK H PARENT 24 5 9 16 28 32 87 51 55 62
REMARK Flexibility Score: inf
ROOT
ATOM      1  C   UNL A   1      31.512  30.453  26.339  1.00  0.00     0.117 C 
ENDROOT
BRANCH   1   2
ATOM      2  N   UNL A   1      31.435  30.188  24.916  1.00  0.00    -0.355 N 
ATOM      3  O   UNL A   1      33.351  28.939  24.819  1.00  0.00    -0.274 OA
ATOM      4  C   UNL A   1      32.332  29.366  24.275  1.00  0.00     0.230 C 
ATOM      5  H   UNL A   1      30.718  30.612  24.391  1.00  0.00     0.163 HD
BRANCH   4   6
ATOM      6  C   UNL A   1      32.007  29.003  22.836  1.00  0.00     0.174 C 
BRANCH   6   7
ATOM      7  S   UNL A   1      30.466  28.046  22.634  1.00  0.00    -0.116 SA
BRANCH   7   8
ATOM      8  C   UNL A   1      30.954  26.357  22.962  1.00  0.00     0.008 A 
ATOM      9  C   UNL A   1      30.267  25.491  23.813  1.00  0.00     0.017 A 
ATOM     10  C   UNL A   1      32.020  25.838  22.218  1.00  0.00     0.017 A 
ATOM     11  C   UNL A   1      30.557  24.127  23.841  1.00  0.00     0.027 A 
ATOM     12  C   UNL A   1      32.303  24.468  22.234  1.00  0.00     0.027 A 
ATOM     13  C   UNL A   1      31.494  23.597  22.968  1.00  0.00     0.041 A 
BRANCH  13  14
ATOM     14  N   UNL A   1      31.610  22.230  22.690  1.00  0.00    -0.322 N 
ATOM     15  C   UNL A   1      32.373  21.234  23.257  1.00  0.00     0.256 C 
ATOM     16  H   UNL A   1      31.039  21.924  21.949  1.00  0.00     0.170 HD
ATOM     17  O   UNL A   1      32.304  20.105  22.763  1.00  0.00    -0.269 OA
BRANCH  15  18
ATOM     18  C   UNL A   1      33.278  21.414  24.423  1.00  0.00     0.048 A 
ATOM     19  C   UNL A   1      32.739  20.937  25.632  1.00  0.00     0.014 A 
ATOM     20  C   UNL A   1      34.537  22.089  24.403  1.00  0.00    -0.006 A 
ATOM     21  C   UNL A   1      33.412  21.129  26.831  1.00  0.00     0.001 A 
ATOM     22  C   UNL A   1      35.195  22.288  25.648  1.00  0.00    -0.018 A 
ATOM     23  C   UNL A   1      35.210  22.566  23.247  1.00  0.00     0.009 A 
ATOM     24  C   UNL A   1      34.619  21.819  26.839  1.00  0.00     0.009 A 
ATOM     25  C   UNL A   1      36.436  22.944  25.705  1.00  0.00     0.009 A 
ATOM     26  C   UNL A   1      36.485  23.137  23.314  1.00  0.00     0.001 A 
ATOM     27  C   UNL A   1      37.088  23.348  24.545  1.00  0.00     0.001 A 
ENDBRANCH  15  18
ENDBRANCH  13  14
ENDBRANCH   7   8
ENDBRANCH   6   7
ENDBRANCH   4   6
ENDBRANCH   1   2
BRANCH   1  28
ATOM     28  C   UNL A   1      31.396  31.929  26.688  1.00  0.00     0.042 C 
BRANCH  28  29
ATOM     29  C   UNL A   1      32.728  32.611  26.978  1.00  0.00     0.118 C 
BRANCH  29  30
ATOM     30  N   UNL A   1      32.581  33.908  27.623  1.00  0.00    -0.352 N 
ATOM     31  C   UNL A   1      33.266  34.463  28.678  1.00  0.00     0.251 C 
ATOM     32  H   UNL A   1      31.876  34.481  27.242  1.00  0.00     0.163 HD
ATOM     33  O   UNL A   1      32.862  35.520  29.152  1.00  0.00    -0.269 OA
BRANCH  31  34
ATOM     34  C   UNL A   1      34.453  33.788  29.258  1.00  0.00     0.039 A 
ATOM     35  C   UNL A   1      34.260  32.840  30.267  1.00  0.00     0.014 A 
ATOM     36  C   UNL A   1      35.750  34.097  28.843  1.00  0.00     0.014 A 
ATOM     37  C   UNL A   1      35.359  32.169  30.816  1.00  0.00     0.010 A 
ATOM     38  C   UNL A   1      36.833  33.362  29.322  1.00  0.00     0.010 A 
ATOM     39  C   UNL A   1      36.655  32.401  30.328  1.00  0.00    -0.014 A 
BRANCH  39  40
ATOM     40  C   UNL A   1      37.831  31.682  30.889  1.00  0.00     0.031 A 
ATOM     41  C   UNL A   1      38.298  31.980  32.291  1.00  0.00     0.074 A 
ATOM     42  C   UNL A   1      38.500  30.790  30.131  1.00  0.00     0.049 A 
ATOM     43  N   UNL A   1      39.323  31.493  32.946  1.00  0.00    -0.248 NA
ATOM     44  C   UNL A   1      37.529  32.981  33.045  1.00  0.00     0.031 C 
ATOM     45  C   UNL A   1      38.172  30.442  28.747  1.00  0.00     0.029 A 
ATOM     46  N   UNL A   1      39.595  30.011  30.415  1.00  0.00    -0.354 N 
ATOM     47  C   UNL A   1      39.325  32.135  34.180  1.00  0.00     0.074 A 
ATOM     48  C   UNL A   1      38.248  33.101  34.151  1.00  0.00     0.031 C 
ATOM     49  C   UNL A   1      39.021  29.495  28.318  1.00  0.00     0.029 A 
ATOM     50  C   UNL A   1      39.986  29.201  29.374  1.00  0.00     0.049 A 
ATOM     51  H   UNL A   1      40.058  30.030  31.285  1.00  0.00     0.167 HD
ATOM     52  C   UNL A   1      40.130  31.921  35.251  1.00  0.00     0.034 A 
ATOM     53  C   UNL A   1      41.008  28.327  29.276  1.00  0.00     0.034 A 
ATOM     54  C   UNL A   1      41.195  30.947  35.268  1.00  0.00     0.049 A 
ATOM     55  C   UNL A   1      41.910  28.125  30.469  1.00  0.00     0.074 A 
ATOM     56  C   UNL A   1      42.043  30.616  36.310  1.00  0.00     0.029 A 
ATOM     57  N   UNL A   1      41.563  30.149  34.192  1.00  0.00    -0.354 N 
ATOM     58  N   UNL A   1      41.869  28.708  31.646  1.00  0.00    -0.248 NA
ATOM     59  C   UNL A   1      42.985  27.135  30.326  1.00  0.00     0.031 C 
ATOM     60  C   UNL A   1      42.971  29.681  35.843  1.00  0.00     0.029 A 
ATOM     61  C   UNL A   1      42.644  29.352  34.536  1.00  0.00     0.049 A 
ATOM     62  H   UNL A   1      41.121  30.150  33.312  1.00  0.00     0.167 HD
ATOM     63  C   UNL A   1      42.885  28.121  32.395  1.00  0.00     0.074 A 
ATOM     64  C   UNL A   1      43.511  27.133  31.541  1.00  0.00     0.031 C 
ATOM     65  C   UNL A   1      43.263  28.371  33.676  1.00  0.00     0.034 A 
BRANCH  52  66
ATOM     66  C   UNL A   1      39.901  32.777  36.476  1.00  0.00     0.023 A 
ATOM     67  C   UNL A   1      39.066  32.356  37.528  1.00  0.00     0.031 A 
ATOM     68  C   UNL A   1      40.502  34.044  36.586  1.00  0.00     0.131 A 
ATOM     69  C   UNL A   1      38.789  33.224  38.594  1.00  0.00     0.055 A 
ATOM     70  C   UNL A   1      40.296  34.865  37.696  1.00  0.00     0.041 A 
ATOM     71  F   UNL A   1      41.291  34.513  35.606  1.00  0.00    -0.206 F 
ATOM     72  C   UNL A   1      39.420  34.464  38.700  1.00  0.00     0.022 A 
BRANCH  69  73
ATOM     73  S   UNL A   1      37.467  32.775  39.752  1.00  0.00     0.124 S 
ATOM     74  O   UNL A   1      37.496  33.900  40.683  1.00  0.00    -0.237 OA
ATOM     75  O   UNL A   1      36.300  32.692  38.884  1.00  0.00    -0.237 OA
ATOM     76  O   UNL A   1      37.920  31.503  40.313  1.00  0.00    -0.744 OA
ENDBRANCH  69  73
ENDBRANCH  52  66
BRANCH  53  77
ATOM     77  C   UNL A   1      41.245  27.574  28.008  1.00  0.00     0.023 A 
ATOM     78  C   UNL A   1      41.063  26.182  27.947  1.00  0.00     0.031 A 
ATOM     79  C   UNL A   1      41.708  28.228  26.853  1.00  0.00     0.131 A 
ATOM     80  C   UNL A   1      41.397  25.483  26.776  1.00  0.00     0.055 A 
ATOM     81  C   UNL A   1      41.978  27.535  25.670  1.00  0.00     0.041 A 
ATOM     82  F   UNL A   1      41.897  29.556  26.853  1.00  0.00    -0.206 F 
ATOM     83  C   UNL A   1      41.838  26.152  25.632  1.00  0.00     0.022 A 
BRANCH  80  84
ATOM     84  S   UNL A   1      41.344  23.670  26.802  1.00  0.00     0.124 S 
ATOM     85  O   UNL A   1      41.764  23.381  28.168  1.00  0.00    -0.237 OA
ATOM     86  O   UNL A   1      39.943  23.404  26.491  1.00  0.00    -0.237 OA
ATOM     87  O   UNL A   1      42.295  23.287  25.760  1.00  0.00    -0.744 OA
ENDBRANCH  80  84
ENDBRANCH  53  77
BRANCH  65  88
ATOM     88  C   UNL A   1      44.366  27.512  34.251  1.00  0.00     0.023 A 
ATOM     89  C   UNL A   1      44.142  26.189  34.670  1.00  0.00     0.031 A 
ATOM     90  C   UNL A   1      45.662  28.038  34.399  1.00  0.00     0.131 A 
ATOM     91  C   UNL A   1      45.177  25.462  35.278  1.00  0.00     0.055 A 
ATOM     92  C   UNL A   1      46.707  27.286  34.937  1.00  0.00     0.041 A 
ATOM     93  F   UNL A   1      45.936  29.298  34.022  1.00  0.00    -0.206 F 
ATOM     94  C   UNL A   1      46.463  25.995  35.395  1.00  0.00     0.022 A 
BRANCH  91  95
ATOM     95  S   UNL A   1      44.793  23.853  36.021  1.00  0.00     0.124 S 
ATOM     96  O   UNL A   1      44.962  24.128  37.445  1.00  0.00    -0.237 OA
ATOM     97  O   UNL A   1      43.422  23.623  35.575  1.00  0.00    -0.237 OA
ATOM     98  O   UNL A   1      45.791  22.958  35.439  1.00  0.00    -0.744 OA
ENDBRANCH  91  95
ENDBRANCH  65  88
ENDBRANCH  39  40
ENDBRANCH  31  34
ENDBRANCH  29  30
ENDBRANCH  28  29
ENDBRANCH   1  28
TORSDOF 17
ENDMDL
