MODEL 1
REMARK VINA RESULT:     -12.8      0.000      0.000
REMARK SMILES O=C(C[NH+]1CCN(c2nccc(N3CCCCC3)n2)CC1)NCCCNC(=O)c1ccc(-c2c3nc(c(-c4cc(S(=O)(=O)[O-])ccc4F)c4ccc([nH]4)c(-c4cc(S(=O)(=O)[O-])ccc4F)c4nc(c(-c5cc(S(=O)(=O)[O-])ccc5F)c5ccc2[nH]5)C=C4)C=C3)cc1
REMARK SMILES IDX 24 1 23 2 22 3 1 4 2 5 3 7 4 8 5 9 21 10 6 12 20 13 7 14
REMARK SMILES IDX 8 15 9 16 19 17 10 18 12 19 11 20 13 21 14 22 18 23 15 24
REMARK SMILES IDX 17 25 16 26 25 27 26 28 27 29 28 31 29 32 30 33 91 34 31 35
REMARK SMILES IDX 90 36 32 37 33 38 34 39 84 40 35 41 89 42 83 43 85 44 36 45
REMARK SMILES IDX 88 46 82 47 81 48 37 50 69 51 49 52 68 53 50 54 53 55 67 56
REMARK SMILES IDX 86 57 51 58 52 59 66 61 87 62 54 63 38 64 39 65 47 66 40 67
REMARK SMILES IDX 46 68 48 69 45 70 41 71 42 72 43 73 44 74 70 75 71 76 79 77
REMARK SMILES IDX 72 78 78 79 80 80 77 81 73 82 74 83 75 84 76 85 55 86 56 87
REMARK SMILES IDX 64 88 57 89 63 90 65 91 62 92 58 93 59 94 60 95 61 96
REMARK H PARENT 22 6 4 11 26 30 85 49 53 60
REMARK Flexibility Score: inf
ROOT
ATOM      1  C   UNL A   1      35.730  21.189  25.636  1.00  0.00     0.042 C 
ENDROOT
BRANCH   1   2
ATOM      2  C   UNL A   1      34.626  21.527  24.645  1.00  0.00     0.118 C 
BRANCH   2   3
ATOM      3  N   UNL A   1      33.595  22.376  25.207  1.00  0.00    -0.351 N 
ATOM      4  O   UNL A   1      31.991  20.732  25.290  1.00  0.00    -0.269 OA
ATOM      5  C   UNL A   1      32.355  21.875  25.549  1.00  0.00     0.275 C 
ATOM      6  H   UNL A   1      33.783  23.332  25.350  1.00  0.00     0.163 HD
BRANCH   5   7
ATOM      7  C   UNL A   1      31.480  22.865  26.315  1.00  0.00     0.363 C 
BRANCH   7   8
ATOM      8  N   UNL A   1      30.416  23.485  25.513  1.00  0.00    -0.324 N 
ATOM      9  C   UNL A   1      29.818  24.694  26.117  1.00  0.00     0.284 C 
ATOM     10  C   UNL A   1      30.712  23.676  24.082  1.00  0.00     0.284 C 
ATOM     11  H   UNL A   1      29.698  22.761  25.537  1.00  0.00     0.348 HD
ATOM     12  C   UNL A   1      30.425  26.065  25.724  1.00  0.00     0.181 C 
ATOM     13  C   UNL A   1      31.295  25.041  23.652  1.00  0.00     0.181 C 
ATOM     14  N   UNL A   1      30.555  26.131  24.276  1.00  0.00    -0.329 N 
BRANCH  14  15
ATOM     15  C   UNL A   1      30.727  27.358  23.673  1.00  0.00     0.227 A 
ATOM     16  N   UNL A   1      31.948  27.748  23.288  1.00  0.00    -0.221 NA
ATOM     17  N   UNL A   1      29.626  28.108  23.506  1.00  0.00    -0.196 NA
ATOM     18  C   UNL A   1      32.026  28.921  22.640  1.00  0.00     0.119 A 
ATOM     19  C   UNL A   1      29.731  29.296  22.891  1.00  0.00     0.134 A 
ATOM     20  C   UNL A   1      30.942  29.730  22.400  1.00  0.00     0.067 A 
BRANCH  19  21
ATOM     21  N   UNL A   1      28.618  30.120  22.825  1.00  0.00    -0.356 N 
ATOM     22  C   UNL A   1      27.871  30.142  21.569  1.00  0.00     0.118 C 
ATOM     23  C   UNL A   1      28.578  31.320  23.656  1.00  0.00     0.118 C 
ATOM     24  C   UNL A   1      28.213  31.374  20.736  1.00  0.00     0.022 C 
ATOM     25  C   UNL A   1      28.914  32.564  22.828  1.00  0.00     0.022 C 
ATOM     26  C   UNL A   1      28.056  32.645  21.566  1.00  0.00     0.004 C 
ENDBRANCH  19  21
ENDBRANCH  14  15
ENDBRANCH   7   8
ENDBRANCH   5   7
ENDBRANCH   2   3
ENDBRANCH   1   2
BRANCH   1  27
ATOM     27  C   UNL A   1      37.137  21.587  25.202  1.00  0.00     0.118 C 
BRANCH  27  28
ATOM     28  N   UNL A   1      38.136  20.545  25.385  1.00  0.00    -0.352 N 
ATOM     29  C   UNL A   1      39.374  20.635  25.985  1.00  0.00     0.251 C 
ATOM     30  H   UNL A   1      37.897  19.658  25.032  1.00  0.00     0.163 HD
ATOM     31  O   UNL A   1      40.132  19.669  25.982  1.00  0.00    -0.269 OA
BRANCH  29  32
ATOM     32  C   UNL A   1      39.804  21.918  26.587  1.00  0.00     0.039 A 
ATOM     33  C   UNL A   1      40.754  21.900  27.612  1.00  0.00     0.014 A 
ATOM     34  C   UNL A   1      39.322  23.135  26.099  1.00  0.00     0.014 A 
ATOM     35  C   UNL A   1      41.303  23.102  28.070  1.00  0.00     0.010 A 
ATOM     36  C   UNL A   1      39.921  24.325  26.506  1.00  0.00     0.010 A 
ATOM     37  C   UNL A   1      40.935  24.321  27.479  1.00  0.00    -0.014 A 
BRANCH  37  38
ATOM     38  C   UNL A   1      41.608  25.603  27.829  1.00  0.00     0.031 A 
ATOM     39  C   UNL A   1      40.853  26.670  28.572  1.00  0.00     0.074 A 
ATOM     40  C   UNL A   1      42.857  25.850  27.383  1.00  0.00     0.049 A 
ATOM     41  N   UNL A   1      41.187  27.913  28.807  1.00  0.00    -0.248 NA
ATOM     42  C   UNL A   1      39.530  26.293  29.089  1.00  0.00     0.031 C 
ATOM     43  C   UNL A   1      43.690  24.911  26.628  1.00  0.00     0.029 A 
ATOM     44  N   UNL A   1      43.638  26.977  27.479  1.00  0.00    -0.354 N 
ATOM     45  C   UNL A   1      40.105  28.477  29.474  1.00  0.00     0.074 A 
ATOM     46  C   UNL A   1      39.088  27.448  29.563  1.00  0.00     0.031 C 
ATOM     47  C   UNL A   1      44.862  25.496  26.338  1.00  0.00     0.029 A 
ATOM     48  C   UNL A   1      44.849  26.869  26.834  1.00  0.00     0.049 A 
ATOM     49  H   UNL A   1      43.357  27.787  27.964  1.00  0.00     0.167 HD
ATOM     50  C   UNL A   1      39.977  29.730  29.979  1.00  0.00     0.034 A 
ATOM     51  C   UNL A   1      45.827  27.776  26.638  1.00  0.00     0.034 A 
ATOM     52  C   UNL A   1      41.007  30.738  29.902  1.00  0.00     0.049 A 
ATOM     53  C   UNL A   1      45.658  29.169  27.190  1.00  0.00     0.074 A 
ATOM     54  C   UNL A   1      40.998  32.021  30.422  1.00  0.00     0.029 A 
ATOM     55  N   UNL A   1      42.230  30.579  29.263  1.00  0.00    -0.354 N 
ATOM     56  N   UNL A   1      44.635  29.679  27.838  1.00  0.00    -0.248 NA
ATOM     57  C   UNL A   1      46.772  30.105  26.991  1.00  0.00     0.031 C 
ATOM     58  C   UNL A   1      42.189  32.655  30.051  1.00  0.00     0.029 A 
ATOM     59  C   UNL A   1      42.972  31.746  29.359  1.00  0.00     0.049 A 
ATOM     60  H   UNL A   1      42.526  29.757  28.809  1.00  0.00     0.167 HD
ATOM     61  C   UNL A   1      45.003  30.985  28.155  1.00  0.00     0.074 A 
ATOM     62  C   UNL A   1      46.336  31.183  27.628  1.00  0.00     0.031 C 
ATOM     63  C   UNL A   1      44.304  31.929  28.832  1.00  0.00     0.034 A 
BRANCH  50  64
ATOM     64  C   UNL A   1      38.662  30.082  30.630  1.00  0.00     0.023 A 
ATOM     65  C   UNL A   1      37.643  30.744  29.925  1.00  0.00     0.031 A 
ATOM     66  C   UNL A   1      38.435  29.780  31.986  1.00  0.00     0.131 A 
ATOM     67  C   UNL A   1      36.480  31.156  30.594  1.00  0.00     0.055 A 
ATOM     68  C   UNL A   1      37.241  30.118  32.625  1.00  0.00     0.041 A 
ATOM     69  F   UNL A   1      39.379  29.167  32.716  1.00  0.00    -0.206 F 
ATOM     70  C   UNL A   1      36.261  30.825  31.933  1.00  0.00     0.022 A 
BRANCH  67  71
ATOM     71  S   UNL A   1      35.331  32.259  29.729  1.00  0.00     0.124 S 
ATOM     72  O   UNL A   1      36.219  33.344  29.318  1.00  0.00    -0.237 OA
ATOM     73  O   UNL A   1      34.822  31.409  28.659  1.00  0.00    -0.237 OA
ATOM     74  O   UNL A   1      34.358  32.617  30.760  1.00  0.00    -0.744 OA
ENDBRANCH  67  71
ENDBRANCH  50  64
BRANCH  51  75
ATOM     75  C   UNL A   1      47.049  27.413  25.866  1.00  0.00     0.023 A 
ATOM     76  C   UNL A   1      47.175  27.758  24.511  1.00  0.00     0.031 A 
ATOM     77  C   UNL A   1      48.093  26.683  26.461  1.00  0.00     0.131 A 
ATOM     78  C   UNL A   1      48.298  27.336  23.783  1.00  0.00     0.055 A 
ATOM     79  C   UNL A   1      49.231  26.307  25.744  1.00  0.00     0.041 A 
ATOM     80  F   UNL A   1      48.026  26.333  27.755  1.00  0.00    -0.206 F 
ATOM     81  C   UNL A   1      49.332  26.623  24.394  1.00  0.00     0.022 A 
BRANCH  78  82
ATOM     82  S   UNL A   1      48.351  27.667  22.000  1.00  0.00     0.124 S 
ATOM     83  O   UNL A   1      49.517  28.537  21.894  1.00  0.00    -0.237 OA
ATOM     84  O   UNL A   1      48.498  26.324  21.448  1.00  0.00    -0.237 OA
ATOM     85  O   UNL A   1      47.066  28.311  21.736  1.00  0.00    -0.744 OA
ENDBRANCH  78  82
ENDBRANCH  51  75
BRANCH  63  86
ATOM     86  C   UNL A   1      44.997  33.239  29.103  1.00  0.00     0.023 A 
ATOM     87  C   UNL A   1      44.933  34.317  28.203  1.00  0.00     0.031 A 
ATOM     88  C   UNL A   1      45.726  33.410  30.294  1.00  0.00     0.131 A 
ATOM     89  C   UNL A   1      45.619  35.507  28.493  1.00  0.00     0.055 A 
ATOM     90  C   UNL A   1      46.366  34.611  30.598  1.00  0.00     0.041 A 
ATOM     91  F   UNL A   1      45.818  32.410  31.186  1.00  0.00    -0.206 F 
ATOM     92  C   UNL A   1      46.321  35.666  29.692  1.00  0.00     0.022 A 
BRANCH  89  93
ATOM     93  S   UNL A   1      45.627  36.834  27.257  1.00  0.00     0.124 S 
ATOM     94  O   UNL A   1      46.380  37.881  27.939  1.00  0.00    -0.237 OA
ATOM     95  O   UNL A   1      46.296  36.202  26.123  1.00  0.00    -0.237 OA
ATOM     96  O   UNL A   1      44.208  37.122  27.053  1.00  0.00    -0.744 OA
ENDBRANCH  89  93
ENDBRANCH  63  86
ENDBRANCH  37  38
ENDBRANCH  29  32
ENDBRANCH  27  28
ENDBRANCH   1  27
TORSDOF 16
ENDMDL
MODEL 2
REMARK VINA RESULT:     -12.7      5.168     10.892
REMARK SMILES O=C(C[NH+]1CCN(c2nccc(N3CCCCC3)n2)CC1)NCCCNC(=O)c1ccc(-c2c3nc(c(-c4cc(S(=O)(=O)[O-])ccc4F)c4ccc([nH]4)c(-c4cc(S(=O)(=O)[O-])ccc4F)c4nc(c(-c5cc(S(=O)(=O)[O-])ccc5F)c5ccc2[nH]5)C=C4)C=C3)cc1
REMARK SMILES IDX 24 1 23 2 22 3 1 4 2 5 3 7 4 8 5 9 21 10 6 12 20 13 7 14
REMARK SMILES IDX 8 15 9 16 19 17 10 18 12 19 11 20 13 21 14 22 18 23 15 24
REMARK SMILES IDX 17 25 16 26 25 27 26 28 27 29 28 31 29 32 30 33 91 34 31 35
REMARK SMILES IDX 90 36 32 37 33 38 34 39 84 40 35 41 89 42 83 43 85 44 36 45
REMARK SMILES IDX 88 46 82 47 81 48 37 50 69 51 49 52 68 53 50 54 53 55 67 56
REMARK SMILES IDX 86 57 51 58 52 59 66 61 87 62 54 63 38 64 39 65 47 66 40 67
REMARK SMILES IDX 46 68 48 69 45 70 41 71 42 72 43 73 44 74 70 75 71 76 79 77
REMARK SMILES IDX 72 78 78 79 80 80 77 81 73 82 74 83 75 84 76 85 55 86 56 87
REMARK SMILES IDX 64 88 57 89 63 90 65 91 62 92 58 93 59 94 60 95 61 96
REMARK H PARENT 22 6 4 11 26 30 85 49 53 60
REMARK Flexibility Score: inf
ROOT
ATOM      1  C   UNL A   1      32.359  30.005  25.374  1.00  0.00     0.042 C 
ENDROOT
BRANCH   1   2
ATOM      2  C   UNL A   1      31.077  29.528  24.707  1.00  0.00     0.118 C 
BRANCH   2   3
ATOM      3  N   UNL A   1      31.108  28.124  24.350  1.00  0.00    -0.351 N 
ATOM      4  O   UNL A   1      30.851  28.475  22.093  1.00  0.00    -0.269 OA
ATOM      5  C   UNL A   1      31.056  27.713  23.033  1.00  0.00     0.275 C 
ATOM      6  H   UNL A   1      31.169  27.448  25.063  1.00  0.00     0.163 HD
BRANCH   5   7
ATOM      7  C   UNL A   1      31.310  26.220  22.844  1.00  0.00     0.363 C 
BRANCH   7   8
ATOM      8  N   UNL A   1      32.676  25.882  22.419  1.00  0.00    -0.324 N 
ATOM      9  C   UNL A   1      33.702  26.038  23.470  1.00  0.00     0.284 C 
ATOM     10  C   UNL A   1      32.829  24.612  21.685  1.00  0.00     0.284 C 
ATOM     11  H   UNL A   1      32.855  26.608  21.725  1.00  0.00     0.348 HD
ATOM     12  C   UNL A   1      34.042  24.792  24.327  1.00  0.00     0.181 C 
ATOM     13  C   UNL A   1      33.192  23.356  22.507  1.00  0.00     0.181 C 
ATOM     14  N   UNL A   1      34.265  23.654  23.449  1.00  0.00    -0.329 N 
BRANCH  14  15
ATOM     15  C   UNL A   1      34.921  22.546  23.938  1.00  0.00     0.227 A 
ATOM     16  N   UNL A   1      36.246  22.582  24.124  1.00  0.00    -0.221 NA
ATOM     17  N   UNL A   1      34.169  21.467  24.205  1.00  0.00    -0.196 NA
ATOM     18  C   UNL A   1      36.804  21.493  24.675  1.00  0.00     0.119 A 
ATOM     19  C   UNL A   1      34.751  20.373  24.718  1.00  0.00     0.134 A 
ATOM     20  C   UNL A   1      36.098  20.363  25.007  1.00  0.00     0.067 A 
BRANCH  19  21
ATOM     21  N   UNL A   1      33.996  19.221  24.880  1.00  0.00    -0.356 N 
ATOM     22  C   UNL A   1      34.690  17.940  24.761  1.00  0.00     0.118 C 
ATOM     23  C   UNL A   1      32.576  19.255  24.543  1.00  0.00     0.118 C 
ATOM     24  C   UNL A   1      34.456  17.302  23.395  1.00  0.00     0.022 C 
ATOM     25  C   UNL A   1      32.329  18.611  23.175  1.00  0.00     0.022 C 
ATOM     26  C   UNL A   1      32.963  17.223  23.087  1.00  0.00     0.004 C 
ENDBRANCH  19  21
ENDBRANCH  14  15
ENDBRANCH   7   8
ENDBRANCH   5   7
ENDBRANCH   2   3
ENDBRANCH   1   2
BRANCH   1  27
ATOM     27  C   UNL A   1      32.216  30.418  26.835  1.00  0.00     0.118 C 
BRANCH  27  28
ATOM     28  N   UNL A   1      32.115  31.855  27.043  1.00  0.00    -0.352 N 
ATOM     29  C   UNL A   1      33.050  32.715  27.579  1.00  0.00     0.251 C 
ATOM     30  H   UNL A   1      31.267  32.268  26.764  1.00  0.00     0.163 HD
ATOM     31  O   UNL A   1      32.769  33.897  27.759  1.00  0.00    -0.269 OA
BRANCH  29  32
ATOM     32  C   UNL A   1      34.376  32.195  27.985  1.00  0.00     0.039 A 
ATOM     33  C   UNL A   1      35.478  33.053  27.958  1.00  0.00     0.014 A 
ATOM     34  C   UNL A   1      34.518  30.886  28.454  1.00  0.00     0.014 A 
ATOM     35  C   UNL A   1      36.697  32.636  28.502  1.00  0.00     0.010 A 
ATOM     36  C   UNL A   1      35.711  30.498  29.060  1.00  0.00     0.010 A 
ATOM     37  C   UNL A   1      36.807  31.376  29.113  1.00  0.00    -0.014 A 
BRANCH  37  38
ATOM     38  C   UNL A   1      38.037  30.957  29.841  1.00  0.00     0.031 A 
ATOM     39  C   UNL A   1      38.973  29.957  29.220  1.00  0.00     0.074 A 
ATOM     40  C   UNL A   1      38.253  31.388  31.100  1.00  0.00     0.049 A 
ATOM     41  N   UNL A   1      39.986  29.325  29.755  1.00  0.00    -0.248 NA
ATOM     42  C   UNL A   1      38.710  29.598  27.819  1.00  0.00     0.031 C 
ATOM     43  C   UNL A   1      37.408  32.338  31.828  1.00  0.00     0.029 A 
ATOM     44  N   UNL A   1      39.239  31.067  32.002  1.00  0.00    -0.354 N 
ATOM     45  C   UNL A   1      40.465  28.472  28.767  1.00  0.00     0.074 A 
ATOM     46  C   UNL A   1      39.599  28.638  27.617  1.00  0.00     0.031 C 
ATOM     47  C   UNL A   1      37.914  32.526  33.058  1.00  0.00     0.029 A 
ATOM     48  C   UNL A   1      39.086  31.672  33.230  1.00  0.00     0.049 A 
ATOM     49  H   UNL A   1      39.984  30.459  31.792  1.00  0.00     0.167 HD
ATOM     50  C   UNL A   1      41.536  27.638  28.808  1.00  0.00     0.034 A 
ATOM     51  C   UNL A   1      39.789  31.537  34.372  1.00  0.00     0.034 A 
ATOM     52  C   UNL A   1      42.403  27.499  29.953  1.00  0.00     0.049 A 
ATOM     53  C   UNL A   1      40.963  30.592  34.404  1.00  0.00     0.074 A 
ATOM     54  C   UNL A   1      43.541  26.721  30.084  1.00  0.00     0.029 A 
ATOM     55  N   UNL A   1      42.228  28.150  31.167  1.00  0.00    -0.354 N 
ATOM     56  N   UNL A   1      41.415  29.807  33.452  1.00  0.00    -0.248 NA
ATOM     57  C   UNL A   1      41.724  30.517  35.658  1.00  0.00     0.031 C 
ATOM     58  C   UNL A   1      44.021  26.858  31.390  1.00  0.00     0.029 A 
ATOM     59  C   UNL A   1      43.224  27.776  32.056  1.00  0.00     0.049 A 
ATOM     60  H   UNL A   1      41.504  28.786  31.368  1.00  0.00     0.167 HD
ATOM     61  C   UNL A   1      42.537  29.176  33.984  1.00  0.00     0.074 A 
ATOM     62  C   UNL A   1      42.691  29.669  35.337  1.00  0.00     0.031 C 
ATOM     63  C   UNL A   1      43.370  28.278  33.401  1.00  0.00     0.034 A 
BRANCH  50  64
ATOM     64  C   UNL A   1      41.803  26.794  27.586  1.00  0.00     0.023 A 
ATOM     65  C   UNL A   1      41.437  25.439  27.531  1.00  0.00     0.031 A 
ATOM     66  C   UNL A   1      42.463  27.344  26.472  1.00  0.00     0.131 A 
ATOM     67  C   UNL A   1      41.804  24.658  26.424  1.00  0.00     0.055 A 
ATOM     68  C   UNL A   1      42.750  26.582  25.337  1.00  0.00     0.041 A 
ATOM     69  F   UNL A   1      42.854  28.627  26.473  1.00  0.00    -0.206 F 
ATOM     70  C   UNL A   1      42.435  25.226  25.315  1.00  0.00     0.022 A 
BRANCH  67  71
ATOM     71  S   UNL A   1      41.578  22.862  26.522  1.00  0.00     0.124 S 
ATOM     72  O   UNL A   1      40.138  22.735  26.309  1.00  0.00    -0.237 OA
ATOM     73  O   UNL A   1      42.429  22.377  25.442  1.00  0.00    -0.237 OA
ATOM     74  O   UNL A   1      42.032  22.533  27.872  1.00  0.00    -0.744 OA
ENDBRANCH  67  71
ENDBRANCH  50  64
BRANCH  51  75
ATOM     75  C   UNL A   1      39.395  32.294  35.594  1.00  0.00     0.023 A 
ATOM     76  C   UNL A   1      38.660  31.678  36.618  1.00  0.00     0.031 A 
ATOM     77  C   UNL A   1      39.716  33.656  35.738  1.00  0.00     0.131 A 
ATOM     78  C   UNL A   1      38.231  32.432  37.722  1.00  0.00     0.055 A 
ATOM     79  C   UNL A   1      39.328  34.389  36.861  1.00  0.00     0.041 A 
ATOM     80  F   UNL A   1      40.424  34.291  34.790  1.00  0.00    -0.206 F 
ATOM     81  C   UNL A   1      38.570  33.780  37.855  1.00  0.00     0.022 A 
BRANCH  78  82
ATOM     82  S   UNL A   1      37.152  31.640  38.947  1.00  0.00     0.124 S 
ATOM     83  O   UNL A   1      36.932  30.329  38.345  1.00  0.00    -0.237 OA
ATOM     84  O   UNL A   1      37.985  31.665  40.145  1.00  0.00    -0.237 OA
ATOM     85  O   UNL A   1      35.982  32.514  38.984  1.00  0.00    -0.744 OA
ENDBRANCH  78  82
ENDBRANCH  51  75
BRANCH  63  86
ATOM     86  C   UNL A   1      44.564  27.826  34.200  1.00  0.00     0.023 A 
ATOM     87  C   UNL A   1      44.521  26.691  35.029  1.00  0.00     0.031 A 
ATOM     88  C   UNL A   1      45.772  28.542  34.117  1.00  0.00     0.131 A 
ATOM     89  C   UNL A   1      45.656  26.328  35.771  1.00  0.00     0.055 A 
ATOM     90  C   UNL A   1      46.910  28.148  34.820  1.00  0.00     0.041 A 
ATOM     91  F   UNL A   1      45.865  29.633  33.339  1.00  0.00    -0.206 F 
ATOM     92  C   UNL A   1      46.853  27.040  35.660  1.00  0.00     0.022 A 
BRANCH  89  93
ATOM     93  S   UNL A   1      45.533  24.938  36.930  1.00  0.00     0.124 S 
ATOM     94  O   UNL A   1      46.300  25.425  38.072  1.00  0.00    -0.237 OA
ATOM     95  O   UNL A   1      44.092  24.824  37.132  1.00  0.00    -0.237 OA
ATOM     96  O   UNL A   1      46.144  23.827  36.201  1.00  0.00    -0.744 OA
ENDBRANCH  89  93
ENDBRANCH  63  86
ENDBRANCH  37  38
ENDBRANCH  29  32
ENDBRANCH  27  28
ENDBRANCH   1  27
TORSDOF 16
ENDMDL
MODEL 3
REMARK VINA RESULT:     -12.6      4.888     10.531
REMARK SMILES O=C(C[NH+]1CCN(c2nccc(N3CCCCC3)n2)CC1)NCCCNC(=O)c1ccc(-c2c3nc(c(-c4cc(S(=O)(=O)[O-])ccc4F)c4ccc([nH]4)c(-c4cc(S(=O)(=O)[O-])ccc4F)c4nc(c(-c5cc(S(=O)(=O)[O-])ccc5F)c5ccc2[nH]5)C=C4)C=C3)cc1
REMARK SMILES IDX 24 1 23 2 22 3 1 4 2 5 3 7 4 8 5 9 21 10 6 12 20 13 7 14
REMARK SMILES IDX 8 15 9 16 19 17 10 18 12 19 11 20 13 21 14 22 18 23 15 24
REMARK SMILES IDX 17 25 16 26 25 27 26 28 27 29 28 31 29 32 30 33 91 34 31 35
REMARK SMILES IDX 90 36 32 37 33 38 34 39 84 40 35 41 89 42 83 43 85 44 36 45
REMARK SMILES IDX 88 46 82 47 81 48 37 50 69 51 49 52 68 53 50 54 53 55 67 56
REMARK SMILES IDX 86 57 51 58 52 59 66 61 87 62 54 63 38 64 39 65 47 66 40 67
REMARK SMILES IDX 46 68 48 69 45 70 41 71 42 72 43 73 44 74 70 75 71 76 79 77
REMARK SMILES IDX 72 78 78 79 80 80 77 81 73 82 74 83 75 84 76 85 55 86 56 87
REMARK SMILES IDX 64 88 57 89 63 90 65 91 62 92 58 93 59 94 60 95 61 96
REMARK H PARENT 22 6 4 11 26 30 85 49 53 60
REMARK Flexibility Score: inf
ROOT
ATOM      1  C   UNL A   1      32.333  29.894  25.133  1.00  0.00     0.042 C 
ENDROOT
BRANCH   1   2
ATOM      2  C   UNL A   1      31.067  29.358  24.481  1.00  0.00     0.118 C 
BRANCH   2   3
ATOM      3  N   UNL A   1      31.141  27.946  24.167  1.00  0.00    -0.351 N 
ATOM      4  O   UNL A   1      30.456  28.178  21.986  1.00  0.00    -0.269 OA
ATOM      5  C   UNL A   1      30.885  27.475  22.895  1.00  0.00     0.275 C 
ATOM      6  H   UNL A   1      31.382  27.307  24.876  1.00  0.00     0.163 HD
BRANCH   5   7
ATOM      7  C   UNL A   1      31.215  25.996  22.707  1.00  0.00     0.363 C 
BRANCH   7   8
ATOM      8  N   UNL A   1      32.614  25.725  22.345  1.00  0.00    -0.324 N 
ATOM      9  C   UNL A   1      33.581  25.916  23.445  1.00  0.00     0.284 C 
ATOM     10  C   UNL A   1      32.859  24.471  21.609  1.00  0.00     0.284 C 
ATOM     11  H   UNL A   1      32.793  26.465  21.667  1.00  0.00     0.348 HD
ATOM     12  C   UNL A   1      33.935  24.677  24.308  1.00  0.00     0.181 C 
ATOM     13  C   UNL A   1      33.240  23.223  22.437  1.00  0.00     0.181 C 
ATOM     14  N   UNL A   1      34.251  23.559  23.432  1.00  0.00    -0.329 N 
BRANCH  14  15
ATOM     15  C   UNL A   1      34.933  22.477  23.943  1.00  0.00     0.227 A 
ATOM     16  N   UNL A   1      36.256  22.550  24.134  1.00  0.00    -0.221 NA
ATOM     17  N   UNL A   1      34.207  21.384  24.224  1.00  0.00    -0.196 NA
ATOM     18  C   UNL A   1      36.839  21.485  24.705  1.00  0.00     0.119 A 
ATOM     19  C   UNL A   1      34.815  20.313  24.758  1.00  0.00     0.134 A 
ATOM     20  C   UNL A   1      36.160  20.343  25.053  1.00  0.00     0.067 A 
BRANCH  19  21
ATOM     21  N   UNL A   1      34.089  19.146  24.936  1.00  0.00    -0.356 N 
ATOM     22  C   UNL A   1      34.777  17.881  24.685  1.00  0.00     0.118 C 
ATOM     23  C   UNL A   1      32.642  19.178  24.743  1.00  0.00     0.118 C 
ATOM     24  C   UNL A   1      34.413  17.308  23.318  1.00  0.00     0.022 C 
ATOM     25  C   UNL A   1      32.265  18.599  23.376  1.00  0.00     0.022 C 
ATOM     26  C   UNL A   1      32.898  17.226  23.156  1.00  0.00     0.004 C 
ENDBRANCH  19  21
ENDBRANCH  14  15
ENDBRANCH   7   8
ENDBRANCH   5   7
ENDBRANCH   2   3
ENDBRANCH   1   2
BRANCH   1  27
ATOM     27  C   UNL A   1      32.199  30.262  26.607  1.00  0.00     0.118 C 
BRANCH  27  28
ATOM     28  N   UNL A   1      31.987  31.681  26.852  1.00  0.00    -0.352 N 
ATOM     29  C   UNL A   1      32.847  32.594  27.426  1.00  0.00     0.251 C 
ATOM     30  H   UNL A   1      31.113  32.037  26.571  1.00  0.00     0.163 HD
ATOM     31  O   UNL A   1      32.474  33.745  27.634  1.00  0.00    -0.269 OA
BRANCH  29  32
ATOM     32  C   UNL A   1      34.202  32.163  27.838  1.00  0.00     0.039 A 
ATOM     33  C   UNL A   1      35.196  33.130  28.013  1.00  0.00     0.014 A 
ATOM     34  C   UNL A   1      34.474  30.821  28.115  1.00  0.00     0.014 A 
ATOM     35  C   UNL A   1      36.427  32.767  28.570  1.00  0.00     0.010 A 
ATOM     36  C   UNL A   1      35.672  30.475  28.736  1.00  0.00     0.010 A 
ATOM     37  C   UNL A   1      36.654  31.448  28.992  1.00  0.00    -0.014 A 
BRANCH  37  38
ATOM     38  C   UNL A   1      37.886  31.056  29.730  1.00  0.00     0.031 A 
ATOM     39  C   UNL A   1      38.839  30.061  29.127  1.00  0.00     0.074 A 
ATOM     40  C   UNL A   1      38.092  31.509  30.983  1.00  0.00     0.049 A 
ATOM     41  N   UNL A   1      39.859  29.451  29.675  1.00  0.00    -0.248 NA
ATOM     42  C   UNL A   1      38.586  29.678  27.730  1.00  0.00     0.031 C 
ATOM     43  C   UNL A   1      37.231  32.456  31.695  1.00  0.00     0.029 A 
ATOM     44  N   UNL A   1      39.078  31.214  31.894  1.00  0.00    -0.354 N 
ATOM     45  C   UNL A   1      40.353  28.590  28.701  1.00  0.00     0.074 A 
ATOM     46  C   UNL A   1      39.489  28.728  27.545  1.00  0.00     0.031 C 
ATOM     47  C   UNL A   1      37.730  32.669  32.924  1.00  0.00     0.029 A 
ATOM     48  C   UNL A   1      38.912  31.834  33.112  1.00  0.00     0.049 A 
ATOM     49  H   UNL A   1      39.833  30.614  31.695  1.00  0.00     0.167 HD
ATOM     50  C   UNL A   1      41.435  27.773  28.758  1.00  0.00     0.034 A 
ATOM     51  C   UNL A   1      39.613  31.726  34.259  1.00  0.00     0.034 A 
ATOM     52  C   UNL A   1      42.300  27.662  29.908  1.00  0.00     0.049 A 
ATOM     53  C   UNL A   1      40.800  30.797  34.309  1.00  0.00     0.074 A 
ATOM     54  C   UNL A   1      43.448  26.902  30.054  1.00  0.00     0.029 A 
ATOM     55  N   UNL A   1      42.111  28.328  31.112  1.00  0.00    -0.354 N 
ATOM     56  N   UNL A   1      41.267  30.006  33.370  1.00  0.00    -0.248 NA
ATOM     57  C   UNL A   1      41.557  30.751  35.566  1.00  0.00     0.031 C 
ATOM     58  C   UNL A   1      43.922  27.065  31.360  1.00  0.00     0.029 A 
ATOM     59  C   UNL A   1      43.109  27.980  32.010  1.00  0.00     0.049 A 
ATOM     60  H   UNL A   1      41.378  28.956  31.301  1.00  0.00     0.167 HD
ATOM     61  C   UNL A   1      42.395  29.398  33.915  1.00  0.00     0.074 A 
ATOM     62  C   UNL A   1      42.537  29.912  35.261  1.00  0.00     0.031 C 
ATOM     63  C   UNL A   1      43.243  28.504  33.348  1.00  0.00     0.034 A 
BRANCH  50  64
ATOM     64  C   UNL A   1      41.719  26.915  27.549  1.00  0.00     0.023 A 
ATOM     65  C   UNL A   1      41.371  25.555  27.511  1.00  0.00     0.031 A 
ATOM     66  C   UNL A   1      42.376  27.457  26.430  1.00  0.00     0.131 A 
ATOM     67  C   UNL A   1      41.753  24.763  26.417  1.00  0.00     0.055 A 
ATOM     68  C   UNL A   1      42.678  26.684  25.308  1.00  0.00     0.041 A 
ATOM     69  F   UNL A   1      42.751  28.746  26.415  1.00  0.00    -0.206 F 
ATOM     70  C   UNL A   1      42.382  25.323  25.304  1.00  0.00     0.022 A 
BRANCH  67  71
ATOM     71  S   UNL A   1      41.550  22.966  26.540  1.00  0.00     0.124 S 
ATOM     72  O   UNL A   1      42.255  22.675  27.786  1.00  0.00    -0.237 OA
ATOM     73  O   UNL A   1      40.101  22.813  26.576  1.00  0.00    -0.237 OA
ATOM     74  O   UNL A   1      42.203  22.464  25.332  1.00  0.00    -0.744 OA
ENDBRANCH  67  71
ENDBRANCH  50  64
BRANCH  51  75
ATOM     75  C   UNL A   1      39.204  32.495  35.468  1.00  0.00     0.023 A 
ATOM     76  C   UNL A   1      39.648  33.812  35.669  1.00  0.00     0.031 A 
ATOM     77  C   UNL A   1      38.395  31.912  36.459  1.00  0.00     0.131 A 
ATOM     78  C   UNL A   1      39.316  34.488  36.853  1.00  0.00     0.055 A 
ATOM     79  C   UNL A   1      38.028  32.607  37.613  1.00  0.00     0.041 A 
ATOM     80  F   UNL A   1      37.938  30.658  36.312  1.00  0.00    -0.206 F 
ATOM     81  C   UNL A   1      38.500  33.899  37.821  1.00  0.00     0.022 A 
BRANCH  78  82
ATOM     82  S   UNL A   1      40.036  36.128  37.146  1.00  0.00     0.124 S 
ATOM     83  O   UNL A   1      39.219  36.617  38.251  1.00  0.00    -0.237 OA
ATOM     84  O   UNL A   1      41.421  35.797  37.468  1.00  0.00    -0.237 OA
ATOM     85  O   UNL A   1      39.841  36.817  35.873  1.00  0.00    -0.744 OA
ENDBRANCH  78  82
ENDBRANCH  51  75
BRANCH  63  86
ATOM     86  C   UNL A   1      44.440  28.080  34.158  1.00  0.00     0.023 A 
ATOM     87  C   UNL A   1      45.655  28.787  34.121  1.00  0.00     0.031 A 
ATOM     88  C   UNL A   1      44.355  26.950  34.991  1.00  0.00     0.131 A 
ATOM     89  C   UNL A   1      46.748  28.334  34.876  1.00  0.00     0.055 A 
ATOM     90  C   UNL A   1      45.429  26.532  35.776  1.00  0.00     0.041 A 
ATOM     91  F   UNL A   1      43.217  26.240  35.062  1.00  0.00    -0.206 F 
ATOM     92  C   UNL A   1      46.637  27.220  35.714  1.00  0.00     0.022 A 
BRANCH  89  93
ATOM     93  S   UNL A   1      48.339  29.188  34.710  1.00  0.00     0.124 S 
ATOM     94  O   UNL A   1      48.396  29.449  33.277  1.00  0.00    -0.237 OA
ATOM     95  O   UNL A   1      48.158  30.357  35.565  1.00  0.00    -0.237 OA
ATOM     96  O   UNL A   1      49.307  28.209  35.202  1.00  0.00    -0.744 OA
ENDBRANCH  89  93
ENDBRANCH  63  86
ENDBRANCH  37  38
ENDBRANCH  29  32
ENDBRANCH  27  28
ENDBRANCH   1  27
TORSDOF 16
ENDMDL
