MODEL 1
REMARK VINA RESULT:     -11.6      0.000      0.000
REMARK SMILES CC[C@](O)(C(=O)NCCCNC(=O)c1ccc(-c2c3nc(c(-c4cc(S(=O)(=O)[O-])ccc4F)c4ccc([nH]4)c(-c4cc(S(=O)(=O)[O-])ccc4F)c4nc(c(-c5cc(S(=O)(=O)[O-])ccc5F)c5ccc2[nH]5)C=C4)C=C3)cc1)[C@@H](C)c1ccc2c(c1)OCCO2
REMARK SMILES IDX 9 1 8 2 7 3 5 4 6 5 3 7 2 8 1 9 77 10 78 11 79 12 80 13
REMARK SMILES IDX 84 14 81 15 83 16 82 17 85 18 88 19 86 20 87 21 4 22 10 24
REMARK SMILES IDX 11 25 12 26 13 28 14 29 15 30 76 31 16 32 75 33 17 34 18 35
REMARK SMILES IDX 19 36 69 37 20 38 74 39 68 40 70 41 21 42 73 43 67 44 66 45
REMARK SMILES IDX 22 47 54 48 34 49 53 50 35 51 38 52 52 53 71 54 36 55 37 56
REMARK SMILES IDX 51 58 72 59 39 60 23 61 24 62 32 63 25 64 31 65 33 66 30 67
REMARK SMILES IDX 26 68 27 69 28 70 29 71 55 72 56 73 64 74 57 75 63 76 65 77
REMARK SMILES IDX 62 78 58 79 59 80 60 81 61 82 40 83 41 84 49 85 42 86 48 87
REMARK SMILES IDX 50 88 47 89 43 90 44 91 45 92 46 93
REMARK H PARENT 7 6 4 23 11 27 70 46 38 57
REMARK Flexibility Score: inf
ROOT
ATOM      1  C   UNL A   1      31.122  31.960  26.414  1.00  0.00     0.042 C 
ENDROOT
BRANCH   1   2
ATOM      2  C   UNL A   1      31.126  30.613  25.725  1.00  0.00     0.117 C 
BRANCH   2   3
ATOM      3  N   UNL A   1      32.022  29.652  26.338  1.00  0.00    -0.354 N 
ATOM      4  C   UNL A   1      32.631  28.576  25.748  1.00  0.00     0.252 C 
ATOM      5  O   UNL A   1      33.522  28.009  26.384  1.00  0.00    -0.272 OA
ATOM      6  H   UNL A   1      32.216  29.790  27.293  1.00  0.00     0.163 HD
BRANCH   4   7
ATOM      7  C   UNL A   1      32.236  28.184  24.292  1.00  0.00     0.149 C 
BRANCH   7   8
ATOM      8  C   UNL A   1      33.176  27.000  23.883  1.00  0.00     0.043 C 
ATOM      9  C   UNL A   1      33.641  26.957  22.432  1.00  0.00     0.007 C 
ENDBRANCH   7   8
BRANCH   7  10
ATOM     10  C   UNL A   1      30.743  27.745  24.234  1.00  0.00     0.058 C 
ATOM     11  C   UNL A   1      30.006  28.111  22.922  1.00  0.00     0.016 C 
BRANCH  10  12
ATOM     12  C   UNL A   1      30.561  26.249  24.505  1.00  0.00    -0.038 A 
ATOM     13  C   UNL A   1      30.485  25.341  23.431  1.00  0.00     0.008 A 
ATOM     14  C   UNL A   1      30.633  25.757  25.816  1.00  0.00     0.054 A 
ATOM     15  C   UNL A   1      30.656  23.976  23.645  1.00  0.00     0.051 A 
ATOM     16  C   UNL A   1      30.950  24.428  26.008  1.00  0.00     0.161 A 
ATOM     17  C   UNL A   1      31.006  23.557  24.919  1.00  0.00     0.161 A 
ATOM     18  O   UNL A   1      31.392  24.074  27.252  1.00  0.00    -0.486 OA
ATOM     19  O   UNL A   1      31.652  22.349  25.050  1.00  0.00    -0.486 OA
ATOM     20  C   UNL A   1      32.487  23.146  27.190  1.00  0.00     0.271 C 
ATOM     21  C   UNL A   1      32.847  22.670  25.782  1.00  0.00     0.271 C 
ENDBRANCH  10  12
ENDBRANCH   7  10
BRANCH   7  22
ATOM     22  O   UNL A   1      32.414  29.351  23.474  1.00  0.00    -0.379 OA
ATOM     23  H   UNL A   1      33.039  29.956  23.906  1.00  0.00     0.212 HD
ENDBRANCH   7  22
ENDBRANCH   4   7
ENDBRANCH   2   3
ENDBRANCH   1   2
BRANCH   1  24
ATOM     24  C   UNL A   1      32.501  32.387  26.876  1.00  0.00     0.118 C 
BRANCH  24  25
ATOM     25  N   UNL A   1      32.526  33.769  27.346  1.00  0.00    -0.352 N 
ATOM     26  C   UNL A   1      33.268  34.355  28.336  1.00  0.00     0.251 C 
ATOM     27  H   UNL A   1      31.909  34.376  26.877  1.00  0.00     0.163 HD
ATOM     28  O   UNL A   1      32.946  35.471  28.750  1.00  0.00    -0.269 OA
BRANCH  26  29
ATOM     29  C   UNL A   1      34.429  33.648  28.907  1.00  0.00     0.039 A 
ATOM     30  C   UNL A   1      35.703  34.199  28.766  1.00  0.00     0.014 A 
ATOM     31  C   UNL A   1      34.259  32.436  29.582  1.00  0.00     0.014 A 
ATOM     32  C   UNL A   1      36.794  33.563  29.360  1.00  0.00     0.010 A 
ATOM     33  C   UNL A   1      35.321  31.876  30.277  1.00  0.00     0.010 A 
ATOM     34  C   UNL A   1      36.606  32.421  30.156  1.00  0.00    -0.014 A 
BRANCH  34  35
ATOM     35  C   UNL A   1      37.745  31.766  30.846  1.00  0.00     0.031 A 
ATOM     36  C   UNL A   1      38.548  30.711  30.132  1.00  0.00     0.074 A 
ATOM     37  C   UNL A   1      38.021  32.090  32.124  1.00  0.00     0.049 A 
ATOM     38  N   UNL A   1      39.548  29.994  30.575  1.00  0.00    -0.248 NA
ATOM     39  C   UNL A   1      38.151  30.395  28.751  1.00  0.00     0.031 C 
ATOM     40  C   UNL A   1      37.269  33.054  32.933  1.00  0.00     0.029 A 
ATOM     41  N   UNL A   1      39.005  31.646  32.970  1.00  0.00    -0.354 N 
ATOM     42  C   UNL A   1      39.895  29.142  29.531  1.00  0.00     0.074 A 
ATOM     43  C   UNL A   1      38.941  29.372  28.468  1.00  0.00     0.031 C 
ATOM     44  C   UNL A   1      37.845  33.158  34.141  1.00  0.00     0.029 A 
ATOM     45  C   UNL A   1      38.971  32.233  34.213  1.00  0.00     0.049 A 
ATOM     46  H   UNL A   1      39.672  30.970  32.710  1.00  0.00     0.167 HD
ATOM     47  C   UNL A   1      40.935  28.278  29.450  1.00  0.00     0.034 A 
ATOM     48  C   UNL A   1      39.755  32.041  35.292  1.00  0.00     0.034 A 
ATOM     49  C   UNL A   1      41.879  28.068  30.521  1.00  0.00     0.049 A 
ATOM     50  C   UNL A   1      40.893  31.057  35.188  1.00  0.00     0.074 A 
ATOM     51  C   UNL A   1      42.992  27.247  30.541  1.00  0.00     0.029 A 
ATOM     52  N   UNL A   1      41.817  28.684  31.765  1.00  0.00    -0.354 N 
ATOM     53  N   UNL A   1      41.242  30.300  34.172  1.00  0.00    -0.248 NA
ATOM     54  C   UNL A   1      41.754  30.916  36.368  1.00  0.00     0.031 C 
ATOM     55  C   UNL A   1      43.560  27.311  31.818  1.00  0.00     0.029 A 
ATOM     56  C   UNL A   1      42.856  28.239  32.569  1.00  0.00     0.049 A 
ATOM     57  H   UNL A   1      41.136  29.341  32.037  1.00  0.00     0.167 HD
ATOM     58  C   UNL A   1      42.381  29.614  34.584  1.00  0.00     0.074 A 
ATOM     59  C   UNL A   1      42.672  30.069  35.928  1.00  0.00     0.031 C 
ATOM     60  C   UNL A   1      43.122  28.694  33.914  1.00  0.00     0.034 A 
BRANCH  47  61
ATOM     61  C   UNL A   1      41.088  27.492  28.169  1.00  0.00     0.023 A 
ATOM     62  C   UNL A   1      40.726  26.134  28.090  1.00  0.00     0.031 A 
ATOM     63  C   UNL A   1      41.630  28.092  27.019  1.00  0.00     0.131 A 
ATOM     64  C   UNL A   1      40.985  25.405  26.920  1.00  0.00     0.055 A 
ATOM     65  C   UNL A   1      41.802  27.383  25.829  1.00  0.00     0.041 A 
ATOM     66  F   UNL A   1      42.018  29.378  27.037  1.00  0.00    -0.206 F 
ATOM     67  C   UNL A   1      41.493  26.026  25.779  1.00  0.00     0.022 A 
BRANCH  64  68
ATOM     68  S   UNL A   1      40.789  23.602  26.965  1.00  0.00     0.124 S 
ATOM     69  O   UNL A   1      41.733  23.178  25.933  1.00  0.00    -0.237 OA
ATOM     70  O   UNL A   1      41.156  23.278  28.338  1.00  0.00    -0.237 OA
ATOM     71  O   UNL A   1      39.381  23.402  26.630  1.00  0.00    -0.744 OA
ENDBRANCH  64  68
ENDBRANCH  47  61
BRANCH  48  72
ATOM     72  C   UNL A   1      39.493  32.782  36.560  1.00  0.00     0.023 A 
ATOM     73  C   UNL A   1      38.587  32.291  37.514  1.00  0.00     0.031 A 
ATOM     74  C   UNL A   1      40.114  34.017  36.817  1.00  0.00     0.131 A 
ATOM     75  C   UNL A   1      38.284  33.057  38.651  1.00  0.00     0.055 A 
ATOM     76  C   UNL A   1      39.856  34.746  37.980  1.00  0.00     0.041 A 
ATOM     77  F   UNL A   1      40.993  34.531  35.942  1.00  0.00    -0.206 F 
ATOM     78  C   UNL A   1      38.924  34.274  38.898  1.00  0.00     0.022 A 
BRANCH  75  79
ATOM     79  S   UNL A   1      36.963  32.487  39.755  1.00  0.00     0.124 S 
ATOM     80  O   UNL A   1      37.402  31.133  40.071  1.00  0.00    -0.237 OA
ATOM     81  O   UNL A   1      37.038  33.457  40.842  1.00  0.00    -0.237 OA
ATOM     82  O   UNL A   1      35.764  32.578  38.924  1.00  0.00    -0.744 OA
ENDBRANCH  75  79
ENDBRANCH  48  72
BRANCH  60  83
ATOM     83  C   UNL A   1      44.343  28.155  34.621  1.00  0.00     0.023 A 
ATOM     84  C   UNL A   1      44.281  27.015  35.440  1.00  0.00     0.031 A 
ATOM     85  C   UNL A   1      45.582  28.809  34.492  1.00  0.00     0.131 A 
ATOM     86  C   UNL A   1      45.416  26.606  36.157  1.00  0.00     0.055 A 
ATOM     87  C   UNL A   1      46.725  28.354  35.148  1.00  0.00     0.041 A 
ATOM     88  F   UNL A   1      45.700  29.905  33.726  1.00  0.00    -0.206 F 
ATOM     89  C   UNL A   1      46.643  27.256  36.001  1.00  0.00     0.022 A 
BRANCH  86  90
ATOM     90  S   UNL A   1      45.237  25.286  37.388  1.00  0.00     0.124 S 
ATOM     91  O   UNL A   1      44.324  25.893  38.351  1.00  0.00    -0.237 OA
ATOM     92  O   UNL A   1      44.691  24.191  36.593  1.00  0.00    -0.237 OA
ATOM     93  O   UNL A   1      46.602  25.081  37.871  1.00  0.00    -0.744 OA
ENDBRANCH  86  90
ENDBRANCH  60  83
ENDBRANCH  34  35
ENDBRANCH  26  29
ENDBRANCH  24  25
ENDBRANCH   1  24
TORSDOF 17
ENDMDL
MODEL 2
REMARK VINA RESULT:     -11.5      1.819      2.805
REMARK SMILES CC[C@](O)(C(=O)NCCCNC(=O)c1ccc(-c2c3nc(c(-c4cc(S(=O)(=O)[O-])ccc4F)c4ccc([nH]4)c(-c4cc(S(=O)(=O)[O-])ccc4F)c4nc(c(-c5cc(S(=O)(=O)[O-])ccc5F)c5ccc2[nH]5)C=C4)C=C3)cc1)[C@@H](C)c1ccc2c(c1)OCCO2
REMARK SMILES IDX 9 1 8 2 7 3 5 4 6 5 3 7 2 8 1 9 77 10 78 11 79 12 80 13
REMARK SMILES IDX 84 14 81 15 83 16 82 17 85 18 88 19 86 20 87 21 4 22 10 24
REMARK SMILES IDX 11 25 12 26 13 28 14 29 15 30 76 31 16 32 75 33 17 34 18 35
REMARK SMILES IDX 19 36 69 37 20 38 74 39 68 40 70 41 21 42 73 43 67 44 66 45
REMARK SMILES IDX 22 47 54 48 34 49 53 50 35 51 38 52 52 53 71 54 36 55 37 56
REMARK SMILES IDX 51 58 72 59 39 60 23 61 24 62 32 63 25 64 31 65 33 66 30 67
REMARK SMILES IDX 26 68 27 69 28 70 29 71 55 72 56 73 64 74 57 75 63 76 65 77
REMARK SMILES IDX 62 78 58 79 59 80 60 81 61 82 40 83 41 84 49 85 42 86 48 87
REMARK SMILES IDX 50 88 47 89 43 90 44 91 45 92 46 93
REMARK H PARENT 7 6 4 23 11 27 70 46 38 57
REMARK Flexibility Score: inf
ROOT
ATOM      1  C   UNL A   1      31.384  32.404  26.512  1.00  0.00     0.042 C 
ENDROOT
BRANCH   1   2
ATOM      2  C   UNL A   1      31.416  31.051  25.833  1.00  0.00     0.117 C 
BRANCH   2   3
ATOM      3  N   UNL A   1      31.384  29.938  26.761  1.00  0.00    -0.354 N 
ATOM      4  C   UNL A   1      32.296  28.923  26.889  1.00  0.00     0.252 C 
ATOM      5  O   UNL A   1      32.199  28.193  27.878  1.00  0.00    -0.272 OA
ATOM      6  H   UNL A   1      30.614  29.907  27.373  1.00  0.00     0.163 HD
BRANCH   4   7
ATOM      7  C   UNL A   1      33.444  28.799  25.842  1.00  0.00     0.149 C 
BRANCH   7   8
ATOM      8  C   UNL A   1      34.783  28.821  26.652  1.00  0.00     0.043 C 
ATOM      9  C   UNL A   1      35.045  30.046  27.520  1.00  0.00     0.007 C 
ENDBRANCH   7   8
BRANCH   7  10
ATOM     10  C   UNL A   1      33.308  27.470  25.042  1.00  0.00     0.058 C 
ATOM     11  C   UNL A   1      33.417  26.180  25.894  1.00  0.00     0.016 C 
BRANCH  10  12
ATOM     12  C   UNL A   1      32.020  27.411  24.216  1.00  0.00    -0.038 A 
ATOM     13  C   UNL A   1      30.895  26.720  24.708  1.00  0.00     0.008 A 
ATOM     14  C   UNL A   1      31.897  28.177  23.048  1.00  0.00     0.054 A 
ATOM     15  C   UNL A   1      29.636  26.930  24.152  1.00  0.00     0.051 A 
ATOM     16  C   UNL A   1      30.633  28.497  22.595  1.00  0.00     0.161 A 
ATOM     17  C   UNL A   1      29.510  27.909  23.180  1.00  0.00     0.161 A 
ATOM     18  O   UNL A   1      30.540  29.538  21.715  1.00  0.00    -0.486 OA
ATOM     19  O   UNL A   1      28.271  28.474  22.984  1.00  0.00    -0.486 OA
ATOM     20  C   UNL A   1      29.411  30.381  21.997  1.00  0.00     0.271 C 
ATOM     21  C   UNL A   1      28.505  29.886  23.125  1.00  0.00     0.271 C 
ENDBRANCH  10  12
ENDBRANCH   7  10
BRANCH   7  22
ATOM     22  O   UNL A   1      33.316  29.906  24.936  1.00  0.00    -0.379 OA
ATOM     23  H   UNL A   1      33.558  30.727  25.394  1.00  0.00     0.212 HD
ENDBRANCH   7  22
ENDBRANCH   4   7
ENDBRANCH   2   3
ENDBRANCH   1   2
BRANCH   1  24
ATOM     24  C   UNL A   1      32.675  32.727  27.238  1.00  0.00     0.118 C 
BRANCH  24  25
ATOM     25  N   UNL A   1      32.733  34.120  27.670  1.00  0.00    -0.352 N 
ATOM     26  C   UNL A   1      33.469  34.709  28.663  1.00  0.00     0.251 C 
ATOM     27  H   UNL A   1      32.150  34.734  27.168  1.00  0.00     0.163 HD
ATOM     28  O   UNL A   1      33.175  35.847  29.038  1.00  0.00    -0.269 OA
BRANCH  26  29
ATOM     29  C   UNL A   1      34.590  33.981  29.285  1.00  0.00     0.039 A 
ATOM     30  C   UNL A   1      35.901  34.340  28.966  1.00  0.00     0.014 A 
ATOM     31  C   UNL A   1      34.347  32.938  30.183  1.00  0.00     0.014 A 
ATOM     32  C   UNL A   1      36.962  33.693  29.601  1.00  0.00     0.010 A 
ATOM     33  C   UNL A   1      35.397  32.387  30.904  1.00  0.00     0.010 A 
ATOM     34  C   UNL A   1      36.718  32.743  30.606  1.00  0.00    -0.014 A 
BRANCH  34  35
ATOM     35  C   UNL A   1      37.832  32.089  31.335  1.00  0.00     0.031 A 
ATOM     36  C   UNL A   1      38.596  30.964  30.687  1.00  0.00     0.074 A 
ATOM     37  C   UNL A   1      38.121  32.479  32.592  1.00  0.00     0.049 A 
ATOM     38  N   UNL A   1      39.569  30.238  31.173  1.00  0.00    -0.248 NA
ATOM     39  C   UNL A   1      38.186  30.581  29.327  1.00  0.00     0.031 C 
ATOM     40  C   UNL A   1      37.407  33.517  33.341  1.00  0.00     0.029 A 
ATOM     41  N   UNL A   1      39.089  32.050  33.464  1.00  0.00    -0.354 N 
ATOM     42  C   UNL A   1      39.883  29.314  30.183  1.00  0.00     0.074 A 
ATOM     43  C   UNL A   1      38.937  29.514  29.107  1.00  0.00     0.031 C 
ATOM     44  C   UNL A   1      37.987  33.671  34.541  1.00  0.00     0.029 A 
ATOM     45  C   UNL A   1      39.078  32.712  34.670  1.00  0.00     0.049 A 
ATOM     46  H   UNL A   1      39.730  31.336  33.247  1.00  0.00     0.167 HD
ATOM     47  C   UNL A   1      40.891  28.408  30.156  1.00  0.00     0.034 A 
ATOM     48  C   UNL A   1      39.856  32.556  35.759  1.00  0.00     0.034 A 
ATOM     49  C   UNL A   1      41.827  28.229  31.238  1.00  0.00     0.049 A 
ATOM     50  C   UNL A   1      40.956  31.526  35.716  1.00  0.00     0.074 A 
ATOM     51  C   UNL A   1      42.909  27.370  31.309  1.00  0.00     0.029 A 
ATOM     52  N   UNL A   1      41.789  28.920  32.443  1.00  0.00    -0.354 N 
ATOM     53  N   UNL A   1      41.276  30.697  34.748  1.00  0.00    -0.248 NA
ATOM     54  C   UNL A   1      41.812  31.424  36.904  1.00  0.00     0.031 C 
ATOM     55  C   UNL A   1      43.481  27.489  32.581  1.00  0.00     0.029 A 
ATOM     56  C   UNL A   1      42.812  28.486  33.273  1.00  0.00     0.049 A 
ATOM     57  H   UNL A   1      41.133  29.616  32.674  1.00  0.00     0.167 HD
ATOM     58  C   UNL A   1      42.390  29.996  35.202  1.00  0.00     0.074 A 
ATOM     59  C   UNL A   1      42.698  30.520  36.517  1.00  0.00     0.031 C 
ATOM     60  C   UNL A   1      43.096  29.010  34.590  1.00  0.00     0.034 A 
BRANCH  47  61
ATOM     61  C   UNL A   1      41.013  27.542  28.924  1.00  0.00     0.023 A 
ATOM     62  C   UNL A   1      42.019  27.763  27.965  1.00  0.00     0.031 A 
ATOM     63  C   UNL A   1      40.098  26.502  28.684  1.00  0.00     0.131 A 
ATOM     64  C   UNL A   1      42.036  27.014  26.779  1.00  0.00     0.055 A 
ATOM     65  C   UNL A   1      40.175  25.701  27.543  1.00  0.00     0.041 A 
ATOM     66  F   UNL A   1      39.100  26.257  29.548  1.00  0.00    -0.206 F 
ATOM     67  C   UNL A   1      41.139  25.965  26.573  1.00  0.00     0.022 A 
BRANCH  64  68
ATOM     68  S   UNL A   1      43.150  27.533  25.444  1.00  0.00     0.124 S 
ATOM     69  O   UNL A   1      43.625  26.247  24.940  1.00  0.00    -0.237 OA
ATOM     70  O   UNL A   1      42.260  28.277  24.561  1.00  0.00    -0.237 OA
ATOM     71  O   UNL A   1      44.160  28.334  26.134  1.00  0.00    -0.744 OA
ENDBRANCH  64  68
ENDBRANCH  47  61
BRANCH  48  72
ATOM     72  C   UNL A   1      39.622  33.380  36.980  1.00  0.00     0.023 A 
ATOM     73  C   UNL A   1      38.912  32.868  38.079  1.00  0.00     0.031 A 
ATOM     74  C   UNL A   1      40.069  34.712  37.050  1.00  0.00     0.131 A 
ATOM     75  C   UNL A   1      38.621  33.698  39.173  1.00  0.00     0.055 A 
ATOM     76  C   UNL A   1      39.830  35.514  38.167  1.00  0.00     0.041 A 
ATOM     77  F   UNL A   1      40.757  35.252  36.031  1.00  0.00    -0.206 F 
ATOM     78  C   UNL A   1      39.088  35.013  39.231  1.00  0.00     0.022 A 
BRANCH  75  79
ATOM     79  S   UNL A   1      37.532  33.064  40.477  1.00  0.00     0.124 S 
ATOM     80  O   UNL A   1      37.500  34.184  41.409  1.00  0.00    -0.237 OA
ATOM     81  O   UNL A   1      36.298  32.805  39.741  1.00  0.00    -0.237 OA
ATOM     82  O   UNL A   1      38.231  31.872  40.954  1.00  0.00    -0.744 OA
ENDBRANCH  75  79
ENDBRANCH  48  72
BRANCH  60  83
ATOM     83  C   UNL A   1      44.296  28.470  35.329  1.00  0.00     0.023 A 
ATOM     84  C   UNL A   1      44.181  27.431  36.268  1.00  0.00     0.031 A 
ATOM     85  C   UNL A   1      45.571  29.023  35.108  1.00  0.00     0.131 A 
ATOM     86  C   UNL A   1      45.305  27.026  37.004  1.00  0.00     0.055 A 
ATOM     87  C   UNL A   1      46.699  28.566  35.790  1.00  0.00     0.041 A 
ATOM     88  F   UNL A   1      45.741  30.020  34.226  1.00  0.00    -0.206 F 
ATOM     89  C   UNL A   1      46.567  27.573  36.757  1.00  0.00     0.022 A 
BRANCH  86  90
ATOM     90  S   UNL A   1      45.072  25.861  38.374  1.00  0.00     0.124 S 
ATOM     91  O   UNL A   1      44.282  26.650  39.312  1.00  0.00    -0.237 OA
ATOM     92  O   UNL A   1      44.375  24.754  37.727  1.00  0.00    -0.237 OA
ATOM     93  O   UNL A   1      46.437  25.564  38.807  1.00  0.00    -0.744 OA
ENDBRANCH  86  90
ENDBRANCH  60  83
ENDBRANCH  34  35
ENDBRANCH  26  29
ENDBRANCH  24  25
ENDBRANCH   1  24
TORSDOF 17
ENDMDL
MODEL 3
REMARK VINA RESULT:     -11.5      5.050      8.263
REMARK SMILES CC[C@](O)(C(=O)NCCCNC(=O)c1ccc(-c2c3nc(c(-c4cc(S(=O)(=O)[O-])ccc4F)c4ccc([nH]4)c(-c4cc(S(=O)(=O)[O-])ccc4F)c4nc(c(-c5cc(S(=O)(=O)[O-])ccc5F)c5ccc2[nH]5)C=C4)C=C3)cc1)[C@@H](C)c1ccc2c(c1)OCCO2
REMARK SMILES IDX 9 1 8 2 7 3 5 4 6 5 3 7 2 8 1 9 77 10 78 11 79 12 80 13
REMARK SMILES IDX 84 14 81 15 83 16 82 17 85 18 88 19 86 20 87 21 4 22 10 24
REMARK SMILES IDX 11 25 12 26 13 28 14 29 15 30 76 31 16 32 75 33 17 34 18 35
REMARK SMILES IDX 19 36 69 37 20 38 74 39 68 40 70 41 21 42 73 43 67 44 66 45
REMARK SMILES IDX 22 47 54 48 34 49 53 50 35 51 38 52 52 53 71 54 36 55 37 56
REMARK SMILES IDX 51 58 72 59 39 60 23 61 24 62 32 63 25 64 31 65 33 66 30 67
REMARK SMILES IDX 26 68 27 69 28 70 29 71 55 72 56 73 64 74 57 75 63 76 65 77
REMARK SMILES IDX 62 78 58 79 59 80 60 81 61 82 40 83 41 84 49 85 42 86 48 87
REMARK SMILES IDX 50 88 47 89 43 90 44 91 45 92 46 93
REMARK H PARENT 7 6 4 23 11 27 70 46 38 57
REMARK Flexibility Score: inf
ROOT
ATOM      1  C   UNL A   1      35.746  23.694  26.076  1.00  0.00     0.042 C 
ENDROOT
BRANCH   1   2
ATOM      2  C   UNL A   1      34.502  24.207  25.383  1.00  0.00     0.117 C 
BRANCH   2   3
ATOM      3  N   UNL A   1      33.407  24.487  26.292  1.00  0.00    -0.354 N 
ATOM      4  C   UNL A   1      32.268  23.752  26.488  1.00  0.00     0.252 C 
ATOM      5  O   UNL A   1      31.563  24.043  27.456  1.00  0.00    -0.272 OA
ATOM      6  H   UNL A   1      33.494  25.304  26.834  1.00  0.00     0.163 HD
BRANCH   4   7
ATOM      7  C   UNL A   1      31.971  22.547  25.544  1.00  0.00     0.149 C 
BRANCH   7   8
ATOM      8  C   UNL A   1      31.946  23.124  24.088  1.00  0.00     0.043 C 
ATOM      9  C   UNL A   1      30.754  23.998  23.712  1.00  0.00     0.007 C 
ENDBRANCH   7   8
BRANCH   7  10
ATOM     10  C   UNL A   1      33.079  21.462  25.684  1.00  0.00     0.058 C 
ATOM     11  C   UNL A   1      33.551  21.195  27.136  1.00  0.00     0.016 C 
BRANCH  10  12
ATOM     12  C   UNL A   1      32.681  20.131  25.039  1.00  0.00    -0.038 A 
ATOM     13  C   UNL A   1      32.446  20.060  23.652  1.00  0.00     0.008 A 
ATOM     14  C   UNL A   1      32.706  18.949  25.792  1.00  0.00     0.054 A 
ATOM     15  C   UNL A   1      32.416  18.830  23.001  1.00  0.00     0.051 A 
ATOM     16  C   UNL A   1      32.824  17.744  25.129  1.00  0.00     0.161 A 
ATOM     17  C   UNL A   1      32.727  17.698  23.737  1.00  0.00     0.161 A 
ATOM     18  O   UNL A   1      33.234  16.671  25.870  1.00  0.00    -0.486 OA
ATOM     19  O   UNL A   1      33.187  16.591  23.062  1.00  0.00    -0.486 OA
ATOM     20  C   UNL A   1      34.177  15.854  25.157  1.00  0.00     0.271 C 
ATOM     21  C   UNL A   1      34.432  16.280  23.711  1.00  0.00     0.271 C 
ENDBRANCH  10  12
ENDBRANCH   7  10
BRANCH   7  22
ATOM     22  O   UNL A   1      30.712  21.988  25.949  1.00  0.00    -0.379 OA
ATOM     23  H   UNL A   1      30.193  21.758  25.162  1.00  0.00     0.212 HD
ENDBRANCH   7  22
ENDBRANCH   4   7
ENDBRANCH   2   3
ENDBRANCH   1   2
BRANCH   1  24
ATOM     24  C   UNL A   1      36.885  23.425  25.112  1.00  0.00     0.118 C 
BRANCH  24  25
ATOM     25  N   UNL A   1      37.865  22.492  25.660  1.00  0.00    -0.352 N 
ATOM     26  C   UNL A   1      39.064  22.728  26.278  1.00  0.00     0.251 C 
ATOM     27  H   UNL A   1      37.627  21.542  25.569  1.00  0.00     0.163 HD
ATOM     28  O   UNL A   1      39.859  21.798  26.426  1.00  0.00    -0.269 OA
BRANCH  26  29
ATOM     29  C   UNL A   1      39.400  24.086  26.746  1.00  0.00     0.039 A 
ATOM     30  C   UNL A   1      39.105  24.450  28.061  1.00  0.00     0.014 A 
ATOM     31  C   UNL A   1      40.005  25.003  25.883  1.00  0.00     0.014 A 
ATOM     32  C   UNL A   1      39.480  25.712  28.522  1.00  0.00     0.010 A 
ATOM     33  C   UNL A   1      40.488  26.205  26.379  1.00  0.00     0.010 A 
ATOM     34  C   UNL A   1      40.212  26.583  27.699  1.00  0.00    -0.014 A 
BRANCH  34  35
ATOM     35  C   UNL A   1      40.672  27.905  28.192  1.00  0.00     0.031 A 
ATOM     36  C   UNL A   1      42.139  28.240  28.182  1.00  0.00     0.074 A 
ATOM     37  C   UNL A   1      39.773  28.777  28.687  1.00  0.00     0.049 A 
ATOM     38  N   UNL A   1      42.744  29.319  28.609  1.00  0.00    -0.248 NA
ATOM     39  C   UNL A   1      43.052  27.212  27.657  1.00  0.00     0.031 C 
ATOM     40  C   UNL A   1      38.332  28.532  28.802  1.00  0.00     0.029 A 
ATOM     41  N   UNL A   1      39.933  30.043  29.190  1.00  0.00    -0.354 N 
ATOM     42  C   UNL A   1      44.102  29.097  28.408  1.00  0.00     0.074 A 
ATOM     43  C   UNL A   1      44.237  27.748  27.905  1.00  0.00     0.031 C 
ATOM     44  C   UNL A   1      37.738  29.628  29.301  1.00  0.00     0.029 A 
ATOM     45  C   UNL A   1      38.756  30.632  29.590  1.00  0.00     0.049 A 
ATOM     46  H   UNL A   1      40.809  30.488  29.256  1.00  0.00     0.167 HD
ATOM     47  C   UNL A   1      45.138  29.953  28.589  1.00  0.00     0.034 A 
ATOM     48  C   UNL A   1      38.526  31.842  30.136  1.00  0.00     0.034 A 
ATOM     49  C   UNL A   1      44.980  31.297  29.086  1.00  0.00     0.049 A 
ATOM     50  C   UNL A   1      39.696  32.769  30.350  1.00  0.00     0.074 A 
ATOM     51  C   UNL A   1      45.950  32.265  29.276  1.00  0.00     0.029 A 
ATOM     52  N   UNL A   1      43.772  31.862  29.478  1.00  0.00    -0.354 N 
ATOM     53  N   UNL A   1      40.970  32.564  30.101  1.00  0.00    -0.248 NA
ATOM     54  C   UNL A   1      39.396  34.096  30.900  1.00  0.00     0.031 C 
ATOM     55  C   UNL A   1      45.341  33.388  29.848  1.00  0.00     0.029 A 
ATOM     56  C   UNL A   1      43.977  33.155  29.934  1.00  0.00     0.049 A 
ATOM     57  H   UNL A   1      42.899  31.411  29.437  1.00  0.00     0.167 HD
ATOM     58  C   UNL A   1      41.618  33.750  30.439  1.00  0.00     0.074 A 
ATOM     59  C   UNL A   1      40.589  34.668  30.882  1.00  0.00     0.031 C 
ATOM     60  C   UNL A   1      42.940  34.054  30.386  1.00  0.00     0.034 A 
BRANCH  47  61
ATOM     61  C   UNL A   1      46.523  29.446  28.259  1.00  0.00     0.023 A 
ATOM     62  C   UNL A   1      47.309  28.776  29.215  1.00  0.00     0.031 A 
ATOM     63  C   UNL A   1      47.081  29.660  26.987  1.00  0.00     0.131 A 
ATOM     64  C   UNL A   1      48.631  28.418  28.912  1.00  0.00     0.055 A 
ATOM     65  C   UNL A   1      48.366  29.221  26.663  1.00  0.00     0.041 A 
ATOM     66  F   UNL A   1      46.391  30.314  26.039  1.00  0.00    -0.206 F 
ATOM     67  C   UNL A   1      49.156  28.610  27.633  1.00  0.00     0.022 A 
BRANCH  64  68
ATOM     68  S   UNL A   1      49.701  27.840  30.258  1.00  0.00     0.124 S 
ATOM     69  O   UNL A   1      50.892  28.663  30.062  1.00  0.00    -0.237 OA
ATOM     70  O   UNL A   1      48.906  28.139  31.443  1.00  0.00    -0.237 OA
ATOM     71  O   UNL A   1      49.879  26.419  29.967  1.00  0.00    -0.744 OA
ENDBRANCH  64  68
ENDBRANCH  47  61
BRANCH  48  72
ATOM     72  C   UNL A   1      37.144  32.246  30.527  1.00  0.00     0.023 A 
ATOM     73  C   UNL A   1      36.253  32.791  29.588  1.00  0.00     0.031 A 
ATOM     74  C   UNL A   1      36.708  32.133  31.859  1.00  0.00     0.131 A 
ATOM     75  C   UNL A   1      34.995  33.254  30.004  1.00  0.00     0.055 A 
ATOM     76  C   UNL A   1      35.433  32.538  32.256  1.00  0.00     0.041 A 
ATOM     77  F   UNL A   1      37.517  31.614  32.798  1.00  0.00    -0.206 F 
ATOM     78  C   UNL A   1      34.573  33.117  31.329  1.00  0.00     0.022 A 
BRANCH  75  79
ATOM     79  S   UNL A   1      33.954  34.133  28.808  1.00  0.00     0.124 S 
ATOM     80  O   UNL A   1      32.882  34.636  29.658  1.00  0.00    -0.237 OA
ATOM     81  O   UNL A   1      34.879  35.132  28.281  1.00  0.00    -0.237 OA
ATOM     82  O   UNL A   1      33.566  33.088  27.862  1.00  0.00    -0.744 OA
ENDBRANCH  75  79
ENDBRANCH  48  72
BRANCH  60  83
ATOM     83  C   UNL A   1      43.334  35.457  30.783  1.00  0.00     0.023 A 
ATOM     84  C   UNL A   1      43.549  35.814  32.125  1.00  0.00     0.031 A 
ATOM     85  C   UNL A   1      43.471  36.457  29.802  1.00  0.00     0.131 A 
ATOM     86  C   UNL A   1      43.817  37.151  32.458  1.00  0.00     0.055 A 
ATOM     87  C   UNL A   1      43.810  37.768  30.133  1.00  0.00     0.041 A 
ATOM     88  F   UNL A   1      43.274  36.174  28.505  1.00  0.00    -0.206 F 
ATOM     89  C   UNL A   1      43.969  38.126  31.469  1.00  0.00     0.022 A 
BRANCH  86  90
ATOM     90  S   UNL A   1      43.844  37.620  34.209  1.00  0.00     0.124 S 
ATOM     91  O   UNL A   1      44.380  36.418  34.837  1.00  0.00    -0.237 OA
ATOM     92  O   UNL A   1      44.722  38.785  34.206  1.00  0.00    -0.237 OA
ATOM     93  O   UNL A   1      42.440  37.904  34.509  1.00  0.00    -0.744 OA
ENDBRANCH  86  90
ENDBRANCH  60  83
ENDBRANCH  34  35
ENDBRANCH  26  29
ENDBRANCH  24  25
ENDBRANCH   1  24
TORSDOF 17
ENDMDL
