MODEL 1
REMARK VINA RESULT:     -11.7      0.000      0.000
REMARK SMILES CC(C)CC1(CNc2ccnc(C(=O)NCCCNC(=O)c3ccc(-c4c5nc(c(-c6cc(S(=O)(=O)[O-])ccc6F)c6ccc([nH]6)c(-c6cc(S(=O)(=O)[O-])ccc6F)c6nc(c(-c7cc(S(=O)(=O)[O-])ccc7F)c7ccc4[nH]7)C=C6)C=C5)cc3)c2)CCCC1
REMARK SMILES IDX 16 1 15 2 13 3 14 4 12 6 8 7 9 8 85 9 10 10 11 11 7 12 6 14
REMARK SMILES IDX 5 15 86 16 89 17 87 18 88 19 4 20 2 21 1 22 3 23 17 24 18 25
REMARK SMILES IDX 19 26 20 27 21 29 22 30 23 31 84 32 24 33 83 34 25 35 26 36
REMARK SMILES IDX 27 37 77 38 28 39 82 40 76 41 78 42 29 43 81 44 75 45 74 46
REMARK SMILES IDX 30 48 62 49 42 50 61 51 43 52 46 53 60 54 79 55 44 56 45 57
REMARK SMILES IDX 59 59 80 60 47 61 31 62 32 63 40 64 33 65 39 66 41 67 38 68
REMARK SMILES IDX 34 69 35 70 36 71 37 72 63 73 64 74 72 75 65 76 71 77 73 78
REMARK SMILES IDX 70 79 66 80 67 81 68 82 69 83 48 84 49 85 57 86 50 87 56 88
REMARK SMILES IDX 58 89 55 90 51 91 52 92 53 93 54 94
REMARK H PARENT 15 5 7 13 19 28 78 47 46 58
REMARK Flexibility Score: inf
ROOT
ATOM      1  C   UNL A   1      31.911  30.374  26.690  1.00  0.00     0.118 C 
ENDROOT
BRANCH   1   2
ATOM      2  N   UNL A   1      32.263  30.000  25.331  1.00  0.00    -0.351 N 
ATOM      3  C   UNL A   1      32.418  28.809  24.658  1.00  0.00     0.269 C 
ATOM      4  O   UNL A   1      32.663  28.920  23.453  1.00  0.00    -0.268 OA
ATOM      5  H   UNL A   1      32.430  30.781  24.757  1.00  0.00     0.163 HD
BRANCH   3   6
ATOM      6  C   UNL A   1      32.305  27.434  25.269  1.00  0.00     0.130 A 
ATOM      7  C   UNL A   1      33.138  25.268  25.936  1.00  0.00     0.038 A 
ATOM      8  C   UNL A   1      31.840  24.909  26.273  1.00  0.00     0.046 A 
ATOM      9  C   UNL A   1      33.355  26.541  25.399  1.00  0.00     0.060 A 
ATOM     10  C   UNL A   1      30.835  25.845  26.110  1.00  0.00     0.114 A 
ATOM     11  N   UNL A   1      31.040  27.090  25.635  1.00  0.00    -0.251 NA
BRANCH   7  12
ATOM     12  N   UNL A   1      34.203  24.388  26.014  1.00  0.00    -0.384 N 
ATOM     13  H   UNL A   1      34.277  23.801  26.800  1.00  0.00     0.160 HD
BRANCH  12  14
ATOM     14  C   UNL A   1      35.218  24.298  24.971  1.00  0.00     0.119 C 
BRANCH  14  15
ATOM     15  C   UNL A   1      34.974  23.088  24.017  1.00  0.00    -0.012 C 
ATOM     16  C   UNL A   1      34.806  21.789  24.833  1.00  0.00     0.009 C 
ATOM     17  C   UNL A   1      36.274  22.747  23.239  1.00  0.00     0.009 C 
ATOM     18  C   UNL A   1      36.217  21.384  25.258  1.00  0.00     0.001 C 
ATOM     19  C   UNL A   1      37.162  21.994  24.226  1.00  0.00     0.001 C 
BRANCH  15  20
ATOM     20  C   UNL A   1      33.804  23.277  23.006  1.00  0.00     0.012 C 
BRANCH  20  21
ATOM     21  C   UNL A   1      32.417  22.655  23.302  1.00  0.00    -0.017 C 
ATOM     22  C   UNL A   1      31.221  23.586  23.137  1.00  0.00     0.007 C 
ATOM     23  C   UNL A   1      32.210  21.458  22.360  1.00  0.00     0.007 C 
ENDBRANCH  20  21
ENDBRANCH  15  20
ENDBRANCH  14  15
ENDBRANCH  12  14
ENDBRANCH   7  12
ENDBRANCH   3   6
ENDBRANCH   1   2
BRANCH   1  24
ATOM     24  C   UNL A   1      31.742  31.888  26.829  1.00  0.00     0.042 C 
BRANCH  24  25
ATOM     25  C   UNL A   1      33.035  32.590  27.256  1.00  0.00     0.118 C 
BRANCH  25  26
ATOM     26  N   UNL A   1      32.782  33.962  27.685  1.00  0.00    -0.352 N 
ATOM     27  C   UNL A   1      33.257  34.661  28.767  1.00  0.00     0.251 C 
ATOM     28  H   UNL A   1      32.172  34.470  27.104  1.00  0.00     0.163 HD
ATOM     29  O   UNL A   1      32.684  35.690  29.112  1.00  0.00    -0.269 OA
BRANCH  27  30
ATOM     30  C   UNL A   1      34.444  34.186  29.510  1.00  0.00     0.039 A 
ATOM     31  C   UNL A   1      34.263  33.537  30.735  1.00  0.00     0.014 A 
ATOM     32  C   UNL A   1      35.733  34.426  29.028  1.00  0.00     0.014 A 
ATOM     33  C   UNL A   1      35.373  33.067  31.442  1.00  0.00     0.010 A 
ATOM     34  C   UNL A   1      36.834  33.899  29.700  1.00  0.00     0.010 A 
ATOM     35  C   UNL A   1      36.665  33.210  30.911  1.00  0.00    -0.014 A 
BRANCH  35  36
ATOM     36  C   UNL A   1      37.854  32.634  31.590  1.00  0.00     0.031 A 
ATOM     37  C   UNL A   1      38.624  31.515  30.944  1.00  0.00     0.074 A 
ATOM     38  C   UNL A   1      38.180  33.060  32.826  1.00  0.00     0.049 A 
ATOM     39  N   UNL A   1      39.599  30.791  31.431  1.00  0.00    -0.248 NA
ATOM     40  C   UNL A   1      38.222  31.144  29.579  1.00  0.00     0.031 C 
ATOM     41  C   UNL A   1      37.486  34.117  33.564  1.00  0.00     0.029 A 
ATOM     42  N   UNL A   1      39.163  32.645  33.690  1.00  0.00    -0.354 N 
ATOM     43  C   UNL A   1      39.917  29.868  30.440  1.00  0.00     0.074 A 
ATOM     44  C   UNL A   1      38.992  30.091  29.349  1.00  0.00     0.031 C 
ATOM     45  C   UNL A   1      38.072  34.276  34.762  1.00  0.00     0.029 A 
ATOM     46  C   UNL A   1      39.144  33.296  34.902  1.00  0.00     0.049 A 
ATOM     47  H   UNL A   1      39.819  31.947  33.463  1.00  0.00     0.167 HD
ATOM     48  C   UNL A   1      40.901  28.933  30.438  1.00  0.00     0.034 A 
ATOM     49  C   UNL A   1      39.886  33.108  36.010  1.00  0.00     0.034 A 
ATOM     50  C   UNL A   1      41.815  28.731  31.537  1.00  0.00     0.049 A 
ATOM     51  C   UNL A   1      40.948  32.037  35.998  1.00  0.00     0.074 A 
ATOM     52  C   UNL A   1      42.880  27.851  31.622  1.00  0.00     0.029 A 
ATOM     53  N   UNL A   1      41.766  29.410  32.749  1.00  0.00    -0.354 N 
ATOM     54  N   UNL A   1      41.266  31.200  35.037  1.00  0.00    -0.248 NA
ATOM     55  C   UNL A   1      41.753  31.891  37.216  1.00  0.00     0.031 C 
ATOM     56  C   UNL A   1      43.428  27.947  32.906  1.00  0.00     0.029 A 
ATOM     57  C   UNL A   1      42.759  28.944  33.597  1.00  0.00     0.049 A 
ATOM     58  H   UNL A   1      41.121  30.119  32.972  1.00  0.00     0.167 HD
ATOM     59  C   UNL A   1      42.328  30.446  35.528  1.00  0.00     0.074 A 
ATOM     60  C   UNL A   1      42.607  30.942  36.860  1.00  0.00     0.031 C 
ATOM     61  C   UNL A   1      43.013  29.437  34.931  1.00  0.00     0.034 A 
BRANCH  48  62
ATOM     62  C   UNL A   1      41.012  28.043  29.221  1.00  0.00     0.023 A 
ATOM     63  C   UNL A   1      42.027  28.222  28.265  1.00  0.00     0.031 A 
ATOM     64  C   UNL A   1      40.077  27.017  29.000  1.00  0.00     0.131 A 
ATOM     65  C   UNL A   1      42.038  27.443  27.098  1.00  0.00     0.055 A 
ATOM     66  C   UNL A   1      40.142  26.188  27.878  1.00  0.00     0.041 A 
ATOM     67  F   UNL A   1      39.071  26.808  29.865  1.00  0.00    -0.206 F 
ATOM     68  C   UNL A   1      41.117  26.409  26.910  1.00  0.00     0.022 A 
BRANCH  65  69
ATOM     69  S   UNL A   1      43.180  27.897  25.765  1.00  0.00     0.124 S 
ATOM     70  O   UNL A   1      42.284  27.934  24.610  1.00  0.00    -0.237 OA
ATOM     71  O   UNL A   1      43.694  29.185  26.215  1.00  0.00    -0.237 OA
ATOM     72  O   UNL A   1      44.150  26.804  25.756  1.00  0.00    -0.744 OA
ENDBRANCH  65  69
ENDBRANCH  48  62
BRANCH  49  73
ATOM     73  C   UNL A   1      39.643  33.929  37.231  1.00  0.00     0.023 A 
ATOM     74  C   UNL A   1      39.039  33.373  38.368  1.00  0.00     0.031 A 
ATOM     75  C   UNL A   1      39.978  35.295  37.264  1.00  0.00     0.131 A 
ATOM     76  C   UNL A   1      38.745  34.186  39.474  1.00  0.00     0.055 A 
ATOM     77  C   UNL A   1      39.733  36.088  38.387  1.00  0.00     0.041 A 
ATOM     78  F   UNL A   1      40.564  35.878  36.205  1.00  0.00    -0.206 F 
ATOM     79  C   UNL A   1      39.100  35.536  39.496  1.00  0.00     0.022 A 
BRANCH  76  80
ATOM     80  S   UNL A   1      37.809  33.470  40.853  1.00  0.00     0.124 S 
ATOM     81  O   UNL A   1      38.604  32.290  41.169  1.00  0.00    -0.237 OA
ATOM     82  O   UNL A   1      37.845  34.551  41.834  1.00  0.00    -0.237 OA
ATOM     83  O   UNL A   1      36.497  33.204  40.270  1.00  0.00    -0.744 OA
ENDBRANCH  76  80
ENDBRANCH  49  73
BRANCH  61  84
ATOM     84  C   UNL A   1      44.157  28.834  35.711  1.00  0.00     0.023 A 
ATOM     85  C   UNL A   1      43.971  27.733  36.563  1.00  0.00     0.031 A 
ATOM     86  C   UNL A   1      45.448  29.382  35.609  1.00  0.00     0.131 A 
ATOM     87  C   UNL A   1      45.047  27.249  37.324  1.00  0.00     0.055 A 
ATOM     88  C   UNL A   1      46.528  28.856  36.320  1.00  0.00     0.041 A 
ATOM     89  F   UNL A   1      45.682  30.439  34.813  1.00  0.00    -0.206 F 
ATOM     90  C   UNL A   1      46.327  27.792  37.194  1.00  0.00     0.022 A 
BRANCH  87  91
ATOM     91  S   UNL A   1      44.728  25.961  38.561  1.00  0.00     0.124 S 
ATOM     92  O   UNL A   1      43.839  26.649  39.492  1.00  0.00    -0.237 OA
ATOM     93  O   UNL A   1      44.119  24.903  37.761  1.00  0.00    -0.237 OA
ATOM     94  O   UNL A   1      46.057  25.654  39.086  1.00  0.00    -0.744 OA
ENDBRANCH  87  91
ENDBRANCH  61  84
ENDBRANCH  35  36
ENDBRANCH  27  30
ENDBRANCH  25  26
ENDBRANCH  24  25
ENDBRANCH   1  24
TORSDOF 18
ENDMDL
MODEL 2
REMARK VINA RESULT:     -11.4      2.305      3.073
REMARK SMILES CC(C)CC1(CNc2ccnc(C(=O)NCCCNC(=O)c3ccc(-c4c5nc(c(-c6cc(S(=O)(=O)[O-])ccc6F)c6ccc([nH]6)c(-c6cc(S(=O)(=O)[O-])ccc6F)c6nc(c(-c7cc(S(=O)(=O)[O-])ccc7F)c7ccc4[nH]7)C=C6)C=C5)cc3)c2)CCCC1
REMARK SMILES IDX 16 1 15 2 13 3 14 4 12 6 8 7 9 8 85 9 10 10 11 11 7 12 6 14
REMARK SMILES IDX 5 15 86 16 89 17 87 18 88 19 4 20 2 21 1 22 3 23 17 24 18 25
REMARK SMILES IDX 19 26 20 27 21 29 22 30 23 31 84 32 24 33 83 34 25 35 26 36
REMARK SMILES IDX 27 37 77 38 28 39 82 40 76 41 78 42 29 43 81 44 75 45 74 46
REMARK SMILES IDX 30 48 62 49 42 50 61 51 43 52 46 53 60 54 79 55 44 56 45 57
REMARK SMILES IDX 59 59 80 60 47 61 31 62 32 63 40 64 33 65 39 66 41 67 38 68
REMARK SMILES IDX 34 69 35 70 36 71 37 72 63 73 64 74 72 75 65 76 71 77 73 78
REMARK SMILES IDX 70 79 66 80 67 81 68 82 69 83 48 84 49 85 57 86 50 87 56 88
REMARK SMILES IDX 58 89 55 90 51 91 52 92 53 93 54 94
REMARK H PARENT 15 5 7 13 19 28 78 47 46 58
REMARK Flexibility Score: inf
ROOT
ATOM      1  C   UNL A   1      31.355  30.369  25.462  1.00  0.00     0.118 C 
ENDROOT
BRANCH   1   2
ATOM      2  N   UNL A   1      30.471  30.312  24.311  1.00  0.00    -0.351 N 
ATOM      3  C   UNL A   1      30.375  29.513  23.195  1.00  0.00     0.269 C 
ATOM      4  O   UNL A   1      29.410  29.752  22.464  1.00  0.00    -0.268 OA
ATOM      5  H   UNL A   1      29.776  31.008  24.336  1.00  0.00     0.163 HD
BRANCH   3   6
ATOM      6  C   UNL A   1      31.330  28.404  22.824  1.00  0.00     0.130 A 
ATOM      7  C   UNL A   1      31.941  26.113  22.367  1.00  0.00     0.038 A 
ATOM      8  C   UNL A   1      33.268  26.515  22.300  1.00  0.00     0.046 A 
ATOM      9  C   UNL A   1      30.971  27.076  22.665  1.00  0.00     0.060 A 
ATOM     10  C   UNL A   1      33.560  27.855  22.477  1.00  0.00     0.114 A 
ATOM     11  N   UNL A   1      32.628  28.799  22.720  1.00  0.00    -0.251 NA
BRANCH   7  12
ATOM     12  N   UNL A   1      31.551  24.789  22.254  1.00  0.00    -0.384 N 
ATOM     13  H   UNL A   1      31.673  24.331  21.392  1.00  0.00     0.160 HD
BRANCH  12  14
ATOM     14  C   UNL A   1      30.969  24.051  23.368  1.00  0.00     0.119 C 
BRANCH  14  15
ATOM     15  C   UNL A   1      32.060  23.403  24.276  1.00  0.00    -0.012 C 
ATOM     16  C   UNL A   1      31.435  22.308  25.165  1.00  0.00     0.009 C 
ATOM     17  C   UNL A   1      32.514  24.407  25.371  1.00  0.00     0.009 C 
ATOM     18  C   UNL A   1      30.707  23.051  26.284  1.00  0.00     0.001 C 
ATOM     19  C   UNL A   1      31.408  24.400  26.423  1.00  0.00     0.001 C 
BRANCH  15  20
ATOM     20  C   UNL A   1      33.312  22.869  23.516  1.00  0.00     0.012 C 
BRANCH  20  21
ATOM     21  C   UNL A   1      34.647  22.664  24.272  1.00  0.00    -0.017 C 
ATOM     22  C   UNL A   1      34.899  21.260  24.808  1.00  0.00     0.007 C 
ATOM     23  C   UNL A   1      35.804  23.016  23.322  1.00  0.00     0.007 C 
ENDBRANCH  20  21
ENDBRANCH  15  20
ENDBRANCH  14  15
ENDBRANCH  12  14
ENDBRANCH   7  12
ENDBRANCH   3   6
ENDBRANCH   1   2
BRANCH   1  24
ATOM     24  C   UNL A   1      31.256  31.716  26.180  1.00  0.00     0.042 C 
BRANCH  24  25
ATOM     25  C   UNL A   1      32.600  32.181  26.751  1.00  0.00     0.118 C 
BRANCH  25  26
ATOM     26  N   UNL A   1      32.507  33.527  27.308  1.00  0.00    -0.352 N 
ATOM     27  C   UNL A   1      33.161  34.100  28.370  1.00  0.00     0.251 C 
ATOM     28  H   UNL A   1      31.872  34.121  26.847  1.00  0.00     0.163 HD
ATOM     29  O   UNL A   1      32.715  35.133  28.859  1.00  0.00    -0.269 OA
BRANCH  27  30
ATOM     30  C   UNL A   1      34.388  33.486  28.921  1.00  0.00     0.039 A 
ATOM     31  C   UNL A   1      35.628  34.056  28.620  1.00  0.00     0.014 A 
ATOM     32  C   UNL A   1      34.321  32.320  29.689  1.00  0.00     0.014 A 
ATOM     33  C   UNL A   1      36.796  33.496  29.145  1.00  0.00     0.010 A 
ATOM     34  C   UNL A   1      35.479  31.803  30.267  1.00  0.00     0.010 A 
ATOM     35  C   UNL A   1      36.726  32.389  30.006  1.00  0.00    -0.014 A 
BRANCH  35  36
ATOM     36  C   UNL A   1      37.939  31.834  30.660  1.00  0.00     0.031 A 
ATOM     37  C   UNL A   1      38.757  30.780  29.965  1.00  0.00     0.074 A 
ATOM     38  C   UNL A   1      38.248  32.218  31.914  1.00  0.00     0.049 A 
ATOM     39  N   UNL A   1      39.762  30.077  30.420  1.00  0.00    -0.248 NA
ATOM     40  C   UNL A   1      38.370  30.454  28.584  1.00  0.00     0.031 C 
ATOM     41  C   UNL A   1      37.509  33.210  32.699  1.00  0.00     0.029 A 
ATOM     42  N   UNL A   1      39.247  31.807  32.760  1.00  0.00    -0.354 N 
ATOM     43  C   UNL A   1      40.119  29.214  29.389  1.00  0.00     0.074 A 
ATOM     44  C   UNL A   1      39.186  29.447  28.308  1.00  0.00     0.031 C 
ATOM     45  C   UNL A   1      38.087  33.339  33.903  1.00  0.00     0.029 A 
ATOM     46  C   UNL A   1      39.200  32.401  34.000  1.00  0.00     0.049 A 
ATOM     47  H   UNL A   1      39.933  31.149  32.503  1.00  0.00     0.167 HD
ATOM     48  C   UNL A   1      41.142  28.324  29.347  1.00  0.00     0.034 A 
ATOM     49  C   UNL A   1      39.951  32.195  35.100  1.00  0.00     0.034 A 
ATOM     50  C   UNL A   1      42.065  28.112  30.437  1.00  0.00     0.049 A 
ATOM     51  C   UNL A   1      41.057  31.173  35.041  1.00  0.00     0.074 A 
ATOM     52  C   UNL A   1      43.166  27.276  30.483  1.00  0.00     0.029 A 
ATOM     53  N   UNL A   1      41.987  28.733  31.678  1.00  0.00    -0.354 N 
ATOM     54  N   UNL A   1      41.411  30.394  34.044  1.00  0.00    -0.248 NA
ATOM     55  C   UNL A   1      41.869  31.006  36.253  1.00  0.00     0.031 C 
ATOM     56  C   UNL A   1      43.711  27.337  31.771  1.00  0.00     0.029 A 
ATOM     57  C   UNL A   1      43.000  28.272  32.506  1.00  0.00     0.049 A 
ATOM     58  H   UNL A   1      41.312  29.402  31.932  1.00  0.00     0.167 HD
ATOM     59  C   UNL A   1      42.505  29.665  34.502  1.00  0.00     0.074 A 
ATOM     60  C   UNL A   1      42.762  30.112  35.856  1.00  0.00     0.031 C 
ATOM     61  C   UNL A   1      43.233  28.715  33.861  1.00  0.00     0.034 A 
BRANCH  48  62
ATOM     62  C   UNL A   1      41.292  27.495  28.091  1.00  0.00     0.023 A 
ATOM     63  C   UNL A   1      40.931  26.137  28.055  1.00  0.00     0.031 A 
ATOM     64  C   UNL A   1      41.824  28.063  26.921  1.00  0.00     0.131 A 
ATOM     65  C   UNL A   1      41.180  25.375  26.903  1.00  0.00     0.055 A 
ATOM     66  C   UNL A   1      41.991  27.322  25.749  1.00  0.00     0.041 A 
ATOM     67  F   UNL A   1      42.207  29.351  26.897  1.00  0.00    -0.206 F 
ATOM     68  C   UNL A   1      41.683  25.964  25.740  1.00  0.00     0.022 A 
BRANCH  65  69
ATOM     69  S   UNL A   1      40.974  23.576  26.994  1.00  0.00     0.124 S 
ATOM     70  O   UNL A   1      41.889  23.121  25.949  1.00  0.00    -0.237 OA
ATOM     71  O   UNL A   1      41.374  23.281  28.365  1.00  0.00    -0.237 OA
ATOM     72  O   UNL A   1      39.557  23.377  26.699  1.00  0.00    -0.744 OA
ENDBRANCH  65  69
ENDBRANCH  48  62
BRANCH  49  73
ATOM     73  C   UNL A   1      39.673  32.948  36.357  1.00  0.00     0.023 A 
ATOM     74  C   UNL A   1      38.807  32.433  37.333  1.00  0.00     0.031 A 
ATOM     75  C   UNL A   1      40.242  34.216  36.583  1.00  0.00     0.131 A 
ATOM     76  C   UNL A   1      38.497  33.198  38.468  1.00  0.00     0.055 A 
ATOM     77  C   UNL A   1      39.972  34.949  37.739  1.00  0.00     0.041 A 
ATOM     78  F   UNL A   1      41.082  34.754  35.684  1.00  0.00    -0.206 F 
ATOM     79  C   UNL A   1      39.083  34.447  38.684  1.00  0.00     0.022 A 
BRANCH  76  80
ATOM     80  S   UNL A   1      37.242  32.573  39.619  1.00  0.00     0.124 S 
ATOM     81  O   UNL A   1      37.755  31.243  39.923  1.00  0.00    -0.237 OA
ATOM     82  O   UNL A   1      37.311  33.552  40.700  1.00  0.00    -0.237 OA
ATOM     83  O   UNL A   1      36.013  32.605  38.830  1.00  0.00    -0.744 OA
ENDBRANCH  76  80
ENDBRANCH  49  73
BRANCH  61  84
ATOM     84  C   UNL A   1      44.401  28.127  34.615  1.00  0.00     0.023 A 
ATOM     85  C   UNL A   1      45.689  28.683  34.533  1.00  0.00     0.031 A 
ATOM     86  C   UNL A   1      44.224  26.984  35.415  1.00  0.00     0.131 A 
ATOM     87  C   UNL A   1      46.761  28.062  35.193  1.00  0.00     0.055 A 
ATOM     88  C   UNL A   1      45.282  26.409  36.121  1.00  0.00     0.041 A 
ATOM     89  F   UNL A   1      43.016  26.408  35.527  1.00  0.00    -0.206 F 
ATOM     90  C   UNL A   1      46.563  26.941  36.000  1.00  0.00     0.022 A 
BRANCH  87  91
ATOM     91  S   UNL A   1      48.440  28.686  34.901  1.00  0.00     0.124 S 
ATOM     92  O   UNL A   1      48.807  28.003  33.665  1.00  0.00    -0.237 OA
ATOM     93  O   UNL A   1      48.225  30.126  34.795  1.00  0.00    -0.237 OA
ATOM     94  O   UNL A   1      49.176  28.256  36.089  1.00  0.00    -0.744 OA
ENDBRANCH  87  91
ENDBRANCH  61  84
ENDBRANCH  35  36
ENDBRANCH  27  30
ENDBRANCH  25  26
ENDBRANCH  24  25
ENDBRANCH   1  24
TORSDOF 18
ENDMDL
MODEL 3
REMARK VINA RESULT:     -11.4      1.799      2.193
REMARK SMILES CC(C)CC1(CNc2ccnc(C(=O)NCCCNC(=O)c3ccc(-c4c5nc(c(-c6cc(S(=O)(=O)[O-])ccc6F)c6ccc([nH]6)c(-c6cc(S(=O)(=O)[O-])ccc6F)c6nc(c(-c7cc(S(=O)(=O)[O-])ccc7F)c7ccc4[nH]7)C=C6)C=C5)cc3)c2)CCCC1
REMARK SMILES IDX 16 1 15 2 13 3 14 4 12 6 8 7 9 8 85 9 10 10 11 11 7 12 6 14
REMARK SMILES IDX 5 15 86 16 89 17 87 18 88 19 4 20 2 21 1 22 3 23 17 24 18 25
REMARK SMILES IDX 19 26 20 27 21 29 22 30 23 31 84 32 24 33 83 34 25 35 26 36
REMARK SMILES IDX 27 37 77 38 28 39 82 40 76 41 78 42 29 43 81 44 75 45 74 46
REMARK SMILES IDX 30 48 62 49 42 50 61 51 43 52 46 53 60 54 79 55 44 56 45 57
REMARK SMILES IDX 59 59 80 60 47 61 31 62 32 63 40 64 33 65 39 66 41 67 38 68
REMARK SMILES IDX 34 69 35 70 36 71 37 72 63 73 64 74 72 75 65 76 71 77 73 78
REMARK SMILES IDX 70 79 66 80 67 81 68 82 69 83 48 84 49 85 57 86 50 87 56 88
REMARK SMILES IDX 58 89 55 90 51 91 52 92 53 93 54 94
REMARK H PARENT 15 5 7 13 19 28 78 47 46 58
REMARK Flexibility Score: inf
ROOT
ATOM      1  C   UNL A   1      31.740  29.735  25.696  1.00  0.00     0.118 C 
ENDROOT
BRANCH   1   2
ATOM      2  N   UNL A   1      32.747  29.690  24.651  1.00  0.00    -0.351 N 
ATOM      3  C   UNL A   1      33.155  28.752  23.730  1.00  0.00     0.269 C 
ATOM      4  O   UNL A   1      34.025  29.137  22.944  1.00  0.00    -0.268 OA
ATOM      5  H   UNL A   1      33.258  30.529  24.585  1.00  0.00     0.163 HD
BRANCH   3   6
ATOM      6  C   UNL A   1      32.624  27.343  23.618  1.00  0.00     0.130 A 
ATOM      7  C   UNL A   1      32.366  25.047  24.317  1.00  0.00     0.038 A 
ATOM      8  C   UNL A   1      31.685  24.797  23.134  1.00  0.00     0.046 A 
ATOM      9  C   UNL A   1      32.865  26.335  24.536  1.00  0.00     0.060 A 
ATOM     10  C   UNL A   1      31.486  25.846  22.255  1.00  0.00     0.114 A 
ATOM     11  N   UNL A   1      31.923  27.102  22.477  1.00  0.00    -0.251 NA
BRANCH   7  12
ATOM     12  N   UNL A   1      32.661  24.055  25.237  1.00  0.00    -0.384 N 
ATOM     13  H   UNL A   1      31.934  23.693  25.794  1.00  0.00     0.160 HD
BRANCH  12  14
ATOM     14  C   UNL A   1      34.008  23.525  25.408  1.00  0.00     0.119 C 
BRANCH  14  15
ATOM     15  C   UNL A   1      34.255  22.256  24.535  1.00  0.00    -0.012 C 
ATOM     16  C   UNL A   1      35.467  21.466  25.069  1.00  0.00     0.009 C 
ATOM     17  C   UNL A   1      34.796  22.661  23.137  1.00  0.00     0.009 C 
ATOM     18  C   UNL A   1      36.700  22.235  24.597  1.00  0.00     0.001 C 
ATOM     19  C   UNL A   1      36.271  22.998  23.346  1.00  0.00     0.001 C 
BRANCH  15  20
ATOM     20  C   UNL A   1      33.011  21.333  24.356  1.00  0.00     0.012 C 
BRANCH  20  21
ATOM     21  C   UNL A   1      33.194  19.799  24.259  1.00  0.00    -0.017 C 
ATOM     22  C   UNL A   1      32.783  19.000  25.491  1.00  0.00     0.007 C 
ATOM     23  C   UNL A   1      32.364  19.284  23.072  1.00  0.00     0.007 C 
ENDBRANCH  20  21
ENDBRANCH  15  20
ENDBRANCH  14  15
ENDBRANCH  12  14
ENDBRANCH   7  12
ENDBRANCH   3   6
ENDBRANCH   1   2
BRANCH   1  24
ATOM     24  C   UNL A   1      31.548  31.155  26.230  1.00  0.00     0.042 C 
BRANCH  24  25
ATOM     25  C   UNL A   1      32.761  31.659  27.018  1.00  0.00     0.118 C 
BRANCH  25  26
ATOM     26  N   UNL A   1      32.665  33.090  27.292  1.00  0.00    -0.352 N 
ATOM     27  C   UNL A   1      33.296  33.862  28.236  1.00  0.00     0.251 C 
ATOM     28  H   UNL A   1      32.047  33.581  26.705  1.00  0.00     0.163 HD
ATOM     29  O   UNL A   1      32.845  34.973  28.496  1.00  0.00    -0.269 OA
BRANCH  27  30
ATOM     30  C   UNL A   1      34.503  33.367  28.932  1.00  0.00     0.039 A 
ATOM     31  C   UNL A   1      34.352  32.507  30.024  1.00  0.00     0.014 A 
ATOM     32  C   UNL A   1      35.777  33.792  28.545  1.00  0.00     0.014 A 
ATOM     33  C   UNL A   1      35.483  32.018  30.683  1.00  0.00     0.010 A 
ATOM     34  C   UNL A   1      36.904  33.251  29.159  1.00  0.00     0.010 A 
ATOM     35  C   UNL A   1      36.769  32.355  30.230  1.00  0.00    -0.014 A 
BRANCH  35  36
ATOM     36  C   UNL A   1      37.989  31.772  30.847  1.00  0.00     0.031 A 
ATOM     37  C   UNL A   1      38.771  30.714  30.119  1.00  0.00     0.074 A 
ATOM     38  C   UNL A   1      38.335  32.135  32.097  1.00  0.00     0.049 A 
ATOM     39  N   UNL A   1      39.775  29.989  30.540  1.00  0.00    -0.248 NA
ATOM     40  C   UNL A   1      38.344  30.411  28.744  1.00  0.00     0.031 C 
ATOM     41  C   UNL A   1      37.633  33.130  32.912  1.00  0.00     0.029 A 
ATOM     42  N   UNL A   1      39.349  31.697  32.913  1.00  0.00    -0.354 N 
ATOM     43  C   UNL A   1      40.091  29.133  29.490  1.00  0.00     0.074 A 
ATOM     44  C   UNL A   1      39.135  29.395  28.435  1.00  0.00     0.031 C 
ATOM     45  C   UNL A   1      38.244  33.234  34.103  1.00  0.00     0.029 A 
ATOM     46  C   UNL A   1      39.343  32.277  34.160  1.00  0.00     0.049 A 
ATOM     47  H   UNL A   1      40.017  31.031  32.630  1.00  0.00     0.167 HD
ATOM     48  C   UNL A   1      41.098  28.226  29.410  1.00  0.00     0.034 A 
ATOM     49  C   UNL A   1      40.118  32.045  35.238  1.00  0.00     0.034 A 
ATOM     50  C   UNL A   1      42.044  27.985  30.474  1.00  0.00     0.049 A 
ATOM     51  C   UNL A   1      41.205  31.005  35.139  1.00  0.00     0.074 A 
ATOM     52  C   UNL A   1      43.132  27.131  30.482  1.00  0.00     0.029 A 
ATOM     53  N   UNL A   1      42.008  28.592  31.724  1.00  0.00    -0.354 N 
ATOM     54  N   UNL A   1      41.520  30.233  34.124  1.00  0.00    -0.248 NA
ATOM     55  C   UNL A   1      42.044  30.810  36.327  1.00  0.00     0.031 C 
ATOM     56  C   UNL A   1      43.710  27.167  31.756  1.00  0.00     0.029 A 
ATOM     57  C   UNL A   1      43.033  28.104  32.520  1.00  0.00     0.049 A 
ATOM     58  H   UNL A   1      41.351  29.269  32.003  1.00  0.00     0.167 HD
ATOM     59  C   UNL A   1      42.613  29.481  34.545  1.00  0.00     0.074 A 
ATOM     60  C   UNL A   1      42.912  29.906  35.897  1.00  0.00     0.031 C 
ATOM     61  C   UNL A   1      43.308  28.526  33.875  1.00  0.00     0.034 A 
BRANCH  48  62
ATOM     62  C   UNL A   1      41.201  27.411  28.141  1.00  0.00     0.023 A 
ATOM     63  C   UNL A   1      40.830  26.055  28.102  1.00  0.00     0.031 A 
ATOM     64  C   UNL A   1      41.701  27.989  26.961  1.00  0.00     0.131 A 
ATOM     65  C   UNL A   1      41.037  25.305  26.934  1.00  0.00     0.055 A 
ATOM     66  C   UNL A   1      41.825  27.259  25.777  1.00  0.00     0.041 A 
ATOM     67  F   UNL A   1      42.091  29.273  26.940  1.00  0.00    -0.206 F 
ATOM     68  C   UNL A   1      41.507  25.904  25.763  1.00  0.00     0.022 A 
BRANCH  65  69
ATOM     69  S   UNL A   1      40.821  23.506  27.012  1.00  0.00     0.124 S 
ATOM     70  O   UNL A   1      41.660  23.061  25.902  1.00  0.00    -0.237 OA
ATOM     71  O   UNL A   1      41.308  23.187  28.348  1.00  0.00    -0.237 OA
ATOM     72  O   UNL A   1      39.385  23.324  26.808  1.00  0.00    -0.744 OA
ENDBRANCH  65  69
ENDBRANCH  48  62
BRANCH  49  73
ATOM     73  C   UNL A   1      39.885  32.787  36.510  1.00  0.00     0.023 A 
ATOM     74  C   UNL A   1      38.931  32.347  37.440  1.00  0.00     0.031 A 
ATOM     75  C   UNL A   1      40.588  33.972  36.798  1.00  0.00     0.131 A 
ATOM     76  C   UNL A   1      38.671  33.109  38.591  1.00  0.00     0.055 A 
ATOM     77  C   UNL A   1      40.364  34.697  37.969  1.00  0.00     0.041 A 
ATOM     78  F   UNL A   1      41.516  34.435  35.945  1.00  0.00    -0.206 F 
ATOM     79  C   UNL A   1      39.390  34.273  38.868  1.00  0.00     0.022 A 
BRANCH  76  80
ATOM     80  S   UNL A   1      37.313  32.600  39.679  1.00  0.00     0.124 S 
ATOM     81  O   UNL A   1      37.757  31.281  40.111  1.00  0.00    -0.237 OA
ATOM     82  O   UNL A   1      37.331  33.649  40.694  1.00  0.00    -0.237 OA
ATOM     83  O   UNL A   1      36.149  32.610  38.796  1.00  0.00    -0.744 OA
ENDBRANCH  76  80
ENDBRANCH  49  73
BRANCH  61  84
ATOM     84  C   UNL A   1      44.485  27.910  34.591  1.00  0.00     0.023 A 
ATOM     85  C   UNL A   1      44.351  26.751  35.373  1.00  0.00     0.031 A 
ATOM     86  C   UNL A   1      45.758  28.503  34.500  1.00  0.00     0.131 A 
ATOM     87  C   UNL A   1      45.457  26.252  36.079  1.00  0.00     0.055 A 
ATOM     88  C   UNL A   1      46.868  27.966  35.153  1.00  0.00     0.041 A 
ATOM     89  F   UNL A   1      45.943  29.615  33.770  1.00  0.00    -0.206 F 
ATOM     90  C   UNL A   1      46.717  26.841  35.960  1.00  0.00     0.022 A 
BRANCH  87  91
ATOM     91  S   UNL A   1      45.202  24.877  37.236  1.00  0.00     0.124 S 
ATOM     92  O   UNL A   1      44.713  23.824  36.352  1.00  0.00    -0.237 OA
ATOM     93  O   UNL A   1      46.540  24.680  37.785  1.00  0.00    -0.237 OA
ATOM     94  O   UNL A   1      44.217  25.402  38.180  1.00  0.00    -0.744 OA
ENDBRANCH  87  91
ENDBRANCH  61  84
ENDBRANCH  35  36
ENDBRANCH  27  30
ENDBRANCH  25  26
ENDBRANCH  24  25
ENDBRANCH   1  24
TORSDOF 18
ENDMDL
