MODEL 1
REMARK VINA RESULT:     -11.0      0.000      0.000
REMARK SMILES N#CCSCC(=O)N1Cc2ccccc2C[C@@H]1C(=O)NCCCNC(=O)c1ccc(-c2c3nc(c(-c4cc(S(=O)(=O)[O-])ccc4F)c4ccc([nH]4)c(-c4cc(S(=O)(=O)[O-])ccc4F)c4nc(c(-c5cc(S(=O)(=O)[O-])ccc5F)c5ccc2[nH]5)C=C4)C=C3)cc1
REMARK SMILES IDX 21 1 20 2 18 3 19 4 17 6 8 7 9 8 10 9 16 10 11 11 15 12
REMARK SMILES IDX 12 13 14 14 13 15 6 16 7 17 5 18 4 19 3 20 2 21 1 22 22 23
REMARK SMILES IDX 23 24 24 25 25 26 26 28 27 29 28 30 89 31 29 32 88 33 30 34
REMARK SMILES IDX 31 35 32 36 82 37 33 38 87 39 81 40 83 41 34 42 86 43 80 44
REMARK SMILES IDX 79 45 35 47 67 48 47 49 66 50 48 51 51 52 65 53 84 54 49 55
REMARK SMILES IDX 50 56 64 58 85 59 52 60 36 61 37 62 45 63 38 64 44 65 46 66
REMARK SMILES IDX 43 67 39 68 40 69 41 70 42 71 68 72 69 73 77 74 70 75 76 76
REMARK SMILES IDX 78 77 75 78 71 79 72 80 73 81 74 82 53 83 54 84 62 85 55 86
REMARK SMILES IDX 61 87 63 88 60 89 56 90 57 91 58 92 59 93
REMARK H PARENT 20 5 24 27 83 46 51 57
REMARK Flexibility Score: inf
ROOT
ATOM      1  C   UNL A   1      32.774  28.263  25.037  1.00  0.00     0.117 C 
ENDROOT
BRANCH   1   2
ATOM      2  N   UNL A   1      33.348  28.330  23.697  1.00  0.00    -0.354 N 
ATOM      3  C   UNL A   1      33.174  27.620  22.550  1.00  0.00     0.243 C 
ATOM      4  O   UNL A   1      33.898  27.969  21.606  1.00  0.00    -0.273 OA
ATOM      5  H   UNL A   1      34.010  29.052  23.602  1.00  0.00     0.163 HD
BRANCH   3   6
ATOM      6  C   UNL A   1      32.209  26.412  22.353  1.00  0.00     0.179 C 
ATOM      7  N   UNL A   1      31.078  26.322  23.286  1.00  0.00    -0.325 N 
ATOM      8  C   UNL A   1      31.159  25.306  24.368  1.00  0.00     0.156 C 
ATOM      9  C   UNL A   1      32.553  24.808  24.673  1.00  0.00    -0.025 A 
ATOM     10  C   UNL A   1      33.056  25.134  22.270  1.00  0.00     0.071 C 
ATOM     11  C   UNL A   1      32.927  24.409  25.963  1.00  0.00     0.006 A 
ATOM     12  C   UNL A   1      33.501  24.736  23.642  1.00  0.00    -0.040 A 
ATOM     13  C   UNL A   1      34.242  24.014  26.224  1.00  0.00     0.000 A 
ATOM     14  C   UNL A   1      34.812  24.330  23.902  1.00  0.00     0.004 A 
ATOM     15  C   UNL A   1      35.185  23.985  25.198  1.00  0.00     0.000 A 
BRANCH   7  16
ATOM     16  C   UNL A   1      29.958  27.144  23.259  1.00  0.00     0.233 C 
ATOM     17  O   UNL A   1      28.885  26.713  23.708  1.00  0.00    -0.274 OA
BRANCH  16  18
ATOM     18  C   UNL A   1      29.891  28.494  22.538  1.00  0.00     0.170 C 
BRANCH  18  19
ATOM     19  S   UNL A   1      29.777  30.075  23.407  1.00  0.00    -0.137 SA
BRANCH  19  20
ATOM     20  C   UNL A   1      28.385  30.890  22.568  1.00  0.00     0.189 C 
BRANCH  20  21
ATOM     21  C   UNL A   1      28.413  32.404  22.689  1.00  0.00     0.073 C 
ATOM     22  N   UNL A   1      28.437  33.661  22.790  1.00  0.00    -0.197 NA
ENDBRANCH  20  21
ENDBRANCH  19  20
ENDBRANCH  18  19
ENDBRANCH  16  18
ENDBRANCH   7  16
ENDBRANCH   3   6
ENDBRANCH   1   2
BRANCH   1  23
ATOM     23  C   UNL A   1      33.837  28.015  26.094  1.00  0.00     0.042 C 
BRANCH  23  24
ATOM     24  C   UNL A   1      33.460  28.540  27.468  1.00  0.00     0.118 C 
BRANCH  24  25
ATOM     25  N   UNL A   1      33.543  29.993  27.543  1.00  0.00    -0.352 N 
ATOM     26  C   UNL A   1      34.536  30.801  28.037  1.00  0.00     0.251 C 
ATOM     27  H   UNL A   1      32.762  30.471  27.181  1.00  0.00     0.163 HD
ATOM     28  O   UNL A   1      34.291  31.999  28.208  1.00  0.00    -0.269 OA
BRANCH  26  29
ATOM     29  C   UNL A   1      35.870  30.262  28.389  1.00  0.00     0.039 A 
ATOM     30  C   UNL A   1      36.917  30.389  27.470  1.00  0.00     0.014 A 
ATOM     31  C   UNL A   1      36.094  29.597  29.596  1.00  0.00     0.014 A 
ATOM     32  C   UNL A   1      38.191  29.906  27.787  1.00  0.00     0.010 A 
ATOM     33  C   UNL A   1      37.383  29.212  29.955  1.00  0.00     0.010 A 
ATOM     34  C   UNL A   1      38.446  29.346  29.049  1.00  0.00    -0.014 A 
BRANCH  34  35
ATOM     35  C   UNL A   1      39.796  28.845  29.428  1.00  0.00     0.031 A 
ATOM     36  C   UNL A   1      40.580  29.554  30.504  1.00  0.00     0.074 A 
ATOM     37  C   UNL A   1      40.339  27.798  28.775  1.00  0.00     0.049 A 
ATOM     38  N   UNL A   1      41.814  29.366  30.891  1.00  0.00    -0.248 NA
ATOM     39  C   UNL A   1      39.889  30.643  31.215  1.00  0.00     0.031 C 
ATOM     40  C   UNL A   1      39.692  27.043  27.699  1.00  0.00     0.029 A 
ATOM     41  N   UNL A   1      41.564  27.192  28.911  1.00  0.00    -0.354 N 
ATOM     42  C   UNL A   1      42.050  30.315  31.883  1.00  0.00     0.074 A 
ATOM     43  C   UNL A   1      40.856  31.125  31.979  1.00  0.00     0.031 C 
ATOM     44  C   UNL A   1      40.517  26.066  27.289  1.00  0.00     0.029 A 
ATOM     45  C   UNL A   1      41.772  26.155  28.029  1.00  0.00     0.049 A 
ATOM     46  H   UNL A   1      42.232  27.473  29.577  1.00  0.00     0.167 HD
ATOM     47  C   UNL A   1      43.146  30.475  32.664  1.00  0.00     0.034 A 
ATOM     48  C   UNL A   1      42.857  25.380  27.824  1.00  0.00     0.034 A 
ATOM     49  C   UNL A   1      44.324  29.649  32.572  1.00  0.00     0.049 A 
ATOM     50  C   UNL A   1      44.082  25.606  28.681  1.00  0.00     0.074 A 
ATOM     51  C   UNL A   1      45.485  29.714  33.322  1.00  0.00     0.029 A 
ATOM     52  N   UNL A   1      44.490  28.601  31.676  1.00  0.00    -0.354 N 
ATOM     53  N   UNL A   1      44.277  26.497  29.627  1.00  0.00    -0.248 NA
ATOM     54  C   UNL A   1      45.227  24.715  28.452  1.00  0.00     0.031 C 
ATOM     55  C   UNL A   1      46.372  28.745  32.844  1.00  0.00     0.029 A 
ATOM     56  C   UNL A   1      45.738  28.023  31.846  1.00  0.00     0.049 A 
ATOM     57  H   UNL A   1      43.819  28.311  31.016  1.00  0.00     0.167 HD
ATOM     58  C   UNL A   1      45.550  26.240  30.131  1.00  0.00     0.074 A 
ATOM     59  C   UNL A   1      46.068  25.106  29.397  1.00  0.00     0.031 C 
ATOM     60  C   UNL A   1      46.232  26.884  31.113  1.00  0.00     0.034 A 
BRANCH  47  61
ATOM     61  C   UNL A   1      43.117  31.588  33.685  1.00  0.00     0.023 A 
ATOM     62  C   UNL A   1      42.596  31.384  34.974  1.00  0.00     0.031 A 
ATOM     63  C   UNL A   1      43.607  32.867  33.368  1.00  0.00     0.131 A 
ATOM     64  C   UNL A   1      42.511  32.456  35.874  1.00  0.00     0.055 A 
ATOM     65  C   UNL A   1      43.597  33.909  34.297  1.00  0.00     0.041 A 
ATOM     66  F   UNL A   1      44.098  33.128  32.146  1.00  0.00    -0.206 F 
ATOM     67  C   UNL A   1      43.035  33.710  35.556  1.00  0.00     0.022 A 
BRANCH  64  68
ATOM     68  S   UNL A   1      41.593  32.219  37.419  1.00  0.00     0.124 S 
ATOM     69  O   UNL A   1      41.603  33.569  37.976  1.00  0.00    -0.237 OA
ATOM     70  O   UNL A   1      40.302  31.732  36.949  1.00  0.00    -0.237 OA
ATOM     71  O   UNL A   1      42.399  31.244  38.151  1.00  0.00    -0.744 OA
ENDBRANCH  64  68
ENDBRANCH  47  61
BRANCH  48  72
ATOM     72  C   UNL A   1      42.862  24.333  26.760  1.00  0.00     0.023 A 
ATOM     73  C   UNL A   1      42.193  23.112  26.942  1.00  0.00     0.031 A 
ATOM     74  C   UNL A   1      43.606  24.503  25.578  1.00  0.00     0.131 A 
ATOM     75  C   UNL A   1      42.342  22.083  26.000  1.00  0.00     0.055 A 
ATOM     76  C   UNL A   1      43.694  23.500  24.609  1.00  0.00     0.041 A 
ATOM     77  F   UNL A   1      44.264  25.650  25.346  1.00  0.00    -0.206 F 
ATOM     78  C   UNL A   1      43.077  22.274  24.828  1.00  0.00     0.022 A 
BRANCH  75  79
ATOM     79  S   UNL A   1      41.678  20.442  26.397  1.00  0.00     0.124 S 
ATOM     80  O   UNL A   1      40.243  20.659  26.239  1.00  0.00    -0.237 OA
ATOM     81  O   UNL A   1      42.316  19.606  25.387  1.00  0.00    -0.237 OA
ATOM     82  O   UNL A   1      42.127  20.217  27.769  1.00  0.00    -0.744 OA
ENDBRANCH  75  79
ENDBRANCH  48  72
BRANCH  60  83
ATOM     83  C   UNL A   1      47.582  26.326  31.493  1.00  0.00     0.023 A 
ATOM     84  C   UNL A   1      47.752  25.489  32.609  1.00  0.00     0.031 A 
ATOM     85  C   UNL A   1      48.715  26.643  30.723  1.00  0.00     0.131 A 
ATOM     86  C   UNL A   1      49.036  25.042  32.956  1.00  0.00     0.055 A 
ATOM     87  C   UNL A   1      49.979  26.145  31.037  1.00  0.00     0.041 A 
ATOM     88  F   UNL A   1      48.610  27.439  29.647  1.00  0.00    -0.206 F 
ATOM     89  C   UNL A   1      50.148  25.350  32.168  1.00  0.00     0.022 A 
BRANCH  86  90
ATOM     90  S   UNL A   1      49.247  24.121  34.505  1.00  0.00     0.124 S 
ATOM     91  O   UNL A   1      48.140  24.625  35.311  1.00  0.00    -0.237 OA
ATOM     92  O   UNL A   1      49.134  22.735  34.062  1.00  0.00    -0.237 OA
ATOM     93  O   UNL A   1      50.578  24.518  34.961  1.00  0.00    -0.744 OA
ENDBRANCH  86  90
ENDBRANCH  60  83
ENDBRANCH  34  35
ENDBRANCH  26  29
ENDBRANCH  24  25
ENDBRANCH  23  24
ENDBRANCH   1  23
TORSDOF 18
ENDMDL
MODEL 2
REMARK VINA RESULT:     -11.0      2.419      8.109
REMARK SMILES N#CCSCC(=O)N1Cc2ccccc2C[C@@H]1C(=O)NCCCNC(=O)c1ccc(-c2c3nc(c(-c4cc(S(=O)(=O)[O-])ccc4F)c4ccc([nH]4)c(-c4cc(S(=O)(=O)[O-])ccc4F)c4nc(c(-c5cc(S(=O)(=O)[O-])ccc5F)c5ccc2[nH]5)C=C4)C=C3)cc1
REMARK SMILES IDX 21 1 20 2 18 3 19 4 17 6 8 7 9 8 10 9 16 10 11 11 15 12
REMARK SMILES IDX 12 13 14 14 13 15 6 16 7 17 5 18 4 19 3 20 2 21 1 22 22 23
REMARK SMILES IDX 23 24 24 25 25 26 26 28 27 29 28 30 89 31 29 32 88 33 30 34
REMARK SMILES IDX 31 35 32 36 82 37 33 38 87 39 81 40 83 41 34 42 86 43 80 44
REMARK SMILES IDX 79 45 35 47 67 48 47 49 66 50 48 51 51 52 65 53 84 54 49 55
REMARK SMILES IDX 50 56 64 58 85 59 52 60 36 61 37 62 45 63 38 64 44 65 46 66
REMARK SMILES IDX 43 67 39 68 40 69 41 70 42 71 68 72 69 73 77 74 70 75 76 76
REMARK SMILES IDX 78 77 75 78 71 79 72 80 73 81 74 82 53 83 54 84 62 85 55 86
REMARK SMILES IDX 61 87 63 88 60 89 56 90 57 91 58 92 59 93
REMARK H PARENT 20 5 24 27 83 46 51 57
REMARK Flexibility Score: inf
ROOT
ATOM      1  C   UNL A   1      33.095  28.873  22.623  1.00  0.00     0.117 C 
ENDROOT
BRANCH   1   2
ATOM      2  N   UNL A   1      33.281  27.796  21.657  1.00  0.00    -0.354 N 
ATOM      3  C   UNL A   1      32.709  26.576  21.468  1.00  0.00     0.243 C 
ATOM      4  O   UNL A   1      33.183  25.917  20.530  1.00  0.00    -0.273 OA
ATOM      5  H   UNL A   1      33.976  27.998  20.989  1.00  0.00     0.163 HD
BRANCH   3   6
ATOM      6  C   UNL A   1      31.584  25.943  22.342  1.00  0.00     0.179 C 
ATOM      7  N   UNL A   1      31.218  26.673  23.563  1.00  0.00    -0.325 N 
ATOM      8  C   UNL A   1      31.698  26.127  24.858  1.00  0.00     0.156 C 
ATOM      9  C   UNL A   1      32.869  25.176  24.757  1.00  0.00    -0.025 A 
ATOM     10  C   UNL A   1      31.935  24.467  22.575  1.00  0.00     0.071 C 
ATOM     11  C   UNL A   1      33.829  25.078  25.772  1.00  0.00     0.006 A 
ATOM     12  C   UNL A   1      33.000  24.363  23.622  1.00  0.00    -0.040 A 
ATOM     13  C   UNL A   1      34.933  24.234  25.618  1.00  0.00     0.000 A 
ATOM     14  C   UNL A   1      34.098  23.511  23.473  1.00  0.00     0.004 A 
ATOM     15  C   UNL A   1      35.072  23.462  24.466  1.00  0.00     0.000 A 
BRANCH   7  16
ATOM     16  C   UNL A   1      30.493  27.858  23.593  1.00  0.00     0.233 C 
ATOM     17  O   UNL A   1      30.449  28.508  24.648  1.00  0.00    -0.274 OA
BRANCH  16  18
ATOM     18  C   UNL A   1      29.575  28.342  22.466  1.00  0.00     0.170 C 
BRANCH  18  19
ATOM     19  S   UNL A   1      28.106  29.356  22.754  1.00  0.00    -0.137 SA
BRANCH  19  20
ATOM     20  C   UNL A   1      28.073  30.430  21.288  1.00  0.00     0.189 C 
BRANCH  20  21
ATOM     21  C   UNL A   1      28.048  31.911  21.628  1.00  0.00     0.073 C 
ATOM     22  N   UNL A   1      28.028  33.140  21.910  1.00  0.00    -0.197 NA
ENDBRANCH  20  21
ENDBRANCH  19  20
ENDBRANCH  18  19
ENDBRANCH  16  18
ENDBRANCH   7  16
ENDBRANCH   3   6
ENDBRANCH   1   2
BRANCH   1  23
ATOM     23  C   UNL A   1      34.225  28.920  23.639  1.00  0.00     0.042 C 
BRANCH  23  24
ATOM     24  C   UNL A   1      33.750  28.828  25.078  1.00  0.00     0.118 C 
BRANCH  24  25
ATOM     25  N   UNL A   1      33.100  30.054  25.522  1.00  0.00    -0.352 N 
ATOM     26  C   UNL A   1      33.330  30.831  26.629  1.00  0.00     0.251 C 
ATOM     27  H   UNL A   1      32.379  30.376  24.933  1.00  0.00     0.163 HD
ATOM     28  O   UNL A   1      32.503  31.699  26.923  1.00  0.00    -0.269 OA
BRANCH  26  29
ATOM     29  C   UNL A   1      34.527  30.632  27.480  1.00  0.00     0.039 A 
ATOM     30  C   UNL A   1      34.666  29.432  28.184  1.00  0.00     0.014 A 
ATOM     31  C   UNL A   1      35.493  31.629  27.625  1.00  0.00     0.014 A 
ATOM     32  C   UNL A   1      35.798  29.213  28.978  1.00  0.00     0.010 A 
ATOM     33  C   UNL A   1      36.667  31.370  28.328  1.00  0.00     0.010 A 
ATOM     34  C   UNL A   1      36.828  30.165  29.028  1.00  0.00    -0.014 A 
BRANCH  34  35
ATOM     35  C   UNL A   1      38.056  29.952  29.843  1.00  0.00     0.031 A 
ATOM     36  C   UNL A   1      39.134  29.025  29.339  1.00  0.00     0.074 A 
ATOM     37  C   UNL A   1      38.179  30.540  31.050  1.00  0.00     0.049 A 
ATOM     38  N   UNL A   1      40.212  28.599  29.945  1.00  0.00    -0.248 NA
ATOM     39  C   UNL A   1      38.954  28.478  27.984  1.00  0.00     0.031 C 
ATOM     40  C   UNL A   1      37.196  31.438  31.659  1.00  0.00     0.029 A 
ATOM     41  N   UNL A   1      39.179  30.463  31.988  1.00  0.00    -0.354 N 
ATOM     42  C   UNL A   1      40.833  27.732  29.050  1.00  0.00     0.074 A 
ATOM     43  C   UNL A   1      39.970  27.634  27.894  1.00  0.00     0.031 C 
ATOM     44  C   UNL A   1      37.650  31.842  32.856  1.00  0.00     0.029 A 
ATOM     45  C   UNL A   1      38.928  31.192  33.129  1.00  0.00     0.049 A 
ATOM     46  H   UNL A   1      40.000  29.934  31.858  1.00  0.00     0.167 HD
ATOM     47  C   UNL A   1      42.028  27.103  29.165  1.00  0.00     0.034 A 
ATOM     48  C   UNL A   1      39.636  31.307  34.271  1.00  0.00     0.034 A 
ATOM     49  C   UNL A   1      42.890  27.224  30.315  1.00  0.00     0.049 A 
ATOM     50  C   UNL A   1      40.945  30.563  34.391  1.00  0.00     0.074 A 
ATOM     51  C   UNL A   1      44.127  26.642  30.532  1.00  0.00     0.029 A 
ATOM     52  N   UNL A   1      42.606  27.984  31.443  1.00  0.00    -0.354 N 
ATOM     53  N   UNL A   1      41.525  29.763  33.525  1.00  0.00    -0.248 NA
ATOM     54  C   UNL A   1      41.703  30.746  35.637  1.00  0.00     0.031 C 
ATOM     55  C   UNL A   1      44.565  27.005  31.809  1.00  0.00     0.029 A 
ATOM     56  C   UNL A   1      43.638  27.873  32.362  1.00  0.00     0.049 A 
ATOM     57  H   UNL A   1      41.792  28.521  31.571  1.00  0.00     0.167 HD
ATOM     58  C   UNL A   1      42.733  29.386  34.108  1.00  0.00     0.074 A 
ATOM     59  C   UNL A   1      42.805  30.056  35.388  1.00  0.00     0.031 C 
ATOM     60  C   UNL A   1      43.698  28.559  33.629  1.00  0.00     0.034 A 
BRANCH  47  61
ATOM     61  C   UNL A   1      42.469  26.229  28.016  1.00  0.00     0.023 A 
ATOM     62  C   UNL A   1      41.926  24.947  27.822  1.00  0.00     0.031 A 
ATOM     63  C   UNL A   1      43.446  26.674  27.107  1.00  0.00     0.131 A 
ATOM     64  C   UNL A   1      42.410  24.128  26.792  1.00  0.00     0.055 A 
ATOM     65  C   UNL A   1      43.863  25.886  26.033  1.00  0.00     0.041 A 
ATOM     66  F   UNL A   1      44.016  27.881  27.253  1.00  0.00    -0.206 F 
ATOM     67  C   UNL A   1      43.354  24.599  25.878  1.00  0.00     0.022 A 
BRANCH  64  68
ATOM     68  S   UNL A   1      41.879  22.396  26.741  1.00  0.00     0.124 S 
ATOM     69  O   UNL A   1      42.651  21.821  27.841  1.00  0.00    -0.237 OA
ATOM     70  O   UNL A   1      40.441  22.499  26.958  1.00  0.00    -0.237 OA
ATOM     71  O   UNL A   1      42.280  21.953  25.409  1.00  0.00    -0.744 OA
ENDBRANCH  64  68
ENDBRANCH  47  61
BRANCH  48  72
ATOM     72  C   UNL A   1      39.129  32.134  35.407  1.00  0.00     0.023 A 
ATOM     73  C   UNL A   1      39.554  33.461  35.583  1.00  0.00     0.031 A 
ATOM     74  C   UNL A   1      38.279  31.584  36.383  1.00  0.00     0.131 A 
ATOM     75  C   UNL A   1      39.193  34.166  36.741  1.00  0.00     0.055 A 
ATOM     76  C   UNL A   1      37.864  32.314  37.499  1.00  0.00     0.041 A 
ATOM     77  F   UNL A   1      37.837  30.321  36.267  1.00  0.00    -0.206 F 
ATOM     78  C   UNL A   1      38.339  33.607  37.694  1.00  0.00     0.022 A 
BRANCH  75  79
ATOM     79  S   UNL A   1      39.970  35.776  37.052  1.00  0.00     0.124 S 
ATOM     80  O   UNL A   1      39.281  36.207  38.264  1.00  0.00    -0.237 OA
ATOM     81  O   UNL A   1      41.372  35.408  37.207  1.00  0.00    -0.237 OA
ATOM     82  O   UNL A   1      39.654  36.543  35.849  1.00  0.00    -0.744 OA
ENDBRANCH  75  79
ENDBRANCH  48  72
BRANCH  60  83
ATOM     83  C   UNL A   1      44.943  28.396  34.466  1.00  0.00     0.023 A 
ATOM     84  C   UNL A   1      45.059  27.382  35.433  1.00  0.00     0.031 A 
ATOM     85  C   UNL A   1      46.028  29.273  34.291  1.00  0.00     0.131 A 
ATOM     86  C   UNL A   1      46.213  27.305  36.227  1.00  0.00     0.055 A 
ATOM     87  C   UNL A   1      47.198  29.153  35.041  1.00  0.00     0.041 A 
ATOM     88  F   UNL A   1      45.970  30.259  33.382  1.00  0.00    -0.206 F 
ATOM     89  C   UNL A   1      47.290  28.173  36.026  1.00  0.00     0.022 A 
BRANCH  86  90
ATOM     90  S   UNL A   1      46.253  26.108  37.589  1.00  0.00     0.124 S 
ATOM     91  O   UNL A   1      46.981  24.993  36.991  1.00  0.00    -0.237 OA
ATOM     92  O   UNL A   1      46.959  26.844  38.632  1.00  0.00    -0.237 OA
ATOM     93  O   UNL A   1      44.840  25.851  37.862  1.00  0.00    -0.744 OA
ENDBRANCH  86  90
ENDBRANCH  60  83
ENDBRANCH  34  35
ENDBRANCH  26  29
ENDBRANCH  24  25
ENDBRANCH  23  24
ENDBRANCH   1  23
TORSDOF 18
ENDMDL
MODEL 3
REMARK VINA RESULT:     -10.7      4.369      7.076
REMARK SMILES N#CCSCC(=O)N1Cc2ccccc2C[C@@H]1C(=O)NCCCNC(=O)c1ccc(-c2c3nc(c(-c4cc(S(=O)(=O)[O-])ccc4F)c4ccc([nH]4)c(-c4cc(S(=O)(=O)[O-])ccc4F)c4nc(c(-c5cc(S(=O)(=O)[O-])ccc5F)c5ccc2[nH]5)C=C4)C=C3)cc1
REMARK SMILES IDX 21 1 20 2 18 3 19 4 17 6 8 7 9 8 10 9 16 10 11 11 15 12
REMARK SMILES IDX 12 13 14 14 13 15 6 16 7 17 5 18 4 19 3 20 2 21 1 22 22 23
REMARK SMILES IDX 23 24 24 25 25 26 26 28 27 29 28 30 89 31 29 32 88 33 30 34
REMARK SMILES IDX 31 35 32 36 82 37 33 38 87 39 81 40 83 41 34 42 86 43 80 44
REMARK SMILES IDX 79 45 35 47 67 48 47 49 66 50 48 51 51 52 65 53 84 54 49 55
REMARK SMILES IDX 50 56 64 58 85 59 52 60 36 61 37 62 45 63 38 64 44 65 46 66
REMARK SMILES IDX 43 67 39 68 40 69 41 70 42 71 68 72 69 73 77 74 70 75 76 76
REMARK SMILES IDX 78 77 75 78 71 79 72 80 73 81 74 82 53 83 54 84 62 85 55 86
REMARK SMILES IDX 61 87 63 88 60 89 56 90 57 91 58 92 59 93
REMARK H PARENT 20 5 24 27 83 46 51 57
REMARK Flexibility Score: inf
ROOT
ATOM      1  C   UNL A   1      34.872  24.154  24.704  1.00  0.00     0.117 C 
ENDROOT
BRANCH   1   2
ATOM      2  N   UNL A   1      34.511  24.722  23.409  1.00  0.00    -0.354 N 
ATOM      3  C   UNL A   1      33.342  25.112  22.832  1.00  0.00     0.243 C 
ATOM      4  O   UNL A   1      33.446  25.520  21.666  1.00  0.00    -0.273 OA
ATOM      5  H   UNL A   1      35.288  24.854  22.821  1.00  0.00     0.163 HD
BRANCH   3   6
ATOM      6  C   UNL A   1      31.926  25.037  23.481  1.00  0.00     0.179 C 
ATOM      7  N   UNL A   1      31.875  25.127  24.947  1.00  0.00    -0.325 N 
ATOM      8  C   UNL A   1      31.627  23.873  25.703  1.00  0.00     0.156 C 
ATOM      9  C   UNL A   1      31.912  22.599  24.940  1.00  0.00    -0.025 A 
ATOM     10  C   UNL A   1      31.201  23.814  22.902  1.00  0.00     0.071 C 
ATOM     11  C   UNL A   1      32.362  21.439  25.585  1.00  0.00     0.006 A 
ATOM     12  C   UNL A   1      31.718  22.569  23.552  1.00  0.00    -0.040 A 
ATOM     13  C   UNL A   1      32.677  20.298  24.841  1.00  0.00     0.000 A 
ATOM     14  C   UNL A   1      32.023  21.424  22.811  1.00  0.00     0.004 A 
ATOM     15  C   UNL A   1      32.518  20.295  23.456  1.00  0.00     0.000 A 
BRANCH   7  16
ATOM     16  C   UNL A   1      32.084  26.289  25.679  1.00  0.00     0.233 C 
ATOM     17  O   UNL A   1      31.730  26.322  26.867  1.00  0.00    -0.274 OA
BRANCH  16  18
ATOM     18  C   UNL A   1      32.554  27.619  25.081  1.00  0.00     0.170 C 
BRANCH  18  19
ATOM     19  S   UNL A   1      31.533  29.110  25.059  1.00  0.00    -0.137 SA
BRANCH  19  20
ATOM     20  C   UNL A   1      31.838  29.824  26.702  1.00  0.00     0.189 C 
BRANCH  20  21
ATOM     21  C   UNL A   1      31.600  31.324  26.760  1.00  0.00     0.073 C 
ATOM     22  N   UNL A   1      31.401  32.568  26.808  1.00  0.00    -0.197 NA
ENDBRANCH  20  21
ENDBRANCH  19  20
ENDBRANCH  18  19
ENDBRANCH  16  18
ENDBRANCH   7  16
ENDBRANCH   3   6
ENDBRANCH   1   2
BRANCH   1  23
ATOM     23  C   UNL A   1      35.554  22.804  24.557  1.00  0.00     0.042 C 
BRANCH  23  24
ATOM     24  C   UNL A   1      35.906  22.155  25.883  1.00  0.00     0.118 C 
BRANCH  24  25
ATOM     25  N   UNL A   1      36.884  21.087  25.731  1.00  0.00    -0.352 N 
ATOM     26  C   UNL A   1      38.256  21.128  25.756  1.00  0.00     0.251 C 
ATOM     27  H   UNL A   1      36.499  20.191  25.588  1.00  0.00     0.163 HD
ATOM     28  O   UNL A   1      38.883  20.135  25.376  1.00  0.00    -0.269 OA
BRANCH  26  29
ATOM     29  C   UNL A   1      38.986  22.337  26.202  1.00  0.00     0.039 A 
ATOM     30  C   UNL A   1      40.027  22.199  27.126  1.00  0.00     0.014 A 
ATOM     31  C   UNL A   1      38.632  23.611  25.753  1.00  0.00     0.014 A 
ATOM     32  C   UNL A   1      40.744  23.324  27.546  1.00  0.00     0.010 A 
ATOM     33  C   UNL A   1      39.412  24.714  26.089  1.00  0.00     0.010 A 
ATOM     34  C   UNL A   1      40.468  24.589  27.003  1.00  0.00    -0.014 A 
BRANCH  34  35
ATOM     35  C   UNL A   1      41.230  25.802  27.410  1.00  0.00     0.031 A 
ATOM     36  C   UNL A   1      40.535  26.894  28.184  1.00  0.00     0.074 A 
ATOM     37  C   UNL A   1      42.518  25.950  27.040  1.00  0.00     0.049 A 
ATOM     38  N   UNL A   1      40.972  28.080  28.519  1.00  0.00    -0.248 NA
ATOM     39  C   UNL A   1      39.151  26.625  28.608  1.00  0.00     0.031 C 
ATOM     40  C   UNL A   1      43.295  24.977  26.268  1.00  0.00     0.029 A 
ATOM     41  N   UNL A   1      43.401  26.981  27.252  1.00  0.00    -0.354 N 
ATOM     42  C   UNL A   1      39.917  28.700  29.185  1.00  0.00     0.074 A 
ATOM     43  C   UNL A   1      38.797  27.786  29.135  1.00  0.00     0.031 C 
ATOM     44  C   UNL A   1      44.540  25.448  26.091  1.00  0.00     0.029 A 
ATOM     45  C   UNL A   1      44.638  26.778  26.684  1.00  0.00     0.049 A 
ATOM     46  H   UNL A   1      43.170  27.790  27.763  1.00  0.00     0.167 HD
ATOM     47  C   UNL A   1      39.894  29.902  29.809  1.00  0.00     0.034 A 
ATOM     48  C   UNL A   1      45.721  27.581  26.629  1.00  0.00     0.034 A 
ATOM     49  C   UNL A   1      41.023  30.797  29.868  1.00  0.00     0.049 A 
ATOM     50  C   UNL A   1      45.656  28.934  27.297  1.00  0.00     0.074 A 
ATOM     51  C   UNL A   1      41.114  32.033  30.485  1.00  0.00     0.029 A 
ATOM     52  N   UNL A   1      42.263  30.549  29.293  1.00  0.00    -0.354 N 
ATOM     53  N   UNL A   1      44.655  29.493  27.939  1.00  0.00    -0.248 NA
ATOM     54  C   UNL A   1      46.870  29.761  27.247  1.00  0.00     0.031 C 
ATOM     55  C   UNL A   1      42.387  32.555  30.237  1.00  0.00     0.029 A 
ATOM     56  C   UNL A   1      43.117  31.613  29.529  1.00  0.00     0.049 A 
ATOM     57  H   UNL A   1      42.499  29.735  28.791  1.00  0.00     0.167 HD
ATOM     58  C   UNL A   1      45.137  30.716  28.402  1.00  0.00     0.074 A 
ATOM     59  C   UNL A   1      46.518  30.804  27.981  1.00  0.00     0.031 C 
ATOM     60  C   UNL A   1      44.496  31.679  29.112  1.00  0.00     0.034 A 
BRANCH  47  61
ATOM     61  C   UNL A   1      38.603  30.316  30.476  1.00  0.00     0.023 A 
ATOM     62  C   UNL A   1      37.613  31.025  29.775  1.00  0.00     0.031 A 
ATOM     63  C   UNL A   1      38.361  30.008  31.826  1.00  0.00     0.131 A 
ATOM     64  C   UNL A   1      36.459  31.462  30.441  1.00  0.00     0.055 A 
ATOM     65  C   UNL A   1      37.173  30.374  32.461  1.00  0.00     0.041 A 
ATOM     66  F   UNL A   1      39.279  29.351  32.553  1.00  0.00    -0.206 F 
ATOM     67  C   UNL A   1      36.218  31.117  31.772  1.00  0.00     0.022 A 
BRANCH  64  68
ATOM     68  S   UNL A   1      35.338  32.596  29.578  1.00  0.00     0.124 S 
ATOM     69  O   UNL A   1      34.638  33.224  30.696  1.00  0.00    -0.237 OA
ATOM     70  O   UNL A   1      36.260  33.453  28.841  1.00  0.00    -0.237 OA
ATOM     71  O   UNL A   1      34.519  31.709  28.756  1.00  0.00    -0.744 OA
ENDBRANCH  64  68
ENDBRANCH  47  61
BRANCH  48  72
ATOM     72  C   UNL A   1      46.955  27.155  25.903  1.00  0.00     0.023 A 
ATOM     73  C   UNL A   1      47.984  26.468  26.567  1.00  0.00     0.031 A 
ATOM     74  C   UNL A   1      47.162  27.502  24.556  1.00  0.00     0.131 A 
ATOM     75  C   UNL A   1      49.199  26.219  25.910  1.00  0.00     0.055 A 
ATOM     76  C   UNL A   1      48.346  27.188  23.885  1.00  0.00     0.041 A 
ATOM     77  F   UNL A   1      46.212  28.156  23.868  1.00  0.00    -0.206 F 
ATOM     78  C   UNL A   1      49.382  26.562  24.569  1.00  0.00     0.022 A 
BRANCH  75  79
ATOM     79  S   UNL A   1      50.589  25.565  26.877  1.00  0.00     0.124 S 
ATOM     80  O   UNL A   1      51.524  25.180  25.826  1.00  0.00    -0.237 OA
ATOM     81  O   UNL A   1      50.966  26.722  27.681  1.00  0.00    -0.237 OA
ATOM     82  O   UNL A   1      49.993  24.456  27.620  1.00  0.00    -0.744 OA
ENDBRANCH  75  79
ENDBRANCH  48  72
BRANCH  60  83
ATOM     83  C   UNL A   1      45.310  32.878  29.536  1.00  0.00     0.023 A 
ATOM     84  C   UNL A   1      45.398  34.034  28.741  1.00  0.00     0.031 A 
ATOM     85  C   UNL A   1      46.008  32.857  30.756  1.00  0.00     0.131 A 
ATOM     86  C   UNL A   1      46.213  35.100  29.150  1.00  0.00     0.055 A 
ATOM     87  C   UNL A   1      46.767  33.945  31.187  1.00  0.00     0.041 A 
ATOM     88  F   UNL A   1      45.959  31.778  31.553  1.00  0.00    -0.206 F 
ATOM     89  C   UNL A   1      46.884  35.070  30.375  1.00  0.00     0.022 A 
BRANCH  86  90
ATOM     90  S   UNL A   1      46.454  36.495  28.015  1.00  0.00     0.124 S 
ATOM     91  O   UNL A   1      46.010  37.625  28.826  1.00  0.00    -0.237 OA
ATOM     92  O   UNL A   1      47.885  36.431  27.741  1.00  0.00    -0.237 OA
ATOM     93  O   UNL A   1      45.591  36.168  26.881  1.00  0.00    -0.744 OA
ENDBRANCH  86  90
ENDBRANCH  60  83
ENDBRANCH  34  35
ENDBRANCH  26  29
ENDBRANCH  24  25
ENDBRANCH  23  24
ENDBRANCH   1  23
TORSDOF 18
ENDMDL
