MODEL 1
REMARK VINA RESULT:     -12.7      0.000      0.000
REMARK SMILES C[C@@]12CC[C@@H]3c4ccc(O)cc4/C(=N/OCC(=O)NCCCNC(=O)c4ccc(-c5c6nc(c(-c7cc(S(=O)(=O)[O-])ccc7F)c7ccc([nH]7)c(-c7cc(S(=O)(=O)[O-])ccc7F)c7nc(c(-c8cc(S(=O)(=O)[O-])ccc8F)c8ccc5[nH]8)C=C7)C=C6)cc4)C[C@H]3[C@@H]1C[C@@H](O)[C@@H]2O
REMARK SMILES IDX 21 1 20 2 19 3 17 4 18 5 16 7 15 8 14 9 1 10 2 11 3 12 91 13
REMARK SMILES IDX 95 14 4 15 90 16 92 17 93 18 5 19 89 20 6 21 13 22 7 23
REMARK SMILES IDX 12 24 8 25 11 26 9 27 96 28 94 30 10 32 22 34 23 35 24 36
REMARK SMILES IDX 25 38 26 39 27 40 88 41 28 42 87 43 29 44 30 45 31 46 81 47
REMARK SMILES IDX 32 48 86 49 80 50 82 51 33 52 85 53 79 54 78 55 34 57 66 58
REMARK SMILES IDX 46 59 65 60 47 61 50 62 64 63 83 64 48 65 49 66 63 68 84 69
REMARK SMILES IDX 51 70 35 71 36 72 44 73 37 74 43 75 45 76 42 77 38 78 39 79
REMARK SMILES IDX 40 80 41 81 67 82 68 83 76 84 69 85 75 86 77 87 74 88 70 89
REMARK SMILES IDX 71 90 72 91 73 92 52 93 53 94 61 95 54 96 60 97 62 98 59 99
REMARK SMILES IDX 55 100 56 101 57 102 58 103
REMARK H PARENT 19 6 96 29 94 31 10 33 23 37 82 56 50 67
REMARK Flexibility Score: inf
ROOT
ATOM      1  C   UNL A   1      31.722  31.679  26.915  1.00  0.00     0.042 C 
ENDROOT
BRANCH   1   2
ATOM      2  C   UNL A   1      32.018  30.626  25.854  1.00  0.00     0.117 C 
BRANCH   2   3
ATOM      3  N   UNL A   1      33.307  29.986  26.030  1.00  0.00    -0.353 N 
ATOM      4  C   UNL A   1      33.668  29.017  26.926  1.00  0.00     0.260 C 
ATOM      5  O   UNL A   1      34.821  28.578  26.860  1.00  0.00    -0.271 OA
ATOM      6  H   UNL A   1      34.020  30.290  25.423  1.00  0.00     0.163 HD
BRANCH   4   7
ATOM      7  C   UNL A   1      32.630  28.423  27.914  1.00  0.00     0.363 C 
BRANCH   7   8
ATOM      8  O   UNL A   1      31.913  27.222  27.627  1.00  0.00    -0.385 OA
BRANCH   8   9
ATOM      9  N   UNL A   1      31.720  27.168  26.258  1.00  0.00    -0.090 NA
ATOM     10  C   UNL A   1      35.664  20.692  25.155  1.00  0.00     0.014 C 
ATOM     11  C   UNL A   1      35.191  22.033  24.523  1.00  0.00    -0.001 C 
ATOM     12  C   UNL A   1      33.987  21.636  23.684  1.00  0.00     0.010 C 
ATOM     13  C   UNL A   1      34.887  23.092  25.623  1.00  0.00     0.004 C 
ATOM     14  C   UNL A   1      36.334  22.741  23.724  1.00  0.00     0.149 C 
ATOM     15  C   UNL A   1      33.302  22.797  23.045  1.00  0.00     0.009 C 
ATOM     16  C   UNL A   1      33.959  24.284  25.112  1.00  0.00     0.006 C 
ATOM     17  C   UNL A   1      36.367  23.487  26.026  1.00  0.00     0.039 C 
ATOM     18  C   UNL A   1      37.308  23.138  24.828  1.00  0.00     0.144 C 
ATOM     19  C   UNL A   1      32.871  23.836  24.075  1.00  0.00     0.024 C 
ATOM     20  C   UNL A   1      33.179  25.080  26.215  1.00  0.00     0.065 C 
ATOM     21  C   UNL A   1      32.284  25.053  23.386  1.00  0.00    -0.035 A 
ATOM     22  C   UNL A   1      32.304  26.206  25.611  1.00  0.00     0.088 C 
ATOM     23  C   UNL A   1      31.963  25.074  22.012  1.00  0.00     0.008 A 
ATOM     24  C   UNL A   1      32.018  26.194  24.140  1.00  0.00     0.006 A 
ATOM     25  C   UNL A   1      31.427  26.205  21.401  1.00  0.00     0.046 A 
ATOM     26  C   UNL A   1      31.446  27.324  23.528  1.00  0.00     0.056 A 
ATOM     27  C   UNL A   1      31.177  27.328  22.166  1.00  0.00     0.116 A 
BRANCH  14  28
ATOM     28  O   UNL A   1      35.918  23.926  23.045  1.00  0.00    -0.390 OA
ATOM     29  H   UNL A   1      34.952  23.922  22.950  1.00  0.00     0.211 HD
ENDBRANCH  14  28
BRANCH  18  30
ATOM     30  O   UNL A   1      38.183  22.047  25.111  1.00  0.00    -0.390 OA
ATOM     31  H   UNL A   1      39.102  22.355  25.085  1.00  0.00     0.211 HD
ENDBRANCH  18  30
BRANCH  27  32
ATOM     32  O   UNL A   1      30.667  28.460  21.607  1.00  0.00    -0.508 OA
ATOM     33  H   UNL A   1      29.742  28.612  21.617  1.00  0.00     0.293 HD
ENDBRANCH  27  32
ENDBRANCH   8   9
ENDBRANCH   7   8
ENDBRANCH   4   7
ENDBRANCH   2   3
ENDBRANCH   1   2
BRANCH   1  34
ATOM     34  C   UNL A   1      32.934  32.483  27.380  1.00  0.00     0.118 C 
BRANCH  34  35
ATOM     35  N   UNL A   1      32.637  33.893  27.619  1.00  0.00    -0.352 N 
ATOM     36  C   UNL A   1      33.179  34.770  28.532  1.00  0.00     0.251 C 
ATOM     37  H   UNL A   1      31.941  34.275  27.038  1.00  0.00     0.163 HD
ATOM     38  O   UNL A   1      32.679  35.888  28.669  1.00  0.00    -0.269 OA
BRANCH  36  39
ATOM     39  C   UNL A   1      34.323  34.360  29.376  1.00  0.00     0.039 A 
ATOM     40  C   UNL A   1      35.633  34.497  28.916  1.00  0.00     0.014 A 
ATOM     41  C   UNL A   1      34.081  33.796  30.632  1.00  0.00     0.014 A 
ATOM     42  C   UNL A   1      36.671  33.873  29.601  1.00  0.00     0.010 A 
ATOM     43  C   UNL A   1      35.144  33.260  31.369  1.00  0.00     0.010 A 
ATOM     44  C   UNL A   1      36.438  33.230  30.828  1.00  0.00    -0.014 A 
BRANCH  44  45
ATOM     45  C   UNL A   1      37.555  32.520  31.510  1.00  0.00     0.031 A 
ATOM     46  C   UNL A   1      38.275  31.380  30.836  1.00  0.00     0.074 A 
ATOM     47  C   UNL A   1      37.954  32.933  32.730  1.00  0.00     0.049 A 
ATOM     48  N   UNL A   1      39.287  30.674  31.274  1.00  0.00    -0.248 NA
ATOM     49  C   UNL A   1      37.799  30.975  29.505  1.00  0.00     0.031 C 
ATOM     50  C   UNL A   1      37.334  34.023  33.482  1.00  0.00     0.029 A 
ATOM     51  N   UNL A   1      38.974  32.503  33.542  1.00  0.00    -0.354 N 
ATOM     52  C   UNL A   1      39.547  29.726  30.290  1.00  0.00     0.074 A 
ATOM     53  C   UNL A   1      38.568  29.927  29.246  1.00  0.00     0.031 C 
ATOM     54  C   UNL A   1      38.011  34.206  34.623  1.00  0.00     0.029 A 
ATOM     55  C   UNL A   1      39.064  33.197  34.726  1.00  0.00     0.049 A 
ATOM     56  H   UNL A   1      39.584  31.768  33.301  1.00  0.00     0.167 HD
ATOM     57  C   UNL A   1      40.521  28.784  30.260  1.00  0.00     0.034 A 
ATOM     58  C   UNL A   1      39.880  33.037  35.788  1.00  0.00     0.034 A 
ATOM     59  C   UNL A   1      41.511  28.620  31.295  1.00  0.00     0.049 A 
ATOM     60  C   UNL A   1      40.945  31.975  35.740  1.00  0.00     0.074 A 
ATOM     61  C   UNL A   1      42.580  27.742  31.316  1.00  0.00     0.029 A 
ATOM     62  N   UNL A   1      41.554  29.327  32.490  1.00  0.00    -0.354 N 
ATOM     63  N   UNL A   1      41.228  31.140  34.767  1.00  0.00    -0.248 NA
ATOM     64  C   UNL A   1      41.809  31.834  36.919  1.00  0.00     0.031 C 
ATOM     65  C   UNL A   1      43.212  27.853  32.554  1.00  0.00     0.029 A 
ATOM     66  C   UNL A   1      42.604  28.871  33.271  1.00  0.00     0.049 A 
ATOM     67  H   UNL A   1      40.931  30.046  32.743  1.00  0.00     0.167 HD
ATOM     68  C   UNL A   1      42.310  30.386  35.211  1.00  0.00     0.074 A 
ATOM     69  C   UNL A   1      42.649  30.883  36.527  1.00  0.00     0.031 C 
ATOM     70  C   UNL A   1      42.953  29.370  34.582  1.00  0.00     0.034 A 
BRANCH  57  71
ATOM     71  C   UNL A   1      40.593  27.840  29.081  1.00  0.00     0.023 A 
ATOM     72  C   UNL A   1      41.536  28.075  28.061  1.00  0.00     0.031 A 
ATOM     73  C   UNL A   1      39.650  26.816  28.887  1.00  0.00     0.131 A 
ATOM     74  C   UNL A   1      41.486  27.330  26.877  1.00  0.00     0.055 A 
ATOM     75  C   UNL A   1      39.637  26.041  27.725  1.00  0.00     0.041 A 
ATOM     76  F   UNL A   1      38.724  26.549  29.823  1.00  0.00    -0.206 F 
ATOM     77  C   UNL A   1      40.548  26.308  26.707  1.00  0.00     0.022 A 
BRANCH  74  78
ATOM     78  S   UNL A   1      42.573  27.717  25.478  1.00  0.00     0.124 S 
ATOM     79  O   UNL A   1      42.403  26.537  24.633  1.00  0.00    -0.237 OA
ATOM     80  O   UNL A   1      41.977  28.945  24.961  1.00  0.00    -0.237 OA
ATOM     81  O   UNL A   1      43.891  27.861  26.086  1.00  0.00    -0.744 OA
ENDBRANCH  74  78
ENDBRANCH  57  71
BRANCH  58  82
ATOM     82  C   UNL A   1      39.711  33.947  36.959  1.00  0.00     0.023 A 
ATOM     83  C   UNL A   1      40.599  35.021  37.161  1.00  0.00     0.031 A 
ATOM     84  C   UNL A   1      38.772  33.667  37.965  1.00  0.00     0.131 A 
ATOM     85  C   UNL A   1      40.598  35.705  38.383  1.00  0.00     0.055 A 
ATOM     86  C   UNL A   1      38.717  34.410  39.145  1.00  0.00     0.041 A 
ATOM     87  F   UNL A   1      37.913  32.647  37.823  1.00  0.00    -0.206 F 
ATOM     88  C   UNL A   1      39.650  35.419  39.370  1.00  0.00     0.022 A 
BRANCH  85  89
ATOM     89  S   UNL A   1      41.931  36.867  38.793  1.00  0.00     0.124 S 
ATOM     90  O   UNL A   1      42.588  37.044  37.504  1.00  0.00    -0.237 OA
ATOM     91  O   UNL A   1      41.175  38.019  39.281  1.00  0.00    -0.237 OA
ATOM     92  O   UNL A   1      42.706  36.159  39.806  1.00  0.00    -0.744 OA
ENDBRANCH  85  89
ENDBRANCH  58  82
BRANCH  70  93
ATOM     93  C   UNL A   1      44.112  28.693  35.280  1.00  0.00     0.023 A 
ATOM     94  C   UNL A   1      43.871  27.609  36.147  1.00  0.00     0.031 A 
ATOM     95  C   UNL A   1      45.412  29.226  35.230  1.00  0.00     0.131 A 
ATOM     96  C   UNL A   1      44.898  27.133  36.973  1.00  0.00     0.055 A 
ATOM     97  C   UNL A   1      46.446  28.707  36.012  1.00  0.00     0.041 A 
ATOM     98  F   UNL A   1      45.692  30.266  34.430  1.00  0.00    -0.206 F 
ATOM     99  C   UNL A   1      46.186  27.669  36.902  1.00  0.00     0.022 A 
BRANCH  96 100
ATOM    100  S   UNL A   1      44.570  25.877  38.241  1.00  0.00     0.124 S 
ATOM    101  O   UNL A   1      44.074  24.760  37.439  1.00  0.00    -0.237 OA
ATOM    102  O   UNL A   1      45.891  25.683  38.831  1.00  0.00    -0.237 OA
ATOM    103  O   UNL A   1      43.580  26.503  39.111  1.00  0.00    -0.744 OA
ENDBRANCH  96 100
ENDBRANCH  70  93
ENDBRANCH  44  45
ENDBRANCH  36  39
ENDBRANCH  34  35
ENDBRANCH   1  34
TORSDOF 18
ENDMDL
MODEL 2
REMARK VINA RESULT:     -12.4      2.190      2.988
REMARK SMILES C[C@@]12CC[C@@H]3c4ccc(O)cc4/C(=N/OCC(=O)NCCCNC(=O)c4ccc(-c5c6nc(c(-c7cc(S(=O)(=O)[O-])ccc7F)c7ccc([nH]7)c(-c7cc(S(=O)(=O)[O-])ccc7F)c7nc(c(-c8cc(S(=O)(=O)[O-])ccc8F)c8ccc5[nH]8)C=C7)C=C6)cc4)C[C@H]3[C@@H]1C[C@@H](O)[C@@H]2O
REMARK SMILES IDX 21 1 20 2 19 3 17 4 18 5 16 7 15 8 14 9 1 10 2 11 3 12 91 13
REMARK SMILES IDX 95 14 4 15 90 16 92 17 93 18 5 19 89 20 6 21 13 22 7 23
REMARK SMILES IDX 12 24 8 25 11 26 9 27 96 28 94 30 10 32 22 34 23 35 24 36
REMARK SMILES IDX 25 38 26 39 27 40 88 41 28 42 87 43 29 44 30 45 31 46 81 47
REMARK SMILES IDX 32 48 86 49 80 50 82 51 33 52 85 53 79 54 78 55 34 57 66 58
REMARK SMILES IDX 46 59 65 60 47 61 50 62 64 63 83 64 48 65 49 66 63 68 84 69
REMARK SMILES IDX 51 70 35 71 36 72 44 73 37 74 43 75 45 76 42 77 38 78 39 79
REMARK SMILES IDX 40 80 41 81 67 82 68 83 76 84 69 85 75 86 77 87 74 88 70 89
REMARK SMILES IDX 71 90 72 91 73 92 52 93 53 94 61 95 54 96 60 97 62 98 59 99
REMARK SMILES IDX 55 100 56 101 57 102 58 103
REMARK H PARENT 19 6 96 29 94 31 10 33 23 37 82 56 50 67
REMARK Flexibility Score: inf
ROOT
ATOM      1  C   UNL A   1      34.473  35.046  28.826  1.00  0.00     0.042 C 
ENDROOT
BRANCH   1   2
ATOM      2  C   UNL A   1      34.955  34.242  27.624  1.00  0.00     0.117 C 
BRANCH   2   3
ATOM      3  N   UNL A   1      35.777  33.106  27.990  1.00  0.00    -0.353 N 
ATOM      4  C   UNL A   1      35.449  31.777  28.002  1.00  0.00     0.260 C 
ATOM      5  O   UNL A   1      36.335  30.972  28.305  1.00  0.00    -0.271 OA
ATOM      6  H   UNL A   1      36.696  33.318  28.271  1.00  0.00     0.163 HD
BRANCH   4   7
ATOM      7  C   UNL A   1      34.044  31.302  27.548  1.00  0.00     0.363 C 
BRANCH   7   8
ATOM      8  O   UNL A   1      33.701  29.918  27.470  1.00  0.00    -0.385 OA
BRANCH   8   9
ATOM      9  N   UNL A   1      32.730  29.782  26.494  1.00  0.00    -0.090 NA
ATOM     10  C   UNL A   1      33.213  22.155  25.948  1.00  0.00     0.014 C 
ATOM     11  C   UNL A   1      32.862  23.478  25.207  1.00  0.00    -0.001 C 
ATOM     12  C   UNL A   1      31.345  23.541  25.272  1.00  0.00     0.010 C 
ATOM     13  C   UNL A   1      33.585  24.692  25.860  1.00  0.00     0.004 C 
ATOM     14  C   UNL A   1      33.452  23.513  23.758  1.00  0.00     0.149 C 
ATOM     15  C   UNL A   1      30.779  24.795  24.693  1.00  0.00     0.009 C 
ATOM     16  C   UNL A   1      32.921  26.095  25.492  1.00  0.00     0.006 C 
ATOM     17  C   UNL A   1      35.052  24.452  25.313  1.00  0.00     0.039 C 
ATOM     18  C   UNL A   1      34.953  23.583  24.019  1.00  0.00     0.144 C 
ATOM     19  C   UNL A   1      31.359  26.038  25.361  1.00  0.00     0.024 C 
ATOM     20  C   UNL A   1      33.212  27.281  26.475  1.00  0.00     0.065 C 
ATOM     21  C   UNL A   1      30.854  27.292  24.673  1.00  0.00    -0.035 A 
ATOM     22  C   UNL A   1      32.514  28.590  26.029  1.00  0.00     0.088 C 
ATOM     23  C   UNL A   1      29.805  27.278  23.730  1.00  0.00     0.008 A 
ATOM     24  C   UNL A   1      31.424  28.519  25.004  1.00  0.00     0.006 A 
ATOM     25  C   UNL A   1      29.360  28.443  23.110  1.00  0.00     0.046 A 
ATOM     26  C   UNL A   1      30.951  29.699  24.401  1.00  0.00     0.056 A 
ATOM     27  C   UNL A   1      29.943  29.649  23.448  1.00  0.00     0.116 A 
BRANCH  14  28
ATOM     28  O   UNL A   1      33.073  24.666  23.007  1.00  0.00    -0.390 OA
ATOM     29  H   UNL A   1      32.548  24.393  22.238  1.00  0.00     0.211 HD
ENDBRANCH  14  28
BRANCH  18  30
ATOM     30  O   UNL A   1      35.470  22.265  24.196  1.00  0.00    -0.390 OA
ATOM     31  H   UNL A   1      34.759  21.618  24.068  1.00  0.00     0.211 HD
ENDBRANCH  18  30
BRANCH  27  32
ATOM     32  O   UNL A   1      29.549  30.811  22.856  1.00  0.00    -0.508 OA
ATOM     33  H   UNL A   1      29.165  30.795  22.001  1.00  0.00     0.293 HD
ENDBRANCH  27  32
ENDBRANCH   8   9
ENDBRANCH   7   8
ENDBRANCH   4   7
ENDBRANCH   2   3
ENDBRANCH   1   2
BRANCH   1  34
ATOM     34  C   UNL A   1      33.329  34.407  29.610  1.00  0.00     0.118 C 
BRANCH  34  35
ATOM     35  N   UNL A   1      32.622  35.350  30.473  1.00  0.00    -0.352 N 
ATOM     36  C   UNL A   1      32.811  35.647  31.804  1.00  0.00     0.251 C 
ATOM     37  H   UNL A   1      31.897  35.851  30.035  1.00  0.00     0.163 HD
ATOM     38  O   UNL A   1      32.002  36.373  32.385  1.00  0.00    -0.269 OA
BRANCH  36  39
ATOM     39  C   UNL A   1      33.949  35.061  32.547  1.00  0.00     0.039 A 
ATOM     40  C   UNL A   1      35.203  35.672  32.526  1.00  0.00     0.014 A 
ATOM     41  C   UNL A   1      33.769  33.863  33.246  1.00  0.00     0.014 A 
ATOM     42  C   UNL A   1      36.312  34.981  33.004  1.00  0.00     0.010 A 
ATOM     43  C   UNL A   1      34.874  33.220  33.816  1.00  0.00     0.010 A 
ATOM     44  C   UNL A   1      36.166  33.737  33.639  1.00  0.00    -0.014 A 
BRANCH  44  45
ATOM     45  C   UNL A   1      37.375  32.994  34.087  1.00  0.00     0.031 A 
ATOM     46  C   UNL A   1      37.949  31.874  33.257  1.00  0.00     0.074 A 
ATOM     47  C   UNL A   1      37.989  33.356  35.231  1.00  0.00     0.049 A 
ATOM     48  N   UNL A   1      39.011  31.144  33.483  1.00  0.00    -0.248 NA
ATOM     49  C   UNL A   1      37.239  31.523  32.017  1.00  0.00     0.031 C 
ATOM     50  C   UNL A   1      37.527  34.422  36.120  1.00  0.00     0.029 A 
ATOM     51  N   UNL A   1      39.129  32.887  35.835  1.00  0.00    -0.354 N 
ATOM     52  C   UNL A   1      39.079  30.231  32.435  1.00  0.00     0.074 A 
ATOM     53  C   UNL A   1      37.935  30.480  31.588  1.00  0.00     0.031 C 
ATOM     54  C   UNL A   1      38.397  34.556  37.130  1.00  0.00     0.029 A 
ATOM     55  C   UNL A   1      39.436  33.535  37.008  1.00  0.00     0.049 A 
ATOM     56  H   UNL A   1      39.676  32.157  35.464  1.00  0.00     0.167 HD
ATOM     57  C   UNL A   1      40.019  29.283  32.200  1.00  0.00     0.034 A 
ATOM     58  C   UNL A   1      40.424  33.328  37.904  1.00  0.00     0.034 A 
ATOM     59  C   UNL A   1      41.173  29.071  33.038  1.00  0.00     0.049 A 
ATOM     60  C   UNL A   1      41.449  32.260  37.630  1.00  0.00     0.074 A 
ATOM     61  C   UNL A   1      42.216  28.185  32.838  1.00  0.00     0.029 A 
ATOM     62  N   UNL A   1      41.436  29.732  34.230  1.00  0.00    -0.354 N 
ATOM     63  N   UNL A   1      41.544  31.461  36.593  1.00  0.00    -0.248 NA
ATOM     64  C   UNL A   1      42.504  32.067  38.632  1.00  0.00     0.031 C 
ATOM     65  C   UNL A   1      43.058  28.243  33.948  1.00  0.00     0.029 A 
ATOM     66  C   UNL A   1      42.601  29.238  34.797  1.00  0.00     0.049 A 
ATOM     67  H   UNL A   1      40.879  30.446  34.615  1.00  0.00     0.167 HD
ATOM     68  C   UNL A   1      42.675  30.681  36.812  1.00  0.00     0.074 A 
ATOM     69  C   UNL A   1      43.248  31.125  38.064  1.00  0.00     0.031 C 
ATOM     70  C   UNL A   1      43.183  29.684  36.043  1.00  0.00     0.034 A 
BRANCH  57  71
ATOM     71  C   UNL A   1      39.869  28.384  30.994  1.00  0.00     0.023 A 
ATOM     72  C   UNL A   1      40.518  28.724  29.790  1.00  0.00     0.031 A 
ATOM     73  C   UNL A   1      38.980  27.295  30.982  1.00  0.00     0.131 A 
ATOM     74  C   UNL A   1      40.234  28.013  28.618  1.00  0.00     0.055 A 
ATOM     75  C   UNL A   1      38.740  26.557  29.821  1.00  0.00     0.041 A 
ATOM     76  F   UNL A   1      38.330  26.928  32.098  1.00  0.00    -0.206 F 
ATOM     77  C   UNL A   1      39.356  26.926  28.628  1.00  0.00     0.022 A 
BRANCH  74  78
ATOM     78  S   UNL A   1      40.919  28.527  27.020  1.00  0.00     0.124 S 
ATOM     79  O   UNL A   1      42.088  29.301  27.431  1.00  0.00    -0.237 OA
ATOM     80  O   UNL A   1      41.212  27.244  26.389  1.00  0.00    -0.237 OA
ATOM     81  O   UNL A   1      39.845  29.302  26.408  1.00  0.00    -0.744 OA
ENDBRANCH  74  78
ENDBRANCH  57  71
BRANCH  58  82
ATOM     82  C   UNL A   1      40.477  34.194  39.118  1.00  0.00     0.023 A 
ATOM     83  C   UNL A   1      39.663  33.913  40.231  1.00  0.00     0.031 A 
ATOM     84  C   UNL A   1      41.213  35.391  39.122  1.00  0.00     0.131 A 
ATOM     85  C   UNL A   1      39.525  34.863  41.251  1.00  0.00     0.055 A 
ATOM     86  C   UNL A   1      41.140  36.294  40.184  1.00  0.00     0.041 A 
ATOM     87  F   UNL A   1      41.994  35.708  38.079  1.00  0.00    -0.206 F 
ATOM     88  C   UNL A   1      40.272  36.044  41.244  1.00  0.00     0.022 A 
BRANCH  85  89
ATOM     89  S   UNL A   1      38.247  34.671  42.526  1.00  0.00     0.124 S 
ATOM     90  O   UNL A   1      38.606  33.391  43.127  1.00  0.00    -0.237 OA
ATOM     91  O   UNL A   1      38.485  35.849  43.359  1.00  0.00    -0.237 OA
ATOM     92  O   UNL A   1      37.000  34.687  41.770  1.00  0.00    -0.744 OA
ENDBRANCH  85  89
ENDBRANCH  58  82
BRANCH  70  93
ATOM     93  C   UNL A   1      44.436  28.972  36.501  1.00  0.00     0.023 A 
ATOM     94  C   UNL A   1      44.337  27.868  37.371  1.00  0.00     0.031 A 
ATOM     95  C   UNL A   1      45.715  29.488  36.228  1.00  0.00     0.131 A 
ATOM     96  C   UNL A   1      45.487  27.355  37.983  1.00  0.00     0.055 A 
ATOM     97  C   UNL A   1      46.864  28.933  36.794  1.00  0.00     0.041 A 
ATOM     98  F   UNL A   1      45.865  30.545  35.415  1.00  0.00    -0.206 F 
ATOM     99  C   UNL A   1      46.751  27.874  37.691  1.00  0.00     0.022 A 
BRANCH  96 100
ATOM    100  S   UNL A   1      45.372  26.069  39.259  1.00  0.00     0.124 S 
ATOM    101  O   UNL A   1      46.693  26.143  39.882  1.00  0.00    -0.237 OA
ATOM    102  O   UNL A   1      44.267  26.551  40.082  1.00  0.00    -0.237 OA
ATOM    103  O   UNL A   1      45.109  24.847  38.506  1.00  0.00    -0.744 OA
ENDBRANCH  96 100
ENDBRANCH  70  93
ENDBRANCH  44  45
ENDBRANCH  36  39
ENDBRANCH  34  35
ENDBRANCH   1  34
TORSDOF 18
ENDMDL
MODEL 3
REMARK VINA RESULT:     -12.2      2.106      7.722
REMARK SMILES C[C@@]12CC[C@@H]3c4ccc(O)cc4/C(=N/OCC(=O)NCCCNC(=O)c4ccc(-c5c6nc(c(-c7cc(S(=O)(=O)[O-])ccc7F)c7ccc([nH]7)c(-c7cc(S(=O)(=O)[O-])ccc7F)c7nc(c(-c8cc(S(=O)(=O)[O-])ccc8F)c8ccc5[nH]8)C=C7)C=C6)cc4)C[C@H]3[C@@H]1C[C@@H](O)[C@@H]2O
REMARK SMILES IDX 21 1 20 2 19 3 17 4 18 5 16 7 15 8 14 9 1 10 2 11 3 12 91 13
REMARK SMILES IDX 95 14 4 15 90 16 92 17 93 18 5 19 89 20 6 21 13 22 7 23
REMARK SMILES IDX 12 24 8 25 11 26 9 27 96 28 94 30 10 32 22 34 23 35 24 36
REMARK SMILES IDX 25 38 26 39 27 40 88 41 28 42 87 43 29 44 30 45 31 46 81 47
REMARK SMILES IDX 32 48 86 49 80 50 82 51 33 52 85 53 79 54 78 55 34 57 66 58
REMARK SMILES IDX 46 59 65 60 47 61 50 62 64 63 83 64 48 65 49 66 63 68 84 69
REMARK SMILES IDX 51 70 35 71 36 72 44 73 37 74 43 75 45 76 42 77 38 78 39 79
REMARK SMILES IDX 40 80 41 81 67 82 68 83 76 84 69 85 75 86 77 87 74 88 70 89
REMARK SMILES IDX 71 90 72 91 73 92 52 93 53 94 61 95 54 96 60 97 62 98 59 99
REMARK SMILES IDX 55 100 56 101 57 102 58 103
REMARK H PARENT 19 6 96 29 94 31 10 33 23 37 82 56 50 67
REMARK Flexibility Score: inf
ROOT
ATOM      1  C   UNL A   1      33.046  34.428  28.236  1.00  0.00     0.042 C 
ENDROOT
BRANCH   1   2
ATOM      2  C   UNL A   1      33.359  32.982  27.869  1.00  0.00     0.117 C 
BRANCH   2   3
ATOM      3  N   UNL A   1      34.689  32.567  28.266  1.00  0.00    -0.353 N 
ATOM      4  C   UNL A   1      35.332  31.387  28.010  1.00  0.00     0.260 C 
ATOM      5  O   UNL A   1      36.496  31.271  28.408  1.00  0.00    -0.271 OA
ATOM      6  H   UNL A   1      35.201  33.223  28.792  1.00  0.00     0.163 HD
BRANCH   4   7
ATOM      7  C   UNL A   1      34.654  30.281  27.159  1.00  0.00     0.363 C 
BRANCH   7   8
ATOM      8  O   UNL A   1      33.520  29.552  27.631  1.00  0.00    -0.385 OA
BRANCH   8   9
ATOM      9  N   UNL A   1      32.604  29.488  26.596  1.00  0.00    -0.090 NA
ATOM     10  C   UNL A   1      33.302  21.956  25.380  1.00  0.00     0.014 C 
ATOM     11  C   UNL A   1      32.958  23.334  24.746  1.00  0.00    -0.001 C 
ATOM     12  C   UNL A   1      31.439  23.362  24.734  1.00  0.00     0.010 C 
ATOM     13  C   UNL A   1      33.616  24.497  25.545  1.00  0.00     0.004 C 
ATOM     14  C   UNL A   1      33.621  23.515  23.340  1.00  0.00     0.149 C 
ATOM     15  C   UNL A   1      30.873  24.652  24.243  1.00  0.00     0.009 C 
ATOM     16  C   UNL A   1      32.938  25.914  25.272  1.00  0.00     0.006 C 
ATOM     17  C   UNL A   1      35.115  24.338  25.058  1.00  0.00     0.039 C 
ATOM     18  C   UNL A   1      35.104  23.590  23.686  1.00  0.00     0.144 C 
ATOM     19  C   UNL A   1      31.386  25.839  25.052  1.00  0.00     0.024 C 
ATOM     20  C   UNL A   1      33.148  27.010  26.374  1.00  0.00     0.065 C 
ATOM     21  C   UNL A   1      30.887  27.141  24.456  1.00  0.00    -0.035 A 
ATOM     22  C   UNL A   1      32.442  28.340  26.013  1.00  0.00     0.088 C 
ATOM     23  C   UNL A   1      29.888  27.194  23.461  1.00  0.00     0.008 A 
ATOM     24  C   UNL A   1      31.409  28.343  24.928  1.00  0.00     0.006 A 
ATOM     25  C   UNL A   1      29.448  28.402  22.927  1.00  0.00     0.046 A 
ATOM     26  C   UNL A   1      30.939  29.565  24.411  1.00  0.00     0.056 A 
ATOM     27  C   UNL A   1      29.983  29.583  23.405  1.00  0.00     0.116 A 
BRANCH  14  28
ATOM     28  O   UNL A   1      33.253  24.726  22.678  1.00  0.00    -0.390 OA
ATOM     29  H   UNL A   1      32.465  25.100  23.103  1.00  0.00     0.211 HD
ENDBRANCH  14  28
BRANCH  18  30
ATOM     30  O   UNL A   1      35.644  22.272  23.770  1.00  0.00    -0.390 OA
ATOM     31  H   UNL A   1      35.643  21.980  24.695  1.00  0.00     0.211 HD
ENDBRANCH  18  30
BRANCH  27  32
ATOM     32  O   UNL A   1      29.591  30.787  22.902  1.00  0.00    -0.508 OA
ATOM     33  H   UNL A   1      28.888  30.830  22.282  1.00  0.00     0.293 HD
ENDBRANCH  27  32
ENDBRANCH   8   9
ENDBRANCH   7   8
ENDBRANCH   4   7
ENDBRANCH   2   3
ENDBRANCH   1   2
BRANCH   1  34
ATOM     34  C   UNL A   1      33.742  34.936  29.497  1.00  0.00     0.118 C 
BRANCH  34  35
ATOM     35  N   UNL A   1      32.821  35.518  30.471  1.00  0.00    -0.352 N 
ATOM     36  C   UNL A   1      32.866  35.509  31.847  1.00  0.00     0.251 C 
ATOM     37  H   UNL A   1      32.049  35.988  30.083  1.00  0.00     0.163 HD
ATOM     38  O   UNL A   1      31.904  35.936  32.488  1.00  0.00    -0.269 OA
BRANCH  36  39
ATOM     39  C   UNL A   1      34.039  34.949  32.554  1.00  0.00     0.039 A 
ATOM     40  C   UNL A   1      35.271  35.602  32.518  1.00  0.00     0.014 A 
ATOM     41  C   UNL A   1      33.914  33.734  33.234  1.00  0.00     0.014 A 
ATOM     42  C   UNL A   1      36.413  34.941  32.959  1.00  0.00     0.010 A 
ATOM     43  C   UNL A   1      35.052  33.118  33.769  1.00  0.00     0.010 A 
ATOM     44  C   UNL A   1      36.321  33.682  33.574  1.00  0.00    -0.014 A 
BRANCH  44  45
ATOM     45  C   UNL A   1      37.564  32.971  33.983  1.00  0.00     0.031 A 
ATOM     46  C   UNL A   1      38.306  33.365  35.235  1.00  0.00     0.074 A 
ATOM     47  C   UNL A   1      38.006  31.932  33.246  1.00  0.00     0.049 A 
ATOM     48  N   UNL A   1      39.384  32.834  35.753  1.00  0.00    -0.248 NA
ATOM     49  C   UNL A   1      37.776  34.503  36.001  1.00  0.00     0.031 C 
ATOM     50  C   UNL A   1      37.374  31.459  32.015  1.00  0.00     0.029 A 
ATOM     51  N   UNL A   1      39.070  31.083  33.425  1.00  0.00    -0.354 N 
ATOM     52  C   UNL A   1      39.678  33.589  36.884  1.00  0.00     0.074 A 
ATOM     53  C   UNL A   1      38.682  34.633  36.960  1.00  0.00     0.031 C 
ATOM     54  C   UNL A   1      38.033  30.380  31.573  1.00  0.00     0.029 A 
ATOM     55  C   UNL A   1      39.182  30.129  32.441  1.00  0.00     0.049 A 
ATOM     56  H   UNL A   1      39.693  31.149  34.185  1.00  0.00     0.167 HD
ATOM     57  C   UNL A   1      40.681  33.415  37.779  1.00  0.00     0.034 A 
ATOM     58  C   UNL A   1      40.110  29.171  32.236  1.00  0.00     0.034 A 
ATOM     59  C   UNL A   1      41.646  32.346  37.706  1.00  0.00     0.049 A 
ATOM     60  C   UNL A   1      41.224  29.004  33.235  1.00  0.00     0.074 A 
ATOM     61  C   UNL A   1      42.651  32.046  38.608  1.00  0.00     0.029 A 
ATOM     62  N   UNL A   1      41.741  31.414  36.681  1.00  0.00    -0.354 N 
ATOM     63  N   UNL A   1      41.440  29.676  34.342  1.00  0.00    -0.248 NA
ATOM     64  C   UNL A   1      42.213  27.951  32.972  1.00  0.00     0.031 C 
ATOM     65  C   UNL A   1      43.407  30.997  38.088  1.00  0.00     0.029 A 
ATOM     66  C   UNL A   1      42.817  30.570  36.909  1.00  0.00     0.049 A 
ATOM     67  H   UNL A   1      41.134  31.360  35.909  1.00  0.00     0.167 HD
ATOM     68  C   UNL A   1      42.580  29.118  34.913  1.00  0.00     0.074 A 
ATOM     69  C   UNL A   1      42.990  28.035  34.046  1.00  0.00     0.031 C 
ATOM     70  C   UNL A   1      43.226  29.481  36.051  1.00  0.00     0.034 A 
BRANCH  57  71
ATOM     71  C   UNL A   1      40.814  34.386  38.930  1.00  0.00     0.023 A 
ATOM     72  C   UNL A   1      39.987  34.239  40.061  1.00  0.00     0.031 A 
ATOM     73  C   UNL A   1      41.632  35.527  38.852  1.00  0.00     0.131 A 
ATOM     74  C   UNL A   1      39.961  35.237  41.042  1.00  0.00     0.055 A 
ATOM     75  C   UNL A   1      41.640  36.494  39.859  1.00  0.00     0.041 A 
ATOM     76  F   UNL A   1      42.438  35.722  37.795  1.00  0.00    -0.206 F 
ATOM     77  C   UNL A   1      40.789  36.359  40.953  1.00  0.00     0.022 A 
BRANCH  74  78
ATOM     78  S   UNL A   1      38.788  35.164  42.424  1.00  0.00     0.124 S 
ATOM     79  O   UNL A   1      37.506  35.286  41.734  1.00  0.00    -0.237 OA
ATOM     80  O   UNL A   1      39.069  33.848  42.990  1.00  0.00    -0.237 OA
ATOM     81  O   UNL A   1      39.156  36.303  43.258  1.00  0.00    -0.744 OA
ENDBRANCH  74  78
ENDBRANCH  57  71
BRANCH  58  82
ATOM     82  C   UNL A   1      39.973  28.291  31.039  1.00  0.00     0.023 A 
ATOM     83  C   UNL A   1      40.652  28.600  29.845  1.00  0.00     0.031 A 
ATOM     84  C   UNL A   1      39.049  27.233  31.020  1.00  0.00     0.131 A 
ATOM     85  C   UNL A   1      40.321  27.928  28.661  1.00  0.00     0.055 A 
ATOM     86  C   UNL A   1      38.787  26.508  29.856  1.00  0.00     0.041 A 
ATOM     87  F   UNL A   1      38.369  26.908  32.129  1.00  0.00    -0.206 F 
ATOM     88  C   UNL A   1      39.406  26.871  28.662  1.00  0.00     0.022 A 
BRANCH  85  89
ATOM     89  S   UNL A   1      40.938  28.518  27.060  1.00  0.00     0.124 S 
ATOM     90  O   UNL A   1      39.839  29.359  26.601  1.00  0.00    -0.237 OA
ATOM     91  O   UNL A   1      42.153  29.226  27.457  1.00  0.00    -0.237 OA
ATOM     92  O   UNL A   1      41.155  27.291  26.301  1.00  0.00    -0.744 OA
ENDBRANCH  85  89
ENDBRANCH  58  82
BRANCH  70  93
ATOM     93  C   UNL A   1      44.462  28.716  36.466  1.00  0.00     0.023 A 
ATOM     94  C   UNL A   1      44.356  27.667  37.402  1.00  0.00     0.031 A 
ATOM     95  C   UNL A   1      45.748  29.132  36.081  1.00  0.00     0.131 A 
ATOM     96  C   UNL A   1      45.513  27.115  37.966  1.00  0.00     0.055 A 
ATOM     97  C   UNL A   1      46.898  28.536  36.602  1.00  0.00     0.041 A 
ATOM     98  F   UNL A   1      45.906  30.134  35.201  1.00  0.00    -0.206 F 
ATOM     99  C   UNL A   1      46.783  27.536  37.563  1.00  0.00     0.022 A 
BRANCH  96 100
ATOM    100  S   UNL A   1      45.408  25.908  39.318  1.00  0.00     0.124 S 
ATOM    101  O   UNL A   1      46.732  26.023  39.928  1.00  0.00    -0.237 OA
ATOM    102  O   UNL A   1      44.306  26.436  40.116  1.00  0.00    -0.237 OA
ATOM    103  O   UNL A   1      45.144  24.642  38.642  1.00  0.00    -0.744 OA
ENDBRANCH  96 100
ENDBRANCH  70  93
ENDBRANCH  44  45
ENDBRANCH  36  39
ENDBRANCH  34  35
ENDBRANCH   1  34
TORSDOF 18
ENDMDL
