MODEL 1
REMARK VINA RESULT:     -13.0      0.000      0.000
REMARK SMILES Cc1cc(Nc2ccc(C(=O)NCCCNC(=O)c3ccc(-c4c5nc(c(-c6cc(S(=O)(=O)[O-])ccc6F)c6ccc([nH]6)c(-c6cc(S(=O)(=O)[O-])ccc6F)c6nc(c(-c7cc(S(=O)(=O)[O-])ccc7F)c7ccc4[nH]7)C=C6)C=C5)cc3)cc2)nc(-n2nc(C)cc2C)n1
REMARK SMILES IDX 14 1 13 2 12 3 10 4 11 5 9 7 6 8 7 9 83 10 8 11 82 12 5 13
REMARK SMILES IDX 4 15 1 16 2 17 3 18 93 19 85 20 84 21 86 22 87 23 91 24
REMARK SMILES IDX 88 25 90 26 92 27 89 28 15 29 16 30 17 31 18 33 19 34 20 35
REMARK SMILES IDX 81 36 21 37 80 38 22 39 23 40 24 41 74 42 25 43 79 44 73 45
REMARK SMILES IDX 75 46 26 47 78 48 72 49 71 50 27 52 59 53 39 54 58 55 40 56
REMARK SMILES IDX 43 57 57 58 76 59 41 60 42 61 56 63 77 64 44 65 28 66 29 67
REMARK SMILES IDX 37 68 30 69 36 70 38 71 35 72 31 73 32 74 33 75 34 76 60 77
REMARK SMILES IDX 61 78 69 79 62 80 68 81 70 82 67 83 63 84 64 85 65 86 66 87
REMARK SMILES IDX 45 88 46 89 54 90 47 91 53 92 55 93 52 94 48 95 49 96 50 97
REMARK SMILES IDX 51 98
REMARK H PARENT 12 6 5 14 16 32 75 51 43 62
REMARK Flexibility Score: inf
ROOT
ATOM      1  C   UNL A   1      35.644  21.983  24.534  1.00  0.00     0.042 C 
ENDROOT
BRANCH   1   2
ATOM      2  C   UNL A   1      35.182  21.382  25.863  1.00  0.00     0.118 C 
BRANCH   2   3
ATOM      3  N   UNL A   1      34.118  20.410  25.661  1.00  0.00    -0.352 N 
ATOM      4  C   UNL A   1      32.773  20.551  25.430  1.00  0.00     0.251 C 
ATOM      5  O   UNL A   1      32.115  19.533  25.213  1.00  0.00    -0.269 OA
ATOM      6  H   UNL A   1      34.421  19.475  25.698  1.00  0.00     0.163 HD
BRANCH   4   7
ATOM      7  C   UNL A   1      32.091  21.871  25.372  1.00  0.00     0.039 A 
ATOM      8  C   UNL A   1      30.665  24.302  25.448  1.00  0.00     0.040 A 
ATOM      9  C   UNL A   1      31.127  23.724  26.629  1.00  0.00     0.027 A 
ATOM     10  C   UNL A   1      31.024  23.718  24.227  1.00  0.00     0.027 A 
ATOM     11  C   UNL A   1      31.815  22.506  26.593  1.00  0.00     0.016 A 
ATOM     12  C   UNL A   1      31.748  22.523  24.187  1.00  0.00     0.016 A 
BRANCH   8  13
ATOM     13  N   UNL A   1      29.929  25.498  25.486  1.00  0.00    -0.340 N 
ATOM     14  H   UNL A   1      29.005  25.460  25.823  1.00  0.00     0.168 HD
BRANCH  13  15
ATOM     15  C   UNL A   1      30.426  26.746  25.073  1.00  0.00     0.136 A 
ATOM     16  C   UNL A   1      30.190  29.160  22.216  1.00  0.00     0.067 C 
ATOM     17  C   UNL A   1      30.487  28.540  23.547  1.00  0.00     0.045 A 
ATOM     18  C   UNL A   1      30.047  27.266  23.852  1.00  0.00     0.070 A 
ATOM     19  N   UNL A   1      31.254  29.259  24.388  1.00  0.00    -0.216 NA
ATOM     20  C   UNL A   1      31.665  28.639  25.518  1.00  0.00     0.252 A 
ATOM     21  N   UNL A   1      31.283  27.399  25.872  1.00  0.00    -0.194 NA
BRANCH  20  22
ATOM     22  N   UNL A   1      32.593  29.331  26.371  1.00  0.00    -0.203 N 
ATOM     23  N   UNL A   1      33.719  28.717  26.845  1.00  0.00    -0.170 NA
ATOM     24  C   UNL A   1      32.539  30.658  26.781  1.00  0.00     0.045 A 
ATOM     25  C   UNL A   1      34.442  29.699  27.391  1.00  0.00     0.060 A 
ATOM     26  C   UNL A   1      33.739  30.919  27.407  1.00  0.00     0.049 A 
ATOM     27  C   UNL A   1      31.343  31.519  26.606  1.00  0.00     0.067 C 
ATOM     28  C   UNL A   1      35.808  29.428  27.898  1.00  0.00     0.069 C 
ENDBRANCH  20  22
ENDBRANCH  13  15
ENDBRANCH   8  13
ENDBRANCH   4   7
ENDBRANCH   2   3
ENDBRANCH   1   2
BRANCH   1  29
ATOM     29  C   UNL A   1      37.156  21.906  24.316  1.00  0.00     0.118 C 
BRANCH  29  30
ATOM     30  N   UNL A   1      37.774  20.887  25.147  1.00  0.00    -0.352 N 
ATOM     31  C   UNL A   1      38.865  20.955  25.978  1.00  0.00     0.251 C 
ATOM     32  H   UNL A   1      37.340  20.004  25.108  1.00  0.00     0.163 HD
ATOM     33  O   UNL A   1      39.332  19.905  26.415  1.00  0.00    -0.269 OA
BRANCH  31  34
ATOM     34  C   UNL A   1      39.489  22.250  26.342  1.00  0.00     0.039 A 
ATOM     35  C   UNL A   1      40.685  22.223  27.069  1.00  0.00     0.014 A 
ATOM     36  C   UNL A   1      38.888  23.478  26.052  1.00  0.00     0.014 A 
ATOM     37  C   UNL A   1      41.287  23.416  27.474  1.00  0.00     0.010 A 
ATOM     38  C   UNL A   1      39.523  24.672  26.403  1.00  0.00     0.010 A 
ATOM     39  C   UNL A   1      40.723  24.654  27.130  1.00  0.00    -0.014 A 
BRANCH  39  40
ATOM     40  C   UNL A   1      41.384  25.921  27.540  1.00  0.00     0.031 A 
ATOM     41  C   UNL A   1      42.801  26.218  27.124  1.00  0.00     0.074 A 
ATOM     42  C   UNL A   1      40.708  26.803  28.303  1.00  0.00     0.049 A 
ATOM     43  N   UNL A   1      43.533  27.276  27.367  1.00  0.00    -0.248 NA
ATOM     44  C   UNL A   1      43.495  25.175  26.355  1.00  0.00     0.031 C 
ATOM     45  C   UNL A   1      39.349  26.607  28.812  1.00  0.00     0.029 A 
ATOM     46  N   UNL A   1      41.066  28.038  28.782  1.00  0.00    -0.354 N 
ATOM     47  C   UNL A   1      44.773  27.025  26.789  1.00  0.00     0.074 A 
ATOM     48  C   UNL A   1      44.710  25.688  26.236  1.00  0.00     0.031 C 
ATOM     49  C   UNL A   1      38.976  27.696  29.503  1.00  0.00     0.029 A 
ATOM     50  C   UNL A   1      40.076  28.654  29.513  1.00  0.00     0.049 A 
ATOM     51  H   UNL A   1      41.946  28.445  28.617  1.00  0.00     0.167 HD
ATOM     52  C   UNL A   1      45.855  27.841  26.707  1.00  0.00     0.034 A 
ATOM     53  C   UNL A   1      40.056  29.857  30.120  1.00  0.00     0.034 A 
ATOM     54  C   UNL A   1      45.899  29.176  27.257  1.00  0.00     0.049 A 
ATOM     55  C   UNL A   1      41.262  30.751  30.002  1.00  0.00     0.074 A 
ATOM     56  C   UNL A   1      46.924  30.106  27.191  1.00  0.00     0.029 A 
ATOM     57  N   UNL A   1      44.874  29.772  27.982  1.00  0.00    -0.354 N 
ATOM     58  N   UNL A   1      42.407  30.522  29.400  1.00  0.00    -0.248 NA
ATOM     59  C   UNL A   1      41.163  32.077  30.626  1.00  0.00     0.031 C 
ATOM     60  C   UNL A   1      46.542  31.236  27.924  1.00  0.00     0.029 A 
ATOM     61  C   UNL A   1      45.250  31.044  28.389  1.00  0.00     0.049 A 
ATOM     62  H   UNL A   1      44.006  29.352  28.179  1.00  0.00     0.167 HD
ATOM     63  C   UNL A   1      43.155  31.686  29.554  1.00  0.00     0.074 A 
ATOM     64  C   UNL A   1      42.320  32.621  30.281  1.00  0.00     0.031 C 
ATOM     65  C   UNL A   1      44.416  31.959  29.132  1.00  0.00     0.034 A 
BRANCH  52  66
ATOM     66  C   UNL A   1      47.084  27.295  26.016  1.00  0.00     0.023 A 
ATOM     67  C   UNL A   1      48.061  26.562  26.713  1.00  0.00     0.031 A 
ATOM     68  C   UNL A   1      47.299  27.534  24.646  1.00  0.00     0.131 A 
ATOM     69  C   UNL A   1      49.239  26.165  26.063  1.00  0.00     0.055 A 
ATOM     70  C   UNL A   1      48.437  27.065  23.985  1.00  0.00     0.041 A 
ATOM     71  F   UNL A   1      46.412  28.242  23.929  1.00  0.00    -0.206 F 
ATOM     72  C   UNL A   1      49.423  26.390  24.697  1.00  0.00     0.022 A 
BRANCH  69  73
ATOM     73  S   UNL A   1      50.590  25.479  27.060  1.00  0.00     0.124 S 
ATOM     74  O   UNL A   1      51.602  25.211  26.041  1.00  0.00    -0.237 OA
ATOM     75  O   UNL A   1      50.887  26.568  27.984  1.00  0.00    -0.237 OA
ATOM     76  O   UNL A   1      49.999  24.289  27.669  1.00  0.00    -0.744 OA
ENDBRANCH  69  73
ENDBRANCH  52  66
BRANCH  53  77
ATOM     77  C   UNL A   1      38.854  30.294  30.884  1.00  0.00     0.023 A 
ATOM     78  C   UNL A   1      37.932  31.197  30.331  1.00  0.00     0.031 A 
ATOM     79  C   UNL A   1      38.627  29.840  32.196  1.00  0.00     0.131 A 
ATOM     80  C   UNL A   1      36.851  31.653  31.101  1.00  0.00     0.055 A 
ATOM     81  C   UNL A   1      37.524  30.259  32.941  1.00  0.00     0.041 A 
ATOM     82  F   UNL A   1      39.473  28.968  32.768  1.00  0.00    -0.206 F 
ATOM     83  C   UNL A   1      36.634  31.182  32.397  1.00  0.00     0.022 A 
BRANCH  80  84
ATOM     84  S   UNL A   1      35.769  32.933  30.408  1.00  0.00     0.124 S 
ATOM     85  O   UNL A   1      36.225  34.124  31.114  1.00  0.00    -0.237 OA
ATOM     86  O   UNL A   1      36.094  32.866  28.986  1.00  0.00    -0.237 OA
ATOM     87  O   UNL A   1      34.428  32.472  30.760  1.00  0.00    -0.744 OA
ENDBRANCH  80  84
ENDBRANCH  53  77
BRANCH  65  88
ATOM     88  C   UNL A   1      44.944  33.342  29.428  1.00  0.00     0.023 A 
ATOM     89  C   UNL A   1      44.745  34.414  28.539  1.00  0.00     0.031 A 
ATOM     90  C   UNL A   1      45.695  33.581  30.592  1.00  0.00     0.131 A 
ATOM     91  C   UNL A   1      45.353  35.654  28.790  1.00  0.00     0.055 A 
ATOM     92  C   UNL A   1      46.244  34.834  30.869  1.00  0.00     0.041 A 
ATOM     93  F   UNL A   1      45.919  32.594  31.476  1.00  0.00    -0.206 F 
ATOM     94  C   UNL A   1      46.090  35.874  29.956  1.00  0.00     0.022 A 
BRANCH  91  95
ATOM     95  S   UNL A   1      45.271  36.936  27.511  1.00  0.00     0.124 S 
ATOM     96  O   UNL A   1      46.315  36.510  26.584  1.00  0.00    -0.237 OA
ATOM     97  O   UNL A   1      43.900  36.808  27.029  1.00  0.00    -0.237 OA
ATOM     98  O   UNL A   1      45.558  38.169  28.242  1.00  0.00    -0.744 OA
ENDBRANCH  91  95
ENDBRANCH  65  88
ENDBRANCH  39  40
ENDBRANCH  31  34
ENDBRANCH  29  30
ENDBRANCH   1  29
TORSDOF 16
ENDMDL
MODEL 2
REMARK VINA RESULT:     -12.8      1.656      2.153
REMARK SMILES Cc1cc(Nc2ccc(C(=O)NCCCNC(=O)c3ccc(-c4c5nc(c(-c6cc(S(=O)(=O)[O-])ccc6F)c6ccc([nH]6)c(-c6cc(S(=O)(=O)[O-])ccc6F)c6nc(c(-c7cc(S(=O)(=O)[O-])ccc7F)c7ccc4[nH]7)C=C6)C=C5)cc3)cc2)nc(-n2nc(C)cc2C)n1
REMARK SMILES IDX 14 1 13 2 12 3 10 4 11 5 9 7 6 8 7 9 83 10 8 11 82 12 5 13
REMARK SMILES IDX 4 15 1 16 2 17 3 18 93 19 85 20 84 21 86 22 87 23 91 24
REMARK SMILES IDX 88 25 90 26 92 27 89 28 15 29 16 30 17 31 18 33 19 34 20 35
REMARK SMILES IDX 81 36 21 37 80 38 22 39 23 40 24 41 74 42 25 43 79 44 73 45
REMARK SMILES IDX 75 46 26 47 78 48 72 49 71 50 27 52 59 53 39 54 58 55 40 56
REMARK SMILES IDX 43 57 57 58 76 59 41 60 42 61 56 63 77 64 44 65 28 66 29 67
REMARK SMILES IDX 37 68 30 69 36 70 38 71 35 72 31 73 32 74 33 75 34 76 60 77
REMARK SMILES IDX 61 78 69 79 62 80 68 81 70 82 67 83 63 84 64 85 65 86 66 87
REMARK SMILES IDX 45 88 46 89 54 90 47 91 53 92 55 93 52 94 48 95 49 96 50 97
REMARK SMILES IDX 51 98
REMARK H PARENT 12 6 5 14 16 32 75 51 43 62
REMARK Flexibility Score: inf
ROOT
ATOM      1  C   UNL A   1      35.634  21.864  25.344  1.00  0.00     0.042 C 
ENDROOT
BRANCH   1   2
ATOM      2  C   UNL A   1      34.720  21.499  26.515  1.00  0.00     0.118 C 
BRANCH   2   3
ATOM      3  N   UNL A   1      33.734  20.504  26.124  1.00  0.00    -0.352 N 
ATOM      4  C   UNL A   1      32.664  20.554  25.268  1.00  0.00     0.251 C 
ATOM      5  O   UNL A   1      32.038  19.513  25.065  1.00  0.00    -0.269 OA
ATOM      6  H   UNL A   1      33.857  19.629  26.558  1.00  0.00     0.163 HD
BRANCH   4   7
ATOM      7  C   UNL A   1      32.266  21.784  24.533  1.00  0.00     0.039 A 
ATOM      8  C   UNL A   1      31.744  24.147  23.086  1.00  0.00     0.040 A 
ATOM      9  C   UNL A   1      32.611  23.186  22.569  1.00  0.00     0.027 A 
ATOM     10  C   UNL A   1      31.053  23.863  24.270  1.00  0.00     0.027 A 
ATOM     11  C   UNL A   1      32.887  22.024  23.298  1.00  0.00     0.016 A 
ATOM     12  C   UNL A   1      31.296  22.683  24.979  1.00  0.00     0.016 A 
BRANCH   8  13
ATOM     13  N   UNL A   1      31.505  25.338  22.380  1.00  0.00    -0.340 N 
ATOM     14  H   UNL A   1      31.390  25.279  21.404  1.00  0.00     0.168 HD
BRANCH  13  15
ATOM     15  C   UNL A   1      31.422  26.607  22.977  1.00  0.00     0.136 A 
ATOM     16  C   UNL A   1      29.621  29.873  22.606  1.00  0.00     0.067 C 
ATOM     17  C   UNL A   1      30.460  28.751  23.139  1.00  0.00     0.045 A 
ATOM     18  C   UNL A   1      30.573  27.560  22.449  1.00  0.00     0.070 A 
ATOM     19  N   UNL A   1      31.138  28.995  24.276  1.00  0.00    -0.216 NA
ATOM     20  C   UNL A   1      32.025  28.052  24.669  1.00  0.00     0.252 A 
ATOM     21  N   UNL A   1      32.193  26.875  24.041  1.00  0.00    -0.194 NA
BRANCH  20  22
ATOM     22  N   UNL A   1      32.862  28.340  25.803  1.00  0.00    -0.203 N 
ATOM     23  N   UNL A   1      34.181  28.664  25.650  1.00  0.00    -0.170 NA
ATOM     24  C   UNL A   1      32.487  28.392  27.140  1.00  0.00     0.045 A 
ATOM     25  C   UNL A   1      34.573  29.085  26.856  1.00  0.00     0.060 A 
ATOM     26  C   UNL A   1      33.567  28.904  27.825  1.00  0.00     0.049 A 
ATOM     27  C   UNL A   1      31.185  27.889  27.644  1.00  0.00     0.067 C 
ATOM     28  C   UNL A   1      35.930  29.650  27.045  1.00  0.00     0.069 C 
ENDBRANCH  20  22
ENDBRANCH  13  15
ENDBRANCH   8  13
ENDBRANCH   4   7
ENDBRANCH   2   3
ENDBRANCH   1   2
BRANCH   1  29
ATOM     29  C   UNL A   1      36.955  22.507  25.771  1.00  0.00     0.118 C 
BRANCH  29  30
ATOM     30  N   UNL A   1      37.998  21.517  25.983  1.00  0.00    -0.352 N 
ATOM     31  C   UNL A   1      39.314  21.672  26.341  1.00  0.00     0.251 C 
ATOM     32  H   UNL A   1      37.714  20.584  25.848  1.00  0.00     0.163 HD
ATOM     33  O   UNL A   1      40.061  20.700  26.250  1.00  0.00    -0.269 OA
BRANCH  31  34
ATOM     34  C   UNL A   1      39.847  22.972  26.815  1.00  0.00     0.039 A 
ATOM     35  C   UNL A   1      39.514  24.123  26.092  1.00  0.00     0.014 A 
ATOM     36  C   UNL A   1      40.723  23.070  27.900  1.00  0.00     0.014 A 
ATOM     37  C   UNL A   1      40.028  25.365  26.472  1.00  0.00     0.010 A 
ATOM     38  C   UNL A   1      41.187  24.320  28.318  1.00  0.00     0.010 A 
ATOM     39  C   UNL A   1      40.855  25.479  27.601  1.00  0.00    -0.014 A 
BRANCH  39  40
ATOM     40  C   UNL A   1      41.377  26.808  28.018  1.00  0.00     0.031 A 
ATOM     41  C   UNL A   1      42.809  27.190  27.748  1.00  0.00     0.074 A 
ATOM     42  C   UNL A   1      40.560  27.669  28.656  1.00  0.00     0.049 A 
ATOM     43  N   UNL A   1      43.434  28.308  28.017  1.00  0.00    -0.248 NA
ATOM     44  C   UNL A   1      43.656  26.169  27.114  1.00  0.00     0.031 C 
ATOM     45  C   UNL A   1      39.168  27.395  29.019  1.00  0.00     0.029 A 
ATOM     46  N   UNL A   1      40.775  28.946  29.108  1.00  0.00    -0.354 N 
ATOM     47  C   UNL A   1      44.747  28.125  27.594  1.00  0.00     0.074 A 
ATOM     48  C   UNL A   1      44.839  26.765  27.105  1.00  0.00     0.031 C 
ATOM     49  C   UNL A   1      38.645  28.482  29.609  1.00  0.00     0.029 A 
ATOM     50  C   UNL A   1      39.669  29.519  29.693  1.00  0.00     0.049 A 
ATOM     51  H   UNL A   1      41.639  29.410  29.022  1.00  0.00     0.167 HD
ATOM     52  C   UNL A   1      45.773  29.014  27.592  1.00  0.00     0.034 A 
ATOM     53  C   UNL A   1      39.497  30.741  30.233  1.00  0.00     0.034 A 
ATOM     54  C   UNL A   1      45.662  30.370  28.075  1.00  0.00     0.049 A 
ATOM     55  C   UNL A   1      40.645  31.716  30.205  1.00  0.00     0.074 A 
ATOM     56  C   UNL A   1      46.622  31.369  28.077  1.00  0.00     0.029 A 
ATOM     57  N   UNL A   1      44.523  30.920  28.651  1.00  0.00    -0.354 N 
ATOM     58  N   UNL A   1      41.864  31.546  29.747  1.00  0.00    -0.248 NA
ATOM     59  C   UNL A   1      40.384  33.055  30.747  1.00  0.00     0.031 C 
ATOM     60  C   UNL A   1      46.083  32.499  28.706  1.00  0.00     0.029 A 
ATOM     61  C   UNL A   1      44.763  32.232  29.033  1.00  0.00     0.049 A 
ATOM     62  H   UNL A   1      43.668  30.446  28.771  1.00  0.00     0.167 HD
ATOM     63  C   UNL A   1      42.508  32.767  29.924  1.00  0.00     0.074 A 
ATOM     64  C   UNL A   1      41.534  33.668  30.506  1.00  0.00     0.031 C 
ATOM     65  C   UNL A   1      43.788  33.114  29.632  1.00  0.00     0.034 A 
BRANCH  52  66
ATOM     66  C   UNL A   1      47.107  28.531  27.070  1.00  0.00     0.023 A 
ATOM     67  C   UNL A   1      47.325  28.294  25.701  1.00  0.00     0.031 A 
ATOM     68  C   UNL A   1      48.170  28.275  27.956  1.00  0.00     0.131 A 
ATOM     69  C   UNL A   1      48.540  27.742  25.267  1.00  0.00     0.055 A 
ATOM     70  C   UNL A   1      49.406  27.803  27.507  1.00  0.00     0.041 A 
ATOM     71  F   UNL A   1      48.020  28.465  29.276  1.00  0.00    -0.206 F 
ATOM     72  C   UNL A   1      49.592  27.518  26.158  1.00  0.00     0.022 A 
BRANCH  69  73
ATOM     73  S   UNL A   1      48.674  27.187  23.546  1.00  0.00     0.124 S 
ATOM     74  O   UNL A   1      50.121  27.213  23.340  1.00  0.00    -0.237 OA
ATOM     75  O   UNL A   1      48.060  25.865  23.591  1.00  0.00    -0.237 OA
ATOM     76  O   UNL A   1      47.927  28.197  22.799  1.00  0.00    -0.744 OA
ENDBRANCH  69  73
ENDBRANCH  52  66
BRANCH  53  77
ATOM     77  C   UNL A   1      38.188  31.121  30.836  1.00  0.00     0.023 A 
ATOM     78  C   UNL A   1      37.211  31.790  30.083  1.00  0.00     0.031 A 
ATOM     79  C   UNL A   1      37.909  30.849  32.187  1.00  0.00     0.131 A 
ATOM     80  C   UNL A   1      36.019  32.206  30.696  1.00  0.00     0.055 A 
ATOM     81  C   UNL A   1      36.703  31.221  32.780  1.00  0.00     0.041 A 
ATOM     82  F   UNL A   1      38.807  30.202  32.949  1.00  0.00    -0.206 F 
ATOM     83  C   UNL A   1      35.753  31.916  32.036  1.00  0.00     0.022 A 
BRANCH  80  84
ATOM     84  S   UNL A   1      34.847  33.201  29.733  1.00  0.00     0.124 S 
ATOM     85  O   UNL A   1      34.226  32.191  28.883  1.00  0.00    -0.237 OA
ATOM     86  O   UNL A   1      34.002  33.769  30.778  1.00  0.00    -0.237 OA
ATOM     87  O   UNL A   1      35.705  34.159  29.039  1.00  0.00    -0.744 OA
ENDBRANCH  80  84
ENDBRANCH  53  77
BRANCH  65  88
ATOM     88  C   UNL A   1      44.183  34.543  29.914  1.00  0.00     0.023 A 
ATOM     89  C   UNL A   1      43.994  35.563  28.965  1.00  0.00     0.031 A 
ATOM     90  C   UNL A   1      44.799  34.881  31.132  1.00  0.00     0.131 A 
ATOM     91  C   UNL A   1      44.483  36.854  29.216  1.00  0.00     0.055 A 
ATOM     92  C   UNL A   1      45.227  36.182  31.403  1.00  0.00     0.041 A 
ATOM     93  F   UNL A   1      45.008  33.948  32.075  1.00  0.00    -0.206 F 
ATOM     94  C   UNL A   1      45.085  37.173  30.435  1.00  0.00     0.022 A 
BRANCH  91  95
ATOM     95  S   UNL A   1      44.431  38.079  27.880  1.00  0.00     0.124 S 
ATOM     96  O   UNL A   1      44.171  39.316  28.610  1.00  0.00    -0.237 OA
ATOM     97  O   UNL A   1      45.761  37.955  27.292  1.00  0.00    -0.237 OA
ATOM     98  O   UNL A   1      43.334  37.617  27.033  1.00  0.00    -0.744 OA
ENDBRANCH  91  95
ENDBRANCH  65  88
ENDBRANCH  39  40
ENDBRANCH  31  34
ENDBRANCH  29  30
ENDBRANCH   1  29
TORSDOF 16
ENDMDL
MODEL 3
REMARK VINA RESULT:     -12.6      4.646     10.189
REMARK SMILES Cc1cc(Nc2ccc(C(=O)NCCCNC(=O)c3ccc(-c4c5nc(c(-c6cc(S(=O)(=O)[O-])ccc6F)c6ccc([nH]6)c(-c6cc(S(=O)(=O)[O-])ccc6F)c6nc(c(-c7cc(S(=O)(=O)[O-])ccc7F)c7ccc4[nH]7)C=C6)C=C5)cc3)cc2)nc(-n2nc(C)cc2C)n1
REMARK SMILES IDX 14 1 13 2 12 3 10 4 11 5 9 7 6 8 7 9 83 10 8 11 82 12 5 13
REMARK SMILES IDX 4 15 1 16 2 17 3 18 93 19 85 20 84 21 86 22 87 23 91 24
REMARK SMILES IDX 88 25 90 26 92 27 89 28 15 29 16 30 17 31 18 33 19 34 20 35
REMARK SMILES IDX 81 36 21 37 80 38 22 39 23 40 24 41 74 42 25 43 79 44 73 45
REMARK SMILES IDX 75 46 26 47 78 48 72 49 71 50 27 52 59 53 39 54 58 55 40 56
REMARK SMILES IDX 43 57 57 58 76 59 41 60 42 61 56 63 77 64 44 65 28 66 29 67
REMARK SMILES IDX 37 68 30 69 36 70 38 71 35 72 31 73 32 74 33 75 34 76 60 77
REMARK SMILES IDX 61 78 69 79 62 80 68 81 70 82 67 83 63 84 64 85 65 86 66 87
REMARK SMILES IDX 45 88 46 89 54 90 47 91 53 92 55 93 52 94 48 95 49 96 50 97
REMARK SMILES IDX 51 98
REMARK H PARENT 12 6 5 14 16 32 75 51 43 62
REMARK Flexibility Score: inf
ROOT
ATOM      1  C   UNL A   1      32.351  28.962  25.765  1.00  0.00     0.042 C 
ENDROOT
BRANCH   1   2
ATOM      2  C   UNL A   1      32.827  29.210  24.332  1.00  0.00     0.118 C 
BRANCH   2   3
ATOM      3  N   UNL A   1      31.704  29.356  23.420  1.00  0.00    -0.352 N 
ATOM      4  C   UNL A   1      30.933  28.439  22.752  1.00  0.00     0.251 C 
ATOM      5  O   UNL A   1      29.978  28.856  22.097  1.00  0.00    -0.269 OA
ATOM      6  H   UNL A   1      31.450  30.291  23.248  1.00  0.00     0.163 HD
BRANCH   4   7
ATOM      7  C   UNL A   1      31.161  26.971  22.833  1.00  0.00     0.039 A 
ATOM      8  C   UNL A   1      31.627  24.192  22.749  1.00  0.00     0.040 A 
ATOM      9  C   UNL A   1      32.447  25.062  22.032  1.00  0.00     0.027 A 
ATOM     10  C   UNL A   1      30.652  24.732  23.597  1.00  0.00     0.027 A 
ATOM     11  C   UNL A   1      32.202  26.439  22.056  1.00  0.00     0.016 A 
ATOM     12  C   UNL A   1      30.432  26.111  23.654  1.00  0.00     0.016 A 
BRANCH   8  13
ATOM     13  N   UNL A   1      31.839  22.805  22.685  1.00  0.00    -0.340 N 
ATOM     14  H   UNL A   1      31.593  22.340  21.853  1.00  0.00     0.168 HD
BRANCH  13  15
ATOM     15  C   UNL A   1      32.379  22.039  23.731  1.00  0.00     0.136 A 
ATOM     16  C   UNL A   1      33.215  22.290  27.376  1.00  0.00     0.067 C 
ATOM     17  C   UNL A   1      32.961  21.761  25.997  1.00  0.00     0.045 A 
ATOM     18  C   UNL A   1      32.520  22.594  24.988  1.00  0.00     0.070 A 
ATOM     19  N   UNL A   1      33.247  20.462  25.788  1.00  0.00    -0.216 NA
ATOM     20  C   UNL A   1      33.181  20.023  24.511  1.00  0.00     0.252 A 
ATOM     21  N   UNL A   1      32.770  20.781  23.479  1.00  0.00    -0.194 NA
BRANCH  20  22
ATOM     22  N   UNL A   1      33.610  18.678  24.234  1.00  0.00    -0.203 N 
ATOM     23  N   UNL A   1      34.606  18.085  24.958  1.00  0.00    -0.170 NA
ATOM     24  C   UNL A   1      33.086  17.799  23.293  1.00  0.00     0.045 A 
ATOM     25  C   UNL A   1      34.577  16.800  24.593  1.00  0.00     0.060 A 
ATOM     26  C   UNL A   1      33.673  16.577  23.537  1.00  0.00     0.049 A 
ATOM     27  C   UNL A   1      32.146  18.213  22.222  1.00  0.00     0.067 C 
ATOM     28  C   UNL A   1      35.442  15.809  25.278  1.00  0.00     0.069 C 
ENDBRANCH  20  22
ENDBRANCH  13  15
ENDBRANCH   8  13
ENDBRANCH   4   7
ENDBRANCH   2   3
ENDBRANCH   1   2
BRANCH   1  29
ATOM     29  C   UNL A   1      33.389  29.319  26.829  1.00  0.00     0.118 C 
BRANCH  29  30
ATOM     30  N   UNL A   1      33.400  30.742  27.124  1.00  0.00    -0.352 N 
ATOM     31  C   UNL A   1      34.246  31.483  27.910  1.00  0.00     0.251 C 
ATOM     32  H   UNL A   1      32.683  31.259  26.689  1.00  0.00     0.163 HD
ATOM     33  O   UNL A   1      33.928  32.640  28.180  1.00  0.00    -0.269 OA
BRANCH  31  34
ATOM     34  C   UNL A   1      35.510  30.920  28.443  1.00  0.00     0.039 A 
ATOM     35  C   UNL A   1      36.715  31.497  28.027  1.00  0.00     0.014 A 
ATOM     36  C   UNL A   1      35.536  29.798  29.276  1.00  0.00     0.014 A 
ATOM     37  C   UNL A   1      37.933  30.973  28.466  1.00  0.00     0.010 A 
ATOM     38  C   UNL A   1      36.752  29.312  29.765  1.00  0.00     0.010 A 
ATOM     39  C   UNL A   1      37.964  29.887  29.355  1.00  0.00    -0.014 A 
BRANCH  39  40
ATOM     40  C   UNL A   1      39.264  29.351  29.841  1.00  0.00     0.031 A 
ATOM     41  C   UNL A   1      39.939  29.952  31.046  1.00  0.00     0.074 A 
ATOM     42  C   UNL A   1      39.844  28.327  29.185  1.00  0.00     0.049 A 
ATOM     43  N   UNL A   1      41.060  29.605  31.627  1.00  0.00    -0.248 NA
ATOM     44  C   UNL A   1      39.280  31.112  31.662  1.00  0.00     0.031 C 
ATOM     45  C   UNL A   1      39.313  27.694  27.976  1.00  0.00     0.029 A 
ATOM     46  N   UNL A   1      41.002  27.636  29.439  1.00  0.00    -0.354 N 
ATOM     47  C   UNL A   1      41.245  30.506  32.671  1.00  0.00     0.074 A 
ATOM     48  C   UNL A   1      40.149  31.450  32.603  1.00  0.00     0.031 C 
ATOM     49  C   UNL A   1      40.125  26.688  27.613  1.00  0.00     0.029 A 
ATOM     50  C   UNL A   1      41.248  26.622  28.542  1.00  0.00     0.049 A 
ATOM     51  H   UNL A   1      41.599  27.846  30.192  1.00  0.00     0.167 HD
ATOM     52  C   UNL A   1      42.223  30.530  33.613  1.00  0.00     0.034 A 
ATOM     53  C   UNL A   1      42.261  25.737  28.478  1.00  0.00     0.034 A 
ATOM     54  C   UNL A   1      43.305  29.575  33.672  1.00  0.00     0.049 A 
ATOM     55  C   UNL A   1      43.326  25.772  29.542  1.00  0.00     0.074 A 
ATOM     56  C   UNL A   1      44.322  29.477  34.607  1.00  0.00     0.029 A 
ATOM     57  N   UNL A   1      43.516  28.554  32.753  1.00  0.00    -0.354 N 
ATOM     58  N   UNL A   1      43.455  26.595  30.558  1.00  0.00    -0.248 NA
ATOM     59  C   UNL A   1      44.372  24.744  29.462  1.00  0.00     0.031 C 
ATOM     60  C   UNL A   1      45.178  28.438  34.221  1.00  0.00     0.029 A 
ATOM     61  C   UNL A   1      44.658  27.839  33.085  1.00  0.00     0.049 A 
ATOM     62  H   UNL A   1      42.939  28.366  31.978  1.00  0.00     0.167 HD
ATOM     63  C   UNL A   1      44.583  26.166  31.252  1.00  0.00     0.074 A 
ATOM     64  C   UNL A   1      45.079  24.999  30.552  1.00  0.00     0.031 C 
ATOM     65  C   UNL A   1      45.156  26.688  32.367  1.00  0.00     0.034 A 
BRANCH  52  66
ATOM     66  C   UNL A   1      42.173  31.642  34.635  1.00  0.00     0.023 A 
ATOM     67  C   UNL A   1      41.260  31.624  35.705  1.00  0.00     0.031 A 
ATOM     68  C   UNL A   1      43.030  32.753  34.526  1.00  0.00     0.131 A 
ATOM     69  C   UNL A   1      41.168  32.724  36.570  1.00  0.00     0.055 A 
ATOM     70  C   UNL A   1      42.990  33.808  35.440  1.00  0.00     0.041 A 
ATOM     71  F   UNL A   1      43.913  32.838  33.518  1.00  0.00    -0.206 F 
ATOM     72  C   UNL A   1      42.044  33.806  36.461  1.00  0.00     0.022 A 
BRANCH  69  73
ATOM     73  S   UNL A   1      39.793  32.786  37.752  1.00  0.00     0.124 S 
ATOM     74  O   UNL A   1      38.943  31.699  37.272  1.00  0.00    -0.237 OA
ATOM     75  O   UNL A   1      40.462  32.558  39.027  1.00  0.00    -0.237 OA
ATOM     76  O   UNL A   1      39.241  34.127  37.567  1.00  0.00    -0.744 OA
ENDBRANCH  69  73
ENDBRANCH  52  66
BRANCH  53  77
ATOM     77  C   UNL A   1      42.315  24.733  27.378  1.00  0.00     0.023 A 
ATOM     78  C   UNL A   1      41.545  23.561  27.427  1.00  0.00     0.031 A 
ATOM     79  C   UNL A   1      43.167  24.918  26.274  1.00  0.00     0.131 A 
ATOM     80  C   UNL A   1      41.674  22.596  26.415  1.00  0.00     0.055 A 
ATOM     81  C   UNL A   1      43.257  23.978  25.246  1.00  0.00     0.041 A 
ATOM     82  F   UNL A   1      43.919  26.027  26.174  1.00  0.00    -0.206 F 
ATOM     83  C   UNL A   1      42.516  22.801  25.320  1.00  0.00     0.022 A 
BRANCH  80  84
ATOM     84  S   UNL A   1      40.779  21.028  26.591  1.00  0.00     0.124 S 
ATOM     85  O   UNL A   1      41.600  20.125  25.794  1.00  0.00    -0.237 OA
ATOM     86  O   UNL A   1      40.812  20.822  28.035  1.00  0.00    -0.237 OA
ATOM     87  O   UNL A   1      39.459  21.326  26.037  1.00  0.00    -0.744 OA
ENDBRANCH  80  84
ENDBRANCH  53  77
BRANCH  65  88
ATOM     88  C   UNL A   1      46.368  25.968  32.905  1.00  0.00     0.023 A 
ATOM     89  C   UNL A   1      46.251  24.911  33.826  1.00  0.00     0.031 A 
ATOM     90  C   UNL A   1      47.660  26.374  32.527  1.00  0.00     0.131 A 
ATOM     91  C   UNL A   1      47.403  24.347  34.395  1.00  0.00     0.055 A 
ATOM     92  C   UNL A   1      48.803  25.766  33.048  1.00  0.00     0.041 A 
ATOM     93  F   UNL A   1      47.832  27.379  31.653  1.00  0.00    -0.206 F 
ATOM     94  C   UNL A   1      48.679  24.758  34.001  1.00  0.00     0.022 A 
BRANCH  91  95
ATOM     95  S   UNL A   1      47.210  23.154  35.747  1.00  0.00     0.124 S 
ATOM     96  O   UNL A   1      45.760  23.100  35.901  1.00  0.00    -0.237 OA
ATOM     97  O   UNL A   1      47.838  21.957  35.198  1.00  0.00    -0.237 OA
ATOM     98  O   UNL A   1      47.928  23.775  36.858  1.00  0.00    -0.744 OA
ENDBRANCH  91  95
ENDBRANCH  65  88
ENDBRANCH  39  40
ENDBRANCH  31  34
ENDBRANCH  29  30
ENDBRANCH   1  29
TORSDOF 16
ENDMDL
