MODEL 1
REMARK VINA RESULT:     -13.8      0.000      0.000
REMARK SMILES Cc1ccc(S(=O)(=O)n2cc(C(=O)C(=O)NCC(=O)N[C@H](Cc3c[nH]c4ccccc34)C(=O)NCCCNC(=O)c3ccc(-c4c5nc(c(-c6cc(S(=O)(=O)[O-])ccc6F)c6ccc([nH]6)c(-c6cc(S(=O)(=O)[O-])ccc6F)c6nc(c(-c7cc(S(=O)(=O)[O-])ccc7F)c7ccc4[nH]7)C=C6)C=C5)cc3)c3ccccc32)cc1
REMARK SMILES IDX 32 1 33 2 34 3 21 5 20 6 18 7 19 8 17 10 16 11 14 12 15 13
REMARK SMILES IDX 12 15 13 16 11 17 9 18 10 19 109 20 104 21 108 22 105 23
REMARK SMILES IDX 107 24 106 25 6 26 7 27 8 28 5 29 1 30 2 31 3 32 111 33 4 34
REMARK SMILES IDX 110 35 22 36 23 37 24 38 31 39 25 40 26 41 30 42 27 44 29 45
REMARK SMILES IDX 28 46 35 47 36 48 37 49 38 50 39 51 40 53 41 54 42 55 103 56
REMARK SMILES IDX 43 57 102 58 44 59 45 60 46 61 96 62 47 63 101 64 95 65
REMARK SMILES IDX 97 66 48 67 100 68 94 69 93 70 49 72 81 73 61 74 80 75 62 76
REMARK SMILES IDX 65 77 79 78 98 79 63 80 64 81 78 83 99 84 66 85 50 86 51 87
REMARK SMILES IDX 59 88 52 89 58 90 60 91 57 92 53 93 54 94 55 95 56 96 82 97
REMARK SMILES IDX 83 98 91 99 84 100 90 101 92 102 89 103 85 104 86 105 87 106
REMARK SMILES IDX 88 107 67 108 68 109 76 110 69 111 75 112 77 113 74 114
REMARK SMILES IDX 70 115 71 116 72 117 73 118
REMARK H PARENT 34 4 20 9 16 14 25 43 38 52 97 71 65 82
REMARK Flexibility Score: inf
ROOT
ATOM      1  C   UNL A   1      31.763  28.171  26.880  1.00  0.00     0.242 C 
ATOM      2  O   UNL A   1      31.023  27.476  27.588  1.00  0.00    -0.273 OA
ATOM      3  N   UNL A   1      32.426  29.188  27.478  1.00  0.00    -0.354 N 
ATOM      4  H   UNL A   1      32.255  29.242  28.446  1.00  0.00     0.163 HD
ENDROOT
BRANCH   1   5
ATOM      5  C   UNL A   1      31.863  27.837  25.379  1.00  0.00     0.175 C 
BRANCH   5   6
ATOM      6  N   UNL A   1      33.133  28.375  24.867  1.00  0.00    -0.342 N 
ATOM      7  C   UNL A   1      33.622  28.422  23.599  1.00  0.00     0.240 C 
ATOM      8  O   UNL A   1      34.763  28.887  23.476  1.00  0.00    -0.273 OA
ATOM      9  H   UNL A   1      33.722  28.763  25.552  1.00  0.00     0.164 HD
BRANCH   7  10
ATOM     10  C   UNL A   1      32.764  28.145  22.348  1.00  0.00     0.216 C 
BRANCH  10  11
ATOM     11  N   UNL A   1      33.177  27.169  21.347  1.00  0.00    -0.340 N 
ATOM     12  C   UNL A   1      32.883  25.817  21.287  1.00  0.00     0.292 C 
ATOM     13  O   UNL A   1      33.187  25.110  20.335  1.00  0.00    -0.265 OA
ATOM     14  H   UNL A   1      33.739  27.518  20.616  1.00  0.00     0.164 HD
BRANCH  12  15
ATOM     15  C   UNL A   1      32.149  25.171  22.457  1.00  0.00     0.252 C 
ATOM     16  O   UNL A   1      30.933  25.351  22.526  1.00  0.00    -0.283 OA
BRANCH  15  17
ATOM     17  C   UNL A   1      32.900  24.518  23.535  1.00  0.00     0.054 A 
ATOM     18  N   UNL A   1      34.483  23.639  24.886  1.00  0.00    -0.240 N 
ATOM     19  C   UNL A   1      34.276  24.326  23.693  1.00  0.00     0.117 A 
ATOM     20  C   UNL A   1      33.264  23.636  25.587  1.00  0.00     0.065 A 
ATOM     21  C   UNL A   1      32.274  23.860  24.634  1.00  0.00     0.012 A 
ATOM     22  C   UNL A   1      32.948  23.189  26.884  1.00  0.00     0.028 A 
ATOM     23  C   UNL A   1      30.952  23.459  24.924  1.00  0.00     0.011 A 
ATOM     24  C   UNL A   1      31.651  22.735  27.122  1.00  0.00     0.002 A 
ATOM     25  C   UNL A   1      30.674  22.831  26.141  1.00  0.00     0.001 A 
BRANCH  18  26
ATOM     26  S   UNL A   1      35.303  22.102  25.024  1.00  0.00     0.268 S 
ATOM     27  O   UNL A   1      35.749  22.083  26.408  1.00  0.00    -0.201 OA
ATOM     28  O   UNL A   1      36.272  22.153  23.935  1.00  0.00    -0.201 OA
BRANCH  26  29
ATOM     29  C   UNL A   1      34.555  20.537  24.755  1.00  0.00     0.088 A 
ATOM     30  C   UNL A   1      33.678  16.402  23.864  1.00  0.00     0.044 C 
ATOM     31  C   UNL A   1      33.941  17.839  24.216  1.00  0.00    -0.051 A 
ATOM     32  C   UNL A   1      35.243  18.191  24.542  1.00  0.00     0.005 A 
ATOM     33  C   UNL A   1      32.950  18.846  24.176  1.00  0.00     0.005 A 
ATOM     34  C   UNL A   1      35.535  19.514  24.816  1.00  0.00     0.022 A 
ATOM     35  C   UNL A   1      33.249  20.207  24.440  1.00  0.00     0.022 A 
ENDBRANCH  26  29
ENDBRANCH  18  26
ENDBRANCH  15  17
ENDBRANCH  12  15
ENDBRANCH  10  11
ENDBRANCH   7  10
ENDBRANCH   5   6
BRANCH   5  36
ATOM     36  C   UNL A   1      30.689  28.233  24.458  1.00  0.00     0.072 C 
BRANCH  36  37
ATOM     37  C   UNL A   1      30.237  29.664  24.331  1.00  0.00    -0.020 A 
ATOM     38  C   UNL A   1      30.549  30.752  25.117  1.00  0.00     0.087 A 
ATOM     39  C   UNL A   1      29.402  30.182  23.269  1.00  0.00     0.003 A 
ATOM     40  N   UNL A   1      30.047  31.883  24.539  1.00  0.00    -0.361 N 
ATOM     41  C   UNL A   1      29.380  31.572  23.385  1.00  0.00     0.046 A 
ATOM     42  C   UNL A   1      28.685  29.602  22.198  1.00  0.00     0.010 A 
ATOM     43  H   UNL A   1      30.149  32.793  24.901  1.00  0.00     0.166 HD
ATOM     44  C   UNL A   1      28.757  32.415  22.458  1.00  0.00     0.026 A 
ATOM     45  C   UNL A   1      28.010  30.429  21.287  1.00  0.00     0.001 A 
ATOM     46  C   UNL A   1      28.068  31.816  21.405  1.00  0.00     0.002 A 
ENDBRANCH  36  37
ENDBRANCH   5  36
ENDBRANCH   1   5
BRANCH   3  47
ATOM     47  C   UNL A   1      33.334  30.216  27.007  1.00  0.00     0.117 C 
BRANCH  47  48
ATOM     48  C   UNL A   1      34.743  30.094  27.571  1.00  0.00     0.042 C 
BRANCH  48  49
ATOM     49  C   UNL A   1      35.452  31.432  27.801  1.00  0.00     0.118 C 
BRANCH  49  50
ATOM     50  N   UNL A   1      34.679  32.339  28.650  1.00  0.00    -0.352 N 
ATOM     51  C   UNL A   1      35.051  33.011  29.803  1.00  0.00     0.251 C 
ATOM     52  H   UNL A   1      33.753  32.495  28.356  1.00  0.00     0.163 HD
ATOM     53  O   UNL A   1      34.295  33.775  30.367  1.00  0.00    -0.269 OA
BRANCH  51  54
ATOM     54  C   UNL A   1      36.451  32.887  30.272  1.00  0.00     0.039 A 
ATOM     55  C   UNL A   1      37.433  33.555  29.532  1.00  0.00     0.014 A 
ATOM     56  C   UNL A   1      36.807  31.997  31.281  1.00  0.00     0.014 A 
ATOM     57  C   UNL A   1      38.758  33.141  29.625  1.00  0.00     0.010 A 
ATOM     58  C   UNL A   1      38.120  31.560  31.348  1.00  0.00     0.010 A 
ATOM     59  C   UNL A   1      39.071  32.063  30.456  1.00  0.00    -0.014 A 
BRANCH  59  60
ATOM     60  C   UNL A   1      40.304  31.298  30.298  1.00  0.00     0.031 A 
ATOM     61  C   UNL A   1      40.314  29.980  29.641  1.00  0.00     0.074 A 
ATOM     62  C   UNL A   1      41.459  31.778  30.810  1.00  0.00     0.049 A 
ATOM     63  N   UNL A   1      41.069  29.000  30.011  1.00  0.00    -0.248 NA
ATOM     64  C   UNL A   1      39.445  29.657  28.517  1.00  0.00     0.031 C 
ATOM     65  C   UNL A   1      42.801  31.225  30.646  1.00  0.00     0.029 A 
ATOM     66  N   UNL A   1      41.596  32.735  31.816  1.00  0.00    -0.354 N 
ATOM     67  C   UNL A   1      40.993  28.034  29.039  1.00  0.00     0.074 A 
ATOM     68  C   UNL A   1      39.917  28.456  28.168  1.00  0.00     0.031 C 
ATOM     69  C   UNL A   1      43.561  31.628  31.676  1.00  0.00     0.029 A 
ATOM     70  C   UNL A   1      42.704  32.357  32.594  1.00  0.00     0.049 A 
ATOM     71  H   UNL A   1      41.025  33.524  31.955  1.00  0.00     0.167 HD
ATOM     72  C   UNL A   1      41.935  27.052  28.970  1.00  0.00     0.034 A 
ATOM     73  C   UNL A   1      42.588  32.120  33.930  1.00  0.00     0.034 A 
ATOM     74  C   UNL A   1      42.969  27.203  29.988  1.00  0.00     0.049 A 
ATOM     75  C   UNL A   1      43.009  30.729  34.338  1.00  0.00     0.074 A 
ATOM     76  C   UNL A   1      44.247  27.738  29.945  1.00  0.00     0.029 A 
ATOM     77  N   UNL A   1      42.661  27.030  31.332  1.00  0.00    -0.354 N 
ATOM     78  N   UNL A   1      43.134  29.728  33.511  1.00  0.00    -0.248 NA
ATOM     79  C   UNL A   1      43.297  30.354  35.717  1.00  0.00     0.031 C 
ATOM     80  C   UNL A   1      44.694  27.920  31.276  1.00  0.00     0.029 A 
ATOM     81  C   UNL A   1      43.699  27.472  32.130  1.00  0.00     0.049 A 
ATOM     82  H   UNL A   1      41.819  26.645  31.669  1.00  0.00     0.167 HD
ATOM     83  C   UNL A   1      43.479  28.595  34.209  1.00  0.00     0.074 A 
ATOM     84  C   UNL A   1      43.595  29.051  35.583  1.00  0.00     0.031 C 
ATOM     85  C   UNL A   1      43.626  27.386  33.583  1.00  0.00     0.034 A 
BRANCH  72  86
ATOM     86  C   UNL A   1      42.080  26.156  27.765  1.00  0.00     0.023 A 
ATOM     87  C   UNL A   1      41.464  24.890  27.754  1.00  0.00     0.031 A 
ATOM     88  C   UNL A   1      42.834  26.482  26.623  1.00  0.00     0.131 A 
ATOM     89  C   UNL A   1      41.693  23.974  26.713  1.00  0.00     0.055 A 
ATOM     90  C   UNL A   1      43.107  25.553  25.609  1.00  0.00     0.041 A 
ATOM     91  F   UNL A   1      43.320  27.721  26.439  1.00  0.00    -0.206 F 
ATOM     92  C   UNL A   1      42.549  24.283  25.659  1.00  0.00     0.022 A 
BRANCH  89  93
ATOM     93  S   UNL A   1      40.858  22.363  26.760  1.00  0.00     0.124 S 
ATOM     94  O   UNL A   1      39.472  22.723  26.481  1.00  0.00    -0.237 OA
ATOM     95  O   UNL A   1      41.556  21.625  25.714  1.00  0.00    -0.237 OA
ATOM     96  O   UNL A   1      41.109  21.891  28.121  1.00  0.00    -0.744 OA
ENDBRANCH  89  93
ENDBRANCH  72  86
BRANCH  73  97
ATOM     97  C   UNL A   1      41.523  32.925  34.590  1.00  0.00     0.023 A 
ATOM     98  C   UNL A   1      40.249  32.332  34.722  1.00  0.00     0.031 A 
ATOM     99  C   UNL A   1      41.816  34.035  35.391  1.00  0.00     0.131 A 
ATOM    100  C   UNL A   1      39.377  32.746  35.738  1.00  0.00     0.055 A 
ATOM    101  C   UNL A   1      40.912  34.490  36.360  1.00  0.00     0.041 A 
ATOM    102  F   UNL A   1      43.023  34.618  35.339  1.00  0.00    -0.206 F 
ATOM    103  C   UNL A   1      39.705  33.818  36.569  1.00  0.00     0.022 A 
BRANCH 100 104
ATOM    104  S   UNL A   1      37.955  31.690  36.127  1.00  0.00     0.124 S 
ATOM    105  O   UNL A   1      37.337  32.392  37.244  1.00  0.00    -0.237 OA
ATOM    106  O   UNL A   1      37.198  31.695  34.873  1.00  0.00    -0.237 OA
ATOM    107  O   UNL A   1      38.547  30.394  36.447  1.00  0.00    -0.744 OA
ENDBRANCH 100 104
ENDBRANCH  73  97
BRANCH  85 108
ATOM    108  C   UNL A   1      43.819  26.032  34.249  1.00  0.00     0.023 A 
ATOM    109  C   UNL A   1      45.051  25.370  34.336  1.00  0.00     0.031 A 
ATOM    110  C   UNL A   1      42.736  25.372  34.887  1.00  0.00     0.131 A 
ATOM    111  C   UNL A   1      45.166  24.102  34.939  1.00  0.00     0.055 A 
ATOM    112  C   UNL A   1      42.864  24.145  35.549  1.00  0.00     0.041 A 
ATOM    113  F   UNL A   1      41.500  25.892  34.911  1.00  0.00    -0.206 F 
ATOM    114  C   UNL A   1      44.084  23.491  35.564  1.00  0.00     0.022 A 
BRANCH 111 115
ATOM    115  S   UNL A   1      46.759  23.244  34.837  1.00  0.00     0.124 S 
ATOM    116  O   UNL A   1      47.136  23.143  36.245  1.00  0.00    -0.237 OA
ATOM    117  O   UNL A   1      46.398  21.989  34.187  1.00  0.00    -0.237 OA
ATOM    118  O   UNL A   1      47.587  24.143  34.036  1.00  0.00    -0.744 OA
ENDBRANCH 111 115
ENDBRANCH  85 108
ENDBRANCH  59  60
ENDBRANCH  51  54
ENDBRANCH  49  50
ENDBRANCH  48  49
ENDBRANCH  47  48
ENDBRANCH   3  47
TORSDOF 22
ENDMDL
MODEL 2
REMARK VINA RESULT:     -13.5      3.656     10.877
REMARK SMILES Cc1ccc(S(=O)(=O)n2cc(C(=O)C(=O)NCC(=O)N[C@H](Cc3c[nH]c4ccccc34)C(=O)NCCCNC(=O)c3ccc(-c4c5nc(c(-c6cc(S(=O)(=O)[O-])ccc6F)c6ccc([nH]6)c(-c6cc(S(=O)(=O)[O-])ccc6F)c6nc(c(-c7cc(S(=O)(=O)[O-])ccc7F)c7ccc4[nH]7)C=C6)C=C5)cc3)c3ccccc32)cc1
REMARK SMILES IDX 32 1 33 2 34 3 21 5 20 6 18 7 19 8 17 10 16 11 14 12 15 13
REMARK SMILES IDX 12 15 13 16 11 17 9 18 10 19 109 20 104 21 108 22 105 23
REMARK SMILES IDX 107 24 106 25 6 26 7 27 8 28 5 29 1 30 2 31 3 32 111 33 4 34
REMARK SMILES IDX 110 35 22 36 23 37 24 38 31 39 25 40 26 41 30 42 27 44 29 45
REMARK SMILES IDX 28 46 35 47 36 48 37 49 38 50 39 51 40 53 41 54 42 55 103 56
REMARK SMILES IDX 43 57 102 58 44 59 45 60 46 61 96 62 47 63 101 64 95 65
REMARK SMILES IDX 97 66 48 67 100 68 94 69 93 70 49 72 81 73 61 74 80 75 62 76
REMARK SMILES IDX 65 77 79 78 98 79 63 80 64 81 78 83 99 84 66 85 50 86 51 87
REMARK SMILES IDX 59 88 52 89 58 90 60 91 57 92 53 93 54 94 55 95 56 96 82 97
REMARK SMILES IDX 83 98 91 99 84 100 90 101 92 102 89 103 85 104 86 105 87 106
REMARK SMILES IDX 88 107 67 108 68 109 76 110 69 111 75 112 77 113 74 114
REMARK SMILES IDX 70 115 71 116 72 117 73 118
REMARK H PARENT 34 4 20 9 16 14 25 43 38 52 97 71 65 82
REMARK Flexibility Score: inf
ROOT
ATOM      1  C   UNL A   1      33.769  23.621  23.359  1.00  0.00     0.242 C 
ATOM      2  O   UNL A   1      34.000  23.766  22.151  1.00  0.00    -0.273 OA
ATOM      3  N   UNL A   1      34.831  23.537  24.193  1.00  0.00    -0.354 N 
ATOM      4  H   UNL A   1      35.694  23.628  23.728  1.00  0.00     0.163 HD
ENDROOT
BRANCH   1   5
ATOM      5  C   UNL A   1      32.300  23.537  23.816  1.00  0.00     0.175 C 
BRANCH   5   6
ATOM      6  N   UNL A   1      32.158  24.295  25.068  1.00  0.00    -0.342 N 
ATOM      7  C   UNL A   1      32.133  25.637  25.288  1.00  0.00     0.240 C 
ATOM      8  O   UNL A   1      32.062  25.990  26.472  1.00  0.00    -0.273 OA
ATOM      9  H   UNL A   1      32.069  23.743  25.877  1.00  0.00     0.164 HD
BRANCH   7  10
ATOM     10  C   UNL A   1      31.966  26.677  24.162  1.00  0.00     0.216 C 
BRANCH  10  11
ATOM     11  N   UNL A   1      31.139  27.864  24.344  1.00  0.00    -0.340 N 
ATOM     12  C   UNL A   1      31.523  29.129  24.757  1.00  0.00     0.292 C 
ATOM     13  O   UNL A   1      30.762  30.088  24.765  1.00  0.00    -0.265 OA
ATOM     14  H   UNL A   1      30.180  27.752  24.147  1.00  0.00     0.164 HD
BRANCH  12  15
ATOM     15  C   UNL A   1      32.958  29.346  25.227  1.00  0.00     0.252 C 
ATOM     16  O   UNL A   1      33.829  28.644  24.713  1.00  0.00    -0.283 OA
BRANCH  15  17
ATOM     17  C   UNL A   1      33.241  30.228  26.364  1.00  0.00     0.054 A 
ATOM     18  N   UNL A   1      33.174  31.763  28.020  1.00  0.00    -0.240 N 
ATOM     19  C   UNL A   1      32.437  31.186  26.989  1.00  0.00     0.117 A 
ATOM     20  C   UNL A   1      34.332  30.986  28.195  1.00  0.00     0.065 A 
ATOM     21  C   UNL A   1      34.515  30.295  27.001  1.00  0.00     0.012 A 
ATOM     22  C   UNL A   1      35.348  31.052  29.168  1.00  0.00     0.028 A 
ATOM     23  C   UNL A   1      35.802  29.808  26.689  1.00  0.00     0.011 A 
ATOM     24  C   UNL A   1      36.627  30.627  28.809  1.00  0.00     0.002 A 
ATOM     25  C   UNL A   1      36.861  30.048  27.570  1.00  0.00     0.001 A 
BRANCH  18  26
ATOM     26  S   UNL A   1      33.522  33.469  28.164  1.00  0.00     0.268 S 
ATOM     27  O   UNL A   1      32.387  34.100  27.510  1.00  0.00    -0.201 OA
ATOM     28  O   UNL A   1      34.860  33.577  27.593  1.00  0.00    -0.201 OA
BRANCH  26  29
ATOM     29  C   UNL A   1      33.721  34.329  29.683  1.00  0.00     0.088 A 
ATOM     30  C   UNL A   1      33.924  37.255  32.854  1.00  0.00     0.044 C 
ATOM     31  C   UNL A   1      33.834  36.197  31.791  1.00  0.00    -0.051 A 
ATOM     32  C   UNL A   1      33.067  36.478  30.669  1.00  0.00     0.005 A 
ATOM     33  C   UNL A   1      34.531  34.969  31.852  1.00  0.00     0.005 A 
ATOM     34  C   UNL A   1      33.007  35.553  29.644  1.00  0.00     0.022 A 
ATOM     35  C   UNL A   1      34.484  34.023  30.795  1.00  0.00     0.022 A 
ENDBRANCH  26  29
ENDBRANCH  18  26
ENDBRANCH  15  17
ENDBRANCH  12  15
ENDBRANCH  10  11
ENDBRANCH   7  10
ENDBRANCH   5   6
BRANCH   5  36
ATOM     36  C   UNL A   1      31.649  22.142  23.945  1.00  0.00     0.072 C 
BRANCH  36  37
ATOM     37  C   UNL A   1      32.329  21.022  24.686  1.00  0.00    -0.020 A 
ATOM     38  C   UNL A   1      32.776  20.980  25.989  1.00  0.00     0.087 A 
ATOM     39  C   UNL A   1      32.587  19.704  24.148  1.00  0.00     0.003 A 
ATOM     40  N   UNL A   1      33.180  19.711  26.286  1.00  0.00    -0.361 N 
ATOM     41  C   UNL A   1      33.034  18.897  25.195  1.00  0.00     0.046 A 
ATOM     42  C   UNL A   1      32.453  19.109  22.873  1.00  0.00     0.010 A 
ATOM     43  H   UNL A   1      33.529  19.421  27.160  1.00  0.00     0.166 HD
ATOM     44  C   UNL A   1      33.277  17.526  25.064  1.00  0.00     0.026 A 
ATOM     45  C   UNL A   1      32.743  17.745  22.710  1.00  0.00     0.001 A 
ATOM     46  C   UNL A   1      33.126  16.963  23.797  1.00  0.00     0.002 A 
ENDBRANCH  36  37
ENDBRANCH   5  36
ENDBRANCH   1   5
BRANCH   3  47
ATOM     47  C   UNL A   1      34.977  23.342  25.623  1.00  0.00     0.117 C 
BRANCH  47  48
ATOM     48  C   UNL A   1      36.372  22.897  26.041  1.00  0.00     0.042 C 
BRANCH  48  49
ATOM     49  C   UNL A   1      37.474  23.925  25.770  1.00  0.00     0.118 C 
BRANCH  49  50
ATOM     50  N   UNL A   1      38.810  23.408  26.069  1.00  0.00    -0.352 N 
ATOM     51  C   UNL A   1      39.826  23.959  26.832  1.00  0.00     0.251 C 
ATOM     52  H   UNL A   1      39.018  22.535  25.665  1.00  0.00     0.163 HD
ATOM     53  O   UNL A   1      40.871  23.370  27.024  1.00  0.00    -0.269 OA
BRANCH  51  54
ATOM     54  C   UNL A   1      39.567  25.238  27.534  1.00  0.00     0.039 A 
ATOM     55  C   UNL A   1      39.887  26.416  26.850  1.00  0.00     0.014 A 
ATOM     56  C   UNL A   1      39.206  25.275  28.877  1.00  0.00     0.014 A 
ATOM     57  C   UNL A   1      40.097  27.589  27.569  1.00  0.00     0.010 A 
ATOM     58  C   UNL A   1      39.449  26.432  29.599  1.00  0.00     0.010 A 
ATOM     59  C   UNL A   1      39.983  27.555  28.961  1.00  0.00    -0.014 A 
BRANCH  59  60
ATOM     60  C   UNL A   1      40.587  28.577  29.811  1.00  0.00     0.031 A 
ATOM     61  C   UNL A   1      39.770  29.591  30.496  1.00  0.00     0.074 A 
ATOM     62  C   UNL A   1      41.933  28.632  29.935  1.00  0.00     0.049 A 
ATOM     63  N   UNL A   1      40.143  30.816  30.668  1.00  0.00    -0.248 NA
ATOM     64  C   UNL A   1      38.443  29.304  31.023  1.00  0.00     0.031 C 
ATOM     65  C   UNL A   1      42.707  29.491  30.828  1.00  0.00     0.029 A 
ATOM     66  N   UNL A   1      42.878  28.089  29.066  1.00  0.00    -0.354 N 
ATOM     67  C   UNL A   1      39.257  31.395  31.542  1.00  0.00     0.074 A 
ATOM     68  C   UNL A   1      38.178  30.440  31.678  1.00  0.00     0.031 C 
ATOM     69  C   UNL A   1      43.937  29.646  30.315  1.00  0.00     0.029 A 
ATOM     70  C   UNL A   1      43.958  28.988  29.021  1.00  0.00     0.049 A 
ATOM     71  H   UNL A   1      42.803  27.239  28.576  1.00  0.00     0.167 HD
ATOM     72  C   UNL A   1      39.582  32.552  32.184  1.00  0.00     0.034 A 
ATOM     73  C   UNL A   1      44.369  29.550  27.850  1.00  0.00     0.034 A 
ATOM     74  C   UNL A   1      40.923  33.015  31.848  1.00  0.00     0.049 A 
ATOM     75  C   UNL A   1      44.326  31.058  27.855  1.00  0.00     0.074 A 
ATOM     76  C   UNL A   1      42.140  32.899  32.503  1.00  0.00     0.029 A 
ATOM     77  N   UNL A   1      41.209  33.464  30.565  1.00  0.00    -0.354 N 
ATOM     78  N   UNL A   1      43.651  31.772  28.714  1.00  0.00    -0.248 NA
ATOM     79  C   UNL A   1      45.022  31.879  26.872  1.00  0.00     0.031 C 
ATOM     80  C   UNL A   1      43.166  33.248  31.592  1.00  0.00     0.029 A 
ATOM     81  C   UNL A   1      42.574  33.600  30.390  1.00  0.00     0.049 A 
ATOM     82  H   UNL A   1      40.534  33.657  29.875  1.00  0.00     0.167 HD
ATOM     83  C   UNL A   1      43.783  33.106  28.409  1.00  0.00     0.074 A 
ATOM     84  C   UNL A   1      44.674  33.117  27.262  1.00  0.00     0.031 C 
ATOM     85  C   UNL A   1      43.131  34.071  29.129  1.00  0.00     0.034 A 
BRANCH  72  86
ATOM     86  C   UNL A   1      38.797  33.067  33.365  1.00  0.00     0.023 A 
ATOM     87  C   UNL A   1      38.958  32.468  34.630  1.00  0.00     0.031 A 
ATOM     88  C   UNL A   1      37.859  34.114  33.297  1.00  0.00     0.131 A 
ATOM     89  C   UNL A   1      38.143  32.824  35.717  1.00  0.00     0.055 A 
ATOM     90  C   UNL A   1      37.009  34.435  34.364  1.00  0.00     0.041 A 
ATOM     91  F   UNL A   1      37.746  34.876  32.197  1.00  0.00    -0.206 F 
ATOM     92  C   UNL A   1      37.137  33.776  35.580  1.00  0.00     0.022 A 
BRANCH  89  93
ATOM     93  S   UNL A   1      38.413  32.016  37.320  1.00  0.00     0.124 S 
ATOM     94  O   UNL A   1      39.867  31.905  37.371  1.00  0.00    -0.237 OA
ATOM     95  O   UNL A   1      37.805  32.962  38.248  1.00  0.00    -0.237 OA
ATOM     96  O   UNL A   1      37.704  30.745  37.182  1.00  0.00    -0.744 OA
ENDBRANCH  89  93
ENDBRANCH  72  86
BRANCH  73  97
ATOM     97  C   UNL A   1      44.140  28.685  26.659  1.00  0.00     0.023 A 
ATOM     98  C   UNL A   1      44.988  27.570  26.494  1.00  0.00     0.031 A 
ATOM     99  C   UNL A   1      42.936  28.706  25.944  1.00  0.00     0.131 A 
ATOM    100  C   UNL A   1      44.557  26.453  25.766  1.00  0.00     0.055 A 
ATOM    101  C   UNL A   1      42.540  27.615  25.160  1.00  0.00     0.041 A 
ATOM    102  F   UNL A   1      42.071  29.719  26.090  1.00  0.00    -0.206 F 
ATOM    103  C   UNL A   1      43.329  26.463  25.104  1.00  0.00     0.022 A 
BRANCH 100 104
ATOM    104  S   UNL A   1      45.493  24.910  25.932  1.00  0.00     0.124 S 
ATOM    105  O   UNL A   1      46.755  25.365  26.502  1.00  0.00    -0.237 OA
ATOM    106  O   UNL A   1      44.644  24.112  26.819  1.00  0.00    -0.237 OA
ATOM    107  O   UNL A   1      45.570  24.387  24.570  1.00  0.00    -0.744 OA
ENDBRANCH 100 104
ENDBRANCH  73  97
BRANCH  85 108
ATOM    108  C   UNL A   1      43.038  35.551  28.791  1.00  0.00     0.023 A 
ATOM    109  C   UNL A   1      43.542  36.575  29.606  1.00  0.00     0.031 A 
ATOM    110  C   UNL A   1      42.464  35.986  27.567  1.00  0.00     0.131 A 
ATOM    111  C   UNL A   1      43.400  37.932  29.257  1.00  0.00     0.055 A 
ATOM    112  C   UNL A   1      42.388  37.331  27.188  1.00  0.00     0.041 A 
ATOM    113  F   UNL A   1      41.961  35.124  26.671  1.00  0.00    -0.206 F 
ATOM    114  C   UNL A   1      42.843  38.319  28.043  1.00  0.00     0.022 A 
BRANCH 111 115
ATOM    115  S   UNL A   1      43.916  39.185  30.461  1.00  0.00     0.124 S 
ATOM    116  O   UNL A   1      42.904  40.222  30.268  1.00  0.00    -0.237 OA
ATOM    117  O   UNL A   1      43.841  38.457  31.723  1.00  0.00    -0.237 OA
ATOM    118  O   UNL A   1      45.265  39.546  30.030  1.00  0.00    -0.744 OA
ENDBRANCH 111 115
ENDBRANCH  85 108
ENDBRANCH  59  60
ENDBRANCH  51  54
ENDBRANCH  49  50
ENDBRANCH  48  49
ENDBRANCH  47  48
ENDBRANCH   3  47
TORSDOF 22
ENDMDL
MODEL 3
REMARK VINA RESULT:     -13.2      3.649      8.011
REMARK SMILES Cc1ccc(S(=O)(=O)n2cc(C(=O)C(=O)NCC(=O)N[C@H](Cc3c[nH]c4ccccc34)C(=O)NCCCNC(=O)c3ccc(-c4c5nc(c(-c6cc(S(=O)(=O)[O-])ccc6F)c6ccc([nH]6)c(-c6cc(S(=O)(=O)[O-])ccc6F)c6nc(c(-c7cc(S(=O)(=O)[O-])ccc7F)c7ccc4[nH]7)C=C6)C=C5)cc3)c3ccccc32)cc1
REMARK SMILES IDX 32 1 33 2 34 3 21 5 20 6 18 7 19 8 17 10 16 11 14 12 15 13
REMARK SMILES IDX 12 15 13 16 11 17 9 18 10 19 109 20 104 21 108 22 105 23
REMARK SMILES IDX 107 24 106 25 6 26 7 27 8 28 5 29 1 30 2 31 3 32 111 33 4 34
REMARK SMILES IDX 110 35 22 36 23 37 24 38 31 39 25 40 26 41 30 42 27 44 29 45
REMARK SMILES IDX 28 46 35 47 36 48 37 49 38 50 39 51 40 53 41 54 42 55 103 56
REMARK SMILES IDX 43 57 102 58 44 59 45 60 46 61 96 62 47 63 101 64 95 65
REMARK SMILES IDX 97 66 48 67 100 68 94 69 93 70 49 72 81 73 61 74 80 75 62 76
REMARK SMILES IDX 65 77 79 78 98 79 63 80 64 81 78 83 99 84 66 85 50 86 51 87
REMARK SMILES IDX 59 88 52 89 58 90 60 91 57 92 53 93 54 94 55 95 56 96 82 97
REMARK SMILES IDX 83 98 91 99 84 100 90 101 92 102 89 103 85 104 86 105 87 106
REMARK SMILES IDX 88 107 67 108 68 109 76 110 69 111 75 112 77 113 74 114
REMARK SMILES IDX 70 115 71 116 72 117 73 118
REMARK H PARENT 34 4 20 9 16 14 25 43 38 52 97 71 65 82
REMARK Flexibility Score: inf
ROOT
ATOM      1  C   UNL A   1      35.371  23.779  24.401  1.00  0.00     0.242 C 
ATOM      2  O   UNL A   1      35.707  23.265  23.326  1.00  0.00    -0.273 OA
ATOM      3  N   UNL A   1      34.670  24.935  24.350  1.00  0.00    -0.354 N 
ATOM      4  H   UNL A   1      34.481  25.230  23.430  1.00  0.00     0.163 HD
ENDROOT
BRANCH   1   5
ATOM      5  C   UNL A   1      35.784  23.074  25.708  1.00  0.00     0.175 C 
BRANCH   5   6
ATOM      6  N   UNL A   1      37.011  22.302  25.452  1.00  0.00    -0.342 N 
ATOM      7  C   UNL A   1      38.290  22.524  25.854  1.00  0.00     0.240 C 
ATOM      8  O   UNL A   1      39.137  21.726  25.430  1.00  0.00    -0.273 OA
ATOM      9  H   UNL A   1      36.884  21.497  24.902  1.00  0.00     0.164 HD
BRANCH   7  10
ATOM     10  C   UNL A   1      38.672  23.543  26.947  1.00  0.00     0.216 C 
BRANCH  10  11
ATOM     11  N   UNL A   1      39.093  24.897  26.607  1.00  0.00    -0.340 N 
ATOM     12  C   UNL A   1      40.368  25.436  26.629  1.00  0.00     0.292 C 
ATOM     13  O   UNL A   1      40.626  26.557  26.212  1.00  0.00    -0.265 OA
ATOM     14  H   UNL A   1      38.375  25.510  26.323  1.00  0.00     0.164 HD
BRANCH  12  15
ATOM     15  C   UNL A   1      41.510  24.602  27.201  1.00  0.00     0.252 C 
ATOM     16  O   UNL A   1      41.442  24.299  28.392  1.00  0.00    -0.283 OA
BRANCH  15  17
ATOM     17  C   UNL A   1      42.709  24.335  26.398  1.00  0.00     0.054 A 
ATOM     18  N   UNL A   1      44.194  23.858  24.764  1.00  0.00    -0.240 N 
ATOM     19  C   UNL A   1      42.840  24.037  25.039  1.00  0.00     0.117 A 
ATOM     20  C   UNL A   1      44.912  24.299  25.889  1.00  0.00     0.065 A 
ATOM     21  C   UNL A   1      44.019  24.258  26.955  1.00  0.00     0.012 A 
ATOM     22  C   UNL A   1      46.297  24.450  26.096  1.00  0.00     0.028 A 
ATOM     23  C   UNL A   1      44.533  24.188  28.268  1.00  0.00     0.011 A 
ATOM     24  C   UNL A   1      46.784  24.308  27.396  1.00  0.00     0.002 A 
ATOM     25  C   UNL A   1      45.915  24.139  28.465  1.00  0.00     0.001 A 
BRANCH  18  26
ATOM     26  S   UNL A   1      44.892  22.407  24.088  1.00  0.00     0.268 S 
ATOM     27  O   UNL A   1      46.323  22.656  24.161  1.00  0.00    -0.201 OA
ATOM     28  O   UNL A   1      44.225  22.299  22.794  1.00  0.00    -0.201 OA
BRANCH  26  29
ATOM     29  C   UNL A   1      44.669  20.789  24.733  1.00  0.00     0.088 A 
ATOM     30  C   UNL A   1      43.396  17.270  26.890  1.00  0.00     0.044 C 
ATOM     31  C   UNL A   1      43.847  18.459  26.091  1.00  0.00    -0.051 A 
ATOM     32  C   UNL A   1      42.988  19.547  26.019  1.00  0.00     0.005 A 
ATOM     33  C   UNL A   1      45.113  18.545  25.467  1.00  0.00     0.005 A 
ATOM     34  C   UNL A   1      43.392  20.682  25.341  1.00  0.00     0.022 A 
ATOM     35  C   UNL A   1      45.538  19.714  24.785  1.00  0.00     0.022 A 
ENDBRANCH  26  29
ENDBRANCH  18  26
ENDBRANCH  15  17
ENDBRANCH  12  15
ENDBRANCH  10  11
ENDBRANCH   7  10
ENDBRANCH   5   6
BRANCH   5  36
ATOM     36  C   UNL A   1      34.735  22.207  26.438  1.00  0.00     0.072 C 
BRANCH  36  37
ATOM     37  C   UNL A   1      33.650  21.485  25.685  1.00  0.00    -0.020 A 
ATOM     38  C   UNL A   1      32.367  21.895  25.392  1.00  0.00     0.087 A 
ATOM     39  C   UNL A   1      33.794  20.192  25.052  1.00  0.00     0.003 A 
ATOM     40  N   UNL A   1      31.786  20.990  24.551  1.00  0.00    -0.361 N 
ATOM     41  C   UNL A   1      32.650  19.962  24.288  1.00  0.00     0.046 A 
ATOM     42  C   UNL A   1      34.806  19.206  25.029  1.00  0.00     0.010 A 
ATOM     43  H   UNL A   1      30.874  21.066  24.186  1.00  0.00     0.166 HD
ATOM     44  C   UNL A   1      32.490  18.854  23.449  1.00  0.00     0.026 A 
ATOM     45  C   UNL A   1      34.642  18.061  24.234  1.00  0.00     0.001 A 
ATOM     46  C   UNL A   1      33.510  17.903  23.438  1.00  0.00     0.002 A 
ENDBRANCH  36  37
ENDBRANCH   5  36
ENDBRANCH   1   5
BRANCH   3  47
ATOM     47  C   UNL A   1      34.134  25.835  25.353  1.00  0.00     0.117 C 
BRANCH  47  48
ATOM     48  C   UNL A   1      33.959  27.265  24.862  1.00  0.00     0.042 C 
BRANCH  48  49
ATOM     49  C   UNL A   1      34.125  28.334  25.946  1.00  0.00     0.118 C 
BRANCH  49  50
ATOM     50  N   UNL A   1      33.075  29.352  25.897  1.00  0.00    -0.352 N 
ATOM     51  C   UNL A   1      32.870  30.457  26.707  1.00  0.00     0.251 C 
ATOM     52  H   UNL A   1      32.414  29.233  25.178  1.00  0.00     0.163 HD
ATOM     53  O   UNL A   1      31.967  31.241  26.497  1.00  0.00    -0.269 OA
BRANCH  51  54
ATOM     54  C   UNL A   1      33.862  30.749  27.768  1.00  0.00     0.039 A 
ATOM     55  C   UNL A   1      34.036  32.089  28.127  1.00  0.00     0.014 A 
ATOM     56  C   UNL A   1      34.722  29.768  28.254  1.00  0.00     0.014 A 
ATOM     57  C   UNL A   1      35.213  32.481  28.756  1.00  0.00     0.010 A 
ATOM     58  C   UNL A   1      35.909  30.161  28.848  1.00  0.00     0.010 A 
ATOM     59  C   UNL A   1      36.193  31.520  29.010  1.00  0.00    -0.014 A 
BRANCH  59  60
ATOM     60  C   UNL A   1      37.587  31.882  29.255  1.00  0.00     0.031 A 
ATOM     61  C   UNL A   1      38.683  30.927  29.024  1.00  0.00     0.074 A 
ATOM     62  C   UNL A   1      37.882  33.102  29.756  1.00  0.00     0.049 A 
ATOM     63  N   UNL A   1      39.738  30.852  29.765  1.00  0.00    -0.248 NA
ATOM     64  C   UNL A   1      38.662  29.956  27.937  1.00  0.00     0.031 C 
ATOM     65  C   UNL A   1      39.206  33.688  29.947  1.00  0.00     0.029 A 
ATOM     66  N   UNL A   1      37.020  33.957  30.443  1.00  0.00    -0.354 N 
ATOM     67  C   UNL A   1      40.636  30.039  29.121  1.00  0.00     0.074 A 
ATOM     68  C   UNL A   1      39.896  29.449  28.026  1.00  0.00     0.031 C 
ATOM     69  C   UNL A   1      39.129  34.623  30.906  1.00  0.00     0.029 A 
ATOM     70  C   UNL A   1      37.780  34.590  31.442  1.00  0.00     0.049 A 
ATOM     71  H   UNL A   1      36.061  34.091  30.264  1.00  0.00     0.167 HD
ATOM     72  C   UNL A   1      41.952  30.053  29.474  1.00  0.00     0.034 A 
ATOM     73  C   UNL A   1      37.452  34.487  32.760  1.00  0.00     0.034 A 
ATOM     74  C   UNL A   1      42.232  31.016  30.533  1.00  0.00     0.049 A 
ATOM     75  C   UNL A   1      38.546  33.895  33.613  1.00  0.00     0.074 A 
ATOM     76  C   UNL A   1      42.743  32.304  30.509  1.00  0.00     0.029 A 
ATOM     77  N   UNL A   1      41.729  30.816  31.813  1.00  0.00    -0.354 N 
ATOM     78  N   UNL A   1      39.559  33.219  33.143  1.00  0.00    -0.248 NA
ATOM     79  C   UNL A   1      38.568  33.996  35.067  1.00  0.00     0.031 C 
ATOM     80  C   UNL A   1      42.513  32.893  31.776  1.00  0.00     0.029 A 
ATOM     81  C   UNL A   1      41.883  31.957  32.579  1.00  0.00     0.049 A 
ATOM     82  H   UNL A   1      41.319  29.979  32.131  1.00  0.00     0.167 HD
ATOM     83  C   UNL A   1      40.340  32.777  34.185  1.00  0.00     0.074 A 
ATOM     84  C   UNL A   1      39.688  33.316  35.366  1.00  0.00     0.031 C 
ATOM     85  C   UNL A   1      41.446  31.999  33.969  1.00  0.00     0.034 A 
BRANCH  72  86
ATOM     86  C   UNL A   1      43.023  29.424  28.618  1.00  0.00     0.023 A 
ATOM     87  C   UNL A   1      44.040  30.227  28.064  1.00  0.00     0.031 A 
ATOM     88  C   UNL A   1      43.074  28.057  28.290  1.00  0.00     0.131 A 
ATOM     89  C   UNL A   1      44.969  29.703  27.150  1.00  0.00     0.055 A 
ATOM     90  C   UNL A   1      43.966  27.542  27.339  1.00  0.00     0.041 A 
ATOM     91  F   UNL A   1      42.271  27.166  28.895  1.00  0.00    -0.206 F 
ATOM     92  C   UNL A   1      44.910  28.371  26.749  1.00  0.00     0.022 A 
BRANCH  89  93
ATOM     93  S   UNL A   1      46.256  30.794  26.483  1.00  0.00     0.124 S 
ATOM     94  O   UNL A   1      45.540  31.521  25.440  1.00  0.00    -0.237 OA
ATOM     95  O   UNL A   1      46.643  31.568  27.657  1.00  0.00    -0.237 OA
ATOM     96  O   UNL A   1      47.272  29.862  25.996  1.00  0.00    -0.744 OA
ENDBRANCH  89  93
ENDBRANCH  72  86
BRANCH  73  97
ATOM     97  C   UNL A   1      35.990  34.327  33.001  1.00  0.00     0.023 A 
ATOM     98  C   UNL A   1      35.202  35.498  33.012  1.00  0.00     0.031 A 
ATOM     99  C   UNL A   1      35.338  33.099  32.838  1.00  0.00     0.131 A 
ATOM    100  C   UNL A   1      33.836  35.436  32.705  1.00  0.00     0.055 A 
ATOM    101  C   UNL A   1      33.958  33.036  32.601  1.00  0.00     0.041 A 
ATOM    102  F   UNL A   1      36.036  31.956  32.780  1.00  0.00    -0.206 F 
ATOM    103  C   UNL A   1      33.208  34.209  32.488  1.00  0.00     0.022 A 
BRANCH 100 104
ATOM    104  S   UNL A   1      32.974  36.985  32.325  1.00  0.00     0.124 S 
ATOM    105  O   UNL A   1      33.919  37.994  32.785  1.00  0.00    -0.237 OA
ATOM    106  O   UNL A   1      32.785  36.901  30.875  1.00  0.00    -0.237 OA
ATOM    107  O   UNL A   1      31.728  36.897  33.083  1.00  0.00    -0.744 OA
ENDBRANCH 100 104
ENDBRANCH  73  97
BRANCH  85 108
ATOM    108  C   UNL A   1      42.283  31.293  35.024  1.00  0.00     0.023 A 
ATOM    109  C   UNL A   1      42.238  29.913  35.268  1.00  0.00     0.031 A 
ATOM    110  C   UNL A   1      43.226  32.010  35.807  1.00  0.00     0.131 A 
ATOM    111  C   UNL A   1      43.015  29.317  36.280  1.00  0.00     0.055 A 
ATOM    112  C   UNL A   1      44.050  31.405  36.764  1.00  0.00     0.041 A 
ATOM    113  F   UNL A   1      43.404  33.332  35.672  1.00  0.00    -0.206 F 
ATOM    114  C   UNL A   1      43.937  30.050  37.019  1.00  0.00     0.022 A 
BRANCH 111 115
ATOM    115  S   UNL A   1      42.748  27.561  36.644  1.00  0.00     0.124 S 
ATOM    116  O   UNL A   1      41.303  27.514  36.854  1.00  0.00    -0.237 OA
ATOM    117  O   UNL A   1      43.232  26.913  35.430  1.00  0.00    -0.237 OA
ATOM    118  O   UNL A   1      43.557  27.328  37.838  1.00  0.00    -0.744 OA
ENDBRANCH 111 115
ENDBRANCH  85 108
ENDBRANCH  59  60
ENDBRANCH  51  54
ENDBRANCH  49  50
ENDBRANCH  48  49
ENDBRANCH  47  48
ENDBRANCH   3  47
TORSDOF 22
ENDMDL
