MODEL 1
REMARK VINA RESULT:     -11.8      0.000      0.000
REMARK SMILES CCn1cc(/C=C/c2cc(C(=O)NCCCNC(=O)c3ccc(-c4c5nc(c(-c6cc(S(=O)(=O)[O-])ccc6F)c6ccc([nH]6)c(-c6cc(S(=O)(=O)[O-])ccc6F)c6nc(c(-c7cc(S(=O)(=O)[O-])ccc7F)c7ccc4[nH]7)C=C6)C=C5)cc3)ncn2)cn1
REMARK SMILES IDX 15 1 14 2 13 3 11 4 12 5 10 7 8 8 9 9 85 10 84 11 83 12 7 13
REMARK SMILES IDX 6 14 5 15 3 16 4 17 87 18 86 19 2 20 1 21 16 22 17 23 18 24
REMARK SMILES IDX 19 26 20 27 21 28 82 29 22 30 81 31 23 32 24 33 25 34 75 35
REMARK SMILES IDX 26 36 80 37 74 38 76 39 27 40 79 41 73 42 72 43 28 45 60 46
REMARK SMILES IDX 40 47 59 48 41 49 44 50 58 51 77 52 42 53 43 54 57 56 78 57
REMARK SMILES IDX 45 58 29 59 30 60 38 61 31 62 37 63 39 64 36 65 32 66 33 67
REMARK SMILES IDX 34 68 35 69 61 70 62 71 70 72 63 73 69 74 71 75 68 76 64 77
REMARK SMILES IDX 65 78 66 79 67 80 46 81 47 82 55 83 48 84 54 85 56 86 53 87
REMARK SMILES IDX 49 88 50 89 51 90 52 91
REMARK H PARENT 13 6 17 25 76 44 44 55
REMARK Flexibility Score: inf
ROOT
ATOM      1  C   UNL A   1      43.996  24.765  25.114  1.00  0.00     0.042 C 
ENDROOT
BRANCH   1   2
ATOM      2  C   UNL A   1      43.472  23.386  25.553  1.00  0.00     0.118 C 
BRANCH   2   3
ATOM      3  N   UNL A   1      43.149  23.344  26.975  1.00  0.00    -0.351 N 
ATOM      4  C   UNL A   1      42.387  22.468  27.727  1.00  0.00     0.270 C 
ATOM      5  O   UNL A   1      42.376  22.622  28.947  1.00  0.00    -0.268 OA
ATOM      6  H   UNL A   1      43.549  24.077  27.498  1.00  0.00     0.163 HD
BRANCH   4   7
ATOM      7  C   UNL A   1      41.621  21.331  27.115  1.00  0.00     0.132 A 
ATOM      8  C   UNL A   1      39.808  20.450  25.931  1.00  0.00     0.067 A 
ATOM      9  C   UNL A   1      40.329  21.475  26.680  1.00  0.00     0.062 A 
ATOM     10  N   UNL A   1      40.424  19.268  25.788  1.00  0.00    -0.237 NA
ATOM     11  C   UNL A   1      41.636  19.178  26.359  1.00  0.00     0.223 A 
ATOM     12  N   UNL A   1      42.288  20.164  26.985  1.00  0.00    -0.231 NA
BRANCH   8  13
ATOM     13  C   UNL A   1      38.541  20.642  25.219  1.00  0.00     0.029 C 
ATOM     14  C   UNL A   1      37.914  21.834  25.195  1.00  0.00     0.013 C 
BRANCH  14  15
ATOM     15  C   UNL A   1      36.668  22.108  24.565  1.00  0.00     0.013 A 
ATOM     16  N   UNL A   1      34.532  22.098  24.069  1.00  0.00    -0.272 N 
ATOM     17  C   UNL A   1      35.456  21.564  24.927  1.00  0.00     0.116 A 
ATOM     18  N   UNL A   1      35.069  22.953  23.177  1.00  0.00    -0.181 NA
ATOM     19  C   UNL A   1      36.371  22.940  23.469  1.00  0.00     0.143 A 
BRANCH  16  20
ATOM     20  C   UNL A   1      33.096  21.895  24.096  1.00  0.00     0.141 C 
ATOM     21  C   UNL A   1      32.690  20.437  23.952  1.00  0.00     0.029 C 
ENDBRANCH  16  20
ENDBRANCH  14  15
ENDBRANCH   8  13
ENDBRANCH   4   7
ENDBRANCH   2   3
ENDBRANCH   1   2
BRANCH   1  22
ATOM     22  C   UNL A   1      42.937  25.836  25.248  1.00  0.00     0.118 C 
BRANCH  22  23
ATOM     23  N   UNL A   1      41.570  25.294  25.246  1.00  0.00    -0.352 N 
ATOM     24  C   UNL A   1      40.510  25.566  26.115  1.00  0.00     0.251 C 
ATOM     25  H   UNL A   1      41.374  24.647  24.530  1.00  0.00     0.163 HD
ATOM     26  O   UNL A   1      39.576  24.798  26.204  1.00  0.00    -0.269 OA
BRANCH  24  27
ATOM     27  C   UNL A   1      40.558  26.812  26.910  1.00  0.00     0.039 A 
ATOM     28  C   UNL A   1      40.519  28.109  26.385  1.00  0.00     0.014 A 
ATOM     29  C   UNL A   1      40.593  26.647  28.271  1.00  0.00     0.014 A 
ATOM     30  C   UNL A   1      40.532  29.182  27.286  1.00  0.00     0.010 A 
ATOM     31  C   UNL A   1      39.986  27.616  28.985  1.00  0.00     0.010 A 
ATOM     32  C   UNL A   1      40.320  28.896  28.631  1.00  0.00    -0.014 A 
BRANCH  32  33
ATOM     33  C   UNL A   1      40.339  29.824  29.746  1.00  0.00     0.031 A 
ATOM     34  C   UNL A   1      39.048  30.494  29.989  1.00  0.00     0.074 A 
ATOM     35  C   UNL A   1      41.327  29.776  30.676  1.00  0.00     0.049 A 
ATOM     36  N   UNL A   1      38.748  31.717  29.715  1.00  0.00    -0.248 NA
ATOM     37  C   UNL A   1      37.886  29.672  30.368  1.00  0.00     0.031 C 
ATOM     38  C   UNL A   1      42.498  28.890  30.751  1.00  0.00     0.029 A 
ATOM     39  N   UNL A   1      41.417  30.456  31.847  1.00  0.00    -0.354 N 
ATOM     40  C   UNL A   1      37.432  31.883  30.126  1.00  0.00     0.074 A 
ATOM     41  C   UNL A   1      36.894  30.556  30.240  1.00  0.00     0.031 C 
ATOM     42  C   UNL A   1      43.032  28.936  31.996  1.00  0.00     0.029 A 
ATOM     43  C   UNL A   1      42.335  29.953  32.765  1.00  0.00     0.049 A 
ATOM     44  H   UNL A   1      40.869  31.253  32.035  1.00  0.00     0.167 HD
ATOM     45  C   UNL A   1      36.982  33.086  30.582  1.00  0.00     0.034 A 
ATOM     46  C   UNL A   1      42.462  30.322  34.072  1.00  0.00     0.034 A 
ATOM     47  C   UNL A   1      37.990  34.106  30.377  1.00  0.00     0.049 A 
ATOM     48  C   UNL A   1      41.839  31.675  34.174  1.00  0.00     0.074 A 
ATOM     49  C   UNL A   1      38.623  34.619  29.261  1.00  0.00     0.029 A 
ATOM     50  N   UNL A   1      38.812  34.415  31.445  1.00  0.00    -0.354 N 
ATOM     51  N   UNL A   1      42.307  32.719  33.537  1.00  0.00    -0.248 NA
ATOM     52  C   UNL A   1      40.417  31.752  34.496  1.00  0.00     0.031 C 
ATOM     53  C   UNL A   1      39.994  34.725  29.640  1.00  0.00     0.029 A 
ATOM     54  C   UNL A   1      40.112  34.392  30.994  1.00  0.00     0.049 A 
ATOM     55  H   UNL A   1      38.518  34.614  32.364  1.00  0.00     0.167 HD
ATOM     56  C   UNL A   1      41.195  33.352  32.995  1.00  0.00     0.074 A 
ATOM     57  C   UNL A   1      40.052  32.767  33.700  1.00  0.00     0.031 C 
ATOM     58  C   UNL A   1      41.265  34.041  31.812  1.00  0.00     0.034 A 
BRANCH  45  59
ATOM     59  C   UNL A   1      35.806  33.313  31.503  1.00  0.00     0.023 A 
ATOM     60  C   UNL A   1      34.863  34.277  31.099  1.00  0.00     0.031 A 
ATOM     61  C   UNL A   1      35.669  32.839  32.825  1.00  0.00     0.131 A 
ATOM     62  C   UNL A   1      33.919  34.794  32.001  1.00  0.00     0.055 A 
ATOM     63  C   UNL A   1      34.684  33.307  33.702  1.00  0.00     0.041 A 
ATOM     64  F   UNL A   1      36.519  31.972  33.382  1.00  0.00    -0.206 F 
ATOM     65  C   UNL A   1      33.823  34.314  33.303  1.00  0.00     0.022 A 
BRANCH  62  66
ATOM     66  S   UNL A   1      32.940  36.228  31.491  1.00  0.00     0.124 S 
ATOM     67  O   UNL A   1      33.817  37.334  31.858  1.00  0.00    -0.237 OA
ATOM     68  O   UNL A   1      32.773  35.982  30.063  1.00  0.00    -0.237 OA
ATOM     69  O   UNL A   1      31.723  36.106  32.291  1.00  0.00    -0.744 OA
ENDBRANCH  62  66
ENDBRANCH  45  59
BRANCH  46  70
ATOM     70  C   UNL A   1      42.744  29.415  35.232  1.00  0.00     0.023 A 
ATOM     71  C   UNL A   1      42.043  28.213  35.490  1.00  0.00     0.031 A 
ATOM     72  C   UNL A   1      43.903  29.636  36.017  1.00  0.00     0.131 A 
ATOM     73  C   UNL A   1      42.498  27.316  36.494  1.00  0.00     0.055 A 
ATOM     74  C   UNL A   1      44.342  28.752  37.005  1.00  0.00     0.041 A 
ATOM     75  F   UNL A   1      44.703  30.690  35.793  1.00  0.00    -0.206 F 
ATOM     76  C   UNL A   1      43.645  27.581  37.244  1.00  0.00     0.022 A 
BRANCH  73  77
ATOM     77  S   UNL A   1      41.649  25.725  36.791  1.00  0.00     0.124 S 
ATOM     78  O   UNL A   1      42.692  24.929  37.427  1.00  0.00    -0.237 OA
ATOM     79  O   UNL A   1      40.527  26.118  37.636  1.00  0.00    -0.237 OA
ATOM     80  O   UNL A   1      41.271  25.279  35.449  1.00  0.00    -0.744 OA
ENDBRANCH  73  77
ENDBRANCH  46  70
BRANCH  58  81
ATOM     81  C   UNL A   1      42.635  34.278  31.185  1.00  0.00     0.023 A 
ATOM     82  C   UNL A   1      43.196  33.500  30.143  1.00  0.00     0.031 A 
ATOM     83  C   UNL A   1      43.322  35.448  31.553  1.00  0.00     0.131 A 
ATOM     84  C   UNL A   1      44.398  33.902  29.520  1.00  0.00     0.055 A 
ATOM     85  C   UNL A   1      44.496  35.857  30.918  1.00  0.00     0.041 A 
ATOM     86  F   UNL A   1      42.832  36.249  32.514  1.00  0.00    -0.206 F 
ATOM     87  C   UNL A   1      45.041  35.083  29.901  1.00  0.00     0.022 A 
BRANCH  84  88
ATOM     88  S   UNL A   1      45.158  32.886  28.208  1.00  0.00     0.124 S 
ATOM     89  O   UNL A   1      45.264  33.808  27.084  1.00  0.00    -0.237 OA
ATOM     90  O   UNL A   1      46.419  32.470  28.815  1.00  0.00    -0.237 OA
ATOM     91  O   UNL A   1      44.192  31.803  28.015  1.00  0.00    -0.744 OA
ENDBRANCH  84  88
ENDBRANCH  58  81
ENDBRANCH  32  33
ENDBRANCH  24  27
ENDBRANCH  22  23
ENDBRANCH   1  22
TORSDOF 16
ENDMDL
MODEL 2
REMARK VINA RESULT:     -11.7      4.515     12.022
REMARK SMILES CCn1cc(/C=C/c2cc(C(=O)NCCCNC(=O)c3ccc(-c4c5nc(c(-c6cc(S(=O)(=O)[O-])ccc6F)c6ccc([nH]6)c(-c6cc(S(=O)(=O)[O-])ccc6F)c6nc(c(-c7cc(S(=O)(=O)[O-])ccc7F)c7ccc4[nH]7)C=C6)C=C5)cc3)ncn2)cn1
REMARK SMILES IDX 15 1 14 2 13 3 11 4 12 5 10 7 8 8 9 9 85 10 84 11 83 12 7 13
REMARK SMILES IDX 6 14 5 15 3 16 4 17 87 18 86 19 2 20 1 21 16 22 17 23 18 24
REMARK SMILES IDX 19 26 20 27 21 28 82 29 22 30 81 31 23 32 24 33 25 34 75 35
REMARK SMILES IDX 26 36 80 37 74 38 76 39 27 40 79 41 73 42 72 43 28 45 60 46
REMARK SMILES IDX 40 47 59 48 41 49 44 50 58 51 77 52 42 53 43 54 57 56 78 57
REMARK SMILES IDX 45 58 29 59 30 60 38 61 31 62 37 63 39 64 36 65 32 66 33 67
REMARK SMILES IDX 34 68 35 69 61 70 62 71 70 72 63 73 69 74 71 75 68 76 64 77
REMARK SMILES IDX 65 78 66 79 67 80 46 81 47 82 55 83 48 84 54 85 56 86 53 87
REMARK SMILES IDX 49 88 50 89 51 90 52 91
REMARK H PARENT 13 6 17 25 76 44 44 55
REMARK Flexibility Score: inf
ROOT
ATOM      1  C   UNL A   1      35.734  32.065  31.405  1.00  0.00     0.042 C 
ENDROOT
BRANCH   1   2
ATOM      2  C   UNL A   1      36.272  31.608  32.773  1.00  0.00     0.118 C 
BRANCH   2   3
ATOM      3  N   UNL A   1      36.570  30.181  32.801  1.00  0.00    -0.351 N 
ATOM      4  C   UNL A   1      37.699  29.477  33.185  1.00  0.00     0.270 C 
ATOM      5  O   UNL A   1      37.628  28.250  33.202  1.00  0.00    -0.268 OA
ATOM      6  H   UNL A   1      35.831  29.611  32.488  1.00  0.00     0.163 HD
BRANCH   4   7
ATOM      7  C   UNL A   1      38.968  30.155  33.614  1.00  0.00     0.132 A 
ATOM      8  C   UNL A   1      40.692  31.706  33.323  1.00  0.00     0.067 A 
ATOM      9  C   UNL A   1      39.687  30.956  32.766  1.00  0.00     0.062 A 
ATOM     10  N   UNL A   1      41.114  31.534  34.583  1.00  0.00    -0.237 NA
ATOM     11  C   UNL A   1      40.427  30.632  35.302  1.00  0.00     0.223 A 
ATOM     12  N   UNL A   1      39.346  29.958  34.895  1.00  0.00    -0.231 NA
BRANCH   8  13
ATOM     13  C   UNL A   1      41.326  32.769  32.538  1.00  0.00     0.029 C 
ATOM     14  C   UNL A   1      41.171  32.853  31.201  1.00  0.00     0.013 C 
BRANCH  14  15
ATOM     15  C   UNL A   1      41.774  33.823  30.352  1.00  0.00     0.013 A 
ATOM     16  N   UNL A   1      42.051  35.454  28.914  1.00  0.00    -0.272 N 
ATOM     17  C   UNL A   1      41.093  34.710  29.548  1.00  0.00     0.116 A 
ATOM     18  N   UNL A   1      43.306  35.107  29.257  1.00  0.00    -0.181 NA
ATOM     19  C   UNL A   1      43.133  34.100  30.117  1.00  0.00     0.143 A 
BRANCH  16  20
ATOM     20  C   UNL A   1      41.834  36.576  28.020  1.00  0.00     0.141 C 
ATOM     21  C   UNL A   1      42.696  37.784  28.348  1.00  0.00     0.029 C 
ENDBRANCH  16  20
ENDBRANCH  14  15
ENDBRANCH   8  13
ENDBRANCH   4   7
ENDBRANCH   2   3
ENDBRANCH   1   2
BRANCH   1  22
ATOM     22  C   UNL A   1      36.580  31.542  30.266  1.00  0.00     0.118 C 
BRANCH  22  23
ATOM     23  N   UNL A   1      35.835  30.662  29.355  1.00  0.00    -0.352 N 
ATOM     24  C   UNL A   1      36.314  29.672  28.493  1.00  0.00     0.251 C 
ATOM     25  H   UNL A   1      34.859  30.788  29.351  1.00  0.00     0.163 HD
ATOM     26  O   UNL A   1      35.637  29.282  27.566  1.00  0.00    -0.269 OA
BRANCH  24  27
ATOM     27  C   UNL A   1      37.660  29.112  28.749  1.00  0.00     0.039 A 
ATOM     28  C   UNL A   1      37.979  28.211  29.772  1.00  0.00     0.014 A 
ATOM     29  C   UNL A   1      38.637  29.487  27.864  1.00  0.00     0.014 A 
ATOM     30  C   UNL A   1      39.299  27.747  29.847  1.00  0.00     0.010 A 
ATOM     31  C   UNL A   1      39.595  28.566  27.638  1.00  0.00     0.010 A 
ATOM     32  C   UNL A   1      40.134  27.999  28.762  1.00  0.00    -0.014 A 
BRANCH  32  33
ATOM     33  C   UNL A   1      41.539  27.665  28.631  1.00  0.00     0.031 A 
ATOM     34  C   UNL A   1      41.794  26.456  27.825  1.00  0.00     0.074 A 
ATOM     35  C   UNL A   1      42.502  28.582  28.902  1.00  0.00     0.049 A 
ATOM     36  N   UNL A   1      42.146  25.296  28.260  1.00  0.00    -0.248 NA
ATOM     37  C   UNL A   1      41.406  26.461  26.404  1.00  0.00     0.031 C 
ATOM     38  C   UNL A   1      42.366  29.971  29.370  1.00  0.00     0.029 A 
ATOM     39  N   UNL A   1      43.839  28.490  28.692  1.00  0.00    -0.354 N 
ATOM     40  C   UNL A   1      42.267  24.492  27.135  1.00  0.00     0.074 A 
ATOM     41  C   UNL A   1      41.539  25.169  26.098  1.00  0.00     0.031 C 
ATOM     42  C   UNL A   1      43.532  30.636  29.184  1.00  0.00     0.029 A 
ATOM     43  C   UNL A   1      44.536  29.695  28.719  1.00  0.00     0.049 A 
ATOM     44  H   UNL A   1      44.287  27.628  28.529  1.00  0.00     0.167 HD
ATOM     45  C   UNL A   1      43.170  23.472  27.090  1.00  0.00     0.034 A 
ATOM     46  C   UNL A   1      45.830  29.894  28.335  1.00  0.00     0.034 A 
ATOM     47  C   UNL A   1      43.772  23.281  28.395  1.00  0.00     0.049 A 
ATOM     48  C   UNL A   1      46.483  28.552  28.397  1.00  0.00     0.074 A 
ATOM     49  C   UNL A   1      43.273  22.958  29.643  1.00  0.00     0.029 A 
ATOM     50  N   UNL A   1      44.997  23.878  28.627  1.00  0.00    -0.354 N 
ATOM     51  N   UNL A   1      46.618  27.884  29.515  1.00  0.00    -0.248 NA
ATOM     52  C   UNL A   1      46.461  27.723  27.196  1.00  0.00     0.031 C 
ATOM     53  C   UNL A   1      43.953  23.833  30.541  1.00  0.00     0.029 A 
ATOM     54  C   UNL A   1      44.914  24.554  29.822  1.00  0.00     0.049 A 
ATOM     55  H   UNL A   1      45.786  23.827  28.041  1.00  0.00     0.167 HD
ATOM     56  C   UNL A   1      46.253  26.578  29.213  1.00  0.00     0.074 A 
ATOM     57  C   UNL A   1      46.260  26.518  27.748  1.00  0.00     0.031 C 
ATOM     58  C   UNL A   1      45.663  25.762  30.143  1.00  0.00     0.034 A 
BRANCH  45  59
ATOM     59  C   UNL A   1      43.774  22.863  25.848  1.00  0.00     0.023 A 
ATOM     60  C   UNL A   1      43.836  21.457  25.798  1.00  0.00     0.031 A 
ATOM     61  C   UNL A   1      44.491  23.542  24.839  1.00  0.00     0.131 A 
ATOM     62  C   UNL A   1      44.647  20.797  24.860  1.00  0.00     0.055 A 
ATOM     63  C   UNL A   1      45.243  22.880  23.863  1.00  0.00     0.041 A 
ATOM     64  F   UNL A   1      44.586  24.874  24.782  1.00  0.00    -0.206 F 
ATOM     65  C   UNL A   1      45.352  21.501  23.889  1.00  0.00     0.022 A 
BRANCH  62  66
ATOM     66  S   UNL A   1      44.898  19.014  25.046  1.00  0.00     0.124 S 
ATOM     67  O   UNL A   1      46.230  18.961  25.638  1.00  0.00    -0.237 OA
ATOM     68  O   UNL A   1      43.789  18.647  25.919  1.00  0.00    -0.237 OA
ATOM     69  O   UNL A   1      44.804  18.516  23.676  1.00  0.00    -0.744 OA
ENDBRANCH  62  66
ENDBRANCH  45  59
BRANCH  46  70
ATOM     70  C   UNL A   1      46.367  31.078  27.587  1.00  0.00     0.023 A 
ATOM     71  C   UNL A   1      45.561  32.024  26.912  1.00  0.00     0.031 A 
ATOM     72  C   UNL A   1      47.738  31.411  27.714  1.00  0.00     0.131 A 
ATOM     73  C   UNL A   1      46.133  33.219  26.395  1.00  0.00     0.055 A 
ATOM     74  C   UNL A   1      48.295  32.585  27.200  1.00  0.00     0.041 A 
ATOM     75  F   UNL A   1      48.579  30.639  28.420  1.00  0.00    -0.206 F 
ATOM     76  C   UNL A   1      47.492  33.500  26.544  1.00  0.00     0.022 A 
BRANCH  73  77
ATOM     77  S   UNL A   1      45.095  34.488  25.587  1.00  0.00     0.124 S 
ATOM     78  O   UNL A   1      43.746  34.043  25.914  1.00  0.00    -0.237 OA
ATOM     79  O   UNL A   1      45.546  35.718  26.226  1.00  0.00    -0.237 OA
ATOM     80  O   UNL A   1      45.451  34.373  24.171  1.00  0.00    -0.744 OA
ENDBRANCH  73  77
ENDBRANCH  46  70
BRANCH  58  81
ATOM     81  C   UNL A   1      45.589  26.239  31.590  1.00  0.00     0.023 A 
ATOM     82  C   UNL A   1      44.490  26.924  32.163  1.00  0.00     0.031 A 
ATOM     83  C   UNL A   1      46.613  25.828  32.460  1.00  0.00     0.131 A 
ATOM     84  C   UNL A   1      44.451  27.176  33.552  1.00  0.00     0.055 A 
ATOM     85  C   UNL A   1      46.560  26.055  33.837  1.00  0.00     0.041 A 
ATOM     86  F   UNL A   1      47.672  25.148  31.991  1.00  0.00    -0.206 F 
ATOM     87  C   UNL A   1      45.480  26.733  34.387  1.00  0.00     0.022 A 
BRANCH  84  88
ATOM     88  S   UNL A   1      43.064  28.098  34.298  1.00  0.00     0.124 S 
ATOM     89  O   UNL A   1      42.490  27.144  35.240  1.00  0.00    -0.237 OA
ATOM     90  O   UNL A   1      43.730  29.256  34.887  1.00  0.00    -0.237 OA
ATOM     91  O   UNL A   1      42.208  28.410  33.152  1.00  0.00    -0.744 OA
ENDBRANCH  84  88
ENDBRANCH  58  81
ENDBRANCH  32  33
ENDBRANCH  24  27
ENDBRANCH  22  23
ENDBRANCH   1  22
TORSDOF 16
ENDMDL
MODEL 3
REMARK VINA RESULT:     -11.7      6.621     13.226
REMARK SMILES CCn1cc(/C=C/c2cc(C(=O)NCCCNC(=O)c3ccc(-c4c5nc(c(-c6cc(S(=O)(=O)[O-])ccc6F)c6ccc([nH]6)c(-c6cc(S(=O)(=O)[O-])ccc6F)c6nc(c(-c7cc(S(=O)(=O)[O-])ccc7F)c7ccc4[nH]7)C=C6)C=C5)cc3)ncn2)cn1
REMARK SMILES IDX 15 1 14 2 13 3 11 4 12 5 10 7 8 8 9 9 85 10 84 11 83 12 7 13
REMARK SMILES IDX 6 14 5 15 3 16 4 17 87 18 86 19 2 20 1 21 16 22 17 23 18 24
REMARK SMILES IDX 19 26 20 27 21 28 82 29 22 30 81 31 23 32 24 33 25 34 75 35
REMARK SMILES IDX 26 36 80 37 74 38 76 39 27 40 79 41 73 42 72 43 28 45 60 46
REMARK SMILES IDX 40 47 59 48 41 49 44 50 58 51 77 52 42 53 43 54 57 56 78 57
REMARK SMILES IDX 45 58 29 59 30 60 38 61 31 62 37 63 39 64 36 65 32 66 33 67
REMARK SMILES IDX 34 68 35 69 61 70 62 71 70 72 63 73 69 74 71 75 68 76 64 77
REMARK SMILES IDX 65 78 66 79 67 80 46 81 47 82 55 83 48 84 54 85 56 86 53 87
REMARK SMILES IDX 49 88 50 89 51 90 52 91
REMARK H PARENT 13 6 17 25 76 44 44 55
REMARK Flexibility Score: inf
ROOT
ATOM      1  C   UNL A   1      44.330  39.495  27.443  1.00  0.00     0.042 C 
ENDROOT
BRANCH   1   2
ATOM      2  C   UNL A   1      43.187  38.906  26.598  1.00  0.00     0.118 C 
BRANCH   2   3
ATOM      3  N   UNL A   1      41.954  39.676  26.722  1.00  0.00    -0.351 N 
ATOM      4  C   UNL A   1      41.496  40.806  26.067  1.00  0.00     0.270 C 
ATOM      5  O   UNL A   1      40.351  41.182  26.309  1.00  0.00    -0.268 OA
ATOM      6  H   UNL A   1      41.331  39.327  27.400  1.00  0.00     0.163 HD
BRANCH   4   7
ATOM      7  C   UNL A   1      42.325  41.547  25.058  1.00  0.00     0.132 A 
ATOM      8  C   UNL A   1      42.584  42.784  23.092  1.00  0.00     0.067 A 
ATOM      9  C   UNL A   1      41.826  41.915  23.836  1.00  0.00     0.062 A 
ATOM     10  N   UNL A   1      43.842  43.111  23.415  1.00  0.00    -0.237 NA
ATOM     11  C   UNL A   1      44.292  42.597  24.572  1.00  0.00     0.223 A 
ATOM     12  N   UNL A   1      43.583  41.860  25.435  1.00  0.00    -0.231 NA
BRANCH   8  13
ATOM     13  C   UNL A   1      42.004  43.420  21.905  1.00  0.00     0.029 C 
ATOM     14  C   UNL A   1      42.461  43.159  20.665  1.00  0.00     0.013 C 
BRANCH  14  15
ATOM     15  C   UNL A   1      41.989  43.752  19.461  1.00  0.00     0.013 A 
ATOM     16  N   UNL A   1      41.905  44.874  17.578  1.00  0.00    -0.272 N 
ATOM     17  C   UNL A   1      42.745  44.514  18.597  1.00  0.00     0.116 A 
ATOM     18  N   UNL A   1      40.655  44.393  17.726  1.00  0.00    -0.181 NA
ATOM     19  C   UNL A   1      40.706  43.728  18.883  1.00  0.00     0.143 A 
BRANCH  16  20
ATOM     20  C   UNL A   1      42.253  45.616  16.382  1.00  0.00     0.141 C 
ATOM     21  C   UNL A   1      41.736  47.046  16.387  1.00  0.00     0.029 C 
ENDBRANCH  16  20
ENDBRANCH  14  15
ENDBRANCH   8  13
ENDBRANCH   4   7
ENDBRANCH   2   3
ENDBRANCH   1   2
BRANCH   1  22
ATOM     22  C   UNL A   1      44.841  38.504  28.464  1.00  0.00     0.118 C 
BRANCH  22  23
ATOM     23  N   UNL A   1      45.511  37.346  27.855  1.00  0.00    -0.352 N 
ATOM     24  C   UNL A   1      45.325  35.984  28.105  1.00  0.00     0.251 C 
ATOM     25  H   UNL A   1      46.188  37.561  27.173  1.00  0.00     0.163 HD
ATOM     26  O   UNL A   1      46.177  35.179  27.793  1.00  0.00    -0.269 OA
BRANCH  24  27
ATOM     27  C   UNL A   1      44.064  35.556  28.750  1.00  0.00     0.039 A 
ATOM     28  C   UNL A   1      42.780  35.945  28.352  1.00  0.00     0.014 A 
ATOM     29  C   UNL A   1      44.199  34.667  29.785  1.00  0.00     0.014 A 
ATOM     30  C   UNL A   1      41.688  35.412  29.049  1.00  0.00     0.010 A 
ATOM     31  C   UNL A   1      43.184  33.791  29.928  1.00  0.00     0.010 A 
ATOM     32  C   UNL A   1      41.931  34.343  29.907  1.00  0.00    -0.014 A 
BRANCH  32  33
ATOM     33  C   UNL A   1      40.979  33.664  30.765  1.00  0.00     0.031 A 
ATOM     34  C   UNL A   1      41.361  33.652  32.190  1.00  0.00     0.074 A 
ATOM     35  C   UNL A   1      39.714  33.416  30.343  1.00  0.00     0.049 A 
ATOM     36  N   UNL A   1      41.815  32.650  32.860  1.00  0.00    -0.248 NA
ATOM     37  C   UNL A   1      41.468  34.936  32.903  1.00  0.00     0.031 C 
ATOM     38  C   UNL A   1      39.084  33.716  29.048  1.00  0.00     0.029 A 
ATOM     39  N   UNL A   1      38.665  32.935  31.058  1.00  0.00    -0.354 N 
ATOM     40  C   UNL A   1      42.024  33.122  34.149  1.00  0.00     0.074 A 
ATOM     41  C   UNL A   1      42.068  34.553  34.032  1.00  0.00     0.031 C 
ATOM     42  C   UNL A   1      37.736  33.622  29.159  1.00  0.00     0.029 A 
ATOM     43  C   UNL A   1      37.410  33.122  30.483  1.00  0.00     0.049 A 
ATOM     44  H   UNL A   1      38.783  32.485  31.926  1.00  0.00     0.167 HD
ATOM     45  C   UNL A   1      41.885  32.305  35.231  1.00  0.00     0.034 A 
ATOM     46  C   UNL A   1      36.203  32.922  31.086  1.00  0.00     0.034 A 
ATOM     47  C   UNL A   1      41.700  30.934  34.801  1.00  0.00     0.049 A 
ATOM     48  C   UNL A   1      36.467  31.995  32.226  1.00  0.00     0.074 A 
ATOM     49  C   UNL A   1      42.464  30.048  34.066  1.00  0.00     0.029 A 
ATOM     50  N   UNL A   1      40.404  30.458  34.726  1.00  0.00    -0.354 N 
ATOM     51  N   UNL A   1      36.905  30.772  32.057  1.00  0.00    -0.248 NA
ATOM     52  C   UNL A   1      36.795  32.580  33.523  1.00  0.00     0.031 C 
ATOM     53  C   UNL A   1      41.538  29.420  33.181  1.00  0.00     0.029 A 
ATOM     54  C   UNL A   1      40.248  29.858  33.497  1.00  0.00     0.049 A 
ATOM     55  H   UNL A   1      39.717  30.535  35.427  1.00  0.00     0.167 HD
ATOM     56  C   UNL A   1      37.913  30.606  32.998  1.00  0.00     0.074 A 
ATOM     57  C   UNL A   1      37.734  31.718  33.937  1.00  0.00     0.031 C 
ATOM     58  C   UNL A   1      38.991  29.794  32.762  1.00  0.00     0.034 A 
BRANCH  45  59
ATOM     59  C   UNL A   1      41.578  32.735  36.646  1.00  0.00     0.023 A 
ATOM     60  C   UNL A   1      40.883  33.949  36.802  1.00  0.00     0.031 A 
ATOM     61  C   UNL A   1      42.110  32.179  37.830  1.00  0.00     0.131 A 
ATOM     62  C   UNL A   1      40.822  34.598  38.046  1.00  0.00     0.055 A 
ATOM     63  C   UNL A   1      41.989  32.794  39.080  1.00  0.00     0.041 A 
ATOM     64  F   UNL A   1      42.850  31.066  37.845  1.00  0.00    -0.206 F 
ATOM     65  C   UNL A   1      41.372  34.027  39.189  1.00  0.00     0.022 A 
BRANCH  62  66
ATOM     66  S   UNL A   1      40.165  36.283  38.103  1.00  0.00     0.124 S 
ATOM     67  O   UNL A   1      38.994  36.119  38.958  1.00  0.00    -0.237 OA
ATOM     68  O   UNL A   1      41.285  37.021  38.676  1.00  0.00    -0.237 OA
ATOM     69  O   UNL A   1      39.875  36.580  36.701  1.00  0.00    -0.744 OA
ENDBRANCH  62  66
ENDBRANCH  45  59
BRANCH  46  70
ATOM     70  C   UNL A   1      34.979  33.776  30.937  1.00  0.00     0.023 A 
ATOM     71  C   UNL A   1      34.584  34.769  31.864  1.00  0.00     0.031 A 
ATOM     72  C   UNL A   1      34.268  33.756  29.711  1.00  0.00     0.131 A 
ATOM     73  C   UNL A   1      33.525  35.664  31.553  1.00  0.00     0.055 A 
ATOM     74  C   UNL A   1      33.224  34.636  29.413  1.00  0.00     0.041 A 
ATOM     75  F   UNL A   1      34.620  32.926  28.717  1.00  0.00    -0.206 F 
ATOM     76  C   UNL A   1      32.852  35.601  30.331  1.00  0.00     0.022 A 
BRANCH  73  77
ATOM     77  S   UNL A   1      33.050  36.999  32.706  1.00  0.00     0.124 S 
ATOM     78  O   UNL A   1      33.998  36.821  33.798  1.00  0.00    -0.237 OA
ATOM     79  O   UNL A   1      33.218  38.196  31.889  1.00  0.00    -0.237 OA
ATOM     80  O   UNL A   1      31.660  36.686  33.044  1.00  0.00    -0.744 OA
ENDBRANCH  73  77
ENDBRANCH  46  70
BRANCH  58  81
ATOM     81  C   UNL A   1      38.980  28.908  31.521  1.00  0.00     0.023 A 
ATOM     82  C   UNL A   1      39.540  29.259  30.268  1.00  0.00     0.031 A 
ATOM     83  C   UNL A   1      38.528  27.586  31.673  1.00  0.00     0.131 A 
ATOM     84  C   UNL A   1      39.623  28.305  29.231  1.00  0.00     0.055 A 
ATOM     85  C   UNL A   1      38.635  26.637  30.655  1.00  0.00     0.041 A 
ATOM     86  F   UNL A   1      38.012  27.175  32.843  1.00  0.00    -0.206 F 
ATOM     87  C   UNL A   1      39.180  26.994  29.428  1.00  0.00     0.022 A 
BRANCH  84  88
ATOM     88  S   UNL A   1      40.299  28.754  27.596  1.00  0.00     0.124 S 
ATOM     89  O   UNL A   1      41.515  29.489  27.922  1.00  0.00    -0.237 OA
ATOM     90  O   UNL A   1      40.488  27.454  26.959  1.00  0.00    -0.237 OA
ATOM     91  O   UNL A   1      39.238  29.570  27.002  1.00  0.00    -0.744 OA
ENDBRANCH  84  88
ENDBRANCH  58  81
ENDBRANCH  32  33
ENDBRANCH  24  27
ENDBRANCH  22  23
ENDBRANCH   1  22
TORSDOF 16
ENDMDL
