MODEL 1
REMARK VINA RESULT:     -12.4      0.000      0.000
REMARK SMILES Nc1ccc(C(=O)NC[C@@H]2CC[C@@H](C(=O)NCCCNC(=O)c3ccc(-c4c5nc(c(-c6cc(S(=O)(=O)[O-])ccc6F)c6ccc([nH]6)c(-c6cc(S(=O)(=O)[O-])ccc6F)c6nc(c(-c7cc(S(=O)(=O)[O-])ccc7F)c7ccc4[nH]7)C=C6)C=C5)cc3)O2)cc1Cl
REMARK SMILES IDX 17 1 16 2 14 3 15 4 13 6 10 7 11 8 86 9 12 10 9 11 8 12 6 13
REMARK SMILES IDX 7 14 5 16 2 17 3 18 88 19 4 20 87 21 89 22 1 23 18 26 19 27
REMARK SMILES IDX 20 28 21 29 22 31 23 32 24 33 85 34 25 35 84 36 26 37 27 38
REMARK SMILES IDX 28 39 78 40 29 41 83 42 77 43 79 44 30 45 82 46 76 47 75 48
REMARK SMILES IDX 31 50 63 51 43 52 62 53 44 54 47 55 61 56 80 57 45 58 46 59
REMARK SMILES IDX 60 61 81 62 48 63 32 64 33 65 41 66 34 67 40 68 42 69 39 70
REMARK SMILES IDX 35 71 36 72 37 73 38 74 64 75 65 76 73 77 66 78 72 79 74 80
REMARK SMILES IDX 71 81 67 82 68 83 69 84 70 85 49 86 50 87 58 88 51 89 57 90
REMARK SMILES IDX 59 91 56 92 52 93 53 94 54 95 55 96
REMARK H PARENT 16 5 8 15 1 24 1 25 20 30 79 49 47 60
REMARK Flexibility Score: inf
ROOT
ATOM      1  C   UNL A   1      31.438  29.105  24.690  1.00  0.00     0.117 C 
ENDROOT
BRANCH   1   2
ATOM      2  N   UNL A   1      32.538  29.219  23.749  1.00  0.00    -0.354 N 
ATOM      3  C   UNL A   1      33.301  28.244  23.176  1.00  0.00     0.249 C 
ATOM      4  O   UNL A   1      34.170  28.600  22.375  1.00  0.00    -0.272 OA
ATOM      5  H   UNL A   1      32.766  30.138  23.483  1.00  0.00     0.163 HD
BRANCH   3   6
ATOM      6  C   UNL A   1      33.116  26.769  23.587  1.00  0.00     0.207 C 
ATOM      7  C   UNL A   1      31.444  25.273  22.924  1.00  0.00     0.138 C 
ATOM      8  C   UNL A   1      32.782  24.618  22.638  1.00  0.00     0.037 C 
ATOM      9  O   UNL A   1      31.749  26.376  23.789  1.00  0.00    -0.363 OA
ATOM     10  C   UNL A   1      33.685  25.821  22.533  1.00  0.00     0.045 C 
BRANCH   7  11
ATOM     11  C   UNL A   1      30.342  24.387  23.533  1.00  0.00     0.148 C 
BRANCH  11  12
ATOM     12  N   UNL A   1      30.313  24.367  24.986  1.00  0.00    -0.349 N 
ATOM     13  C   UNL A   1      30.990  23.722  25.981  1.00  0.00     0.251 C 
ATOM     14  O   UNL A   1      30.587  23.963  27.124  1.00  0.00    -0.269 OA
ATOM     15  H   UNL A   1      29.628  24.977  25.347  1.00  0.00     0.163 HD
BRANCH  13  16
ATOM     16  C   UNL A   1      32.146  22.790  25.814  1.00  0.00     0.041 A 
ATOM     17  C   UNL A   1      34.521  21.243  25.513  1.00  0.00     0.050 A 
ATOM     18  C   UNL A   1      33.259  20.689  25.287  1.00  0.00     0.028 A 
ATOM     19  C   UNL A   1      34.582  22.593  25.886  1.00  0.00     0.064 A 
ATOM     20  C   UNL A   1      32.084  21.446  25.449  1.00  0.00     0.016 A 
ATOM     21  C   UNL A   1      33.417  23.349  26.041  1.00  0.00     0.036 A 
ATOM     22  Cl  UNL A   1      36.104  23.366  26.172  1.00  0.00    -0.082 Cl
BRANCH  17  23
ATOM     23  N   UNL A   1      35.660  20.490  25.269  1.00  0.00    -0.398 N 
ATOM     24  H   UNL A   1      35.880  20.214  24.350  1.00  0.00     0.156 HD
ATOM     25  H   UNL A   1      36.249  20.233  26.016  1.00  0.00     0.156 HD
ENDBRANCH  17  23
ENDBRANCH  13  16
ENDBRANCH  11  12
ENDBRANCH   7  11
ENDBRANCH   3   6
ENDBRANCH   1   2
BRANCH   1  26
ATOM     26  C   UNL A   1      31.110  30.426  25.373  1.00  0.00     0.042 C 
BRANCH  26  27
ATOM     27  C   UNL A   1      32.063  30.816  26.498  1.00  0.00     0.118 C 
BRANCH  27  28
ATOM     28  N   UNL A   1      32.017  32.236  26.819  1.00  0.00    -0.352 N 
ATOM     29  C   UNL A   1      32.889  33.019  27.540  1.00  0.00     0.251 C 
ATOM     30  H   UNL A   1      31.233  32.713  26.462  1.00  0.00     0.163 HD
ATOM     31  O   UNL A   1      32.567  34.165  27.826  1.00  0.00    -0.269 OA
BRANCH  29  32
ATOM     32  C   UNL A   1      34.187  32.473  28.002  1.00  0.00     0.039 A 
ATOM     33  C   UNL A   1      35.298  33.321  28.040  1.00  0.00     0.014 A 
ATOM     34  C   UNL A   1      34.315  31.140  28.398  1.00  0.00     0.014 A 
ATOM     35  C   UNL A   1      36.505  32.862  28.574  1.00  0.00     0.010 A 
ATOM     36  C   UNL A   1      35.496  30.707  29.000  1.00  0.00     0.010 A 
ATOM     37  C   UNL A   1      36.596  31.569  29.114  1.00  0.00    -0.014 A 
BRANCH  37  38
ATOM     38  C   UNL A   1      37.808  31.118  29.847  1.00  0.00     0.031 A 
ATOM     39  C   UNL A   1      38.727  30.092  29.245  1.00  0.00     0.074 A 
ATOM     40  C   UNL A   1      38.029  31.571  31.099  1.00  0.00     0.049 A 
ATOM     41  N   UNL A   1      39.757  29.489  29.780  1.00  0.00    -0.248 NA
ATOM     42  C   UNL A   1      38.431  29.671  27.868  1.00  0.00     0.031 C 
ATOM     43  C   UNL A   1      37.191  32.544  31.805  1.00  0.00     0.029 A 
ATOM     44  N   UNL A   1      39.009  31.261  32.009  1.00  0.00    -0.354 N 
ATOM     45  C   UNL A   1      40.229  28.609  28.811  1.00  0.00     0.074 A 
ATOM     46  C   UNL A   1      39.336  28.723  27.676  1.00  0.00     0.031 C 
ATOM     47  C   UNL A   1      37.701  32.761  33.027  1.00  0.00     0.029 A 
ATOM     48  C   UNL A   1      38.864  31.901  33.218  1.00  0.00     0.049 A 
ATOM     49  H   UNL A   1      39.746  30.638  31.815  1.00  0.00     0.167 HD
ATOM     50  C   UNL A   1      41.314  27.797  28.860  1.00  0.00     0.034 A 
ATOM     51  C   UNL A   1      39.569  31.791  34.362  1.00  0.00     0.034 A 
ATOM     52  C   UNL A   1      42.196  27.699  29.998  1.00  0.00     0.049 A 
ATOM     53  C   UNL A   1      40.737  30.839  34.410  1.00  0.00     0.074 A 
ATOM     54  C   UNL A   1      43.358  26.958  30.127  1.00  0.00     0.029 A 
ATOM     55  N   UNL A   1      42.007  28.349  31.212  1.00  0.00    -0.354 N 
ATOM     56  N   UNL A   1      41.201  30.054  33.465  1.00  0.00    -0.248 NA
ATOM     57  C   UNL A   1      41.476  30.761  35.676  1.00  0.00     0.031 C 
ATOM     58  C   UNL A   1      43.827  27.098  31.438  1.00  0.00     0.029 A 
ATOM     59  C   UNL A   1      43.004  27.989  32.107  1.00  0.00     0.049 A 
ATOM     60  H   UNL A   1      41.271  28.973  31.409  1.00  0.00     0.167 HD
ATOM     61  C   UNL A   1      42.300  29.403  34.019  1.00  0.00     0.074 A 
ATOM     62  C   UNL A   1      42.440  29.905  35.372  1.00  0.00     0.031 C 
ATOM     63  C   UNL A   1      43.119  28.477  33.462  1.00  0.00     0.034 A 
BRANCH  50  64
ATOM     64  C   UNL A   1      41.588  26.928  27.656  1.00  0.00     0.023 A 
ATOM     65  C   UNL A   1      41.253  25.563  27.637  1.00  0.00     0.031 A 
ATOM     66  C   UNL A   1      42.206  27.467  26.514  1.00  0.00     0.131 A 
ATOM     67  C   UNL A   1      41.600  24.770  26.532  1.00  0.00     0.055 A 
ATOM     68  C   UNL A   1      42.477  26.691  25.385  1.00  0.00     0.041 A 
ATOM     69  F   UNL A   1      42.569  28.759  26.479  1.00  0.00    -0.206 F 
ATOM     70  C   UNL A   1      42.187  25.329  25.396  1.00  0.00     0.022 A 
BRANCH  67  71
ATOM     71  S   UNL A   1      41.399  22.971  26.659  1.00  0.00     0.124 S 
ATOM     72  O   UNL A   1      39.946  22.842  26.734  1.00  0.00    -0.237 OA
ATOM     73  O   UNL A   1      42.021  22.497  25.428  1.00  0.00    -0.237 OA
ATOM     74  O   UNL A   1      42.111  22.633  27.889  1.00  0.00    -0.744 OA
ENDBRANCH  67  71
ENDBRANCH  50  64
BRANCH  51  75
ATOM     75  C   UNL A   1      39.176  32.573  35.570  1.00  0.00     0.023 A 
ATOM     76  C   UNL A   1      39.644  33.882  35.767  1.00  0.00     0.031 A 
ATOM     77  C   UNL A   1      38.362  32.007  36.568  1.00  0.00     0.131 A 
ATOM     78  C   UNL A   1      39.335  34.564  36.954  1.00  0.00     0.055 A 
ATOM     79  C   UNL A   1      38.012  32.709  37.722  1.00  0.00     0.041 A 
ATOM     80  F   UNL A   1      37.882  30.760  36.428  1.00  0.00    -0.206 F 
ATOM     81  C   UNL A   1      38.510  33.992  37.926  1.00  0.00     0.022 A 
BRANCH  78  82
ATOM     82  S   UNL A   1      40.099  36.182  37.249  1.00  0.00     0.124 S 
ATOM     83  O   UNL A   1      41.453  35.804  37.636  1.00  0.00    -0.237 OA
ATOM     84  O   UNL A   1      39.959  36.823  35.947  1.00  0.00    -0.237 OA
ATOM     85  O   UNL A   1      39.281  36.755  38.316  1.00  0.00    -0.744 OA
ENDBRANCH  78  82
ENDBRANCH  51  75
BRANCH  63  86
ATOM     86  C   UNL A   1      44.256  27.967  34.314  1.00  0.00     0.023 A 
ATOM     87  C   UNL A   1      44.109  26.839  35.140  1.00  0.00     0.031 A 
ATOM     88  C   UNL A   1      45.498  28.627  34.310  1.00  0.00     0.131 A 
ATOM     89  C   UNL A   1      45.169  26.435  35.966  1.00  0.00     0.055 A 
ATOM     90  C   UNL A   1      46.568  28.184  35.088  1.00  0.00     0.041 A 
ATOM     91  F   UNL A   1      45.693  29.713  33.544  1.00  0.00    -0.206 F 
ATOM     92  C   UNL A   1      46.403  27.089  35.932  1.00  0.00     0.022 A 
BRANCH  89  93
ATOM     93  S   UNL A   1      44.885  25.092  37.152  1.00  0.00     0.124 S 
ATOM     94  O   UNL A   1      45.129  23.909  36.334  1.00  0.00    -0.237 OA
ATOM     95  O   UNL A   1      45.879  25.370  38.184  1.00  0.00    -0.237 OA
ATOM     96  O   UNL A   1      43.496  25.287  37.563  1.00  0.00    -0.744 OA
ENDBRANCH  89  93
ENDBRANCH  63  86
ENDBRANCH  37  38
ENDBRANCH  29  32
ENDBRANCH  27  28
ENDBRANCH  26  27
ENDBRANCH   1  26
TORSDOF 17
ENDMDL
MODEL 2
REMARK VINA RESULT:     -12.3      4.714     10.721
REMARK SMILES Nc1ccc(C(=O)NC[C@@H]2CC[C@@H](C(=O)NCCCNC(=O)c3ccc(-c4c5nc(c(-c6cc(S(=O)(=O)[O-])ccc6F)c6ccc([nH]6)c(-c6cc(S(=O)(=O)[O-])ccc6F)c6nc(c(-c7cc(S(=O)(=O)[O-])ccc7F)c7ccc4[nH]7)C=C6)C=C5)cc3)O2)cc1Cl
REMARK SMILES IDX 17 1 16 2 14 3 15 4 13 6 10 7 11 8 86 9 12 10 9 11 8 12 6 13
REMARK SMILES IDX 7 14 5 16 2 17 3 18 88 19 4 20 87 21 89 22 1 23 18 26 19 27
REMARK SMILES IDX 20 28 21 29 22 31 23 32 24 33 85 34 25 35 84 36 26 37 27 38
REMARK SMILES IDX 28 39 78 40 29 41 83 42 77 43 79 44 30 45 82 46 76 47 75 48
REMARK SMILES IDX 31 50 63 51 43 52 62 53 44 54 47 55 61 56 80 57 45 58 46 59
REMARK SMILES IDX 60 61 81 62 48 63 32 64 33 65 41 66 34 67 40 68 42 69 39 70
REMARK SMILES IDX 35 71 36 72 37 73 38 74 64 75 65 76 73 77 66 78 72 79 74 80
REMARK SMILES IDX 71 81 67 82 68 83 69 84 70 85 49 86 50 87 58 88 51 89 57 90
REMARK SMILES IDX 59 91 56 92 52 93 53 94 54 95 55 96
REMARK H PARENT 16 5 8 15 1 24 1 25 20 30 79 49 47 60
REMARK Flexibility Score: inf
ROOT
ATOM      1  C   UNL A   1      32.951  34.252  28.266  1.00  0.00     0.117 C 
ENDROOT
BRANCH   1   2
ATOM      2  N   UNL A   1      33.072  35.693  28.392  1.00  0.00    -0.354 N 
ATOM      3  C   UNL A   1      33.189  36.465  29.511  1.00  0.00     0.249 C 
ATOM      4  O   UNL A   1      33.307  37.683  29.351  1.00  0.00    -0.272 OA
ATOM      5  H   UNL A   1      33.071  36.188  27.541  1.00  0.00     0.163 HD
BRANCH   3   6
ATOM      6  C   UNL A   1      33.098  35.824  30.911  1.00  0.00     0.207 C 
ATOM      7  C   UNL A   1      34.683  35.859  32.632  1.00  0.00     0.138 C 
ATOM      8  C   UNL A   1      33.373  36.363  33.208  1.00  0.00     0.037 C 
ATOM      9  O   UNL A   1      34.328  35.250  31.382  1.00  0.00    -0.363 OA
ATOM     10  C   UNL A   1      32.667  36.843  31.964  1.00  0.00     0.045 C 
BRANCH   7  11
ATOM     11  C   UNL A   1      35.506  34.889  33.499  1.00  0.00     0.148 C 
BRANCH  11  12
ATOM     12  N   UNL A   1      35.508  33.512  33.036  1.00  0.00    -0.349 N 
ATOM     13  C   UNL A   1      36.266  32.754  32.190  1.00  0.00     0.251 C 
ATOM     14  O   UNL A   1      35.865  31.596  32.030  1.00  0.00    -0.269 OA
ATOM     15  H   UNL A   1      34.774  32.991  33.435  1.00  0.00     0.163 HD
BRANCH  13  16
ATOM     16  C   UNL A   1      37.505  33.184  31.475  1.00  0.00     0.041 A 
ATOM     17  C   UNL A   1      39.960  34.107  30.361  1.00  0.00     0.050 A 
ATOM     18  C   UNL A   1      38.915  33.665  29.548  1.00  0.00     0.028 A 
ATOM     19  C   UNL A   1      39.760  34.090  31.748  1.00  0.00     0.064 A 
ATOM     20  C   UNL A   1      37.707  33.195  30.095  1.00  0.00     0.016 A 
ATOM     21  C   UNL A   1      38.559  33.630  32.293  1.00  0.00     0.036 A 
ATOM     22  Cl  UNL A   1      40.996  34.633  32.830  1.00  0.00    -0.082 Cl
BRANCH  17  23
ATOM     23  N   UNL A   1      41.107  34.636  29.785  1.00  0.00    -0.398 N 
ATOM     24  H   UNL A   1      41.761  35.116  30.344  1.00  0.00     0.156 HD
ATOM     25  H   UNL A   1      41.265  34.532  28.819  1.00  0.00     0.156 HD
ENDBRANCH  17  23
ENDBRANCH  13  16
ENDBRANCH  11  12
ENDBRANCH   7  11
ENDBRANCH   3   6
ENDBRANCH   1   2
BRANCH   1  26
ATOM     26  C   UNL A   1      34.288  33.569  28.011  1.00  0.00     0.042 C 
BRANCH  26  27
ATOM     27  C   UNL A   1      34.531  32.312  28.841  1.00  0.00     0.118 C 
BRANCH  27  28
ATOM     28  N   UNL A   1      34.088  31.094  28.177  1.00  0.00    -0.352 N 
ATOM     29  C   UNL A   1      34.774  29.940  27.875  1.00  0.00     0.251 C 
ATOM     30  H   UNL A   1      33.143  31.097  27.900  1.00  0.00     0.163 HD
ATOM     31  O   UNL A   1      34.243  29.098  27.161  1.00  0.00    -0.269 OA
BRANCH  29  32
ATOM     32  C   UNL A   1      36.155  29.732  28.371  1.00  0.00     0.039 A 
ATOM     33  C   UNL A   1      36.336  29.198  29.650  1.00  0.00     0.014 A 
ATOM     34  C   UNL A   1      37.265  30.055  27.588  1.00  0.00     0.014 A 
ATOM     35  C   UNL A   1      37.623  28.890  30.099  1.00  0.00     0.010 A 
ATOM     36  C   UNL A   1      38.540  29.677  28.005  1.00  0.00     0.010 A 
ATOM     37  C   UNL A   1      38.730  29.071  29.256  1.00  0.00    -0.014 A 
BRANCH  37  38
ATOM     38  C   UNL A   1      40.084  28.587  29.638  1.00  0.00     0.031 A 
ATOM     39  C   UNL A   1      40.879  29.300  30.695  1.00  0.00     0.074 A 
ATOM     40  C   UNL A   1      40.630  27.555  28.962  1.00  0.00     0.049 A 
ATOM     41  N   UNL A   1      42.116  29.103  31.074  1.00  0.00    -0.248 NA
ATOM     42  C   UNL A   1      40.202  30.397  31.400  1.00  0.00     0.031 C 
ATOM     43  C   UNL A   1      39.970  26.801  27.893  1.00  0.00     0.029 A 
ATOM     44  N   UNL A   1      41.870  26.971  29.057  1.00  0.00    -0.354 N 
ATOM     45  C   UNL A   1      42.371  30.055  32.055  1.00  0.00     0.074 A 
ATOM     46  C   UNL A   1      41.173  30.862  32.172  1.00  0.00     0.031 C 
ATOM     47  C   UNL A   1      40.803  25.850  27.444  1.00  0.00     0.029 A 
ATOM     48  C   UNL A   1      42.077  25.960  28.147  1.00  0.00     0.049 A 
ATOM     49  H   UNL A   1      42.547  27.251  29.715  1.00  0.00     0.167 HD
ATOM     50  C   UNL A   1      43.492  30.228  32.798  1.00  0.00     0.034 A 
ATOM     51  C   UNL A   1      43.175  25.223  27.886  1.00  0.00     0.034 A 
ATOM     52  C   UNL A   1      44.676  29.411  32.671  1.00  0.00     0.049 A 
ATOM     53  C   UNL A   1      44.427  25.471  28.687  1.00  0.00     0.074 A 
ATOM     54  C   UNL A   1      45.840  29.458  33.418  1.00  0.00     0.029 A 
ATOM     55  N   UNL A   1      44.855  28.409  31.726  1.00  0.00    -0.354 N 
ATOM     56  N   UNL A   1      44.633  26.342  29.648  1.00  0.00    -0.248 NA
ATOM     57  C   UNL A   1      45.593  24.637  28.369  1.00  0.00     0.031 C 
ATOM     58  C   UNL A   1      46.748  28.543  32.878  1.00  0.00     0.029 A 
ATOM     59  C   UNL A   1      46.127  27.865  31.842  1.00  0.00     0.049 A 
ATOM     60  H   UNL A   1      44.179  28.126  31.067  1.00  0.00     0.167 HD
ATOM     61  C   UNL A   1      45.946  26.144  30.064  1.00  0.00     0.074 A 
ATOM     62  C   UNL A   1      46.476  25.059  29.263  1.00  0.00     0.031 C 
ATOM     63  C   UNL A   1      46.652  26.799  31.020  1.00  0.00     0.034 A 
BRANCH  50  64
ATOM     64  C   UNL A   1      43.500  31.363  33.794  1.00  0.00     0.023 A 
ATOM     65  C   UNL A   1      42.887  31.245  35.054  1.00  0.00     0.031 A 
ATOM     66  C   UNL A   1      44.118  32.585  33.476  1.00  0.00     0.131 A 
ATOM     67  C   UNL A   1      42.843  32.350  35.918  1.00  0.00     0.055 A 
ATOM     68  C   UNL A   1      44.140  33.656  34.372  1.00  0.00     0.041 A 
ATOM     69  F   UNL A   1      44.702  32.765  32.280  1.00  0.00    -0.206 F 
ATOM     70  C   UNL A   1      43.486  33.547  35.596  1.00  0.00     0.022 A 
BRANCH  67  71
ATOM     71  S   UNL A   1      41.812  32.245  37.407  1.00  0.00     0.124 S 
ATOM     72  O   UNL A   1      42.523  31.235  38.186  1.00  0.00    -0.237 OA
ATOM     73  O   UNL A   1      41.866  33.607  37.924  1.00  0.00    -0.237 OA
ATOM     74  O   UNL A   1      40.511  31.823  36.894  1.00  0.00    -0.744 OA
ENDBRANCH  67  71
ENDBRANCH  50  64
BRANCH  51  75
ATOM     75  C   UNL A   1      43.158  24.202  26.798  1.00  0.00     0.023 A 
ATOM     76  C   UNL A   1      42.509  22.970  26.973  1.00  0.00     0.031 A 
ATOM     77  C   UNL A   1      43.831  24.427  25.583  1.00  0.00     0.131 A 
ATOM     78  C   UNL A   1      42.585  21.991  25.970  1.00  0.00     0.055 A 
ATOM     79  C   UNL A   1      43.857  23.471  24.567  1.00  0.00     0.041 A 
ATOM     80  F   UNL A   1      44.464  25.590  25.361  1.00  0.00    -0.206 F 
ATOM     81  C   UNL A   1      43.242  22.239  24.763  1.00  0.00     0.022 A 
BRANCH  78  82
ATOM     82  S   UNL A   1      41.882  20.353  26.304  1.00  0.00     0.124 S 
ATOM     83  O   UNL A   1      42.334  20.109  27.668  1.00  0.00    -0.237 OA
ATOM     84  O   UNL A   1      40.455  20.597  26.133  1.00  0.00    -0.237 OA
ATOM     85  O   UNL A   1      42.495  19.507  25.282  1.00  0.00    -0.744 OA
ENDBRANCH  78  82
ENDBRANCH  51  75
BRANCH  63  86
ATOM     86  C   UNL A   1      48.068  26.336  31.264  1.00  0.00     0.023 A 
ATOM     87  C   UNL A   1      49.138  26.789  30.473  1.00  0.00     0.031 A 
ATOM     88  C   UNL A   1      48.347  25.419  32.293  1.00  0.00     0.131 A 
ATOM     89  C   UNL A   1      50.429  26.285  30.690  1.00  0.00     0.055 A 
ATOM     90  C   UNL A   1      49.644  24.968  32.544  1.00  0.00     0.041 A 
ATOM     91  F   UNL A   1      47.363  24.949  33.077  1.00  0.00    -0.206 F 
ATOM     92  C   UNL A   1      50.692  25.392  31.732  1.00  0.00     0.022 A 
BRANCH  89  93
ATOM     93  S   UNL A   1      51.749  26.748  29.535  1.00  0.00     0.124 S 
ATOM     94  O   UNL A   1      51.411  25.960  28.355  1.00  0.00    -0.237 OA
ATOM     95  O   UNL A   1      51.566  28.191  29.412  1.00  0.00    -0.237 OA
ATOM     96  O   UNL A   1      52.970  26.337  30.227  1.00  0.00    -0.744 OA
ENDBRANCH  89  93
ENDBRANCH  63  86
ENDBRANCH  37  38
ENDBRANCH  29  32
ENDBRANCH  27  28
ENDBRANCH  26  27
ENDBRANCH   1  26
TORSDOF 17
ENDMDL
MODEL 3
REMARK VINA RESULT:     -12.2      2.434      3.136
REMARK SMILES Nc1ccc(C(=O)NC[C@@H]2CC[C@@H](C(=O)NCCCNC(=O)c3ccc(-c4c5nc(c(-c6cc(S(=O)(=O)[O-])ccc6F)c6ccc([nH]6)c(-c6cc(S(=O)(=O)[O-])ccc6F)c6nc(c(-c7cc(S(=O)(=O)[O-])ccc7F)c7ccc4[nH]7)C=C6)C=C5)cc3)O2)cc1Cl
REMARK SMILES IDX 17 1 16 2 14 3 15 4 13 6 10 7 11 8 86 9 12 10 9 11 8 12 6 13
REMARK SMILES IDX 7 14 5 16 2 17 3 18 88 19 4 20 87 21 89 22 1 23 18 26 19 27
REMARK SMILES IDX 20 28 21 29 22 31 23 32 24 33 85 34 25 35 84 36 26 37 27 38
REMARK SMILES IDX 28 39 78 40 29 41 83 42 77 43 79 44 30 45 82 46 76 47 75 48
REMARK SMILES IDX 31 50 63 51 43 52 62 53 44 54 47 55 61 56 80 57 45 58 46 59
REMARK SMILES IDX 60 61 81 62 48 63 32 64 33 65 41 66 34 67 40 68 42 69 39 70
REMARK SMILES IDX 35 71 36 72 37 73 38 74 64 75 65 76 73 77 66 78 72 79 74 80
REMARK SMILES IDX 71 81 67 82 68 83 69 84 70 85 49 86 50 87 58 88 51 89 57 90
REMARK SMILES IDX 59 91 56 92 52 93 53 94 54 95 55 96
REMARK H PARENT 16 5 8 15 1 24 1 25 20 30 79 49 47 60
REMARK Flexibility Score: inf
ROOT
ATOM      1  C   UNL A   1      32.374  30.145  26.146  1.00  0.00     0.117 C 
ENDROOT
BRANCH   1   2
ATOM      2  N   UNL A   1      31.830  29.074  26.963  1.00  0.00    -0.354 N 
ATOM      3  C   UNL A   1      31.512  27.792  26.623  1.00  0.00     0.249 C 
ATOM      4  O   UNL A   1      31.085  27.056  27.517  1.00  0.00    -0.272 OA
ATOM      5  H   UNL A   1      31.667  29.310  27.904  1.00  0.00     0.163 HD
BRANCH   3   6
ATOM      6  C   UNL A   1      31.621  27.327  25.157  1.00  0.00     0.207 C 
ATOM      7  C   UNL A   1      30.370  25.684  24.055  1.00  0.00     0.138 C 
ATOM      8  C   UNL A   1      30.275  26.957  23.235  1.00  0.00     0.037 C 
ATOM      9  O   UNL A   1      31.453  25.913  24.968  1.00  0.00    -0.363 OA
ATOM     10  C   UNL A   1      30.572  28.006  24.277  1.00  0.00     0.045 C 
BRANCH   7  11
ATOM     11  C   UNL A   1      30.570  24.365  23.288  1.00  0.00     0.148 C 
BRANCH  11  12
ATOM     12  N   UNL A   1      31.897  24.184  22.724  1.00  0.00    -0.349 N 
ATOM     13  C   UNL A   1      32.961  23.357  22.944  1.00  0.00     0.251 C 
ATOM     14  O   UNL A   1      33.956  23.597  22.251  1.00  0.00    -0.269 OA
ATOM     15  H   UNL A   1      32.075  24.822  21.995  1.00  0.00     0.163 HD
BRANCH  13  16
ATOM     16  C   UNL A   1      33.022  22.219  23.908  1.00  0.00     0.041 A 
ATOM     17  C   UNL A   1      33.015  19.885  25.545  1.00  0.00     0.050 A 
ATOM     18  C   UNL A   1      33.315  21.142  26.073  1.00  0.00     0.028 A 
ATOM     19  C   UNL A   1      32.708  19.809  24.180  1.00  0.00     0.064 A 
ATOM     20  C   UNL A   1      33.334  22.294  25.265  1.00  0.00     0.016 A 
ATOM     21  C   UNL A   1      32.719  20.952  23.376  1.00  0.00     0.036 A 
ATOM     22  Cl  UNL A   1      32.310  18.294  23.443  1.00  0.00    -0.082 Cl
BRANCH  17  23
ATOM     23  N   UNL A   1      32.930  18.784  26.385  1.00  0.00    -0.398 N 
ATOM     24  H   UNL A   1      33.687  18.159  26.455  1.00  0.00     0.156 HD
ATOM     25  H   UNL A   1      32.113  18.630  26.912  1.00  0.00     0.156 HD
ENDBRANCH  17  23
ENDBRANCH  13  16
ENDBRANCH  11  12
ENDBRANCH   7  11
ENDBRANCH   3   6
ENDBRANCH   1   2
BRANCH   1  26
ATOM     26  C   UNL A   1      31.946  31.525  26.626  1.00  0.00     0.042 C 
BRANCH  26  27
ATOM     27  C   UNL A   1      33.056  32.346  27.276  1.00  0.00     0.118 C 
BRANCH  27  28
ATOM     28  N   UNL A   1      32.649  33.708  27.594  1.00  0.00    -0.352 N 
ATOM     29  C   UNL A   1      33.109  34.579  28.554  1.00  0.00     0.251 C 
ATOM     30  H   UNL A   1      31.926  34.063  27.027  1.00  0.00     0.163 HD
ATOM     31  O   UNL A   1      32.506  35.626  28.750  1.00  0.00    -0.269 OA
BRANCH  29  32
ATOM     32  C   UNL A   1      34.297  34.239  29.372  1.00  0.00     0.039 A 
ATOM     33  C   UNL A   1      34.114  33.519  30.556  1.00  0.00     0.014 A 
ATOM     34  C   UNL A   1      35.583  34.620  28.982  1.00  0.00     0.014 A 
ATOM     35  C   UNL A   1      35.224  33.091  31.289  1.00  0.00     0.010 A 
ATOM     36  C   UNL A   1      36.690  34.128  29.671  1.00  0.00     0.010 A 
ATOM     37  C   UNL A   1      36.523  33.341  30.819  1.00  0.00    -0.014 A 
BRANCH  37  38
ATOM     38  C   UNL A   1      37.715  32.745  31.480  1.00  0.00     0.031 A 
ATOM     39  C   UNL A   1      38.430  31.579  30.857  1.00  0.00     0.074 A 
ATOM     40  C   UNL A   1      38.096  33.204  32.691  1.00  0.00     0.049 A 
ATOM     41  N   UNL A   1      39.405  30.853  31.340  1.00  0.00    -0.248 NA
ATOM     42  C   UNL A   1      37.969  31.159  29.526  1.00  0.00     0.031 C 
ATOM     43  C   UNL A   1      37.462  34.310  33.413  1.00  0.00     0.029 A 
ATOM     44  N   UNL A   1      39.093  32.787  33.538  1.00  0.00    -0.354 N 
ATOM     45  C   UNL A   1      39.671  29.883  30.379  1.00  0.00     0.074 A 
ATOM     46  C   UNL A   1      38.715  30.085  29.309  1.00  0.00     0.031 C 
ATOM     47  C   UNL A   1      38.093  34.493  34.582  1.00  0.00     0.029 A 
ATOM     48  C   UNL A   1      39.137  33.482  34.725  1.00  0.00     0.049 A 
ATOM     49  H   UNL A   1      39.718  32.059  33.317  1.00  0.00     0.167 HD
ATOM     50  C   UNL A   1      40.632  28.926  30.383  1.00  0.00     0.034 A 
ATOM     51  C   UNL A   1      39.908  33.311  35.817  1.00  0.00     0.034 A 
ATOM     52  C   UNL A   1      41.579  28.741  31.456  1.00  0.00     0.049 A 
ATOM     53  C   UNL A   1      40.931  32.204  35.820  1.00  0.00     0.074 A 
ATOM     54  C   UNL A   1      42.633  27.846  31.532  1.00  0.00     0.029 A 
ATOM     55  N   UNL A   1      41.580  29.451  32.650  1.00  0.00    -0.354 N 
ATOM     56  N   UNL A   1      41.203  31.329  34.879  1.00  0.00    -0.248 NA
ATOM     57  C   UNL A   1      41.751  32.064  37.030  1.00  0.00     0.031 C 
ATOM     58  C   UNL A   1      43.220  27.961  32.796  1.00  0.00     0.029 A 
ATOM     59  C   UNL A   1      42.585  28.983  33.484  1.00  0.00     0.049 A 
ATOM     60  H   UNL A   1      40.957  30.181  32.874  1.00  0.00     0.167 HD
ATOM     61  C   UNL A   1      42.241  30.547  35.379  1.00  0.00     0.074 A 
ATOM     62  C   UNL A   1      42.558  31.069  36.693  1.00  0.00     0.031 C 
ATOM     63  C   UNL A   1      42.876  29.495  34.804  1.00  0.00     0.034 A 
BRANCH  50  64
ATOM     64  C   UNL A   1      40.684  27.986  29.202  1.00  0.00     0.023 A 
ATOM     65  C   UNL A   1      41.612  28.161  28.160  1.00  0.00     0.031 A 
ATOM     66  C   UNL A   1      39.787  26.908  29.109  1.00  0.00     0.131 A 
ATOM     67  C   UNL A   1      41.574  27.317  27.039  1.00  0.00     0.055 A 
ATOM     68  C   UNL A   1      39.806  26.023  28.029  1.00  0.00     0.041 A 
ATOM     69  F   UNL A   1      38.864  26.703  30.062  1.00  0.00    -0.206 F 
ATOM     70  C   UNL A   1      40.694  26.235  26.977  1.00  0.00     0.022 A 
BRANCH  67  71
ATOM     71  S   UNL A   1      42.596  27.740  25.601  1.00  0.00     0.124 S 
ATOM     72  O   UNL A   1      42.522  26.510  24.816  1.00  0.00    -0.237 OA
ATOM     73  O   UNL A   1      41.898  28.895  25.048  1.00  0.00    -0.237 OA
ATOM     74  O   UNL A   1      43.906  28.021  26.182  1.00  0.00    -0.744 OA
ENDBRANCH  67  71
ENDBRANCH  50  64
BRANCH  51  75
ATOM     75  C   UNL A   1      39.726  34.181  37.014  1.00  0.00     0.023 A 
ATOM     76  C   UNL A   1      39.125  33.687  38.182  1.00  0.00     0.031 A 
ATOM     77  C   UNL A   1      40.110  35.534  36.993  1.00  0.00     0.131 A 
ATOM     78  C   UNL A   1      38.882  34.548  39.263  1.00  0.00     0.055 A 
ATOM     79  C   UNL A   1      39.916  36.374  38.091  1.00  0.00     0.041 A 
ATOM     80  F   UNL A   1      40.696  36.058  35.904  1.00  0.00    -0.206 F 
ATOM     81  C   UNL A   1      39.286  35.885  39.230  1.00  0.00     0.022 A 
BRANCH  78  82
ATOM     82  S   UNL A   1      37.948  33.916  40.683  1.00  0.00     0.124 S 
ATOM     83  O   UNL A   1      38.997  33.276  41.467  1.00  0.00    -0.237 OA
ATOM     84  O   UNL A   1      37.383  35.139  41.241  1.00  0.00    -0.237 OA
ATOM     85  O   UNL A   1      36.980  33.005  40.074  1.00  0.00    -0.744 OA
ENDBRANCH  78  82
ENDBRANCH  51  75
BRANCH  63  86
ATOM     86  C   UNL A   1      43.995  28.857  35.591  1.00  0.00     0.023 A 
ATOM     87  C   UNL A   1      43.779  27.717  36.385  1.00  0.00     0.031 A 
ATOM     88  C   UNL A   1      45.289  29.404  35.556  1.00  0.00     0.131 A 
ATOM     89  C   UNL A   1      44.830  27.192  37.153  1.00  0.00     0.055 A 
ATOM     90  C   UNL A   1      46.345  28.841  36.274  1.00  0.00     0.041 A 
ATOM     91  F   UNL A   1      45.551  30.495  34.818  1.00  0.00    -0.206 F 
ATOM     92  C   UNL A   1      46.116  27.736  37.088  1.00  0.00     0.022 A 
BRANCH  89  93
ATOM     93  S   UNL A   1      44.473  25.838  38.306  1.00  0.00     0.124 S 
ATOM     94  O   UNL A   1      43.192  25.348  37.811  1.00  0.00    -0.237 OA
ATOM     95  O   UNL A   1      45.615  24.950  38.111  1.00  0.00    -0.237 OA
ATOM     96  O   UNL A   1      44.422  26.502  39.608  1.00  0.00    -0.744 OA
ENDBRANCH  89  93
ENDBRANCH  63  86
ENDBRANCH  37  38
ENDBRANCH  29  32
ENDBRANCH  27  28
ENDBRANCH  26  27
ENDBRANCH   1  26
TORSDOF 17
ENDMDL
