MODEL 1
REMARK VINA RESULT:     -12.1      0.000      0.000
REMARK SMILES CC(C)[NH2+][C@@]1(C(=O)NCCCNC(=O)c2ccc(-c3c4nc(c(-c5cc(S(=O)(=O)[O-])ccc5F)c5ccc([nH]5)c(-c5cc(S(=O)(=O)[O-])ccc5F)c5nc(c(-c6cc(S(=O)(=O)[O-])ccc6F)c6ccc3[nH]6)C=C5)C=C4)cc2)CC[C@@H](Sc2ccncc2)C1
REMARK SMILES IDX 10 1 9 2 8 3 6 4 7 5 5 7 78 8 88 9 79 10 80 11 4 12 2 15
REMARK SMILES IDX 1 16 3 17 81 18 82 19 83 20 87 21 84 22 86 23 85 24 11 25
REMARK SMILES IDX 12 26 13 27 14 29 15 30 16 31 77 32 17 33 76 34 18 35 19 36
REMARK SMILES IDX 20 37 70 38 21 39 75 40 69 41 71 42 22 43 74 44 68 45 67 46
REMARK SMILES IDX 23 48 55 49 35 50 54 51 36 52 39 53 53 54 72 55 37 56 38 57
REMARK SMILES IDX 52 59 73 60 40 61 24 62 25 63 33 64 26 65 32 66 34 67 31 68
REMARK SMILES IDX 27 69 28 70 29 71 30 72 56 73 57 74 65 75 58 76 64 77 66 78
REMARK SMILES IDX 63 79 59 80 60 81 61 82 62 83 41 84 42 85 50 86 43 87 49 88
REMARK SMILES IDX 51 89 48 90 44 91 45 92 46 93 47 94
REMARK H PARENT 8 6 4 13 4 14 12 28 71 47 39 58
REMARK Flexibility Score: inf
ROOT
ATOM      1  C   UNL A   1      38.236  19.720  25.020  1.00  0.00     0.042 C 
ENDROOT
BRANCH   1   2
ATOM      2  C   UNL A   1      37.285  20.845  24.628  1.00  0.00     0.118 C 
BRANCH   2   3
ATOM      3  N   UNL A   1      37.567  22.052  25.362  1.00  0.00    -0.351 N 
ATOM      4  C   UNL A   1      36.795  23.073  25.796  1.00  0.00     0.281 C 
ATOM      5  O   UNL A   1      37.437  24.015  26.294  1.00  0.00    -0.268 OA
ATOM      6  H   UNL A   1      38.518  22.156  25.595  1.00  0.00     0.163 HD
BRANCH   4   7
ATOM      7  C   UNL A   1      35.208  23.162  25.708  1.00  0.00     0.176 C 
ATOM      8  C   UNL A   1      34.518  22.853  27.049  1.00  0.00     0.080 C 
ATOM      9  C   UNL A   1      34.617  22.162  24.699  1.00  0.00     0.094 C 
ATOM     10  C   UNL A   1      33.769  21.523  26.919  1.00  0.00     0.022 C 
ATOM     11  C   UNL A   1      33.979  21.022  25.493  1.00  0.00     0.058 C 
BRANCH   7  12
ATOM     12  N   UNL A   1      34.989  24.610  25.411  1.00  0.00    -0.332 N 
ATOM     13  H   UNL A   1      35.249  25.118  26.257  1.00  0.00     0.347 HD
ATOM     14  H   UNL A   1      35.543  24.742  24.564  1.00  0.00     0.347 HD
BRANCH  12  15
ATOM     15  C   UNL A   1      33.692  25.127  25.009  1.00  0.00     0.176 C 
ATOM     16  C   UNL A   1      33.354  26.278  25.963  1.00  0.00     0.075 C 
ATOM     17  C   UNL A   1      33.673  25.684  23.580  1.00  0.00     0.075 C 
ENDBRANCH  12  15
ENDBRANCH   7  12
BRANCH  11  18
ATOM     18  S   UNL A   1      32.513  20.264  24.667  1.00  0.00    -0.122 SA
BRANCH  18  19
ATOM     19  C   UNL A   1      32.933  18.533  24.635  1.00  0.00     0.011 A 
ATOM     20  C   UNL A   1      32.736  17.714  25.740  1.00  0.00     0.035 A 
ATOM     21  C   UNL A   1      33.476  17.984  23.475  1.00  0.00     0.035 A 
ATOM     22  C   UNL A   1      33.171  16.401  25.671  1.00  0.00     0.112 A 
ATOM     23  C   UNL A   1      33.867  16.657  23.498  1.00  0.00     0.112 A 
ATOM     24  N   UNL A   1      33.744  15.856  24.578  1.00  0.00    -0.265 NA
ENDBRANCH  18  19
ENDBRANCH  11  18
ENDBRANCH   4   7
ENDBRANCH   2   3
ENDBRANCH   1   2
BRANCH   1  25
ATOM     25  C   UNL A   1      39.393  20.207  25.884  1.00  0.00     0.118 C 
BRANCH  25  26
ATOM     26  N   UNL A   1      40.418  19.179  26.031  1.00  0.00    -0.352 N 
ATOM     27  C   UNL A   1      41.785  19.296  26.108  1.00  0.00     0.251 C 
ATOM     28  H   UNL A   1      40.077  18.258  26.082  1.00  0.00     0.163 HD
ATOM     29  O   UNL A   1      42.480  18.303  25.925  1.00  0.00    -0.269 OA
BRANCH  27  30
ATOM     30  C   UNL A   1      42.404  20.606  26.399  1.00  0.00     0.039 A 
ATOM     31  C   UNL A   1      42.842  21.405  25.340  1.00  0.00     0.014 A 
ATOM     32  C   UNL A   1      42.577  21.034  27.717  1.00  0.00     0.014 A 
ATOM     33  C   UNL A   1      43.391  22.662  25.604  1.00  0.00     0.010 A 
ATOM     34  C   UNL A   1      43.034  22.321  27.973  1.00  0.00     0.010 A 
ATOM     35  C   UNL A   1      43.451  23.147  26.920  1.00  0.00    -0.014 A 
BRANCH  35  36
ATOM     36  C   UNL A   1      43.956  24.508  27.229  1.00  0.00     0.031 A 
ATOM     37  C   UNL A   1      43.006  25.561  27.734  1.00  0.00     0.074 A 
ATOM     38  C   UNL A   1      45.244  24.815  26.976  1.00  0.00     0.049 A 
ATOM     39  N   UNL A   1      43.215  26.836  27.938  1.00  0.00    -0.248 NA
ATOM     40  C   UNL A   1      41.628  25.126  28.010  1.00  0.00     0.031 C 
ATOM     41  C   UNL A   1      46.246  23.883  26.454  1.00  0.00     0.029 A 
ATOM     42  N   UNL A   1      45.929  25.996  27.107  1.00  0.00    -0.354 N 
ATOM     43  C   UNL A   1      41.993  27.358  28.348  1.00  0.00     0.074 A 
ATOM     44  C   UNL A   1      41.035  26.274  28.298  1.00  0.00     0.031 C 
ATOM     45  C   UNL A   1      47.421  24.522  26.333  1.00  0.00     0.029 A 
ATOM     46  C   UNL A   1      47.244  25.920  26.709  1.00  0.00     0.049 A 
ATOM     47  H   UNL A   1      45.518  26.821  27.453  1.00  0.00     0.167 HD
ATOM     48  C   UNL A   1      41.704  28.620  28.751  1.00  0.00     0.034 A 
ATOM     49  C   UNL A   1      48.192  26.874  26.635  1.00  0.00     0.034 A 
ATOM     50  C   UNL A   1      42.679  29.681  28.806  1.00  0.00     0.049 A 
ATOM     51  C   UNL A   1      47.836  28.281  27.045  1.00  0.00     0.074 A 
ATOM     52  C   UNL A   1      42.516  30.979  29.254  1.00  0.00     0.029 A 
ATOM     53  N   UNL A   1      44.000  29.568  28.387  1.00  0.00    -0.354 N 
ATOM     54  N   UNL A   1      46.689  28.748  27.480  1.00  0.00    -0.248 NA
ATOM     55  C   UNL A   1      48.901  29.288  26.956  1.00  0.00     0.031 C 
ATOM     56  C   UNL A   1      43.711  31.671  29.035  1.00  0.00     0.029 A 
ATOM     57  C   UNL A   1      44.648  30.785  28.528  1.00  0.00     0.049 A 
ATOM     58  H   UNL A   1      44.414  28.745  28.041  1.00  0.00     0.167 HD
ATOM     59  C   UNL A   1      46.904  30.098  27.744  1.00  0.00     0.074 A 
ATOM     60  C   UNL A   1      48.294  30.364  27.433  1.00  0.00     0.031 C 
ATOM     61  C   UNL A   1      46.033  31.033  28.202  1.00  0.00     0.034 A 
BRANCH  48  62
ATOM     62  C   UNL A   1      40.274  28.920  29.137  1.00  0.00     0.023 A 
ATOM     63  C   UNL A   1      39.867  28.975  30.481  1.00  0.00     0.031 A 
ATOM     64  C   UNL A   1      39.298  29.131  28.147  1.00  0.00     0.131 A 
ATOM     65  C   UNL A   1      38.512  29.152  30.798  1.00  0.00     0.055 A 
ATOM     66  C   UNL A   1      37.966  29.395  28.470  1.00  0.00     0.041 A 
ATOM     67  F   UNL A   1      39.619  29.069  26.845  1.00  0.00    -0.206 F 
ATOM     68  C   UNL A   1      37.562  29.392  29.802  1.00  0.00     0.022 A 
BRANCH  65  69
ATOM     69  S   UNL A   1      37.988  28.915  32.517  1.00  0.00     0.124 S 
ATOM     70  O   UNL A   1      39.020  29.651  33.244  1.00  0.00    -0.237 OA
ATOM     71  O   UNL A   1      36.655  29.506  32.526  1.00  0.00    -0.237 OA
ATOM     72  O   UNL A   1      38.030  27.464  32.691  1.00  0.00    -0.744 OA
ENDBRANCH  65  69
ENDBRANCH  48  62
BRANCH  49  73
ATOM     73  C   UNL A   1      49.559  26.547  26.134  1.00  0.00     0.023 A 
ATOM     74  C   UNL A   1      50.001  27.012  24.886  1.00  0.00     0.031 A 
ATOM     75  C   UNL A   1      50.430  25.729  26.877  1.00  0.00     0.131 A 
ATOM     76  C   UNL A   1      51.256  26.619  24.396  1.00  0.00     0.055 A 
ATOM     77  C   UNL A   1      51.702  25.390  26.412  1.00  0.00     0.041 A 
ATOM     78  F   UNL A   1      50.061  25.258  28.079  1.00  0.00    -0.206 F 
ATOM     79  C   UNL A   1      52.116  25.823  25.157  1.00  0.00     0.022 A 
BRANCH  76  80
ATOM     80  S   UNL A   1      51.710  27.085  22.702  1.00  0.00     0.124 S 
ATOM     81  O   UNL A   1      52.031  28.499  22.861  1.00  0.00    -0.237 OA
ATOM     82  O   UNL A   1      52.836  26.197  22.435  1.00  0.00    -0.237 OA
ATOM     83  O   UNL A   1      50.499  26.801  21.935  1.00  0.00    -0.744 OA
ENDBRANCH  76  80
ENDBRANCH  49  73
BRANCH  61  84
ATOM     84  C   UNL A   1      46.576  32.424  28.430  1.00  0.00     0.023 A 
ATOM     85  C   UNL A   1      46.694  33.351  27.381  1.00  0.00     0.031 A 
ATOM     86  C   UNL A   1      46.968  32.826  29.719  1.00  0.00     0.131 A 
ATOM     87  C   UNL A   1      47.236  34.621  27.631  1.00  0.00     0.055 A 
ATOM     88  C   UNL A   1      47.447  34.112  29.973  1.00  0.00     0.041 A 
ATOM     89  F   UNL A   1      46.880  31.978  30.757  1.00  0.00    -0.206 F 
ATOM     90  C   UNL A   1      47.594  35.013  28.924  1.00  0.00     0.022 A 
BRANCH  87  91
ATOM     91  S   UNL A   1      47.542  35.728  26.228  1.00  0.00     0.124 S 
ATOM     92  O   UNL A   1      46.384  36.613  26.283  1.00  0.00    -0.237 OA
ATOM     93  O   UNL A   1      48.824  36.331  26.579  1.00  0.00    -0.237 OA
ATOM     94  O   UNL A   1      47.578  34.823  25.079  1.00  0.00    -0.744 OA
ENDBRANCH  87  91
ENDBRANCH  61  84
ENDBRANCH  35  36
ENDBRANCH  27  30
ENDBRANCH  25  26
ENDBRANCH   1  25
TORSDOF 17
ENDMDL
MODEL 2
REMARK VINA RESULT:     -11.9      6.320     12.457
REMARK SMILES CC(C)[NH2+][C@@]1(C(=O)NCCCNC(=O)c2ccc(-c3c4nc(c(-c5cc(S(=O)(=O)[O-])ccc5F)c5ccc([nH]5)c(-c5cc(S(=O)(=O)[O-])ccc5F)c5nc(c(-c6cc(S(=O)(=O)[O-])ccc6F)c6ccc3[nH]6)C=C5)C=C4)cc2)CC[C@@H](Sc2ccncc2)C1
REMARK SMILES IDX 10 1 9 2 8 3 6 4 7 5 5 7 78 8 88 9 79 10 80 11 4 12 2 15
REMARK SMILES IDX 1 16 3 17 81 18 82 19 83 20 87 21 84 22 86 23 85 24 11 25
REMARK SMILES IDX 12 26 13 27 14 29 15 30 16 31 77 32 17 33 76 34 18 35 19 36
REMARK SMILES IDX 20 37 70 38 21 39 75 40 69 41 71 42 22 43 74 44 68 45 67 46
REMARK SMILES IDX 23 48 55 49 35 50 54 51 36 52 39 53 53 54 72 55 37 56 38 57
REMARK SMILES IDX 52 59 73 60 40 61 24 62 25 63 33 64 26 65 32 66 34 67 31 68
REMARK SMILES IDX 27 69 28 70 29 71 30 72 56 73 57 74 65 75 58 76 64 77 66 78
REMARK SMILES IDX 63 79 59 80 60 81 61 82 62 83 41 84 42 85 50 86 43 87 49 88
REMARK SMILES IDX 51 89 48 90 44 91 45 92 46 93 47 94
REMARK H PARENT 8 6 4 13 4 14 12 28 71 47 39 58
REMARK Flexibility Score: inf
ROOT
ATOM      1  C   UNL A   1      31.546  32.304  26.859  1.00  0.00     0.042 C 
ENDROOT
BRANCH   1   2
ATOM      2  C   UNL A   1      31.679  30.871  26.355  1.00  0.00     0.118 C 
BRANCH   2   3
ATOM      3  N   UNL A   1      32.907  30.267  26.805  1.00  0.00    -0.351 N 
ATOM      4  C   UNL A   1      33.549  29.123  26.480  1.00  0.00     0.281 C 
ATOM      5  O   UNL A   1      34.539  28.880  27.192  1.00  0.00    -0.268 OA
ATOM      6  H   UNL A   1      33.375  30.796  27.491  1.00  0.00     0.163 HD
BRANCH   4   7
ATOM      7  C   UNL A   1      33.143  28.107  25.323  1.00  0.00     0.176 C 
ATOM      8  C   UNL A   1      33.895  28.372  24.006  1.00  0.00     0.080 C 
ATOM      9  C   UNL A   1      31.648  28.185  24.969  1.00  0.00     0.094 C 
ATOM     10  C   UNL A   1      32.896  28.889  22.967  1.00  0.00     0.022 C 
ATOM     11  C   UNL A   1      31.524  28.924  23.636  1.00  0.00     0.058 C 
BRANCH   7  12
ATOM     12  N   UNL A   1      33.629  26.802  25.865  1.00  0.00    -0.332 N 
ATOM     13  H   UNL A   1      34.644  26.813  25.771  1.00  0.00     0.347 HD
ATOM     14  H   UNL A   1      33.217  26.791  26.799  1.00  0.00     0.347 HD
BRANCH  12  15
ATOM     15  C   UNL A   1      33.184  25.529  25.323  1.00  0.00     0.176 C 
ATOM     16  C   UNL A   1      34.425  24.637  25.202  1.00  0.00     0.075 C 
ATOM     17  C   UNL A   1      32.173  24.803  26.219  1.00  0.00     0.075 C 
ENDBRANCH  12  15
ENDBRANCH   7  12
BRANCH  11  18
ATOM     18  S   UNL A   1      30.096  28.372  22.605  1.00  0.00    -0.122 SA
BRANCH  18  19
ATOM     19  C   UNL A   1      29.136  29.863  22.436  1.00  0.00     0.011 A 
ATOM     20  C   UNL A   1      29.129  30.597  21.256  1.00  0.00     0.035 A 
ATOM     21  C   UNL A   1      28.373  30.310  23.514  1.00  0.00     0.035 A 
ATOM     22  C   UNL A   1      28.432  31.792  21.229  1.00  0.00     0.112 A 
ATOM     23  C   UNL A   1      27.698  31.510  23.386  1.00  0.00     0.112 A 
ATOM     24  N   UNL A   1      27.725  32.273  22.273  1.00  0.00    -0.265 NA
ENDBRANCH  18  19
ENDBRANCH  11  18
ENDBRANCH   4   7
ENDBRANCH   2   3
ENDBRANCH   1   2
BRANCH   1  25
ATOM     25  C   UNL A   1      32.888  32.919  27.234  1.00  0.00     0.118 C 
BRANCH  25  26
ATOM     26  N   UNL A   1      32.717  34.208  27.896  1.00  0.00    -0.352 N 
ATOM     27  C   UNL A   1      33.289  34.695  29.046  1.00  0.00     0.251 C 
ATOM     28  H   UNL A   1      32.095  34.824  27.448  1.00  0.00     0.163 HD
ATOM     29  O   UNL A   1      32.790  35.672  29.594  1.00  0.00    -0.269 OA
BRANCH  27  30
ATOM     30  C   UNL A   1      34.486  34.041  29.617  1.00  0.00     0.039 A 
ATOM     31  C   UNL A   1      35.753  34.437  29.184  1.00  0.00     0.014 A 
ATOM     32  C   UNL A   1      34.355  33.019  30.559  1.00  0.00     0.014 A 
ATOM     33  C   UNL A   1      36.890  33.854  29.748  1.00  0.00     0.010 A 
ATOM     34  C   UNL A   1      35.484  32.508  31.188  1.00  0.00     0.010 A 
ATOM     35  C   UNL A   1      36.764  32.916  30.785  1.00  0.00    -0.014 A 
BRANCH  35  36
ATOM     36  C   UNL A   1      37.951  32.334  31.461  1.00  0.00     0.031 A 
ATOM     37  C   UNL A   1      38.702  31.203  30.811  1.00  0.00     0.074 A 
ATOM     38  C   UNL A   1      38.295  32.766  32.691  1.00  0.00     0.049 A 
ATOM     39  N   UNL A   1      39.676  30.474  31.288  1.00  0.00    -0.248 NA
ATOM     40  C   UNL A   1      38.272  30.821  29.457  1.00  0.00     0.031 C 
ATOM     41  C   UNL A   1      37.618  33.832  33.432  1.00  0.00     0.029 A 
ATOM     42  N   UNL A   1      39.289  32.353  33.542  1.00  0.00    -0.354 N 
ATOM     43  C   UNL A   1      39.964  29.536  30.302  1.00  0.00     0.074 A 
ATOM     44  C   UNL A   1      39.015  29.749  29.230  1.00  0.00     0.031 C 
ATOM     45  C   UNL A   1      38.231  34.005  34.614  1.00  0.00     0.029 A 
ATOM     46  C   UNL A   1      39.304  33.025  34.743  1.00  0.00     0.049 A 
ATOM     47  H   UNL A   1      39.932  31.643  33.315  1.00  0.00     0.167 HD
ATOM     48  C   UNL A   1      40.945  28.600  30.284  1.00  0.00     0.034 A 
ATOM     49  C   UNL A   1      40.079  32.855  35.832  1.00  0.00     0.034 A 
ATOM     50  C   UNL A   1      41.888  28.416  31.359  1.00  0.00     0.049 A 
ATOM     51  C   UNL A   1      41.133  31.777  35.807  1.00  0.00     0.074 A 
ATOM     52  C   UNL A   1      42.959  27.543  31.425  1.00  0.00     0.029 A 
ATOM     53  N   UNL A   1      41.867  29.110  32.563  1.00  0.00    -0.354 N 
ATOM     54  N   UNL A   1      41.427  30.932  34.846  1.00  0.00    -0.248 NA
ATOM     55  C   UNL A   1      41.961  31.631  37.011  1.00  0.00     0.031 C 
ATOM     56  C   UNL A   1      43.536  27.653  32.695  1.00  0.00     0.029 A 
ATOM     57  C   UNL A   1      42.879  28.654  33.393  1.00  0.00     0.049 A 
ATOM     58  H   UNL A   1      41.226  29.821  32.794  1.00  0.00     0.167 HD
ATOM     59  C   UNL A   1      42.493  30.173  35.321  1.00  0.00     0.074 A 
ATOM     60  C   UNL A   1      42.799  30.673  36.646  1.00  0.00     0.031 C 
ATOM     61  C   UNL A   1      43.161  29.157  34.717  1.00  0.00     0.034 A 
BRANCH  48  62
ATOM     62  C   UNL A   1      41.024  27.695  29.078  1.00  0.00     0.023 A 
ATOM     63  C   UNL A   1      42.018  27.856  28.097  1.00  0.00     0.031 A 
ATOM     64  C   UNL A   1      40.079  26.670  28.892  1.00  0.00     0.131 A 
ATOM     65  C   UNL A   1      41.997  27.063  26.939  1.00  0.00     0.055 A 
ATOM     66  C   UNL A   1      40.117  25.826  27.780  1.00  0.00     0.041 A 
ATOM     67  F   UNL A   1      39.092  26.480  29.781  1.00  0.00    -0.206 F 
ATOM     68  C   UNL A   1      41.070  26.030  26.787  1.00  0.00     0.022 A 
BRANCH  65  69
ATOM     69  S   UNL A   1      43.103  27.503  25.571  1.00  0.00     0.124 S 
ATOM     70  O   UNL A   1      44.156  28.239  26.267  1.00  0.00    -0.237 OA
ATOM     71  O   UNL A   1      43.480  26.198  25.038  1.00  0.00    -0.237 OA
ATOM     72  O   UNL A   1      42.259  28.315  24.696  1.00  0.00    -0.744 OA
ENDBRANCH  65  69
ENDBRANCH  48  62
BRANCH  49  73
ATOM     73  C   UNL A   1      39.879  33.702  37.044  1.00  0.00     0.023 A 
ATOM     74  C   UNL A   1      39.176  33.215  38.156  1.00  0.00     0.031 A 
ATOM     75  C   UNL A   1      40.352  35.026  37.093  1.00  0.00     0.131 A 
ATOM     76  C   UNL A   1      38.923  34.058  39.249  1.00  0.00     0.055 A 
ATOM     77  C   UNL A   1      40.151  35.842  38.207  1.00  0.00     0.041 A 
ATOM     78  F   UNL A   1      41.034  35.543  36.058  1.00  0.00    -0.206 F 
ATOM     79  C   UNL A   1      39.419  35.363  39.289  1.00  0.00     0.022 A 
BRANCH  76  80
ATOM     80  S   UNL A   1      37.851  33.452  40.581  1.00  0.00     0.124 S 
ATOM     81  O   UNL A   1      36.696  32.967  39.834  1.00  0.00    -0.237 OA
ATOM     82  O   UNL A   1      38.688  32.431  41.203  1.00  0.00    -0.237 OA
ATOM     83  O   UNL A   1      37.615  34.642  41.395  1.00  0.00    -0.744 OA
ENDBRANCH  76  80
ENDBRANCH  49  73
BRANCH  61  84
ATOM     84  C   UNL A   1      44.314  28.546  35.476  1.00  0.00     0.023 A 
ATOM     85  C   UNL A   1      44.115  27.539  36.435  1.00  0.00     0.031 A 
ATOM     86  C   UNL A   1      45.630  28.972  35.224  1.00  0.00     0.131 A 
ATOM     87  C   UNL A   1      45.212  27.023  37.142  1.00  0.00     0.055 A 
ATOM     88  C   UNL A   1      46.723  28.411  35.886  1.00  0.00     0.041 A 
ATOM     89  F   UNL A   1      45.877  29.934  34.320  1.00  0.00    -0.206 F 
ATOM     90  C   UNL A   1      46.516  27.438  36.859  1.00  0.00     0.022 A 
BRANCH  87  91
ATOM     91  S   UNL A   1      44.904  25.857  38.497  1.00  0.00     0.124 S 
ATOM     92  O   UNL A   1      44.519  24.650  37.774  1.00  0.00    -0.237 OA
ATOM     93  O   UNL A   1      46.197  25.812  39.172  1.00  0.00    -0.237 OA
ATOM     94  O   UNL A   1      43.830  26.493  39.259  1.00  0.00    -0.744 OA
ENDBRANCH  87  91
ENDBRANCH  61  84
ENDBRANCH  35  36
ENDBRANCH  27  30
ENDBRANCH  25  26
ENDBRANCH   1  25
TORSDOF 17
ENDMDL
MODEL 3
REMARK VINA RESULT:     -11.7      5.966     10.907
REMARK SMILES CC(C)[NH2+][C@@]1(C(=O)NCCCNC(=O)c2ccc(-c3c4nc(c(-c5cc(S(=O)(=O)[O-])ccc5F)c5ccc([nH]5)c(-c5cc(S(=O)(=O)[O-])ccc5F)c5nc(c(-c6cc(S(=O)(=O)[O-])ccc6F)c6ccc3[nH]6)C=C5)C=C4)cc2)CC[C@@H](Sc2ccncc2)C1
REMARK SMILES IDX 10 1 9 2 8 3 6 4 7 5 5 7 78 8 88 9 79 10 80 11 4 12 2 15
REMARK SMILES IDX 1 16 3 17 81 18 82 19 83 20 87 21 84 22 86 23 85 24 11 25
REMARK SMILES IDX 12 26 13 27 14 29 15 30 16 31 77 32 17 33 76 34 18 35 19 36
REMARK SMILES IDX 20 37 70 38 21 39 75 40 69 41 71 42 22 43 74 44 68 45 67 46
REMARK SMILES IDX 23 48 55 49 35 50 54 51 36 52 39 53 53 54 72 55 37 56 38 57
REMARK SMILES IDX 52 59 73 60 40 61 24 62 25 63 33 64 26 65 32 66 34 67 31 68
REMARK SMILES IDX 27 69 28 70 29 71 30 72 56 73 57 74 65 75 58 76 64 77 66 78
REMARK SMILES IDX 63 79 59 80 60 81 61 82 62 83 41 84 42 85 50 86 43 87 49 88
REMARK SMILES IDX 51 89 48 90 44 91 45 92 46 93 47 94
REMARK H PARENT 8 6 4 13 4 14 12 28 71 47 39 58
REMARK Flexibility Score: inf
ROOT
ATOM      1  C   UNL A   1      31.933  29.008  27.065  1.00  0.00     0.042 C 
ENDROOT
BRANCH   1   2
ATOM      2  C   UNL A   1      32.405  27.563  27.171  1.00  0.00     0.118 C 
BRANCH   2   3
ATOM      3  N   UNL A   1      31.297  26.643  27.138  1.00  0.00    -0.351 N 
ATOM      4  C   UNL A   1      30.645  26.016  26.134  1.00  0.00     0.281 C 
ATOM      5  O   UNL A   1      29.638  25.385  26.503  1.00  0.00    -0.268 OA
ATOM      6  H   UNL A   1      30.941  26.426  28.030  1.00  0.00     0.163 HD
BRANCH   4   7
ATOM      7  C   UNL A   1      31.040  26.036  24.592  1.00  0.00     0.176 C 
ATOM      8  C   UNL A   1      30.087  25.197  23.721  1.00  0.00     0.080 C 
ATOM      9  C   UNL A   1      32.445  25.465  24.336  1.00  0.00     0.094 C 
ATOM     10  C   UNL A   1      30.849  23.975  23.198  1.00  0.00     0.022 C 
ATOM     11  C   UNL A   1      32.277  24.071  23.729  1.00  0.00     0.058 C 
BRANCH   7  12
ATOM     12  N   UNL A   1      30.833  27.472  24.232  1.00  0.00    -0.332 N 
ATOM     13  H   UNL A   1      30.115  27.825  24.865  1.00  0.00     0.347 HD
ATOM     14  H   UNL A   1      31.779  27.848  24.295  1.00  0.00     0.347 HD
BRANCH  12  15
ATOM     15  C   UNL A   1      30.432  27.881  22.896  1.00  0.00     0.176 C 
ATOM     16  C   UNL A   1      29.035  28.500  23.018  1.00  0.00     0.075 C 
ATOM     17  C   UNL A   1      31.358  28.937  22.278  1.00  0.00     0.075 C 
ENDBRANCH  12  15
ENDBRANCH   7  12
BRANCH  11  18
ATOM     18  S   UNL A   1      33.620  23.600  22.554  1.00  0.00    -0.122 SA
BRANCH  18  19
ATOM     19  C   UNL A   1      34.780  22.751  23.606  1.00  0.00     0.011 A 
ATOM     20  C   UNL A   1      34.359  21.897  24.617  1.00  0.00     0.035 A 
ATOM     21  C   UNL A   1      36.147  22.950  23.414  1.00  0.00     0.035 A 
ATOM     22  C   UNL A   1      35.315  21.345  25.453  1.00  0.00     0.112 A 
ATOM     23  C   UNL A   1      37.027  22.342  24.292  1.00  0.00     0.112 A 
ATOM     24  N   UNL A   1      36.641  21.558  25.321  1.00  0.00    -0.265 NA
ENDBRANCH  18  19
ENDBRANCH  11  18
ENDBRANCH   4   7
ENDBRANCH   2   3
ENDBRANCH   1   2
BRANCH   1  25
ATOM     25  C   UNL A   1      32.824  29.849  26.158  1.00  0.00     0.118 C 
BRANCH  25  26
ATOM     26  N   UNL A   1      32.657  31.275  26.420  1.00  0.00    -0.352 N 
ATOM     27  C   UNL A   1      33.312  32.095  27.306  1.00  0.00     0.251 C 
ATOM     28  H   UNL A   1      31.966  31.717  25.877  1.00  0.00     0.163 HD
ATOM     29  O   UNL A   1      32.821  33.183  27.587  1.00  0.00    -0.269 OA
BRANCH  27  30
ATOM     30  C   UNL A   1      34.586  31.662  27.918  1.00  0.00     0.039 A 
ATOM     31  C   UNL A   1      35.642  32.572  28.011  1.00  0.00     0.014 A 
ATOM     32  C   UNL A   1      34.747  30.353  28.374  1.00  0.00     0.014 A 
ATOM     33  C   UNL A   1      36.835  32.185  28.625  1.00  0.00     0.010 A 
ATOM     34  C   UNL A   1      35.897  29.998  29.069  1.00  0.00     0.010 A 
ATOM     35  C   UNL A   1      36.956  30.909  29.197  1.00  0.00    -0.014 A 
BRANCH  35  36
ATOM     36  C   UNL A   1      38.180  30.491  29.925  1.00  0.00     0.031 A 
ATOM     37  C   UNL A   1      39.116  29.490  29.302  1.00  0.00     0.074 A 
ATOM     38  C   UNL A   1      38.401  30.946  31.175  1.00  0.00     0.049 A 
ATOM     39  N   UNL A   1      40.161  28.899  29.820  1.00  0.00    -0.248 NA
ATOM     40  C   UNL A   1      38.811  29.073  27.925  1.00  0.00     0.031 C 
ATOM     41  C   UNL A   1      37.542  31.892  31.891  1.00  0.00     0.029 A 
ATOM     42  N   UNL A   1      39.402  30.666  32.069  1.00  0.00    -0.354 N 
ATOM     43  C   UNL A   1      40.627  28.029  28.840  1.00  0.00     0.074 A 
ATOM     44  C   UNL A   1      39.710  28.122  27.725  1.00  0.00     0.031 C 
ATOM     45  C   UNL A   1      38.067  32.132  33.104  1.00  0.00     0.029 A 
ATOM     46  C   UNL A   1      39.263  31.313  33.276  1.00  0.00     0.049 A 
ATOM     47  H   UNL A   1      40.150  30.059  31.868  1.00  0.00     0.167 HD
ATOM     48  C   UNL A   1      41.732  27.243  28.861  1.00  0.00     0.034 A 
ATOM     49  C   UNL A   1      40.001  31.237  34.401  1.00  0.00     0.034 A 
ATOM     50  C   UNL A   1      42.640  27.177  29.980  1.00  0.00     0.049 A 
ATOM     51  C   UNL A   1      41.200  30.321  34.418  1.00  0.00     0.074 A 
ATOM     52  C   UNL A   1      43.821  26.466  30.090  1.00  0.00     0.029 A 
ATOM     53  N   UNL A   1      42.462  27.841  31.188  1.00  0.00    -0.354 N 
ATOM     54  N   UNL A   1      41.657  29.543  33.464  1.00  0.00    -0.248 NA
ATOM     55  C   UNL A   1      41.981  30.275  35.660  1.00  0.00     0.031 C 
ATOM     56  C   UNL A   1      44.314  26.636  31.388  1.00  0.00     0.029 A 
ATOM     57  C   UNL A   1      43.488  27.521  32.062  1.00  0.00     0.049 A 
ATOM     58  H   UNL A   1      41.715  28.449  31.394  1.00  0.00     0.167 HD
ATOM     59  C   UNL A   1      42.797  28.937  33.984  1.00  0.00     0.074 A 
ATOM     60  C   UNL A   1      42.964  29.453  35.327  1.00  0.00     0.031 C 
ATOM     61  C   UNL A   1      43.632  28.037  33.404  1.00  0.00     0.034 A 
BRANCH  48  62
ATOM     62  C   UNL A   1      41.998  26.379  27.652  1.00  0.00     0.023 A 
ATOM     63  C   UNL A   1      41.558  25.045  27.585  1.00  0.00     0.031 A 
ATOM     64  C   UNL A   1      42.722  26.886  26.558  1.00  0.00     0.131 A 
ATOM     65  C   UNL A   1      41.914  24.243  26.491  1.00  0.00     0.055 A 
ATOM     66  C   UNL A   1      42.998  26.108  25.432  1.00  0.00     0.041 A 
ATOM     67  F   UNL A   1      43.189  28.145  26.572  1.00  0.00    -0.206 F 
ATOM     68  C   UNL A   1      42.607  24.773  25.400  1.00  0.00     0.022 A 
BRANCH  65  69
ATOM     69  S   UNL A   1      41.591  22.461  26.584  1.00  0.00     0.124 S 
ATOM     70  O   UNL A   1      42.281  21.973  25.392  1.00  0.00    -0.237 OA
ATOM     71  O   UNL A   1      42.189  22.097  27.863  1.00  0.00    -0.237 OA
ATOM     72  O   UNL A   1      40.132  22.374  26.529  1.00  0.00    -0.744 OA
ENDBRANCH  65  69
ENDBRANCH  48  62
BRANCH  49  73
ATOM     73  C   UNL A   1      39.624  32.026  35.609  1.00  0.00     0.023 A 
ATOM     74  C   UNL A   1      38.793  31.479  36.599  1.00  0.00     0.031 A 
ATOM     75  C   UNL A   1      40.057  33.355  35.775  1.00  0.00     0.131 A 
ATOM     76  C   UNL A   1      38.380  32.268  37.683  1.00  0.00     0.055 A 
ATOM     77  C   UNL A   1      39.691  34.118  36.886  1.00  0.00     0.041 A 
ATOM     78  F   UNL A   1      40.855  33.929  34.861  1.00  0.00    -0.206 F 
ATOM     79  C   UNL A   1      38.836  33.579  37.841  1.00  0.00     0.022 A 
BRANCH  76  80
ATOM     80  S   UNL A   1      37.157  31.586  38.835  1.00  0.00     0.124 S 
ATOM     81  O   UNL A   1      36.027  32.485  38.633  1.00  0.00    -0.237 OA
ATOM     82  O   UNL A   1      36.993  30.226  38.333  1.00  0.00    -0.237 OA
ATOM     83  O   UNL A   1      37.817  31.693  40.135  1.00  0.00    -0.744 OA
ENDBRANCH  76  80
ENDBRANCH  49  73
BRANCH  61  84
ATOM     84  C   UNL A   1      44.823  27.584  34.213  1.00  0.00     0.023 A 
ATOM     85  C   UNL A   1      44.774  26.433  35.017  1.00  0.00     0.031 A 
ATOM     86  C   UNL A   1      46.026  28.311  34.166  1.00  0.00     0.131 A 
ATOM     87  C   UNL A   1      45.894  26.068  35.780  1.00  0.00     0.055 A 
ATOM     88  C   UNL A   1      47.156  27.907  34.878  1.00  0.00     0.041 A 
ATOM     89  F   UNL A   1      46.126  29.421  33.416  1.00  0.00    -0.206 F 
ATOM     90  C   UNL A   1      47.090  26.786  35.699  1.00  0.00     0.022 A 
BRANCH  87  91
ATOM     91  S   UNL A   1      45.741  24.685  36.943  1.00  0.00     0.124 S 
ATOM     92  O   UNL A   1      44.367  24.833  37.410  1.00  0.00    -0.237 OA
ATOM     93  O   UNL A   1      46.006  23.529  36.092  1.00  0.00    -0.237 OA
ATOM     94  O   UNL A   1      46.770  24.964  37.945  1.00  0.00    -0.744 OA
ENDBRANCH  87  91
ENDBRANCH  61  84
ENDBRANCH  35  36
ENDBRANCH  27  30
ENDBRANCH  25  26
ENDBRANCH   1  25
TORSDOF 17
ENDMDL
