MODEL 1
REMARK VINA RESULT:     -14.1      0.000      0.000
REMARK SMILES O=C(NCCCNC(=O)c1cc([C@@H]2C=NN=C2c2ccc(F)cc2)c2c(ccc3ccccc32)n1)c1ccc(-c2c3nc(c(-c4cc(S(=O)(=O)[O-])ccc4F)c4ccc([nH]4)c(-c4cc(S(=O)(=O)[O-])ccc4F)c4nc(c(-c5cc(S(=O)(=O)[O-])ccc5F)c5ccc2[nH]5)C=C4)C=C3)cc1
REMARK SMILES IDX 4 1 3 2 1 3 2 4 36 6 37 7 98 8 38 9 97 10 39 11 40 12 41 13
REMARK SMILES IDX 91 14 42 15 96 16 90 17 92 18 43 19 95 20 89 21 88 22 44 24
REMARK SMILES IDX 76 25 56 26 75 27 57 28 60 29 74 30 93 31 58 32 59 33 73 35
REMARK SMILES IDX 94 36 61 37 45 38 46 39 54 40 47 41 53 42 55 43 52 44 48 45
REMARK SMILES IDX 49 46 50 47 51 48 77 49 78 50 86 51 79 52 85 53 87 54 84 55
REMARK SMILES IDX 80 56 81 57 82 58 83 59 62 60 63 61 71 62 64 63 70 64 72 65
REMARK SMILES IDX 69 66 65 67 66 68 67 69 68 70 5 71 6 72 7 73 8 74 9 76 10 77
REMARK SMILES IDX 11 78 35 79 12 80 26 81 25 82 27 83 34 84 28 85 29 86 33 87
REMARK SMILES IDX 30 88 32 89 31 90 13 91 14 92 17 93 15 94 16 95 18 96 19 97
REMARK SMILES IDX 24 98 20 99 23 100 21 101 22 102
REMARK H PARENT 3 5 92 23 60 34 7 75
REMARK Flexibility Score: inf
ROOT
ATOM      1  C   UNL A   1      34.906  31.097  27.654  1.00  0.00     0.118 C 
ENDROOT
BRANCH   1   2
ATOM      2  N   UNL A   1      34.874  31.616  29.007  1.00  0.00    -0.352 N 
ATOM      3  O   UNL A   1      35.454  32.467  30.948  1.00  0.00    -0.269 OA
ATOM      4  C   UNL A   1      35.790  31.730  30.017  1.00  0.00     0.251 C 
ATOM      5  H   UNL A   1      33.989  31.968  29.256  1.00  0.00     0.163 HD
BRANCH   4   6
ATOM      6  C   UNL A   1      37.091  31.006  30.106  1.00  0.00     0.039 A 
ATOM      7  C   UNL A   1      38.352  31.543  29.846  1.00  0.00     0.014 A 
ATOM      8  C   UNL A   1      37.006  29.636  30.425  1.00  0.00     0.014 A 
ATOM      9  C   UNL A   1      39.482  30.721  29.822  1.00  0.00     0.010 A 
ATOM     10  C   UNL A   1      38.131  28.814  30.416  1.00  0.00     0.010 A 
ATOM     11  C   UNL A   1      39.370  29.351  30.082  1.00  0.00    -0.014 A 
BRANCH  11  12
ATOM     12  C   UNL A   1      40.591  28.542  30.157  1.00  0.00     0.031 A 
ATOM     13  C   UNL A   1      41.153  28.376  31.531  1.00  0.00     0.074 A 
ATOM     14  C   UNL A   1      41.105  27.840  29.125  1.00  0.00     0.049 A 
ATOM     15  N   UNL A   1      42.330  28.696  31.964  1.00  0.00    -0.248 NA
ATOM     16  C   UNL A   1      40.257  27.860  32.579  1.00  0.00     0.031 C 
ATOM     17  C   UNL A   1      40.539  27.658  27.787  1.00  0.00     0.029 A 
ATOM     18  N   UNL A   1      42.214  27.039  29.099  1.00  0.00    -0.354 N 
ATOM     19  C   UNL A   1      42.392  28.265  33.289  1.00  0.00     0.074 A 
ATOM     20  C   UNL A   1      41.054  27.871  33.649  1.00  0.00     0.031 C 
ATOM     21  C   UNL A   1      41.182  26.642  27.163  1.00  0.00     0.029 A 
ATOM     22  C   UNL A   1      42.281  26.185  28.000  1.00  0.00     0.049 A 
ATOM     23  H   UNL A   1      42.906  27.066  29.798  1.00  0.00     0.167 HD
ATOM     24  C   UNL A   1      43.569  28.110  33.958  1.00  0.00     0.034 A 
ATOM     25  C   UNL A   1      43.139  25.143  27.821  1.00  0.00     0.034 A 
ATOM     26  C   UNL A   1      44.651  28.800  33.313  1.00  0.00     0.049 A 
ATOM     27  C   UNL A   1      44.316  25.407  28.684  1.00  0.00     0.074 A 
ATOM     28  C   UNL A   1      44.915  30.124  33.017  1.00  0.00     0.029 A 
ATOM     29  N   UNL A   1      45.515  28.072  32.533  1.00  0.00    -0.354 N 
ATOM     30  N   UNL A   1      45.128  26.412  28.513  1.00  0.00    -0.248 NA
ATOM     31  C   UNL A   1      44.340  24.803  30.006  1.00  0.00     0.031 C 
ATOM     32  C   UNL A   1      45.529  30.096  31.732  1.00  0.00     0.029 A 
ATOM     33  C   UNL A   1      45.657  28.758  31.351  1.00  0.00     0.049 A 
ATOM     34  H   UNL A   1      45.950  27.221  32.773  1.00  0.00     0.167 HD
ATOM     35  C   UNL A   1      45.443  26.836  29.794  1.00  0.00     0.074 A 
ATOM     36  C   UNL A   1      45.003  25.752  30.671  1.00  0.00     0.031 C 
ATOM     37  C   UNL A   1      45.786  28.131  30.052  1.00  0.00     0.034 A 
BRANCH  24  38
ATOM     38  C   UNL A   1      43.797  27.106  35.059  1.00  0.00     0.023 A 
ATOM     39  C   UNL A   1      44.339  25.846  34.739  1.00  0.00     0.031 A 
ATOM     40  C   UNL A   1      43.258  27.242  36.358  1.00  0.00     0.131 A 
ATOM     41  C   UNL A   1      44.306  24.792  35.671  1.00  0.00     0.055 A 
ATOM     42  C   UNL A   1      43.279  26.211  37.300  1.00  0.00     0.041 A 
ATOM     43  F   UNL A   1      42.603  28.346  36.743  1.00  0.00    -0.206 F 
ATOM     44  C   UNL A   1      43.788  24.971  36.953  1.00  0.00     0.022 A 
BRANCH  41  45
ATOM     45  S   UNL A   1      44.835  23.138  35.147  1.00  0.00     0.124 S 
ATOM     46  O   UNL A   1      45.173  22.513  36.419  1.00  0.00    -0.237 OA
ATOM     47  O   UNL A   1      43.639  22.634  34.478  1.00  0.00    -0.237 OA
ATOM     48  O   UNL A   1      45.969  23.408  34.264  1.00  0.00    -0.744 OA
ENDBRANCH  41  45
ENDBRANCH  24  38
BRANCH  25  49
ATOM     49  C   UNL A   1      42.861  23.803  27.219  1.00  0.00     0.023 A 
ATOM     50  C   UNL A   1      43.702  23.229  26.237  1.00  0.00     0.031 A 
ATOM     51  C   UNL A   1      41.902  22.943  27.800  1.00  0.00     0.131 A 
ATOM     52  C   UNL A   1      43.571  21.863  25.888  1.00  0.00     0.055 A 
ATOM     53  C   UNL A   1      41.774  21.598  27.448  1.00  0.00     0.041 A 
ATOM     54  F   UNL A   1      41.114  23.354  28.805  1.00  0.00    -0.206 F 
ATOM     55  C   UNL A   1      42.618  21.046  26.497  1.00  0.00     0.022 A 
BRANCH  52  56
ATOM     56  S   UNL A   1      44.738  21.080  24.724  1.00  0.00     0.124 S 
ATOM     57  O   UNL A   1      46.005  21.201  25.435  1.00  0.00    -0.237 OA
ATOM     58  O   UNL A   1      44.198  19.732  24.586  1.00  0.00    -0.237 OA
ATOM     59  O   UNL A   1      44.622  21.909  23.523  1.00  0.00    -0.744 OA
ENDBRANCH  52  56
ENDBRANCH  25  49
BRANCH  37  60
ATOM     60  C   UNL A   1      46.108  29.045  28.889  1.00  0.00     0.023 A 
ATOM     61  C   UNL A   1      45.180  29.908  28.261  1.00  0.00     0.031 A 
ATOM     62  C   UNL A   1      47.459  29.153  28.518  1.00  0.00     0.131 A 
ATOM     63  C   UNL A   1      45.628  30.838  27.299  1.00  0.00     0.055 A 
ATOM     64  C   UNL A   1      47.899  30.083  27.579  1.00  0.00     0.041 A 
ATOM     65  F   UNL A   1      48.388  28.381  29.108  1.00  0.00    -0.206 F 
ATOM     66  C   UNL A   1      46.984  30.930  26.965  1.00  0.00     0.022 A 
BRANCH  63  67
ATOM     67  S   UNL A   1      44.454  31.976  26.491  1.00  0.00     0.124 S 
ATOM     68  O   UNL A   1      44.147  32.940  27.541  1.00  0.00    -0.237 OA
ATOM     69  O   UNL A   1      45.224  32.485  25.357  1.00  0.00    -0.237 OA
ATOM     70  O   UNL A   1      43.337  31.106  26.116  1.00  0.00    -0.744 OA
ENDBRANCH  63  67
ENDBRANCH  37  60
ENDBRANCH  11  12
ENDBRANCH   4   6
ENDBRANCH   1   2
BRANCH   1  71
ATOM     71  C   UNL A   1      35.299  29.629  27.534  1.00  0.00     0.042 C 
BRANCH  71  72
ATOM     72  C   UNL A   1      34.251  28.725  26.898  1.00  0.00     0.118 C 
BRANCH  72  73
ATOM     73  N   UNL A   1      32.967  28.744  27.588  1.00  0.00    -0.351 N 
ATOM     74  C   UNL A   1      31.866  27.925  27.452  1.00  0.00     0.269 C 
ATOM     75  H   UNL A   1      32.869  29.458  28.258  1.00  0.00     0.163 HD
ATOM     76  O   UNL A   1      30.845  28.199  28.091  1.00  0.00    -0.268 OA
BRANCH  74  77
ATOM     77  C   UNL A   1      31.911  26.708  26.588  1.00  0.00     0.129 A 
ATOM     78  C   UNL A   1      32.129  26.814  25.236  1.00  0.00     0.039 A 
ATOM     79  N   UNL A   1      31.810  25.518  27.194  1.00  0.00    -0.243 NA
ATOM     80  C   UNL A   1      32.141  25.664  24.409  1.00  0.00    -0.021 A 
ATOM     81  C   UNL A   1      31.891  24.408  26.452  1.00  0.00     0.072 A 
ATOM     82  C   UNL A   1      32.051  24.352  25.030  1.00  0.00     0.012 A 
ATOM     83  C   UNL A   1      31.830  23.261  27.212  1.00  0.00     0.029 A 
ATOM     84  C   UNL A   1      32.140  22.994  24.445  1.00  0.00    -0.009 A 
ATOM     85  C   UNL A   1      31.920  21.997  26.655  1.00  0.00     0.011 A 
ATOM     86  C   UNL A   1      32.072  21.846  25.287  1.00  0.00    -0.018 A 
ATOM     87  C   UNL A   1      32.310  22.675  23.078  1.00  0.00     0.009 A 
ATOM     88  C   UNL A   1      32.161  20.535  24.782  1.00  0.00     0.009 A 
ATOM     89  C   UNL A   1      32.394  21.372  22.570  1.00  0.00     0.001 A 
ATOM     90  C   UNL A   1      32.320  20.294  23.425  1.00  0.00     0.001 A 
BRANCH  80  91
ATOM     91  C   UNL A   1      32.324  26.048  22.955  1.00  0.00     0.115 C 
ATOM     92  C   UNL A   1      33.684  26.011  22.359  1.00  0.00     0.123 C 
ATOM     93  C   UNL A   1      31.894  27.389  22.452  1.00  0.00     0.083 C 
ATOM     94  N   UNL A   1      33.906  27.022  21.578  1.00  0.00    -0.162 NA
ATOM     95  N   UNL A   1      32.767  27.896  21.629  1.00  0.00    -0.154 NA
BRANCH  93  96
ATOM     96  C   UNL A   1      30.571  27.998  22.704  1.00  0.00    -0.001 A 
ATOM     97  C   UNL A   1      30.438  29.375  22.477  1.00  0.00     0.013 A 
ATOM     98  C   UNL A   1      29.468  27.264  23.152  1.00  0.00     0.013 A 
ATOM     99  C   UNL A   1      29.205  30.002  22.665  1.00  0.00     0.040 A 
ATOM    100  C   UNL A   1      28.234  27.893  23.337  1.00  0.00     0.040 A 
ATOM    101  C   UNL A   1      28.112  29.253  23.087  1.00  0.00     0.123 A 
ATOM    102  F   UNL A   1      26.928  29.851  23.264  1.00  0.00    -0.207 F 
ENDBRANCH  93  96
ENDBRANCH  80  91
ENDBRANCH  74  77
ENDBRANCH  72  73
ENDBRANCH  71  72
ENDBRANCH   1  71
TORSDOF 15
ENDMDL
MODEL 2
REMARK VINA RESULT:     -14.1      1.281      1.546
REMARK SMILES O=C(NCCCNC(=O)c1cc([C@@H]2C=NN=C2c2ccc(F)cc2)c2c(ccc3ccccc32)n1)c1ccc(-c2c3nc(c(-c4cc(S(=O)(=O)[O-])ccc4F)c4ccc([nH]4)c(-c4cc(S(=O)(=O)[O-])ccc4F)c4nc(c(-c5cc(S(=O)(=O)[O-])ccc5F)c5ccc2[nH]5)C=C4)C=C3)cc1
REMARK SMILES IDX 4 1 3 2 1 3 2 4 36 6 37 7 98 8 38 9 97 10 39 11 40 12 41 13
REMARK SMILES IDX 91 14 42 15 96 16 90 17 92 18 43 19 95 20 89 21 88 22 44 24
REMARK SMILES IDX 76 25 56 26 75 27 57 28 60 29 74 30 93 31 58 32 59 33 73 35
REMARK SMILES IDX 94 36 61 37 45 38 46 39 54 40 47 41 53 42 55 43 52 44 48 45
REMARK SMILES IDX 49 46 50 47 51 48 77 49 78 50 86 51 79 52 85 53 87 54 84 55
REMARK SMILES IDX 80 56 81 57 82 58 83 59 62 60 63 61 71 62 64 63 70 64 72 65
REMARK SMILES IDX 69 66 65 67 66 68 67 69 68 70 5 71 6 72 7 73 8 74 9 76 10 77
REMARK SMILES IDX 11 78 35 79 12 80 26 81 25 82 27 83 34 84 28 85 29 86 33 87
REMARK SMILES IDX 30 88 32 89 31 90 13 91 14 92 17 93 15 94 16 95 18 96 19 97
REMARK SMILES IDX 24 98 20 99 23 100 21 101 22 102
REMARK H PARENT 3 5 92 23 60 34 7 75
REMARK Flexibility Score: inf
ROOT
ATOM      1  C   UNL A   1      34.826  31.162  27.632  1.00  0.00     0.118 C 
ENDROOT
BRANCH   1   2
ATOM      2  N   UNL A   1      34.778  31.678  28.985  1.00  0.00    -0.352 N 
ATOM      3  O   UNL A   1      35.331  32.525  30.936  1.00  0.00    -0.269 OA
ATOM      4  C   UNL A   1      35.680  31.790  30.008  1.00  0.00     0.251 C 
ATOM      5  H   UNL A   1      33.889  32.029  29.224  1.00  0.00     0.163 HD
BRANCH   4   6
ATOM      6  C   UNL A   1      36.980  31.066  30.112  1.00  0.00     0.039 A 
ATOM      7  C   UNL A   1      38.245  31.606  29.879  1.00  0.00     0.014 A 
ATOM      8  C   UNL A   1      36.890  29.693  30.417  1.00  0.00     0.014 A 
ATOM      9  C   UNL A   1      39.375  30.785  29.867  1.00  0.00     0.010 A 
ATOM     10  C   UNL A   1      38.015  28.872  30.420  1.00  0.00     0.010 A 
ATOM     11  C   UNL A   1      39.260  29.412  30.112  1.00  0.00    -0.014 A 
BRANCH  11  12
ATOM     12  C   UNL A   1      40.479  28.604  30.200  1.00  0.00     0.031 A 
ATOM     13  C   UNL A   1      41.007  28.407  31.585  1.00  0.00     0.074 A 
ATOM     14  C   UNL A   1      41.021  27.925  29.167  1.00  0.00     0.049 A 
ATOM     15  N   UNL A   1      42.172  28.719  32.055  1.00  0.00    -0.248 NA
ATOM     16  C   UNL A   1      40.085  27.868  32.598  1.00  0.00     0.031 C 
ATOM     17  C   UNL A   1      40.490  27.772  27.811  1.00  0.00     0.029 A 
ATOM     18  N   UNL A   1      42.132  27.127  29.151  1.00  0.00    -0.354 N 
ATOM     19  C   UNL A   1      42.200  28.260  33.371  1.00  0.00     0.074 A 
ATOM     20  C   UNL A   1      40.854  27.856  33.687  1.00  0.00     0.031 C 
ATOM     21  C   UNL A   1      41.151  26.771  27.182  1.00  0.00     0.029 A 
ATOM     22  C   UNL A   1      42.228  26.297  28.036  1.00  0.00     0.049 A 
ATOM     23  H   UNL A   1      42.806  27.138  29.868  1.00  0.00     0.167 HD
ATOM     24  C   UNL A   1      43.360  28.091  34.066  1.00  0.00     0.034 A 
ATOM     25  C   UNL A   1      43.093  25.260  27.856  1.00  0.00     0.034 A 
ATOM     26  C   UNL A   1      44.457  28.797  33.465  1.00  0.00     0.049 A 
ATOM     27  C   UNL A   1      44.247  25.506  28.755  1.00  0.00     0.074 A 
ATOM     28  C   UNL A   1      44.726  30.127  33.205  1.00  0.00     0.029 A 
ATOM     29  N   UNL A   1      45.342  28.087  32.691  1.00  0.00    -0.354 N 
ATOM     30  N   UNL A   1      45.062  26.516  28.627  1.00  0.00    -0.248 NA
ATOM     31  C   UNL A   1      44.238  24.873  30.063  1.00  0.00     0.031 C 
ATOM     32  C   UNL A   1      45.373  30.128  31.935  1.00  0.00     0.029 A 
ATOM     33  C   UNL A   1      45.513  28.799  31.529  1.00  0.00     0.049 A 
ATOM     34  H   UNL A   1      45.772  27.232  32.924  1.00  0.00     0.167 HD
ATOM     35  C   UNL A   1      45.342  26.912  29.925  1.00  0.00     0.074 A 
ATOM     36  C   UNL A   1      44.882  25.808  30.765  1.00  0.00     0.031 C 
ATOM     37  C   UNL A   1      45.676  28.201  30.220  1.00  0.00     0.034 A 
BRANCH  24  38
ATOM     38  C   UNL A   1      43.561  27.064  35.150  1.00  0.00     0.023 A 
ATOM     39  C   UNL A   1      43.938  27.489  36.439  1.00  0.00     0.031 A 
ATOM     40  C   UNL A   1      43.656  25.676  34.898  1.00  0.00     0.131 A 
ATOM     41  C   UNL A   1      44.407  26.564  37.392  1.00  0.00     0.055 A 
ATOM     42  C   UNL A   1      44.067  24.755  35.865  1.00  0.00     0.041 A 
ATOM     43  F   UNL A   1      43.448  25.160  33.679  1.00  0.00    -0.206 F 
ATOM     44  C   UNL A   1      44.463  25.199  37.115  1.00  0.00     0.022 A 
BRANCH  41  45
ATOM     45  S   UNL A   1      45.064  27.182  38.965  1.00  0.00     0.124 S 
ATOM     46  O   UNL A   1      44.914  28.624  38.809  1.00  0.00    -0.237 OA
ATOM     47  O   UNL A   1      44.181  26.544  39.936  1.00  0.00    -0.237 OA
ATOM     48  O   UNL A   1      46.444  26.697  38.972  1.00  0.00    -0.744 OA
ENDBRANCH  41  45
ENDBRANCH  24  38
BRANCH  25  49
ATOM     49  C   UNL A   1      42.833  23.934  27.217  1.00  0.00     0.023 A 
ATOM     50  C   UNL A   1      43.689  23.391  26.231  1.00  0.00     0.031 A 
ATOM     51  C   UNL A   1      41.875  23.052  27.767  1.00  0.00     0.131 A 
ATOM     52  C   UNL A   1      43.574  22.033  25.846  1.00  0.00     0.055 A 
ATOM     53  C   UNL A   1      41.762  21.714  27.379  1.00  0.00     0.041 A 
ATOM     54  F   UNL A   1      41.072  23.430  28.773  1.00  0.00    -0.206 F 
ATOM     55  C   UNL A   1      42.621  21.194  26.424  1.00  0.00     0.022 A 
BRANCH  52  56
ATOM     56  S   UNL A   1      44.760  21.290  24.677  1.00  0.00     0.124 S 
ATOM     57  O   UNL A   1      44.623  22.155  23.511  1.00  0.00    -0.237 OA
ATOM     58  O   UNL A   1      46.024  21.376  25.402  1.00  0.00    -0.237 OA
ATOM     59  O   UNL A   1      44.251  19.929  24.500  1.00  0.00    -0.744 OA
ENDBRANCH  52  56
ENDBRANCH  25  49
BRANCH  37  60
ATOM     60  C   UNL A   1      46.027  29.141  29.086  1.00  0.00     0.023 A 
ATOM     61  C   UNL A   1      45.091  29.917  28.364  1.00  0.00     0.031 A 
ATOM     62  C   UNL A   1      47.392  29.370  28.847  1.00  0.00     0.131 A 
ATOM     63  C   UNL A   1      45.544  30.884  27.442  1.00  0.00     0.055 A 
ATOM     64  C   UNL A   1      47.836  30.337  27.947  1.00  0.00     0.041 A 
ATOM     65  F   UNL A   1      48.325  28.686  29.530  1.00  0.00    -0.206 F 
ATOM     66  C   UNL A   1      46.912  31.099  27.241  1.00  0.00     0.022 A 
BRANCH  63  67
ATOM     67  S   UNL A   1      44.357  31.913  26.515  1.00  0.00     0.124 S 
ATOM     68  O   UNL A   1      43.315  30.964  26.141  1.00  0.00    -0.237 OA
ATOM     69  O   UNL A   1      43.979  32.932  27.491  1.00  0.00    -0.237 OA
ATOM     70  O   UNL A   1      45.150  32.421  25.393  1.00  0.00    -0.744 OA
ENDBRANCH  63  67
ENDBRANCH  37  60
ENDBRANCH  11  12
ENDBRANCH   4   6
ENDBRANCH   1   2
BRANCH   1  71
ATOM     71  C   UNL A   1      35.407  29.758  27.496  1.00  0.00     0.042 C 
BRANCH  71  72
ATOM     72  C   UNL A   1      34.430  28.694  27.014  1.00  0.00     0.118 C 
BRANCH  72  73
ATOM     73  N   UNL A   1      33.126  28.761  27.663  1.00  0.00    -0.351 N 
ATOM     74  C   UNL A   1      31.993  27.998  27.474  1.00  0.00     0.269 C 
ATOM     75  H   UNL A   1      33.041  29.466  28.345  1.00  0.00     0.163 HD
ATOM     76  O   UNL A   1      30.966  28.309  28.086  1.00  0.00    -0.268 OA
BRANCH  74  77
ATOM     77  C   UNL A   1      32.009  26.798  26.586  1.00  0.00     0.129 A 
ATOM     78  C   UNL A   1      32.220  26.927  25.235  1.00  0.00     0.039 A 
ATOM     79  N   UNL A   1      31.889  25.599  27.169  1.00  0.00    -0.243 NA
ATOM     80  C   UNL A   1      32.205  25.794  24.386  1.00  0.00    -0.021 A 
ATOM     81  C   UNL A   1      31.944  24.502  26.405  1.00  0.00     0.072 A 
ATOM     82  C   UNL A   1      32.093  24.471  24.980  1.00  0.00     0.012 A 
ATOM     83  C   UNL A   1      31.866  23.342  27.142  1.00  0.00     0.029 A 
ATOM     84  C   UNL A   1      32.152  23.124  24.368  1.00  0.00    -0.009 A 
ATOM     85  C   UNL A   1      31.928  22.088  26.560  1.00  0.00     0.011 A 
ATOM     86  C   UNL A   1      32.068  21.962  25.188  1.00  0.00    -0.018 A 
ATOM     87  C   UNL A   1      32.307  22.829  22.994  1.00  0.00     0.009 A 
ATOM     88  C   UNL A   1      32.129  20.659  24.656  1.00  0.00     0.009 A 
ATOM     89  C   UNL A   1      32.362  21.535  22.460  1.00  0.00     0.001 A 
ATOM     90  C   UNL A   1      32.273  20.442  23.294  1.00  0.00     0.001 A 
BRANCH  80  91
ATOM     91  C   UNL A   1      32.385  26.203  22.938  1.00  0.00     0.115 C 
ATOM     92  C   UNL A   1      33.752  26.234  22.356  1.00  0.00     0.123 C 
ATOM     93  C   UNL A   1      31.901  27.529  22.446  1.00  0.00     0.083 C 
ATOM     94  N   UNL A   1      33.936  27.263  21.589  1.00  0.00    -0.162 NA
ATOM     95  N   UNL A   1      32.759  28.085  21.638  1.00  0.00    -0.154 NA
BRANCH  93  96
ATOM     96  C   UNL A   1      30.550  28.076  22.691  1.00  0.00    -0.001 A 
ATOM     97  C   UNL A   1      30.344  29.437  22.427  1.00  0.00     0.013 A 
ATOM     98  C   UNL A   1      29.489  27.299  23.168  1.00  0.00     0.013 A 
ATOM     99  C   UNL A   1      29.081  30.005  22.607  1.00  0.00     0.040 A 
ATOM    100  C   UNL A   1      28.225  27.868  23.343  1.00  0.00     0.040 A 
ATOM    101  C   UNL A   1      28.031  29.213  23.057  1.00  0.00     0.123 A 
ATOM    102  F   UNL A   1      26.818  29.753  23.226  1.00  0.00    -0.207 F 
ENDBRANCH  93  96
ENDBRANCH  80  91
ENDBRANCH  74  77
ENDBRANCH  72  73
ENDBRANCH  71  72
ENDBRANCH   1  71
TORSDOF 15
ENDMDL
MODEL 3
REMARK VINA RESULT:     -14.1      4.961     10.341
REMARK SMILES O=C(NCCCNC(=O)c1cc([C@@H]2C=NN=C2c2ccc(F)cc2)c2c(ccc3ccccc32)n1)c1ccc(-c2c3nc(c(-c4cc(S(=O)(=O)[O-])ccc4F)c4ccc([nH]4)c(-c4cc(S(=O)(=O)[O-])ccc4F)c4nc(c(-c5cc(S(=O)(=O)[O-])ccc5F)c5ccc2[nH]5)C=C4)C=C3)cc1
REMARK SMILES IDX 4 1 3 2 1 3 2 4 36 6 37 7 98 8 38 9 97 10 39 11 40 12 41 13
REMARK SMILES IDX 91 14 42 15 96 16 90 17 92 18 43 19 95 20 89 21 88 22 44 24
REMARK SMILES IDX 76 25 56 26 75 27 57 28 60 29 74 30 93 31 58 32 59 33 73 35
REMARK SMILES IDX 94 36 61 37 45 38 46 39 54 40 47 41 53 42 55 43 52 44 48 45
REMARK SMILES IDX 49 46 50 47 51 48 77 49 78 50 86 51 79 52 85 53 87 54 84 55
REMARK SMILES IDX 80 56 81 57 82 58 83 59 62 60 63 61 71 62 64 63 70 64 72 65
REMARK SMILES IDX 69 66 65 67 66 68 67 69 68 70 5 71 6 72 7 73 8 74 9 76 10 77
REMARK SMILES IDX 11 78 35 79 12 80 26 81 25 82 27 83 34 84 28 85 29 86 33 87
REMARK SMILES IDX 30 88 32 89 31 90 13 91 14 92 17 93 15 94 16 95 18 96 19 97
REMARK SMILES IDX 24 98 20 99 23 100 21 101 22 102
REMARK H PARENT 3 5 92 23 60 34 7 75
REMARK Flexibility Score: inf
ROOT
ATOM      1  C   UNL A   1      35.956  32.129  29.443  1.00  0.00     0.118 C 
ENDROOT
BRANCH   1   2
ATOM      2  N   UNL A   1      35.438  30.991  28.709  1.00  0.00    -0.352 N 
ATOM      3  O   UNL A   1      35.115  28.966  27.919  1.00  0.00    -0.269 OA
ATOM      4  C   UNL A   1      35.950  29.788  28.308  1.00  0.00     0.251 C 
ATOM      5  H   UNL A   1      34.499  31.113  28.438  1.00  0.00     0.163 HD
BRANCH   4   6
ATOM      6  C   UNL A   1      37.397  29.429  28.245  1.00  0.00     0.039 A 
ATOM      7  C   UNL A   1      38.297  29.805  27.249  1.00  0.00     0.014 A 
ATOM      8  C   UNL A   1      37.858  28.577  29.269  1.00  0.00     0.014 A 
ATOM      9  C   UNL A   1      39.592  29.281  27.228  1.00  0.00     0.010 A 
ATOM     10  C   UNL A   1      39.152  28.062  29.261  1.00  0.00     0.010 A 
ATOM     11  C   UNL A   1      40.014  28.389  28.219  1.00  0.00    -0.014 A 
BRANCH  11  12
ATOM     12  C   UNL A   1      41.412  27.948  28.226  1.00  0.00     0.031 A 
ATOM     13  C   UNL A   1      41.665  26.645  27.539  1.00  0.00     0.074 A 
ATOM     14  C   UNL A   1      42.448  28.702  28.650  1.00  0.00     0.049 A 
ATOM     15  N   UNL A   1      42.187  25.565  28.026  1.00  0.00    -0.248 NA
ATOM     16  C   UNL A   1      41.199  26.503  26.149  1.00  0.00     0.031 C 
ATOM     17  C   UNL A   1      42.427  30.098  29.091  1.00  0.00     0.029 A 
ATOM     18  N   UNL A   1      43.781  28.395  28.673  1.00  0.00    -0.354 N 
ATOM     19  C   UNL A   1      42.281  24.663  26.967  1.00  0.00     0.074 A 
ATOM     20  C   UNL A   1      41.551  25.246  25.872  1.00  0.00     0.031 C 
ATOM     21  C   UNL A   1      43.694  30.576  29.126  1.00  0.00     0.029 A 
ATOM     22  C   UNL A   1      44.622  29.495  28.833  1.00  0.00     0.049 A 
ATOM     23  H   UNL A   1      44.118  27.475  28.584  1.00  0.00     0.167 HD
ATOM     24  C   UNL A   1      43.087  23.565  27.007  1.00  0.00     0.034 A 
ATOM     25  C   UNL A   1      45.975  29.525  28.678  1.00  0.00     0.034 A 
ATOM     26  C   UNL A   1      43.488  23.237  28.347  1.00  0.00     0.049 A 
ATOM     27  C   UNL A   1      46.455  28.134  28.865  1.00  0.00     0.074 A 
ATOM     28  C   UNL A   1      42.814  22.868  29.495  1.00  0.00     0.029 A 
ATOM     29  N   UNL A   1      44.740  23.617  28.763  1.00  0.00    -0.354 N 
ATOM     30  N   UNL A   1      46.362  27.481  29.990  1.00  0.00    -0.248 NA
ATOM     31  C   UNL A   1      46.643  27.313  27.681  1.00  0.00     0.031 C 
ATOM     32  C   UNL A   1      43.502  23.532  30.552  1.00  0.00     0.029 A 
ATOM     33  C   UNL A   1      44.586  24.213  29.991  1.00  0.00     0.049 A 
ATOM     34  H   UNL A   1      45.586  23.488  28.276  1.00  0.00     0.167 HD
ATOM     35  C   UNL A   1      46.052  26.182  29.621  1.00  0.00     0.074 A 
ATOM     36  C   UNL A   1      46.328  26.118  28.188  1.00  0.00     0.031 C 
ATOM     37  C   UNL A   1      45.350  25.355  30.449  1.00  0.00     0.034 A 
BRANCH  24  38
ATOM     38  C   UNL A   1      43.735  22.940  25.798  1.00  0.00     0.023 A 
ATOM     39  C   UNL A   1      43.687  21.541  25.638  1.00  0.00     0.031 A 
ATOM     40  C   UNL A   1      44.618  23.636  24.942  1.00  0.00     0.131 A 
ATOM     41  C   UNL A   1      44.508  20.898  24.692  1.00  0.00     0.055 A 
ATOM     42  C   UNL A   1      45.387  23.000  23.965  1.00  0.00     0.041 A 
ATOM     43  F   UNL A   1      44.848  24.949  25.075  1.00  0.00    -0.206 F 
ATOM     44  C   UNL A   1      45.350  21.621  23.848  1.00  0.00     0.022 A 
BRANCH  41  45
ATOM     45  S   UNL A   1      44.557  19.085  24.660  1.00  0.00     0.124 S 
ATOM     46  O   UNL A   1      45.654  18.798  25.577  1.00  0.00    -0.237 OA
ATOM     47  O   UNL A   1      43.219  18.736  25.127  1.00  0.00    -0.237 OA
ATOM     48  O   UNL A   1      44.822  18.776  23.256  1.00  0.00    -0.744 OA
ENDBRANCH  41  45
ENDBRANCH  24  38
BRANCH  25  49
ATOM     49  C   UNL A   1      46.816  30.596  28.064  1.00  0.00     0.023 A 
ATOM     50  C   UNL A   1      46.268  31.606  27.239  1.00  0.00     0.031 A 
ATOM     51  C   UNL A   1      48.144  30.800  28.501  1.00  0.00     0.131 A 
ATOM     52  C   UNL A   1      47.030  32.750  26.899  1.00  0.00     0.055 A 
ATOM     53  C   UNL A   1      48.894  31.928  28.157  1.00  0.00     0.041 A 
ATOM     54  F   UNL A   1      48.735  29.955  29.359  1.00  0.00    -0.206 F 
ATOM     55  C   UNL A   1      48.335  32.916  27.364  1.00  0.00     0.022 A 
BRANCH  52  56
ATOM     56  S   UNL A   1      46.286  34.120  25.951  1.00  0.00     0.124 S 
ATOM     57  O   UNL A   1      47.416  34.593  25.161  1.00  0.00    -0.237 OA
ATOM     58  O   UNL A   1      45.214  33.457  25.217  1.00  0.00    -0.237 OA
ATOM     59  O   UNL A   1      45.831  35.042  26.993  1.00  0.00    -0.744 OA
ENDBRANCH  52  56
ENDBRANCH  25  49
BRANCH  37  60
ATOM     60  C   UNL A   1      45.161  25.760  31.895  1.00  0.00     0.023 A 
ATOM     61  C   UNL A   1      46.083  25.496  32.934  1.00  0.00     0.031 A 
ATOM     62  C   UNL A   1      44.066  26.591  32.186  1.00  0.00     0.131 A 
ATOM     63  C   UNL A   1      45.886  26.065  34.209  1.00  0.00     0.055 A 
ATOM     64  C   UNL A   1      43.883  27.164  33.443  1.00  0.00     0.041 A 
ATOM     65  F   UNL A   1      43.177  26.904  31.228  1.00  0.00    -0.206 F 
ATOM     66  C   UNL A   1      44.794  26.903  34.460  1.00  0.00     0.022 A 
BRANCH  63  67
ATOM     67  S   UNL A   1      47.074  25.757  35.558  1.00  0.00     0.124 S 
ATOM     68  O   UNL A   1      46.375  24.798  36.405  1.00  0.00    -0.237 OA
ATOM     69  O   UNL A   1      48.248  25.253  34.849  1.00  0.00    -0.237 OA
ATOM     70  O   UNL A   1      47.259  27.080  36.160  1.00  0.00    -0.744 OA
ENDBRANCH  63  67
ENDBRANCH  37  60
ENDBRANCH  11  12
ENDBRANCH   4   6
ENDBRANCH   1   2
BRANCH   1  71
ATOM     71  C   UNL A   1      35.071  33.370  29.419  1.00  0.00     0.042 C 
BRANCH  71  72
ATOM     72  C   UNL A   1      35.106  34.218  30.684  1.00  0.00     0.118 C 
BRANCH  72  73
ATOM     73  N   UNL A   1      34.036  33.909  31.624  1.00  0.00    -0.351 N 
ATOM     74  C   UNL A   1      34.066  33.226  32.822  1.00  0.00     0.269 C 
ATOM     75  H   UNL A   1      33.146  34.239  31.359  1.00  0.00     0.163 HD
ATOM     76  O   UNL A   1      32.999  33.008  33.402  1.00  0.00    -0.268 OA
BRANCH  74  77
ATOM     77  C   UNL A   1      35.359  32.795  33.432  1.00  0.00     0.129 A 
ATOM     78  C   UNL A   1      36.132  31.832  32.831  1.00  0.00     0.039 A 
ATOM     79  N   UNL A   1      35.765  33.438  34.534  1.00  0.00    -0.243 NA
ATOM     80  C   UNL A   1      37.343  31.398  33.423  1.00  0.00    -0.021 A 
ATOM     81  C   UNL A   1      36.940  33.104  35.079  1.00  0.00     0.072 A 
ATOM     82  C   UNL A   1      37.828  32.081  34.612  1.00  0.00     0.012 A 
ATOM     83  C   UNL A   1      37.256  33.884  36.169  1.00  0.00     0.029 A 
ATOM     84  C   UNL A   1      39.086  31.922  35.377  1.00  0.00    -0.009 A 
ATOM     85  C   UNL A   1      38.438  33.730  36.873  1.00  0.00     0.011 A 
ATOM     86  C   UNL A   1      39.354  32.763  36.496  1.00  0.00    -0.018 A 
ATOM     87  C   UNL A   1      40.123  30.999  35.112  1.00  0.00     0.009 A 
ATOM     88  C   UNL A   1      40.539  32.659  37.250  1.00  0.00     0.009 A 
ATOM     89  C   UNL A   1      41.300  30.887  35.862  1.00  0.00     0.001 A 
ATOM     90  C   UNL A   1      41.512  31.722  36.938  1.00  0.00     0.001 A 
BRANCH  80  91
ATOM     91  C   UNL A   1      37.970  30.281  32.613  1.00  0.00     0.115 C 
ATOM     92  C   UNL A   1      37.980  28.901  33.165  1.00  0.00     0.123 C 
ATOM     93  C   UNL A   1      39.395  30.357  32.169  1.00  0.00     0.083 C 
ATOM     94  N   UNL A   1      39.102  28.292  32.943  1.00  0.00    -0.162 NA
ATOM     95  N   UNL A   1      40.002  29.212  32.304  1.00  0.00    -0.154 NA
BRANCH  93  96
ATOM     96  C   UNL A   1      40.007  31.522  31.497  1.00  0.00    -0.001 A 
ATOM     97  C   UNL A   1      39.336  32.055  30.388  1.00  0.00     0.013 A 
ATOM     98  C   UNL A   1      41.208  32.100  31.918  1.00  0.00     0.013 A 
ATOM     99  C   UNL A   1      39.846  33.177  29.731  1.00  0.00     0.040 A 
ATOM    100  C   UNL A   1      41.716  33.225  31.262  1.00  0.00     0.040 A 
ATOM    101  C   UNL A   1      41.028  33.755  30.179  1.00  0.00     0.123 A 
ATOM    102  F   UNL A   1      41.517  34.833  29.554  1.00  0.00    -0.207 F 
ENDBRANCH  93  96
ENDBRANCH  80  91
ENDBRANCH  74  77
ENDBRANCH  72  73
ENDBRANCH  71  72
ENDBRANCH   1  71
TORSDOF 15
ENDMDL
