MODEL 1
REMARK VINA RESULT:     -12.4      0.000      0.000
REMARK SMILES COc1cccc(C(=O)/C=C(/Nc2cc(C)c(C)cc2[N+](=O)[O-])C(=O)NCCCNC(=O)c2ccc(-c3c4nc(c(-c5cc(S(=O)(=O)[O-])ccc5F)c5ccc([nH]5)c(-c5cc(S(=O)(=O)[O-])ccc5F)c5nc(c(-c6cc(S(=O)(=O)[O-])ccc6F)c6ccc3[nH]6)C=C5)C=C4)cc2)c1
REMARK SMILES IDX 28 1 27 2 26 3 24 4 25 5 11 7 10 8 8 9 9 10 7 11 3 12 4 13
REMARK SMILES IDX 96 14 5 15 6 16 2 17 1 18 12 19 13 21 14 22 20 23 15 24
REMARK SMILES IDX 19 25 16 26 17 27 18 28 21 29 22 30 23 31 29 32 30 33 31 34
REMARK SMILES IDX 32 36 33 37 34 38 95 39 35 40 94 41 36 42 37 43 38 44 88 45
REMARK SMILES IDX 39 46 93 47 87 48 89 49 40 50 92 51 86 52 85 53 41 55 73 56
REMARK SMILES IDX 53 57 72 58 54 59 57 60 71 61 90 62 55 63 56 64 70 66 91 67
REMARK SMILES IDX 58 68 42 69 43 70 51 71 44 72 50 73 52 74 49 75 45 76 46 77
REMARK SMILES IDX 47 78 48 79 74 80 75 81 83 82 76 83 82 84 84 85 81 86 77 87
REMARK SMILES IDX 78 88 79 89 80 90 59 91 60 92 68 93 61 94 67 95 69 96 66 97
REMARK SMILES IDX 62 98 63 99 64 100 65 101
REMARK H PARENT 26 6 12 20 30 35 89 54 57 65
REMARK Flexibility Score: inf
ROOT
ATOM      1  C   UNL A   1      31.927  28.551  26.993  1.00  0.00     0.042 C 
ENDROOT
BRANCH   1   2
ATOM      2  C   UNL A   1      32.117  27.132  26.528  1.00  0.00     0.118 C 
BRANCH   2   3
ATOM      3  N   UNL A   1      31.070  26.174  26.804  1.00  0.00    -0.351 N 
ATOM      4  C   UNL A   1      30.830  24.999  26.135  1.00  0.00     0.267 C 
ATOM      5  O   UNL A   1      30.043  24.177  26.595  1.00  0.00    -0.268 OA
ATOM      6  H   UNL A   1      30.466  26.387  27.551  1.00  0.00     0.163 HD
BRANCH   4   7
ATOM      7  C   UNL A   1      31.509  24.752  24.819  1.00  0.00     0.108 C 
ATOM      8  C   UNL A   1      32.695  24.111  24.852  1.00  0.00     0.084 C 
BRANCH   8   9
ATOM      9  C   UNL A   1      33.617  23.570  25.896  1.00  0.00     0.188 C 
ATOM     10  O   UNL A   1      33.268  23.697  27.073  1.00  0.00    -0.289 OA
BRANCH   9  11
ATOM     11  C   UNL A   1      34.885  22.858  25.642  1.00  0.00     0.026 A 
ATOM     12  C   UNL A   1      37.294  22.643  25.738  1.00  0.00     0.119 A 
ATOM     13  C   UNL A   1      37.187  21.333  25.263  1.00  0.00     0.046 A 
ATOM     14  C   UNL A   1      36.137  23.400  25.957  1.00  0.00     0.058 A 
ATOM     15  C   UNL A   1      35.940  20.769  25.008  1.00  0.00     0.005 A 
ATOM     16  C   UNL A   1      34.790  21.528  25.203  1.00  0.00     0.012 A 
BRANCH  12  17
ATOM     17  O   UNL A   1      38.577  23.029  26.012  1.00  0.00    -0.497 OA
ATOM     18  C   UNL A   1      38.733  24.122  26.899  1.00  0.00     0.278 C 
ENDBRANCH  12  17
ENDBRANCH   9  11
ENDBRANCH   8   9
BRANCH   7  19
ATOM     19  N   UNL A   1      30.925  25.155  23.602  1.00  0.00    -0.345 N 
ATOM     20  H   UNL A   1      30.677  24.426  22.989  1.00  0.00     0.167 HD
BRANCH  19  21
ATOM     21  C   UNL A   1      30.647  26.464  23.142  1.00  0.00     0.118 A 
ATOM     22  C   UNL A   1      29.287  26.846  23.135  1.00  0.00     0.037 A 
ATOM     23  C   UNL A   1      31.591  27.484  22.955  1.00  0.00     0.292 A 
ATOM     24  C   UNL A   1      28.886  28.200  23.149  1.00  0.00    -0.046 A 
ATOM     25  C   UNL A   1      31.215  28.839  22.948  1.00  0.00     0.091 A 
ATOM     26  C   UNL A   1      27.422  28.497  23.350  1.00  0.00     0.045 C 
ATOM     27  C   UNL A   1      29.870  29.206  23.124  1.00  0.00    -0.041 A 
ATOM     28  C   UNL A   1      29.535  30.657  23.355  1.00  0.00     0.045 C 
BRANCH  23  29
ATOM     29  N   UNL A   1      32.998  27.168  22.733  1.00  0.00     0.064 N 
ATOM     30  O   UNL A   1      33.787  27.420  23.654  1.00  0.00    -0.258 OA
ATOM     31  O   UNL A   1      33.319  26.738  21.616  1.00  0.00    -0.258 OA
ENDBRANCH  23  29
ENDBRANCH  19  21
ENDBRANCH   7  19
ENDBRANCH   4   7
ENDBRANCH   2   3
ENDBRANCH   1   2
BRANCH   1  32
ATOM     32  C   UNL A   1      32.603  29.657  26.199  1.00  0.00     0.118 C 
BRANCH  32  33
ATOM     33  N   UNL A   1      32.458  31.020  26.686  1.00  0.00    -0.352 N 
ATOM     34  C   UNL A   1      33.359  31.819  27.359  1.00  0.00     0.251 C 
ATOM     35  H   UNL A   1      31.583  31.435  26.508  1.00  0.00     0.163 HD
ATOM     36  O   UNL A   1      33.033  32.967  27.654  1.00  0.00    -0.269 OA
BRANCH  34  37
ATOM     37  C   UNL A   1      34.668  31.279  27.802  1.00  0.00     0.039 A 
ATOM     38  C   UNL A   1      35.722  32.172  28.015  1.00  0.00     0.014 A 
ATOM     39  C   UNL A   1      34.849  29.925  28.080  1.00  0.00     0.014 A 
ATOM     40  C   UNL A   1      36.902  31.726  28.618  1.00  0.00     0.010 A 
ATOM     41  C   UNL A   1      35.964  29.510  28.799  1.00  0.00     0.010 A 
ATOM     42  C   UNL A   1      37.006  30.404  29.080  1.00  0.00    -0.014 A 
BRANCH  42  43
ATOM     43  C   UNL A   1      38.193  29.935  29.847  1.00  0.00     0.031 A 
ATOM     44  C   UNL A   1      38.422  30.418  31.257  1.00  0.00     0.074 A 
ATOM     45  C   UNL A   1      39.107  29.141  29.250  1.00  0.00     0.049 A 
ATOM     46  N   UNL A   1      39.437  30.206  32.053  1.00  0.00    -0.248 NA
ATOM     47  C   UNL A   1      37.392  31.303  31.824  1.00  0.00     0.031 C 
ATOM     48  C   UNL A   1      39.043  28.664  27.866  1.00  0.00     0.029 A 
ATOM     49  N   UNL A   1      40.274  28.599  29.728  1.00  0.00    -0.354 N 
ATOM     50  C   UNL A   1      39.181  30.950  33.201  1.00  0.00     0.074 A 
ATOM     51  C   UNL A   1      37.957  31.682  32.958  1.00  0.00     0.031 C 
ATOM     52  C   UNL A   1      40.098  27.869  27.623  1.00  0.00     0.029 A 
ATOM     53  C   UNL A   1      40.936  27.812  28.814  1.00  0.00     0.049 A 
ATOM     54  H   UNL A   1      40.607  28.758  30.641  1.00  0.00     0.167 HD
ATOM     55  C   UNL A   1      39.881  30.996  34.363  1.00  0.00     0.034 A 
ATOM     56  C   UNL A   1      42.088  27.120  28.924  1.00  0.00     0.034 A 
ATOM     57  C   UNL A   1      41.080  30.229  34.602  1.00  0.00     0.049 A 
ATOM     58  C   UNL A   1      42.826  27.149  30.237  1.00  0.00     0.074 A 
ATOM     59  C   UNL A   1      41.838  30.149  35.757  1.00  0.00     0.029 A 
ATOM     60  N   UNL A   1      41.695  29.405  33.667  1.00  0.00    -0.354 N 
ATOM     61  N   UNL A   1      42.540  27.816  31.332  1.00  0.00    -0.248 NA
ATOM     62  C   UNL A   1      44.031  26.315  30.334  1.00  0.00     0.031 C 
ATOM     63  C   UNL A   1      42.937  29.319  35.504  1.00  0.00     0.029 A 
ATOM     64  C   UNL A   1      42.829  28.825  34.214  1.00  0.00     0.049 A 
ATOM     65  H   UNL A   1      41.372  29.255  32.750  1.00  0.00     0.167 HD
ATOM     66  C   UNL A   1      43.516  27.457  32.259  1.00  0.00     0.074 A 
ATOM     67  C   UNL A   1      44.380  26.499  31.598  1.00  0.00     0.031 C 
ATOM     68  C   UNL A   1      43.686  27.880  33.538  1.00  0.00     0.034 A 
BRANCH  55  69
ATOM     69  C   UNL A   1      39.363  31.912  35.448  1.00  0.00     0.023 A 
ATOM     70  C   UNL A   1      38.718  31.409  36.592  1.00  0.00     0.031 A 
ATOM     71  C   UNL A   1      39.469  33.308  35.316  1.00  0.00     0.131 A 
ATOM     72  C   UNL A   1      38.123  32.289  37.507  1.00  0.00     0.055 A 
ATOM     73  C   UNL A   1      38.956  34.179  36.280  1.00  0.00     0.041 A 
ATOM     74  F   UNL A   1      40.057  33.851  34.238  1.00  0.00    -0.206 F 
ATOM     75  C   UNL A   1      38.261  33.672  37.374  1.00  0.00     0.022 A 
BRANCH  72  76
ATOM     76  S   UNL A   1      37.027  31.601  38.778  1.00  0.00     0.124 S 
ATOM     77  O   UNL A   1      37.851  31.734  39.978  1.00  0.00    -0.237 OA
ATOM     78  O   UNL A   1      35.865  32.478  38.701  1.00  0.00    -0.237 OA
ATOM     79  O   UNL A   1      36.805  30.227  38.333  1.00  0.00    -0.744 OA
ENDBRANCH  72  76
ENDBRANCH  55  69
BRANCH  56  80
ATOM     80  C   UNL A   1      42.610  26.326  27.775  1.00  0.00     0.023 A 
ATOM     81  C   UNL A   1      42.354  24.949  27.673  1.00  0.00     0.031 A 
ATOM     82  C   UNL A   1      43.406  26.922  26.781  1.00  0.00     0.131 A 
ATOM     83  C   UNL A   1      42.929  24.203  26.632  1.00  0.00     0.055 A 
ATOM     84  C   UNL A   1      43.936  26.185  25.720  1.00  0.00     0.041 A 
ATOM     85  F   UNL A   1      43.672  28.238  26.822  1.00  0.00    -0.206 F 
ATOM     86  C   UNL A   1      43.709  24.814  25.649  1.00  0.00     0.022 A 
BRANCH  83  87
ATOM     87  S   UNL A   1      42.704  22.403  26.627  1.00  0.00     0.124 S 
ATOM     88  O   UNL A   1      44.027  21.938  26.226  1.00  0.00    -0.237 OA
ATOM     89  O   UNL A   1      42.325  22.143  28.012  1.00  0.00    -0.237 OA
ATOM     90  O   UNL A   1      41.643  22.197  25.644  1.00  0.00    -0.744 OA
ENDBRANCH  83  87
ENDBRANCH  56  80
BRANCH  68  91
ATOM     91  C   UNL A   1      44.828  27.266  34.310  1.00  0.00     0.023 A 
ATOM     92  C   UNL A   1      44.657  26.099  35.076  1.00  0.00     0.031 A 
ATOM     93  C   UNL A   1      46.093  27.879  34.311  1.00  0.00     0.131 A 
ATOM     94  C   UNL A   1      45.711  25.626  35.871  1.00  0.00     0.055 A 
ATOM     95  C   UNL A   1      47.158  27.365  35.052  1.00  0.00     0.041 A 
ATOM     96  F   UNL A   1      46.312  28.995  33.599  1.00  0.00    -0.206 F 
ATOM     97  C   UNL A   1      46.965  26.242  35.853  1.00  0.00     0.022 A 
BRANCH  94  98
ATOM     98  S   UNL A   1      45.382  24.267  37.027  1.00  0.00     0.124 S 
ATOM     99  O   UNL A   1      46.715  23.980  37.546  1.00  0.00    -0.237 OA
ATOM    100  O   UNL A   1      44.450  24.879  37.968  1.00  0.00    -0.237 OA
ATOM    101  O   UNL A   1      44.809  23.225  36.176  1.00  0.00    -0.744 OA
ENDBRANCH  94  98
ENDBRANCH  68  91
ENDBRANCH  42  43
ENDBRANCH  34  37
ENDBRANCH  32  33
ENDBRANCH   1  32
TORSDOF 19
ENDMDL
MODEL 2
REMARK VINA RESULT:     -12.0      1.848      2.217
REMARK SMILES COc1cccc(C(=O)/C=C(/Nc2cc(C)c(C)cc2[N+](=O)[O-])C(=O)NCCCNC(=O)c2ccc(-c3c4nc(c(-c5cc(S(=O)(=O)[O-])ccc5F)c5ccc([nH]5)c(-c5cc(S(=O)(=O)[O-])ccc5F)c5nc(c(-c6cc(S(=O)(=O)[O-])ccc6F)c6ccc3[nH]6)C=C5)C=C4)cc2)c1
REMARK SMILES IDX 28 1 27 2 26 3 24 4 25 5 11 7 10 8 8 9 9 10 7 11 3 12 4 13
REMARK SMILES IDX 96 14 5 15 6 16 2 17 1 18 12 19 13 21 14 22 20 23 15 24
REMARK SMILES IDX 19 25 16 26 17 27 18 28 21 29 22 30 23 31 29 32 30 33 31 34
REMARK SMILES IDX 32 36 33 37 34 38 95 39 35 40 94 41 36 42 37 43 38 44 88 45
REMARK SMILES IDX 39 46 93 47 87 48 89 49 40 50 92 51 86 52 85 53 41 55 73 56
REMARK SMILES IDX 53 57 72 58 54 59 57 60 71 61 90 62 55 63 56 64 70 66 91 67
REMARK SMILES IDX 58 68 42 69 43 70 51 71 44 72 50 73 52 74 49 75 45 76 46 77
REMARK SMILES IDX 47 78 48 79 74 80 75 81 83 82 76 83 82 84 84 85 81 86 77 87
REMARK SMILES IDX 78 88 79 89 80 90 59 91 60 92 68 93 61 94 67 95 69 96 66 97
REMARK SMILES IDX 62 98 63 99 64 100 65 101
REMARK H PARENT 26 6 12 20 30 35 89 54 57 65
REMARK Flexibility Score: inf
ROOT
ATOM      1  C   UNL A   1      32.286  28.727  27.046  1.00  0.00     0.042 C 
ENDROOT
BRANCH   1   2
ATOM      2  C   UNL A   1      32.150  27.349  26.453  1.00  0.00     0.118 C 
BRANCH   2   3
ATOM      3  N   UNL A   1      30.943  26.602  26.727  1.00  0.00    -0.351 N 
ATOM      4  C   UNL A   1      30.500  25.480  26.070  1.00  0.00     0.267 C 
ATOM      5  O   UNL A   1      29.573  24.822  26.529  1.00  0.00    -0.268 OA
ATOM      6  H   UNL A   1      30.380  26.931  27.464  1.00  0.00     0.163 HD
BRANCH   4   7
ATOM      7  C   UNL A   1      31.137  25.096  24.765  1.00  0.00     0.108 C 
ATOM      8  C   UNL A   1      32.236  24.318  24.825  1.00  0.00     0.084 C 
BRANCH   8   9
ATOM      9  C   UNL A   1      33.092  23.715  25.892  1.00  0.00     0.188 C 
ATOM     10  O   UNL A   1      32.607  23.639  27.024  1.00  0.00    -0.289 OA
BRANCH   9  11
ATOM     11  C   UNL A   1      34.448  23.163  25.700  1.00  0.00     0.026 A 
ATOM     12  C   UNL A   1      35.997  21.359  25.247  1.00  0.00     0.119 A 
ATOM     13  C   UNL A   1      37.042  22.284  25.186  1.00  0.00     0.046 A 
ATOM     14  C   UNL A   1      34.689  21.802  25.475  1.00  0.00     0.058 A 
ATOM     15  C   UNL A   1      36.797  23.645  25.346  1.00  0.00     0.005 A 
ATOM     16  C   UNL A   1      35.500  24.084  25.597  1.00  0.00     0.012 A 
BRANCH  12  17
ATOM     17  O   UNL A   1      36.382  20.071  24.996  1.00  0.00    -0.497 OA
ATOM     18  C   UNL A   1      37.775  19.816  24.996  1.00  0.00     0.278 C 
ENDBRANCH  12  17
ENDBRANCH   9  11
ENDBRANCH   8   9
BRANCH   7  19
ATOM     19  N   UNL A   1      30.598  25.513  23.532  1.00  0.00    -0.345 N 
ATOM     20  H   UNL A   1      30.425  24.795  22.880  1.00  0.00     0.167 HD
BRANCH  19  21
ATOM     21  C   UNL A   1      30.272  26.822  23.103  1.00  0.00     0.118 A 
ATOM     22  C   UNL A   1      28.904  27.171  23.152  1.00  0.00     0.037 A 
ATOM     23  C   UNL A   1      31.185  27.866  22.898  1.00  0.00     0.292 A 
ATOM     24  C   UNL A   1      28.473  28.514  23.202  1.00  0.00    -0.046 A 
ATOM     25  C   UNL A   1      30.777  29.212  22.927  1.00  0.00     0.091 A 
ATOM     26  C   UNL A   1      27.011  28.774  23.461  1.00  0.00     0.045 C 
ATOM     27  C   UNL A   1      29.432  29.545  23.157  1.00  0.00    -0.041 A 
ATOM     28  C   UNL A   1      29.072  30.983  23.424  1.00  0.00     0.045 C 
BRANCH  23  29
ATOM     29  N   UNL A   1      32.590  27.588  22.620  1.00  0.00     0.064 N 
ATOM     30  O   UNL A   1      32.854  26.520  22.049  1.00  0.00    -0.258 OA
ATOM     31  O   UNL A   1      33.428  28.401  23.036  1.00  0.00    -0.258 OA
ENDBRANCH  23  29
ENDBRANCH  19  21
ENDBRANCH   7  19
ENDBRANCH   4   7
ENDBRANCH   2   3
ENDBRANCH   1   2
BRANCH   1  32
ATOM     32  C   UNL A   1      32.606  29.877  26.106  1.00  0.00     0.118 C 
BRANCH  32  33
ATOM     33  N   UNL A   1      32.445  31.229  26.618  1.00  0.00    -0.352 N 
ATOM     34  C   UNL A   1      33.327  32.018  27.327  1.00  0.00     0.251 C 
ATOM     35  H   UNL A   1      31.572  31.644  26.430  1.00  0.00     0.163 HD
ATOM     36  O   UNL A   1      32.990  33.157  27.639  1.00  0.00    -0.269 OA
BRANCH  34  37
ATOM     37  C   UNL A   1      34.629  31.474  27.786  1.00  0.00     0.039 A 
ATOM     38  C   UNL A   1      35.686  32.362  28.004  1.00  0.00     0.014 A 
ATOM     39  C   UNL A   1      34.800  30.121  28.076  1.00  0.00     0.014 A 
ATOM     40  C   UNL A   1      36.857  31.914  28.622  1.00  0.00     0.010 A 
ATOM     41  C   UNL A   1      35.905  29.704  28.809  1.00  0.00     0.010 A 
ATOM     42  C   UNL A   1      36.950  30.595  29.094  1.00  0.00    -0.014 A 
BRANCH  42  43
ATOM     43  C   UNL A   1      38.126  30.124  29.875  1.00  0.00     0.031 A 
ATOM     44  C   UNL A   1      38.326  30.590  31.295  1.00  0.00     0.074 A 
ATOM     45  C   UNL A   1      39.058  29.346  29.285  1.00  0.00     0.049 A 
ATOM     46  N   UNL A   1      39.329  30.374  32.107  1.00  0.00    -0.248 NA
ATOM     47  C   UNL A   1      37.279  31.458  31.856  1.00  0.00     0.031 C 
ATOM     48  C   UNL A   1      39.022  28.888  27.893  1.00  0.00     0.029 A 
ATOM     49  N   UNL A   1      40.220  28.806  29.776  1.00  0.00    -0.354 N 
ATOM     50  C   UNL A   1      39.046  31.100  33.260  1.00  0.00     0.074 A 
ATOM     51  C   UNL A   1      37.820  31.826  33.006  1.00  0.00     0.031 C 
ATOM     52  C   UNL A   1      40.088  28.105  27.658  1.00  0.00     0.029 A 
ATOM     53  C   UNL A   1      40.905  28.037  28.863  1.00  0.00     0.049 A 
ATOM     54  H   UNL A   1      40.535  28.955  30.697  1.00  0.00     0.167 HD
ATOM     55  C   UNL A   1      39.725  31.135  34.435  1.00  0.00     0.034 A 
ATOM     56  C   UNL A   1      42.060  27.353  28.984  1.00  0.00     0.034 A 
ATOM     57  C   UNL A   1      40.925  30.375  34.685  1.00  0.00     0.049 A 
ATOM     58  C   UNL A   1      42.775  27.369  30.311  1.00  0.00     0.074 A 
ATOM     59  C   UNL A   1      41.663  30.284  35.853  1.00  0.00     0.029 A 
ATOM     60  N   UNL A   1      41.563  29.569  33.750  1.00  0.00    -0.354 N 
ATOM     61  N   UNL A   1      42.464  28.019  31.409  1.00  0.00    -0.248 NA
ATOM     62  C   UNL A   1      43.984  26.544  30.418  1.00  0.00     0.031 C 
ATOM     63  C   UNL A   1      42.773  29.467  35.609  1.00  0.00     0.029 A 
ATOM     64  C   UNL A   1      42.692  28.990  34.310  1.00  0.00     0.049 A 
ATOM     65  H   UNL A   1      41.258  29.429  32.825  1.00  0.00     0.167 HD
ATOM     66  C   UNL A   1      43.426  27.655  32.349  1.00  0.00     0.074 A 
ATOM     67  C   UNL A   1      44.309  26.713  31.691  1.00  0.00     0.031 C 
ATOM     68  C   UNL A   1      43.569  28.061  33.636  1.00  0.00     0.034 A 
BRANCH  55  69
ATOM     69  C   UNL A   1      39.179  32.033  35.523  1.00  0.00     0.023 A 
ATOM     70  C   UNL A   1      39.586  33.374  35.645  1.00  0.00     0.031 A 
ATOM     71  C   UNL A   1      38.279  31.532  36.479  1.00  0.00     0.131 A 
ATOM     72  C   UNL A   1      39.172  34.135  36.747  1.00  0.00     0.055 A 
ATOM     73  C   UNL A   1      37.796  32.325  37.522  1.00  0.00     0.041 A 
ATOM     74  F   UNL A   1      37.867  30.255  36.428  1.00  0.00    -0.206 F 
ATOM     75  C   UNL A   1      38.258  33.629  37.673  1.00  0.00     0.022 A 
BRANCH  72  76
ATOM     76  S   UNL A   1      39.976  35.735  37.041  1.00  0.00     0.124 S 
ATOM     77  O   UNL A   1      39.653  36.455  35.811  1.00  0.00    -0.237 OA
ATOM     78  O   UNL A   1      39.310  36.205  38.250  1.00  0.00    -0.237 OA
ATOM     79  O   UNL A   1      41.386  35.386  37.199  1.00  0.00    -0.744 OA
ENDBRANCH  72  76
ENDBRANCH  55  69
BRANCH  56  80
ATOM     80  C   UNL A   1      42.609  26.579  27.834  1.00  0.00     0.023 A 
ATOM     81  C   UNL A   1      42.407  25.193  27.734  1.00  0.00     0.031 A 
ATOM     82  C   UNL A   1      43.378  27.206  26.837  1.00  0.00     0.131 A 
ATOM     83  C   UNL A   1      43.007  24.470  26.691  1.00  0.00     0.055 A 
ATOM     84  C   UNL A   1      43.934  26.489  25.775  1.00  0.00     0.041 A 
ATOM     85  F   UNL A   1      43.593  28.530  26.877  1.00  0.00    -0.206 F 
ATOM     86  C   UNL A   1      43.760  25.110  25.705  1.00  0.00     0.022 A 
BRANCH  83  87
ATOM     87  S   UNL A   1      42.852  22.662  26.687  1.00  0.00     0.124 S 
ATOM     88  O   UNL A   1      44.199  22.248  26.313  1.00  0.00    -0.237 OA
ATOM     89  O   UNL A   1      42.457  22.391  28.066  1.00  0.00    -0.237 OA
ATOM     90  O   UNL A   1      41.819  22.413  25.685  1.00  0.00    -0.744 OA
ENDBRANCH  83  87
ENDBRANCH  56  80
BRANCH  68  91
ATOM     91  C   UNL A   1      44.701  27.446  34.421  1.00  0.00     0.023 A 
ATOM     92  C   UNL A   1      45.980  28.029  34.451  1.00  0.00     0.031 A 
ATOM     93  C   UNL A   1      44.508  26.238  35.114  1.00  0.00     0.131 A 
ATOM     94  C   UNL A   1      47.035  27.366  35.095  1.00  0.00     0.055 A 
ATOM     95  C   UNL A   1      45.546  25.616  35.810  1.00  0.00     0.041 A 
ATOM     96  F   UNL A   1      43.308  25.637  35.118  1.00  0.00    -0.206 F 
ATOM     97  C   UNL A   1      46.823  26.171  35.788  1.00  0.00     0.022 A 
BRANCH  94  98
ATOM     98  S   UNL A   1      48.716  28.023  34.908  1.00  0.00     0.124 S 
ATOM     99  O   UNL A   1      49.501  27.075  35.690  1.00  0.00    -0.237 OA
ATOM    100  O   UNL A   1      48.909  27.972  33.463  1.00  0.00    -0.237 OA
ATOM    101  O   UNL A   1      48.622  29.368  35.474  1.00  0.00    -0.744 OA
ENDBRANCH  94  98
ENDBRANCH  68  91
ENDBRANCH  42  43
ENDBRANCH  34  37
ENDBRANCH  32  33
ENDBRANCH   1  32
TORSDOF 19
ENDMDL
MODEL 3
REMARK VINA RESULT:     -11.9      2.414      8.857
REMARK SMILES COc1cccc(C(=O)/C=C(/Nc2cc(C)c(C)cc2[N+](=O)[O-])C(=O)NCCCNC(=O)c2ccc(-c3c4nc(c(-c5cc(S(=O)(=O)[O-])ccc5F)c5ccc([nH]5)c(-c5cc(S(=O)(=O)[O-])ccc5F)c5nc(c(-c6cc(S(=O)(=O)[O-])ccc6F)c6ccc3[nH]6)C=C5)C=C4)cc2)c1
REMARK SMILES IDX 28 1 27 2 26 3 24 4 25 5 11 7 10 8 8 9 9 10 7 11 3 12 4 13
REMARK SMILES IDX 96 14 5 15 6 16 2 17 1 18 12 19 13 21 14 22 20 23 15 24
REMARK SMILES IDX 19 25 16 26 17 27 18 28 21 29 22 30 23 31 29 32 30 33 31 34
REMARK SMILES IDX 32 36 33 37 34 38 95 39 35 40 94 41 36 42 37 43 38 44 88 45
REMARK SMILES IDX 39 46 93 47 87 48 89 49 40 50 92 51 86 52 85 53 41 55 73 56
REMARK SMILES IDX 53 57 72 58 54 59 57 60 71 61 90 62 55 63 56 64 70 66 91 67
REMARK SMILES IDX 58 68 42 69 43 70 51 71 44 72 50 73 52 74 49 75 45 76 46 77
REMARK SMILES IDX 47 78 48 79 74 80 75 81 83 82 76 83 82 84 84 85 81 86 77 87
REMARK SMILES IDX 78 88 79 89 80 90 59 91 60 92 68 93 61 94 67 95 69 96 66 97
REMARK SMILES IDX 62 98 63 99 64 100 65 101
REMARK H PARENT 26 6 12 20 30 35 89 54 57 65
REMARK Flexibility Score: inf
ROOT
ATOM      1  C   UNL A   1      32.711  30.547  27.214  1.00  0.00     0.042 C 
ENDROOT
BRANCH   1   2
ATOM      2  C   UNL A   1      32.422  29.690  26.010  1.00  0.00     0.118 C 
BRANCH   2   3
ATOM      3  N   UNL A   1      31.524  28.568  26.167  1.00  0.00    -0.351 N 
ATOM      4  C   UNL A   1      31.305  27.554  25.267  1.00  0.00     0.267 C 
ATOM      5  O   UNL A   1      30.677  26.556  25.603  1.00  0.00    -0.268 OA
ATOM      6  H   UNL A   1      31.016  28.526  27.009  1.00  0.00     0.163 HD
BRANCH   4   7
ATOM      7  C   UNL A   1      31.807  27.703  23.859  1.00  0.00     0.108 C 
ATOM      8  C   UNL A   1      31.007  28.349  22.989  1.00  0.00     0.084 C 
BRANCH   8   9
ATOM      9  C   UNL A   1      29.648  28.973  23.007  1.00  0.00     0.188 C 
ATOM     10  O   UNL A   1      28.683  28.211  23.105  1.00  0.00    -0.289 OA
BRANCH   9  11
ATOM     11  C   UNL A   1      29.364  30.421  22.962  1.00  0.00     0.026 A 
ATOM     12  C   UNL A   1      28.388  32.397  21.960  1.00  0.00     0.119 A 
ATOM     13  C   UNL A   1      28.748  33.136  23.089  1.00  0.00     0.046 A 
ATOM     14  C   UNL A   1      28.669  31.026  21.907  1.00  0.00     0.058 A 
ATOM     15  C   UNL A   1      29.383  32.525  24.167  1.00  0.00     0.005 A 
ATOM     16  C   UNL A   1      29.684  31.167  24.106  1.00  0.00     0.012 A 
BRANCH  12  17
ATOM     17  O   UNL A   1      27.708  33.119  21.019  1.00  0.00    -0.497 OA
ATOM     18  C   UNL A   1      27.682  32.584  19.707  1.00  0.00     0.278 C 
ENDBRANCH  12  17
ENDBRANCH   9  11
ENDBRANCH   8   9
BRANCH   7  19
ATOM     19  N   UNL A   1      33.067  27.206  23.471  1.00  0.00    -0.345 N 
ATOM     20  H   UNL A   1      33.724  27.885  23.196  1.00  0.00     0.167 HD
BRANCH  19  21
ATOM     21  C   UNL A   1      33.515  25.864  23.422  1.00  0.00     0.118 A 
ATOM     22  C   UNL A   1      34.141  25.374  24.590  1.00  0.00     0.037 A 
ATOM     23  C   UNL A   1      33.162  24.919  22.449  1.00  0.00     0.292 A 
ATOM     24  C   UNL A   1      34.228  23.994  24.873  1.00  0.00    -0.046 A 
ATOM     25  C   UNL A   1      33.255  23.538  22.701  1.00  0.00     0.091 A 
ATOM     26  C   UNL A   1      34.728  23.586  26.235  1.00  0.00     0.045 C 
ATOM     27  C   UNL A   1      33.716  23.069  23.943  1.00  0.00    -0.041 A 
ATOM     28  C   UNL A   1      33.574  21.605  24.267  1.00  0.00     0.045 C 
BRANCH  23  29
ATOM     29  N   UNL A   1      32.709  25.339  21.127  1.00  0.00     0.064 N 
ATOM     30  O   UNL A   1      31.793  26.172  21.081  1.00  0.00    -0.258 OA
ATOM     31  O   UNL A   1      33.220  24.785  20.144  1.00  0.00    -0.258 OA
ENDBRANCH  23  29
ENDBRANCH  19  21
ENDBRANCH   7  19
ENDBRANCH   4   7
ENDBRANCH   2   3
ENDBRANCH   1   2
BRANCH   1  32
ATOM     32  C   UNL A   1      33.493  31.833  27.001  1.00  0.00     0.118 C 
BRANCH  32  33
ATOM     33  N   UNL A   1      32.866  33.078  27.418  1.00  0.00    -0.352 N 
ATOM     34  C   UNL A   1      33.240  33.970  28.401  1.00  0.00     0.251 C 
ATOM     35  H   UNL A   1      32.051  33.320  26.922  1.00  0.00     0.163 HD
ATOM     36  O   UNL A   1      32.572  34.988  28.567  1.00  0.00    -0.269 OA
BRANCH  34  37
ATOM     37  C   UNL A   1      34.374  33.668  29.308  1.00  0.00     0.039 A 
ATOM     38  C   UNL A   1      34.168  32.776  30.364  1.00  0.00     0.014 A 
ATOM     39  C   UNL A   1      35.649  34.188  29.090  1.00  0.00     0.014 A 
ATOM     40  C   UNL A   1      35.256  32.318  31.113  1.00  0.00     0.010 A 
ATOM     41  C   UNL A   1      36.744  33.634  29.743  1.00  0.00     0.010 A 
ATOM     42  C   UNL A   1      36.564  32.690  30.764  1.00  0.00    -0.014 A 
BRANCH  42  43
ATOM     43  C   UNL A   1      37.752  32.114  31.453  1.00  0.00     0.031 A 
ATOM     44  C   UNL A   1      38.535  31.001  30.805  1.00  0.00     0.074 A 
ATOM     45  C   UNL A   1      38.076  32.533  32.694  1.00  0.00     0.049 A 
ATOM     46  N   UNL A   1      39.535  30.304  31.280  1.00  0.00    -0.248 NA
ATOM     47  C   UNL A   1      38.099  30.584  29.463  1.00  0.00     0.031 C 
ATOM     48  C   UNL A   1      37.353  33.550  33.464  1.00  0.00     0.029 A 
ATOM     49  N   UNL A   1      39.094  32.153  33.532  1.00  0.00    -0.354 N 
ATOM     50  C   UNL A   1      39.827  29.351  30.309  1.00  0.00     0.074 A 
ATOM     51  C   UNL A   1      38.845  29.510  29.259  1.00  0.00     0.031 C 
ATOM     52  C   UNL A   1      37.975  33.740  34.638  1.00  0.00     0.029 A 
ATOM     53  C   UNL A   1      39.113  32.834  34.728  1.00  0.00     0.049 A 
ATOM     54  H   UNL A   1      39.751  31.457  33.300  1.00  0.00     0.167 HD
ATOM     55  C   UNL A   1      40.840  28.448  30.276  1.00  0.00     0.034 A 
ATOM     56  C   UNL A   1      39.954  32.740  35.777  1.00  0.00     0.034 A 
ATOM     57  C   UNL A   1      41.835  28.328  31.314  1.00  0.00     0.049 A 
ATOM     58  C   UNL A   1      41.098  31.762  35.703  1.00  0.00     0.074 A 
ATOM     59  C   UNL A   1      42.939  27.494  31.362  1.00  0.00     0.029 A 
ATOM     60  N   UNL A   1      41.848  29.069  32.490  1.00  0.00    -0.354 N 
ATOM     61  N   UNL A   1      41.392  30.905  34.751  1.00  0.00    -0.248 NA
ATOM     62  C   UNL A   1      42.033  31.754  36.834  1.00  0.00     0.031 C 
ATOM     63  C   UNL A   1      43.588  27.693  32.586  1.00  0.00     0.029 A 
ATOM     64  C   UNL A   1      42.931  28.701  33.274  1.00  0.00     0.049 A 
ATOM     65  H   UNL A   1      41.186  29.755  32.731  1.00  0.00     0.167 HD
ATOM     66  C   UNL A   1      42.567  30.277  35.159  1.00  0.00     0.074 A 
ATOM     67  C   UNL A   1      42.934  30.872  36.428  1.00  0.00     0.031 C 
ATOM     68  C   UNL A   1      43.277  29.297  34.543  1.00  0.00     0.034 A 
BRANCH  55  69
ATOM     69  C   UNL A   1      40.905  27.523  29.082  1.00  0.00     0.023 A 
ATOM     70  C   UNL A   1      41.866  27.692  28.069  1.00  0.00     0.031 A 
ATOM     71  C   UNL A   1      39.966  26.488  28.927  1.00  0.00     0.131 A 
ATOM     72  C   UNL A   1      41.808  26.909  26.908  1.00  0.00     0.055 A 
ATOM     73  C   UNL A   1      39.973  25.649  27.811  1.00  0.00     0.041 A 
ATOM     74  F   UNL A   1      39.011  26.286  29.850  1.00  0.00    -0.206 F 
ATOM     75  C   UNL A   1      40.884  25.869  26.783  1.00  0.00     0.022 A 
BRANCH  72  76
ATOM     76  S   UNL A   1      42.849  27.378  25.498  1.00  0.00     0.124 S 
ATOM     77  O   UNL A   1      42.908  26.126  24.748  1.00  0.00    -0.237 OA
ATOM     78  O   UNL A   1      42.081  28.455  24.884  1.00  0.00    -0.237 OA
ATOM     79  O   UNL A   1      44.107  27.784  26.121  1.00  0.00    -0.744 OA
ENDBRANCH  72  76
ENDBRANCH  55  69
BRANCH  56  80
ATOM     80  C   UNL A   1      39.767  33.601  36.980  1.00  0.00     0.023 A 
ATOM     81  C   UNL A   1      39.090  33.121  38.113  1.00  0.00     0.031 A 
ATOM     82  C   UNL A   1      40.224  34.931  37.001  1.00  0.00     0.131 A 
ATOM     83  C   UNL A   1      38.846  33.976  39.200  1.00  0.00     0.055 A 
ATOM     84  C   UNL A   1      40.021  35.763  38.104  1.00  0.00     0.041 A 
ATOM     85  F   UNL A   1      40.888  35.438  35.950  1.00  0.00    -0.206 F 
ATOM     86  C   UNL A   1      39.317  35.290  39.207  1.00  0.00     0.022 A 
BRANCH  83  87
ATOM     87  S   UNL A   1      37.833  33.364  40.575  1.00  0.00     0.124 S 
ATOM     88  O   UNL A   1      36.611  32.961  39.889  1.00  0.00    -0.237 OA
ATOM     89  O   UNL A   1      38.662  32.284  41.101  1.00  0.00    -0.237 OA
ATOM     90  O   UNL A   1      37.706  34.530  41.447  1.00  0.00    -0.744 OA
ENDBRANCH  83  87
ENDBRANCH  56  80
BRANCH  68  91
ATOM     91  C   UNL A   1      44.547  28.849  35.225  1.00  0.00     0.023 A 
ATOM     92  C   UNL A   1      44.540  27.849  36.213  1.00  0.00     0.031 A 
ATOM     93  C   UNL A   1      45.774  29.458  34.908  1.00  0.00     0.131 A 
ATOM     94  C   UNL A   1      45.721  27.542  36.904  1.00  0.00     0.055 A 
ATOM     95  C   UNL A   1      46.958  29.102  35.553  1.00  0.00     0.041 A 
ATOM     96  F   UNL A   1      45.838  30.419  33.973  1.00  0.00    -0.206 F 
ATOM     97  C   UNL A   1      46.933  28.152  36.570  1.00  0.00     0.022 A 
BRANCH  94  98
ATOM     98  S   UNL A   1      45.626  26.427  38.332  1.00  0.00     0.124 S 
ATOM     99  O   UNL A   1      45.004  25.242  37.750  1.00  0.00    -0.237 OA
ATOM    100  O   UNL A   1      47.028  26.289  38.711  1.00  0.00    -0.237 OA
ATOM    101  O   UNL A   1      44.794  27.160  39.284  1.00  0.00    -0.744 OA
ENDBRANCH  94  98
ENDBRANCH  68  91
ENDBRANCH  42  43
ENDBRANCH  34  37
ENDBRANCH  32  33
ENDBRANCH   1  32
TORSDOF 19
ENDMDL
