MODEL 1
REMARK VINA RESULT:     -12.3      0.000      0.000
REMARK SMILES COc1ccc2c(c1)c(CC(=O)NCCCNC(=O)c1ccc(-c3c4nc(c(-c5cc(S(=O)(=O)[O-])ccc5F)c5ccc([nH]5)c(-c5cc(S(=O)(=O)[O-])ccc5F)c5nc(c(-c6cc(S(=O)(=O)[O-])ccc6F)c6ccc3[nH]6)C=C5)C=C4)cc1)c(C)n2Cc1ccc(Br)cc1
REMARK SMILES IDX 15 1 14 2 13 3 11 4 12 5 10 7 9 8 3 9 4 10 8 11 5 12 7 13
REMARK SMILES IDX 6 14 85 15 83 16 84 17 2 18 1 19 86 20 87 21 88 22 93 23
REMARK SMILES IDX 89 24 92 25 90 26 91 27 16 28 17 29 18 30 19 32 20 33 21 34
REMARK SMILES IDX 82 35 22 36 81 37 23 38 24 39 25 40 75 41 26 42 80 43 74 44
REMARK SMILES IDX 76 45 27 46 79 47 73 48 72 49 28 51 60 52 40 53 59 54 41 55
REMARK SMILES IDX 44 56 58 57 77 58 42 59 43 60 57 62 78 63 45 64 29 65 30 66
REMARK SMILES IDX 38 67 31 68 37 69 39 70 36 71 32 72 33 73 34 74 35 75 61 76
REMARK SMILES IDX 62 77 70 78 63 79 69 80 71 81 68 82 64 83 65 84 66 85 67 86
REMARK SMILES IDX 46 87 47 88 55 89 48 90 54 91 56 92 53 93 49 94 50 95 51 96
REMARK SMILES IDX 52 97
REMARK H PARENT 13 6 17 31 76 50 44 61
REMARK Flexibility Score: inf
ROOT
ATOM      1  C   UNL A   1      38.655  22.569  26.071  1.00  0.00     0.042 C 
ENDROOT
BRANCH   1   2
ATOM      2  C   UNL A   1      37.604  21.653  25.433  1.00  0.00     0.117 C 
BRANCH   2   3
ATOM      3  N   UNL A   1      36.926  22.264  24.296  1.00  0.00    -0.356 N 
ATOM      4  C   UNL A   1      36.090  23.342  24.243  1.00  0.00     0.224 C 
ATOM      5  O   UNL A   1      35.668  23.692  23.137  1.00  0.00    -0.275 OA
ATOM      6  H   UNL A   1      37.098  21.830  23.429  1.00  0.00     0.163 HD
BRANCH   4   7
ATOM      7  C   UNL A   1      35.753  24.138  25.493  1.00  0.00     0.138 C 
BRANCH   7   8
ATOM      8  C   UNL A   1      34.293  24.432  25.641  1.00  0.00    -0.010 A 
ATOM      9  C   UNL A   1      31.922  21.456  25.407  1.00  0.00     0.119 A 
ATOM     10  C   UNL A   1      30.764  22.163  25.719  1.00  0.00     0.048 A 
ATOM     11  C   UNL A   1      33.157  22.107  25.405  1.00  0.00     0.057 A 
ATOM     12  C   UNL A   1      30.807  23.538  25.995  1.00  0.00     0.031 A 
ATOM     13  C   UNL A   1      33.221  23.495  25.637  1.00  0.00     0.007 A 
ATOM     14  C   UNL A   1      32.047  24.198  25.925  1.00  0.00     0.049 A 
ATOM     15  N   UNL A   1      32.406  25.527  26.114  1.00  0.00    -0.340 N 
ATOM     16  C   UNL A   1      33.719  25.692  25.697  1.00  0.00     0.020 A 
ATOM     17  C   UNL A   1      34.391  26.990  25.422  1.00  0.00     0.065 C 
BRANCH   9  18
ATOM     18  O   UNL A   1      31.964  20.113  25.143  1.00  0.00    -0.497 OA
ATOM     19  C   UNL A   1      33.272  19.552  25.153  1.00  0.00     0.278 C 
ENDBRANCH   9  18
BRANCH  15  20
ATOM     20  C   UNL A   1      31.505  26.582  26.607  1.00  0.00     0.157 C 
BRANCH  20  21
ATOM     21  C   UNL A   1      31.013  27.485  25.496  1.00  0.00    -0.028 A 
ATOM     22  C   UNL A   1      30.223  26.956  24.467  1.00  0.00     0.007 A 
ATOM     23  C   UNL A   1      31.322  28.853  25.453  1.00  0.00     0.007 A 
ATOM     24  C   UNL A   1      29.869  27.709  23.359  1.00  0.00     0.016 A 
ATOM     25  C   UNL A   1      30.892  29.642  24.377  1.00  0.00     0.016 A 
ATOM     26  C   UNL A   1      30.199  29.051  23.321  1.00  0.00     0.017 A 
ATOM     27  Br  UNL A   1      29.628  30.016  21.819  1.00  0.00    -0.051 Br
ENDBRANCH  20  21
ENDBRANCH  15  20
ENDBRANCH   7   8
ENDBRANCH   4   7
ENDBRANCH   2   3
ENDBRANCH   1   2
BRANCH   1  28
ATOM     28  C   UNL A   1      39.876  21.840  26.634  1.00  0.00     0.118 C 
BRANCH  28  29
ATOM     29  N   UNL A   1      41.076  21.973  25.826  1.00  0.00    -0.352 N 
ATOM     30  C   UNL A   1      42.102  22.869  25.710  1.00  0.00     0.251 C 
ATOM     31  H   UNL A   1      41.175  21.222  25.198  1.00  0.00     0.163 HD
ATOM     32  O   UNL A   1      43.013  22.517  24.951  1.00  0.00    -0.269 OA
BRANCH  30  33
ATOM     33  C   UNL A   1      42.185  24.212  26.347  1.00  0.00     0.039 A 
ATOM     34  C   UNL A   1      42.954  24.544  27.458  1.00  0.00     0.014 A 
ATOM     35  C   UNL A   1      41.346  25.208  25.797  1.00  0.00     0.014 A 
ATOM     36  C   UNL A   1      42.798  25.793  28.063  1.00  0.00     0.010 A 
ATOM     37  C   UNL A   1      41.181  26.450  26.407  1.00  0.00     0.010 A 
ATOM     38  C   UNL A   1      41.851  26.716  27.591  1.00  0.00    -0.014 A 
BRANCH  38  39
ATOM     39  C   UNL A   1      41.615  27.923  28.398  1.00  0.00     0.031 A 
ATOM     40  C   UNL A   1      42.608  29.013  28.191  1.00  0.00     0.074 A 
ATOM     41  C   UNL A   1      40.581  28.099  29.250  1.00  0.00     0.049 A 
ATOM     42  N   UNL A   1      43.489  29.482  29.015  1.00  0.00    -0.248 NA
ATOM     43  C   UNL A   1      42.708  29.547  26.827  1.00  0.00     0.031 C 
ATOM     44  C   UNL A   1      39.351  27.308  29.354  1.00  0.00     0.029 A 
ATOM     45  N   UNL A   1      40.384  29.085  30.179  1.00  0.00    -0.354 N 
ATOM     46  C   UNL A   1      44.138  30.510  28.326  1.00  0.00     0.074 A 
ATOM     47  C   UNL A   1      43.733  30.387  26.948  1.00  0.00     0.031 C 
ATOM     48  C   UNL A   1      38.460  27.958  30.136  1.00  0.00     0.029 A 
ATOM     49  C   UNL A   1      39.089  29.148  30.679  1.00  0.00     0.049 A 
ATOM     50  H   UNL A   1      41.098  29.698  30.466  1.00  0.00     0.167 HD
ATOM     51  C   UNL A   1      44.809  31.514  28.961  1.00  0.00     0.034 A 
ATOM     52  C   UNL A   1      38.532  30.154  31.400  1.00  0.00     0.034 A 
ATOM     53  C   UNL A   1      45.109  31.175  30.323  1.00  0.00     0.049 A 
ATOM     54  C   UNL A   1      39.611  31.010  31.942  1.00  0.00     0.074 A 
ATOM     55  C   UNL A   1      45.875  30.208  30.941  1.00  0.00     0.029 A 
ATOM     56  N   UNL A   1      44.319  31.712  31.308  1.00  0.00    -0.354 N 
ATOM     57  N   UNL A   1      40.406  30.676  32.916  1.00  0.00    -0.248 NA
ATOM     58  C   UNL A   1      40.070  32.106  31.103  1.00  0.00     0.031 C 
ATOM     59  C   UNL A   1      45.176  29.889  32.138  1.00  0.00     0.029 A 
ATOM     60  C   UNL A   1      44.052  30.715  32.207  1.00  0.00     0.049 A 
ATOM     61  H   UNL A   1      44.001  32.643  31.358  1.00  0.00     0.167 HD
ATOM     62  C   UNL A   1      41.639  31.183  32.540  1.00  0.00     0.074 A 
ATOM     63  C   UNL A   1      41.351  32.137  31.473  1.00  0.00     0.031 C 
ATOM     64  C   UNL A   1      42.803  30.585  32.929  1.00  0.00     0.034 A 
BRANCH  51  65
ATOM     65  C   UNL A   1      44.904  32.927  28.430  1.00  0.00     0.023 A 
ATOM     66  C   UNL A   1      43.801  33.800  28.393  1.00  0.00     0.031 A 
ATOM     67  C   UNL A   1      46.157  33.516  28.159  1.00  0.00     0.131 A 
ATOM     68  C   UNL A   1      43.940  35.158  28.084  1.00  0.00     0.055 A 
ATOM     69  C   UNL A   1      46.308  34.890  27.923  1.00  0.00     0.041 A 
ATOM     70  F   UNL A   1      47.284  32.787  28.177  1.00  0.00    -0.206 F 
ATOM     71  C   UNL A   1      45.194  35.721  27.883  1.00  0.00     0.022 A 
BRANCH  68  72
ATOM     72  S   UNL A   1      42.473  36.217  27.955  1.00  0.00     0.124 S 
ATOM     73  O   UNL A   1      42.888  37.398  28.701  1.00  0.00    -0.237 OA
ATOM     74  O   UNL A   1      42.358  36.385  26.509  1.00  0.00    -0.237 OA
ATOM     75  O   UNL A   1      41.418  35.411  28.567  1.00  0.00    -0.744 OA
ENDBRANCH  68  72
ENDBRANCH  51  65
BRANCH  52  76
ATOM     76  C   UNL A   1      37.159  30.689  31.220  1.00  0.00     0.023 A 
ATOM     77  C   UNL A   1      36.661  30.882  29.918  1.00  0.00     0.031 A 
ATOM     78  C   UNL A   1      36.470  31.313  32.273  1.00  0.00     0.131 A 
ATOM     79  C   UNL A   1      35.560  31.714  29.691  1.00  0.00     0.055 A 
ATOM     80  C   UNL A   1      35.358  32.133  32.047  1.00  0.00     0.041 A 
ATOM     81  F   UNL A   1      36.909  31.200  33.537  1.00  0.00    -0.206 F 
ATOM     82  C   UNL A   1      34.906  32.350  30.747  1.00  0.00     0.022 A 
BRANCH  79  83
ATOM     83  S   UNL A   1      35.021  32.051  27.994  1.00  0.00     0.124 S 
ATOM     84  O   UNL A   1      35.816  33.226  27.642  1.00  0.00    -0.237 OA
ATOM     85  O   UNL A   1      35.389  30.815  27.315  1.00  0.00    -0.237 OA
ATOM     86  O   UNL A   1      33.589  32.300  28.135  1.00  0.00    -0.744 OA
ENDBRANCH  79  83
ENDBRANCH  52  76
BRANCH  64  87
ATOM     87  C   UNL A   1      42.764  29.528  34.008  1.00  0.00     0.023 A 
ATOM     88  C   UNL A   1      43.396  29.838  35.226  1.00  0.00     0.031 A 
ATOM     89  C   UNL A   1      42.343  28.198  33.813  1.00  0.00     0.131 A 
ATOM     90  C   UNL A   1      43.629  28.842  36.180  1.00  0.00     0.055 A 
ATOM     91  C   UNL A   1      42.508  27.223  34.802  1.00  0.00     0.041 A 
ATOM     92  F   UNL A   1      41.845  27.784  32.639  1.00  0.00    -0.206 F 
ATOM     93  C   UNL A   1      43.170  27.537  35.985  1.00  0.00     0.022 A 
BRANCH  90  94
ATOM     94  S   UNL A   1      44.693  29.181  37.607  1.00  0.00     0.124 S 
ATOM     95  O   UNL A   1      44.061  30.361  38.189  1.00  0.00    -0.237 OA
ATOM     96  O   UNL A   1      44.566  27.952  38.390  1.00  0.00    -0.237 OA
ATOM     97  O   UNL A   1      46.012  29.400  37.022  1.00  0.00    -0.744 OA
ENDBRANCH  90  94
ENDBRANCH  64  87
ENDBRANCH  38  39
ENDBRANCH  30  33
ENDBRANCH  28  29
ENDBRANCH   1  28
TORSDOF 17
ENDMDL
MODEL 2
REMARK VINA RESULT:     -12.2      3.370      8.977
REMARK SMILES COc1ccc2c(c1)c(CC(=O)NCCCNC(=O)c1ccc(-c3c4nc(c(-c5cc(S(=O)(=O)[O-])ccc5F)c5ccc([nH]5)c(-c5cc(S(=O)(=O)[O-])ccc5F)c5nc(c(-c6cc(S(=O)(=O)[O-])ccc6F)c6ccc3[nH]6)C=C5)C=C4)cc1)c(C)n2Cc1ccc(Br)cc1
REMARK SMILES IDX 15 1 14 2 13 3 11 4 12 5 10 7 9 8 3 9 4 10 8 11 5 12 7 13
REMARK SMILES IDX 6 14 85 15 83 16 84 17 2 18 1 19 86 20 87 21 88 22 93 23
REMARK SMILES IDX 89 24 92 25 90 26 91 27 16 28 17 29 18 30 19 32 20 33 21 34
REMARK SMILES IDX 82 35 22 36 81 37 23 38 24 39 25 40 75 41 26 42 80 43 74 44
REMARK SMILES IDX 76 45 27 46 79 47 73 48 72 49 28 51 60 52 40 53 59 54 41 55
REMARK SMILES IDX 44 56 58 57 77 58 42 59 43 60 57 62 78 63 45 64 29 65 30 66
REMARK SMILES IDX 38 67 31 68 37 69 39 70 36 71 32 72 33 73 34 74 35 75 61 76
REMARK SMILES IDX 62 77 70 78 63 79 69 80 71 81 68 82 64 83 65 84 66 85 67 86
REMARK SMILES IDX 46 87 47 88 55 89 48 90 54 91 56 92 53 93 49 94 50 95 51 96
REMARK SMILES IDX 52 97
REMARK H PARENT 13 6 17 31 76 50 44 61
REMARK Flexibility Score: inf
ROOT
ATOM      1  C   UNL A   1      32.187  30.148  27.252  1.00  0.00     0.042 C 
ENDROOT
BRANCH   1   2
ATOM      2  C   UNL A   1      31.974  28.750  26.660  1.00  0.00     0.117 C 
BRANCH   2   3
ATOM      3  N   UNL A   1      32.844  28.469  25.525  1.00  0.00    -0.356 N 
ATOM      4  C   UNL A   1      33.223  27.276  24.978  1.00  0.00     0.224 C 
ATOM      5  O   UNL A   1      33.949  27.303  23.979  1.00  0.00    -0.275 OA
ATOM      6  H   UNL A   1      33.218  29.266  25.082  1.00  0.00     0.163 HD
BRANCH   4   7
ATOM      7  C   UNL A   1      32.705  25.959  25.528  1.00  0.00     0.138 C 
BRANCH   7   8
ATOM      8  C   UNL A   1      33.026  24.780  24.663  1.00  0.00    -0.010 A 
ATOM      9  C   UNL A   1      36.641  23.571  24.700  1.00  0.00     0.119 A 
ATOM     10  C   UNL A   1      36.432  22.451  23.901  1.00  0.00     0.048 A 
ATOM     11  C   UNL A   1      35.564  24.385  25.056  1.00  0.00     0.057 A 
ATOM     12  C   UNL A   1      35.155  22.141  23.408  1.00  0.00     0.031 A 
ATOM     13  C   UNL A   1      34.280  24.119  24.539  1.00  0.00     0.007 A 
ATOM     14  C   UNL A   1      34.089  23.003  23.717  1.00  0.00     0.049 A 
ATOM     15  N   UNL A   1      32.744  22.984  23.367  1.00  0.00    -0.340 N 
ATOM     16  C   UNL A   1      32.175  24.193  23.740  1.00  0.00     0.020 A 
ATOM     17  C   UNL A   1      30.865  24.721  23.274  1.00  0.00     0.065 C 
BRANCH   9  18
ATOM     18  O   UNL A   1      37.851  23.931  25.232  1.00  0.00    -0.497 OA
ATOM     19  C   UNL A   1      37.876  23.985  26.654  1.00  0.00     0.278 C 
ENDBRANCH   9  18
BRANCH  15  20
ATOM     20  C   UNL A   1      32.075  21.884  22.653  1.00  0.00     0.157 C 
BRANCH  20  21
ATOM     21  C   UNL A   1      32.258  20.551  23.349  1.00  0.00    -0.028 A 
ATOM     22  C   UNL A   1      32.277  20.494  24.749  1.00  0.00     0.007 A 
ATOM     23  C   UNL A   1      32.413  19.352  22.638  1.00  0.00     0.007 A 
ATOM     24  C   UNL A   1      32.582  19.324  25.425  1.00  0.00     0.016 A 
ATOM     25  C   UNL A   1      32.634  18.148  23.320  1.00  0.00     0.016 A 
ATOM     26  C   UNL A   1      32.752  18.154  24.709  1.00  0.00     0.017 A 
ATOM     27  Br  UNL A   1      33.097  16.602  25.703  1.00  0.00    -0.051 Br
ENDBRANCH  20  21
ENDBRANCH  15  20
ENDBRANCH   7   8
ENDBRANCH   4   7
ENDBRANCH   2   3
ENDBRANCH   1   2
BRANCH   1  28
ATOM     28  C   UNL A   1      33.627  30.658  27.175  1.00  0.00     0.118 C 
BRANCH  28  29
ATOM     29  N   UNL A   1      34.028  31.485  28.300  1.00  0.00    -0.352 N 
ATOM     30  C   UNL A   1      35.191  31.774  28.957  1.00  0.00     0.251 C 
ATOM     31  H   UNL A   1      33.261  31.960  28.692  1.00  0.00     0.163 HD
ATOM     32  O   UNL A   1      35.095  32.657  29.816  1.00  0.00    -0.269 OA
BRANCH  30  33
ATOM     33  C   UNL A   1      36.505  31.095  28.777  1.00  0.00     0.039 A 
ATOM     34  C   UNL A   1      36.713  29.869  28.154  1.00  0.00     0.014 A 
ATOM     35  C   UNL A   1      37.618  31.744  29.358  1.00  0.00     0.014 A 
ATOM     36  C   UNL A   1      37.970  29.263  28.214  1.00  0.00     0.010 A 
ATOM     37  C   UNL A   1      38.869  31.134  29.430  1.00  0.00     0.010 A 
ATOM     38  C   UNL A   1      39.028  29.853  28.925  1.00  0.00    -0.014 A 
BRANCH  38  39
ATOM     39  C   UNL A   1      40.254  29.061  29.102  1.00  0.00     0.031 A 
ATOM     40  C   UNL A   1      40.579  28.725  30.515  1.00  0.00     0.074 A 
ATOM     41  C   UNL A   1      41.045  28.617  28.099  1.00  0.00     0.049 A 
ATOM     42  N   UNL A   1      41.570  29.130  31.244  1.00  0.00    -0.248 NA
ATOM     43  C   UNL A   1      39.575  27.938  31.241  1.00  0.00     0.031 C 
ATOM     44  C   UNL A   1      40.739  28.558  26.666  1.00  0.00     0.029 A 
ATOM     45  N   UNL A   1      42.290  28.053  28.165  1.00  0.00    -0.354 N 
ATOM     46  C   UNL A   1      41.415  28.493  32.477  1.00  0.00     0.074 A 
ATOM     47  C   UNL A   1      40.093  27.916  32.467  1.00  0.00     0.031 C 
ATOM     48  C   UNL A   1      41.673  27.812  26.035  1.00  0.00     0.029 A 
ATOM     49  C   UNL A   1      42.700  27.436  26.990  1.00  0.00     0.049 A 
ATOM     50  H   UNL A   1      42.847  28.082  28.976  1.00  0.00     0.167 HD
ATOM     51  C   UNL A   1      42.449  28.312  33.348  1.00  0.00     0.034 A 
ATOM     52  C   UNL A   1      43.747  26.587  26.826  1.00  0.00     0.034 A 
ATOM     53  C   UNL A   1      43.555  29.176  33.050  1.00  0.00     0.049 A 
ATOM     54  C   UNL A   1      44.656  26.719  27.986  1.00  0.00     0.074 A 
ATOM     55  C   UNL A   1      43.747  30.542  33.031  1.00  0.00     0.029 A 
ATOM     56  N   UNL A   1      44.630  28.638  32.388  1.00  0.00    -0.354 N 
ATOM     57  N   UNL A   1      45.440  27.734  28.205  1.00  0.00    -0.248 NA
ATOM     58  C   UNL A   1      44.384  25.875  29.140  1.00  0.00     0.031 C 
ATOM     59  C   UNL A   1      44.659  30.774  31.964  1.00  0.00     0.029 A 
ATOM     60  C   UNL A   1      45.010  29.534  31.426  1.00  0.00     0.049 A 
ATOM     61  H   UNL A   1      45.051  27.767  32.573  1.00  0.00     0.167 HD
ATOM     62  C   UNL A   1      45.379  27.924  29.577  1.00  0.00     0.074 A 
ATOM     63  C   UNL A   1      44.800  26.692  30.108  1.00  0.00     0.031 C 
ATOM     64  C   UNL A   1      45.542  29.160  30.132  1.00  0.00     0.034 A 
BRANCH  51  65
ATOM     65  C   UNL A   1      42.568  27.120  34.272  1.00  0.00     0.023 A 
ATOM     66  C   UNL A   1      43.422  26.034  34.004  1.00  0.00     0.031 A 
ATOM     67  C   UNL A   1      42.003  27.146  35.565  1.00  0.00     0.131 A 
ATOM     68  C   UNL A   1      43.672  25.035  34.952  1.00  0.00     0.055 A 
ATOM     69  C   UNL A   1      42.310  26.186  36.540  1.00  0.00     0.041 A 
ATOM     70  F   UNL A   1      41.183  28.139  35.942  1.00  0.00    -0.206 F 
ATOM     71  C   UNL A   1      43.149  25.121  36.235  1.00  0.00     0.022 A 
BRANCH  68  72
ATOM     72  S   UNL A   1      44.703  23.607  34.519  1.00  0.00     0.124 S 
ATOM     73  O   UNL A   1      45.742  23.665  35.538  1.00  0.00    -0.237 OA
ATOM     74  O   UNL A   1      43.750  22.507  34.642  1.00  0.00    -0.237 OA
ATOM     75  O   UNL A   1      45.131  23.899  33.151  1.00  0.00    -0.744 OA
ENDBRANCH  68  72
ENDBRANCH  51  65
BRANCH  52  76
ATOM     76  C   UNL A   1      43.736  25.348  26.009  1.00  0.00     0.023 A 
ATOM     77  C   UNL A   1      42.861  24.303  26.356  1.00  0.00     0.031 A 
ATOM     78  C   UNL A   1      44.780  25.046  25.119  1.00  0.00     0.131 A 
ATOM     79  C   UNL A   1      43.070  23.006  25.875  1.00  0.00     0.055 A 
ATOM     80  C   UNL A   1      44.980  23.751  24.625  1.00  0.00     0.041 A 
ATOM     81  F   UNL A   1      45.673  25.986  24.771  1.00  0.00    -0.206 F 
ATOM     82  C   UNL A   1      44.130  22.719  25.015  1.00  0.00     0.022 A 
BRANCH  79  83
ATOM     83  S   UNL A   1      42.007  21.652  26.442  1.00  0.00     0.124 S 
ATOM     84  O   UNL A   1      42.476  20.529  25.634  1.00  0.00    -0.237 OA
ATOM     85  O   UNL A   1      42.338  21.590  27.860  1.00  0.00    -0.237 OA
ATOM     86  O   UNL A   1      40.661  22.120  26.121  1.00  0.00    -0.744 OA
ENDBRANCH  79  83
ENDBRANCH  52  76
BRANCH  64  87
ATOM     87  C   UNL A   1      46.070  30.288  29.278  1.00  0.00     0.023 A 
ATOM     88  C   UNL A   1      45.133  30.984  28.492  1.00  0.00     0.031 A 
ATOM     89  C   UNL A   1      47.435  30.547  29.045  1.00  0.00     0.131 A 
ATOM     90  C   UNL A   1      45.558  31.864  27.491  1.00  0.00     0.055 A 
ATOM     91  C   UNL A   1      47.854  31.487  28.097  1.00  0.00     0.041 A 
ATOM     92  F   UNL A   1      48.398  29.843  29.658  1.00  0.00    -0.206 F 
ATOM     93  C   UNL A   1      46.915  32.137  27.302  1.00  0.00     0.022 A 
BRANCH  90  94
ATOM     94  S   UNL A   1      44.367  32.529  26.300  1.00  0.00     0.124 S 
ATOM     95  O   UNL A   1      45.219  32.859  25.162  1.00  0.00    -0.237 OA
ATOM     96  O   UNL A   1      43.462  31.397  26.098  1.00  0.00    -0.237 OA
ATOM     97  O   UNL A   1      43.773  33.670  26.991  1.00  0.00    -0.744 OA
ENDBRANCH  90  94
ENDBRANCH  64  87
ENDBRANCH  38  39
ENDBRANCH  30  33
ENDBRANCH  28  29
ENDBRANCH   1  28
TORSDOF 17
ENDMDL
MODEL 3
REMARK VINA RESULT:     -12.1      1.952      2.593
REMARK SMILES COc1ccc2c(c1)c(CC(=O)NCCCNC(=O)c1ccc(-c3c4nc(c(-c5cc(S(=O)(=O)[O-])ccc5F)c5ccc([nH]5)c(-c5cc(S(=O)(=O)[O-])ccc5F)c5nc(c(-c6cc(S(=O)(=O)[O-])ccc6F)c6ccc3[nH]6)C=C5)C=C4)cc1)c(C)n2Cc1ccc(Br)cc1
REMARK SMILES IDX 15 1 14 2 13 3 11 4 12 5 10 7 9 8 3 9 4 10 8 11 5 12 7 13
REMARK SMILES IDX 6 14 85 15 83 16 84 17 2 18 1 19 86 20 87 21 88 22 93 23
REMARK SMILES IDX 89 24 92 25 90 26 91 27 16 28 17 29 18 30 19 32 20 33 21 34
REMARK SMILES IDX 82 35 22 36 81 37 23 38 24 39 25 40 75 41 26 42 80 43 74 44
REMARK SMILES IDX 76 45 27 46 79 47 73 48 72 49 28 51 60 52 40 53 59 54 41 55
REMARK SMILES IDX 44 56 58 57 77 58 42 59 43 60 57 62 78 63 45 64 29 65 30 66
REMARK SMILES IDX 38 67 31 68 37 69 39 70 36 71 32 72 33 73 34 74 35 75 61 76
REMARK SMILES IDX 62 77 70 78 63 79 69 80 71 81 68 82 64 83 65 84 66 85 67 86
REMARK SMILES IDX 46 87 47 88 55 89 48 90 54 91 56 92 53 93 49 94 50 95 51 96
REMARK SMILES IDX 52 97
REMARK H PARENT 13 6 17 31 76 50 44 61
REMARK Flexibility Score: inf
ROOT
ATOM      1  C   UNL A   1      40.079  22.214  27.259  1.00  0.00     0.042 C 
ENDROOT
BRANCH   1   2
ATOM      2  C   UNL A   1      39.019  22.512  26.192  1.00  0.00     0.117 C 
BRANCH   2   3
ATOM      3  N   UNL A   1      38.625  21.333  25.430  1.00  0.00    -0.356 N 
ATOM      4  C   UNL A   1      37.397  20.758  25.267  1.00  0.00     0.224 C 
ATOM      5  O   UNL A   1      37.314  19.771  24.530  1.00  0.00    -0.275 OA
ATOM      6  H   UNL A   1      39.361  20.880  24.958  1.00  0.00     0.163 HD
BRANCH   4   7
ATOM      7  C   UNL A   1      36.156  21.360  25.905  1.00  0.00     0.138 C 
BRANCH   7   8
ATOM      8  C   UNL A   1      35.048  21.618  24.933  1.00  0.00    -0.010 A 
ATOM      9  C   UNL A   1      32.975  18.601  23.868  1.00  0.00     0.119 A 
ATOM     10  C   UNL A   1      32.047  19.315  23.116  1.00  0.00     0.048 A 
ATOM     11  C   UNL A   1      33.984  19.277  24.557  1.00  0.00     0.057 A 
ATOM     12  C   UNL A   1      32.129  20.712  23.000  1.00  0.00     0.031 A 
ATOM     13  C   UNL A   1      34.113  20.674  24.422  1.00  0.00     0.007 A 
ATOM     14  C   UNL A   1      33.188  21.377  23.643  1.00  0.00     0.049 A 
ATOM     15  N   UNL A   1      33.549  22.718  23.696  1.00  0.00    -0.340 N 
ATOM     16  C   UNL A   1      34.808  22.812  24.272  1.00  0.00     0.020 A 
ATOM     17  C   UNL A   1      35.701  24.001  24.229  1.00  0.00     0.065 C 
BRANCH   9  18
ATOM     18  O   UNL A   1      32.953  17.242  24.043  1.00  0.00    -0.497 OA
ATOM     19  C   UNL A   1      32.663  16.824  25.372  1.00  0.00     0.278 C 
ENDBRANCH   9  18
BRANCH  15  20
ATOM     20  C   UNL A   1      32.746  23.829  23.160  1.00  0.00     0.157 C 
BRANCH  20  21
ATOM     21  C   UNL A   1      32.413  24.861  24.216  1.00  0.00    -0.028 A 
ATOM     22  C   UNL A   1      32.766  26.202  24.015  1.00  0.00     0.007 A 
ATOM     23  C   UNL A   1      31.754  24.524  25.409  1.00  0.00     0.007 A 
ATOM     24  C   UNL A   1      32.609  27.153  25.011  1.00  0.00     0.016 A 
ATOM     25  C   UNL A   1      31.513  25.501  26.385  1.00  0.00     0.016 A 
ATOM     26  C   UNL A   1      31.977  26.801  26.189  1.00  0.00     0.017 A 
ATOM     27  Br  UNL A   1      31.746  28.161  27.458  1.00  0.00    -0.051 Br
ENDBRANCH  20  21
ENDBRANCH  15  20
ENDBRANCH   7   8
ENDBRANCH   4   7
ENDBRANCH   2   3
ENDBRANCH   1   2
BRANCH   1  28
ATOM     28  C   UNL A   1      41.268  21.390  26.761  1.00  0.00     0.118 C 
BRANCH  28  29
ATOM     29  N   UNL A   1      42.253  22.154  26.017  1.00  0.00    -0.352 N 
ATOM     30  C   UNL A   1      42.734  23.434  26.026  1.00  0.00     0.251 C 
ATOM     31  H   UNL A   1      42.687  21.608  25.323  1.00  0.00     0.163 HD
ATOM     32  O   UNL A   1      43.695  23.632  25.273  1.00  0.00    -0.269 OA
BRANCH  30  33
ATOM     33  C   UNL A   1      42.181  24.585  26.793  1.00  0.00     0.039 A 
ATOM     34  C   UNL A   1      41.156  25.428  26.376  1.00  0.00     0.014 A 
ATOM     35  C   UNL A   1      42.815  24.867  28.024  1.00  0.00     0.014 A 
ATOM     36  C   UNL A   1      40.858  26.577  27.111  1.00  0.00     0.010 A 
ATOM     37  C   UNL A   1      42.528  26.021  28.752  1.00  0.00     0.010 A 
ATOM     38  C   UNL A   1      41.600  26.922  28.254  1.00  0.00    -0.014 A 
BRANCH  38  39
ATOM     39  C   UNL A   1      41.351  28.240  28.855  1.00  0.00     0.031 A 
ATOM     40  C   UNL A   1      42.282  29.312  28.410  1.00  0.00     0.074 A 
ATOM     41  C   UNL A   1      40.353  28.524  29.722  1.00  0.00     0.049 A 
ATOM     42  N   UNL A   1      43.182  29.948  29.091  1.00  0.00    -0.248 NA
ATOM     43  C   UNL A   1      42.291  29.607  26.971  1.00  0.00     0.031 C 
ATOM     44  C   UNL A   1      39.166  27.719  30.027  1.00  0.00     0.029 A 
ATOM     45  N   UNL A   1      40.158  29.648  30.478  1.00  0.00    -0.354 N 
ATOM     46  C   UNL A   1      43.749  30.864  28.202  1.00  0.00     0.074 A 
ATOM     47  C   UNL A   1      43.283  30.491  26.890  1.00  0.00     0.031 C 
ATOM     48  C   UNL A   1      38.286  28.462  30.736  1.00  0.00     0.029 A 
ATOM     49  C   UNL A   1      38.888  29.750  31.032  1.00  0.00     0.049 A 
ATOM     50  H   UNL A   1      40.858  30.326  30.616  1.00  0.00     0.167 HD
ATOM     51  C   UNL A   1      44.405  31.985  28.618  1.00  0.00     0.034 A 
ATOM     52  C   UNL A   1      38.322  30.844  31.601  1.00  0.00     0.034 A 
ATOM     53  C   UNL A   1      44.787  31.897  29.999  1.00  0.00     0.049 A 
ATOM     54  C   UNL A   1      39.388  31.819  31.929  1.00  0.00     0.074 A 
ATOM     55  C   UNL A   1      45.625  31.079  30.729  1.00  0.00     0.029 A 
ATOM     56  N   UNL A   1      44.023  32.567  30.921  1.00  0.00    -0.354 N 
ATOM     57  N   UNL A   1      40.244  31.686  32.899  1.00  0.00    -0.248 NA
ATOM     58  C   UNL A   1      39.756  32.769  30.891  1.00  0.00     0.031 C 
ATOM     59  C   UNL A   1      45.000  30.947  31.999  1.00  0.00     0.029 A 
ATOM     60  C   UNL A   1      43.845  31.732  31.990  1.00  0.00     0.049 A 
ATOM     61  H   UNL A   1      43.667  33.481  30.829  1.00  0.00     0.167 HD
ATOM     62  C   UNL A   1      41.434  32.165  32.373  1.00  0.00     0.074 A 
ATOM     63  C   UNL A   1      41.051  32.910  31.177  1.00  0.00     0.031 C 
ATOM     64  C   UNL A   1      42.641  31.684  32.793  1.00  0.00     0.034 A 
BRANCH  51  65
ATOM     65  C   UNL A   1      44.411  33.288  27.850  1.00  0.00     0.023 A 
ATOM     66  C   UNL A   1      43.531  34.346  28.142  1.00  0.00     0.031 A 
ATOM     67  C   UNL A   1      45.455  33.595  26.952  1.00  0.00     0.131 A 
ATOM     68  C   UNL A   1      43.672  35.611  27.560  1.00  0.00     0.055 A 
ATOM     69  C   UNL A   1      45.642  34.881  26.425  1.00  0.00     0.041 A 
ATOM     70  F   UNL A   1      46.365  32.670  26.606  1.00  0.00    -0.206 F 
ATOM     71  C   UNL A   1      44.746  35.899  26.728  1.00  0.00     0.022 A 
BRANCH  68  72
ATOM     72  S   UNL A   1      42.452  36.910  27.898  1.00  0.00     0.124 S 
ATOM     73  O   UNL A   1      41.360  36.150  28.489  1.00  0.00    -0.237 OA
ATOM     74  O   UNL A   1      43.191  37.780  28.809  1.00  0.00    -0.237 OA
ATOM     75  O   UNL A   1      42.192  37.483  26.577  1.00  0.00    -0.744 OA
ENDBRANCH  68  72
ENDBRANCH  51  65
BRANCH  52  76
ATOM     76  C   UNL A   1      36.920  31.291  31.410  1.00  0.00     0.023 A 
ATOM     77  C   UNL A   1      36.436  31.501  30.106  1.00  0.00     0.031 A 
ATOM     78  C   UNL A   1      36.169  31.825  32.471  1.00  0.00     0.131 A 
ATOM     79  C   UNL A   1      35.285  32.265  29.885  1.00  0.00     0.055 A 
ATOM     80  C   UNL A   1      35.007  32.576  32.250  1.00  0.00     0.041 A 
ATOM     81  F   UNL A   1      36.589  31.693  33.739  1.00  0.00    -0.206 F 
ATOM     82  C   UNL A   1      34.569  32.812  30.949  1.00  0.00     0.022 A 
BRANCH  79  83
ATOM     83  S   UNL A   1      34.759  32.630  28.190  1.00  0.00     0.124 S 
ATOM     84  O   UNL A   1      33.626  33.528  28.402  1.00  0.00    -0.237 OA
ATOM     85  O   UNL A   1      35.957  33.248  27.635  1.00  0.00    -0.237 OA
ATOM     86  O   UNL A   1      34.409  31.318  27.652  1.00  0.00    -0.744 OA
ENDBRANCH  79  83
ENDBRANCH  52  76
BRANCH  64  87
ATOM     87  C   UNL A   1      42.702  30.828  34.036  1.00  0.00     0.023 A 
ATOM     88  C   UNL A   1      42.454  29.452  33.874  1.00  0.00     0.031 A 
ATOM     89  C   UNL A   1      42.768  31.327  35.351  1.00  0.00     0.131 A 
ATOM     90  C   UNL A   1      42.240  28.633  34.987  1.00  0.00     0.055 A 
ATOM     91  C   UNL A   1      42.633  30.489  36.463  1.00  0.00     0.041 A 
ATOM     92  F   UNL A   1      42.878  32.640  35.599  1.00  0.00    -0.206 F 
ATOM     93  C   UNL A   1      42.349  29.138  36.285  1.00  0.00     0.022 A 
BRANCH  90  94
ATOM     94  S   UNL A   1      41.638  26.938  34.766  1.00  0.00     0.124 S 
ATOM     95  O   UNL A   1      41.409  26.509  36.142  1.00  0.00    -0.237 OA
ATOM     96  O   UNL A   1      40.431  27.138  33.963  1.00  0.00    -0.237 OA
ATOM     97  O   UNL A   1      42.729  26.262  34.071  1.00  0.00    -0.744 OA
ENDBRANCH  90  94
ENDBRANCH  64  87
ENDBRANCH  38  39
ENDBRANCH  30  33
ENDBRANCH  28  29
ENDBRANCH   1  28
TORSDOF 17
ENDMDL
