MODEL 1
REMARK VINA RESULT:     -12.6      0.000      0.000
REMARK SMILES C[C@H]1CN(C(=O)N2CC[NH+]([C@@H](C)C(=O)NCCCNC(=O)c3ccc(-c4c5nc(c(-c6cc(S(=O)(=O)[O-])ccc6F)c6ccc([nH]6)c(-c6cc(S(=O)(=O)[O-])ccc6F)c6nc(c(-c7cc(S(=O)(=O)[O-])ccc7F)c7ccc4[nH]7)C=C6)C=C5)cc3)CC2)C[C@@H]1C
REMARK SMILES IDX 18 1 17 2 16 3 15 4 13 5 14 6 11 8 12 9 10 10 1 11 2 12 3 13
REMARK SMILES IDX 88 14 4 15 87 16 89 17 5 18 6 19 7 20 8 21 86 22 9 23 85 24
REMARK SMILES IDX 19 26 20 27 21 29 22 30 23 31 84 32 24 33 83 34 25 35 26 36
REMARK SMILES IDX 27 37 77 38 28 39 82 40 76 41 78 42 29 43 81 44 75 45 74 46
REMARK SMILES IDX 30 48 62 49 42 50 61 51 43 52 46 53 60 54 79 55 44 56 45 57
REMARK SMILES IDX 59 59 80 60 47 61 31 62 32 63 40 64 33 65 39 66 41 67 38 68
REMARK SMILES IDX 34 69 35 70 36 71 37 72 63 73 64 74 72 75 65 76 71 77 73 78
REMARK SMILES IDX 70 79 66 80 67 81 68 82 69 83 48 84 49 85 57 86 50 87 56 88
REMARK SMILES IDX 58 89 55 90 51 91 52 92 53 93 54 94
REMARK H PARENT 15 7 10 25 19 28 78 47 46 58
REMARK Flexibility Score: inf
ROOT
ATOM      1  C   UNL A   1      32.714  32.279  27.113  1.00  0.00     0.118 C 
ENDROOT
BRANCH   1   2
ATOM      2  C   UNL A   1      31.433  31.775  26.470  1.00  0.00     0.042 C 
BRANCH   2   3
ATOM      3  C   UNL A   1      31.475  30.301  26.061  1.00  0.00     0.118 C 
BRANCH   3   4
ATOM      4  N   UNL A   1      32.441  30.053  25.005  1.00  0.00    -0.351 N 
ATOM      5  C   UNL A   1      32.453  29.214  23.930  1.00  0.00     0.278 C 
ATOM      6  O   UNL A   1      33.499  29.215  23.266  1.00  0.00    -0.268 OA
ATOM      7  H   UNL A   1      33.253  30.605  25.079  1.00  0.00     0.163 HD
BRANCH   5   8
ATOM      8  C   UNL A   1      31.259  28.316  23.489  1.00  0.00     0.271 C 
ATOM      9  C   UNL A   1      29.997  29.094  23.122  1.00  0.00     0.086 C 
BRANCH   8  10
ATOM     10  N   UNL A   1      31.150  27.054  24.258  1.00  0.00    -0.322 N 
ATOM     11  C   UNL A   1      34.129  21.530  27.450  1.00  0.00     0.010 C 
ATOM     12  C   UNL A   1      33.131  21.433  26.294  1.00  0.00     0.010 C 
ATOM     13  C   UNL A   1      32.910  22.801  25.654  1.00  0.00     0.125 C 
ATOM     14  C   UNL A   1      33.678  20.596  25.122  1.00  0.00     0.010 C 
ATOM     15  N   UNL A   1      33.901  22.876  24.589  1.00  0.00    -0.324 N 
ATOM     16  C   UNL A   1      34.560  21.600  24.372  1.00  0.00     0.125 C 
ATOM     17  C   UNL A   1      32.548  20.088  24.218  1.00  0.00     0.010 C 
ATOM     18  C   UNL A   1      34.020  23.912  23.694  1.00  0.00     0.320 C 
ATOM     19  O   UNL A   1      34.762  23.896  22.718  1.00  0.00    -0.248 OA
ATOM     20  N   UNL A   1      33.115  24.925  23.912  1.00  0.00    -0.313 N 
ATOM     21  C   UNL A   1      32.133  25.178  22.882  1.00  0.00     0.183 C 
ATOM     22  C   UNL A   1      33.469  26.066  24.743  1.00  0.00     0.183 C 
ATOM     23  C   UNL A   1      30.894  25.817  23.514  1.00  0.00     0.284 C 
ATOM     24  C   UNL A   1      32.219  26.823  25.252  1.00  0.00     0.284 C 
ATOM     25  H   UNL A   1      30.281  27.261  24.752  1.00  0.00     0.348 HD
ENDBRANCH   8  10
ENDBRANCH   5   8
ENDBRANCH   3   4
ENDBRANCH   2   3
ENDBRANCH   1   2
BRANCH   1  26
ATOM     26  N   UNL A   1      32.620  33.677  27.493  1.00  0.00    -0.352 N 
ATOM     27  C   UNL A   1      33.267  34.371  28.490  1.00  0.00     0.251 C 
ATOM     28  H   UNL A   1      31.994  34.212  26.953  1.00  0.00     0.163 HD
ATOM     29  O   UNL A   1      32.861  35.493  28.782  1.00  0.00    -0.269 OA
BRANCH  27  30
ATOM     30  C   UNL A   1      34.418  33.783  29.222  1.00  0.00     0.039 A 
ATOM     31  C   UNL A   1      35.692  34.326  29.024  1.00  0.00     0.014 A 
ATOM     32  C   UNL A   1      34.271  32.675  30.059  1.00  0.00     0.014 A 
ATOM     33  C   UNL A   1      36.797  33.792  29.697  1.00  0.00     0.010 A 
ATOM     34  C   UNL A   1      35.351  32.212  30.810  1.00  0.00     0.010 A 
ATOM     35  C   UNL A   1      36.633  32.747  30.619  1.00  0.00    -0.014 A 
BRANCH  35  36
ATOM     36  C   UNL A   1      37.791  32.164  31.352  1.00  0.00     0.031 A 
ATOM     37  C   UNL A   1      38.602  31.061  30.717  1.00  0.00     0.074 A 
ATOM     38  C   UNL A   1      38.082  32.580  32.602  1.00  0.00     0.049 A 
ATOM     39  N   UNL A   1      39.587  30.359  31.218  1.00  0.00    -0.248 NA
ATOM     40  C   UNL A   1      38.227  30.673  29.349  1.00  0.00     0.031 C 
ATOM     41  C   UNL A   1      37.351  33.610  33.341  1.00  0.00     0.029 A 
ATOM     42  N   UNL A   1      39.065  32.183  33.474  1.00  0.00    -0.354 N 
ATOM     43  C   UNL A   1      39.930  29.433  30.237  1.00  0.00     0.074 A 
ATOM     44  C   UNL A   1      39.000  29.619  29.144  1.00  0.00     0.031 C 
ATOM     45  C   UNL A   1      37.928  33.785  34.540  1.00  0.00     0.029 A 
ATOM     46  C   UNL A   1      39.040  32.849  34.678  1.00  0.00     0.049 A 
ATOM     47  H   UNL A   1      39.727  31.487  33.258  1.00  0.00     0.167 HD
ATOM     48  C   UNL A   1      40.944  28.530  30.233  1.00  0.00     0.034 A 
ATOM     49  C   UNL A   1      39.816  32.714  35.772  1.00  0.00     0.034 A 
ATOM     50  C   UNL A   1      41.879  28.377  31.321  1.00  0.00     0.049 A 
ATOM     51  C   UNL A   1      40.930  31.699  35.753  1.00  0.00     0.074 A 
ATOM     52  C   UNL A   1      42.977  27.538  31.403  1.00  0.00     0.029 A 
ATOM     53  N   UNL A   1      41.825  29.076  32.521  1.00  0.00    -0.354 N 
ATOM     54  N   UNL A   1      41.270  30.862  34.799  1.00  0.00    -0.248 NA
ATOM     55  C   UNL A   1      41.774  31.619  36.952  1.00  0.00     0.031 C 
ATOM     56  C   UNL A   1      43.546  27.682  32.673  1.00  0.00     0.029 A 
ATOM     57  C   UNL A   1      42.852  28.667  33.358  1.00  0.00     0.049 A 
ATOM     58  H   UNL A   1      41.155  29.762  32.744  1.00  0.00     0.167 HD
ATOM     59  C   UNL A   1      42.386  30.178  35.273  1.00  0.00     0.074 A 
ATOM     60  C   UNL A   1      42.669  30.712  36.590  1.00  0.00     0.031 C 
ATOM     61  C   UNL A   1      43.116  29.202  34.674  1.00  0.00     0.034 A 
BRANCH  48  62
ATOM     62  C   UNL A   1      41.071  27.632  29.024  1.00  0.00     0.023 A 
ATOM     63  C   UNL A   1      42.062  27.839  28.048  1.00  0.00     0.031 A 
ATOM     64  C   UNL A   1      40.163  26.578  28.818  1.00  0.00     0.131 A 
ATOM     65  C   UNL A   1      42.066  27.070  26.875  1.00  0.00     0.055 A 
ATOM     66  C   UNL A   1      40.228  25.756  27.691  1.00  0.00     0.041 A 
ATOM     67  F   UNL A   1      39.181  26.340  29.702  1.00  0.00    -0.206 F 
ATOM     68  C   UNL A   1      41.172  26.012  26.700  1.00  0.00     0.022 A 
BRANCH  65  69
ATOM     69  S   UNL A   1      43.149  27.579  25.511  1.00  0.00     0.124 S 
ATOM     70  O   UNL A   1      44.103  28.444  26.201  1.00  0.00    -0.237 OA
ATOM     71  O   UNL A   1      43.672  26.306  25.031  1.00  0.00    -0.237 OA
ATOM     72  O   UNL A   1      42.244  28.269  24.594  1.00  0.00    -0.744 OA
ENDBRANCH  65  69
ENDBRANCH  48  62
BRANCH  49  73
ATOM     73  C   UNL A   1      39.571  33.554  36.979  1.00  0.00     0.023 A 
ATOM     74  C   UNL A   1      38.876  33.043  38.087  1.00  0.00     0.031 A 
ATOM     75  C   UNL A   1      39.999  34.893  37.031  1.00  0.00     0.131 A 
ATOM     76  C   UNL A   1      38.592  33.876  39.182  1.00  0.00     0.055 A 
ATOM     77  C   UNL A   1      39.759  35.702  38.143  1.00  0.00     0.041 A 
ATOM     78  F   UNL A   1      40.673  35.430  36.002  1.00  0.00    -0.206 F 
ATOM     79  C   UNL A   1      39.041  35.197  39.223  1.00  0.00     0.022 A 
BRANCH  76  80
ATOM     80  S   UNL A   1      37.558  33.227  40.524  1.00  0.00     0.124 S 
ATOM     81  O   UNL A   1      38.388  32.146  41.041  1.00  0.00    -0.237 OA
ATOM     82  O   UNL A   1      37.413  34.395  41.386  1.00  0.00    -0.237 OA
ATOM     83  O   UNL A   1      36.338  32.806  39.839  1.00  0.00    -0.744 OA
ENDBRANCH  76  80
ENDBRANCH  49  73
BRANCH  61  84
ATOM     84  C   UNL A   1      44.319  28.687  35.424  1.00  0.00     0.023 A 
ATOM     85  C   UNL A   1      44.217  27.643  36.361  1.00  0.00     0.031 A 
ATOM     86  C   UNL A   1      45.585  29.256  35.203  1.00  0.00     0.131 A 
ATOM     87  C   UNL A   1      45.351  27.240  37.082  1.00  0.00     0.055 A 
ATOM     88  C   UNL A   1      46.721  28.809  35.879  1.00  0.00     0.041 A 
ATOM     89  F   UNL A   1      45.739  30.257  34.321  1.00  0.00    -0.206 F 
ATOM     90  C   UNL A   1      46.605  27.804  36.835  1.00  0.00     0.022 A 
BRANCH  87  91
ATOM     91  S   UNL A   1      45.148  26.029  38.417  1.00  0.00     0.124 S 
ATOM     92  O   UNL A   1      46.458  26.064  39.059  1.00  0.00    -0.237 OA
ATOM     93  O   UNL A   1      44.046  26.595  39.188  1.00  0.00    -0.237 OA
ATOM     94  O   UNL A   1      44.837  24.788  37.711  1.00  0.00    -0.744 OA
ENDBRANCH  87  91
ENDBRANCH  61  84
ENDBRANCH  35  36
ENDBRANCH  27  30
ENDBRANCH   1  26
TORSDOF 14
ENDMDL
MODEL 2
REMARK VINA RESULT:     -12.5      5.101      7.871
REMARK SMILES C[C@H]1CN(C(=O)N2CC[NH+]([C@@H](C)C(=O)NCCCNC(=O)c3ccc(-c4c5nc(c(-c6cc(S(=O)(=O)[O-])ccc6F)c6ccc([nH]6)c(-c6cc(S(=O)(=O)[O-])ccc6F)c6nc(c(-c7cc(S(=O)(=O)[O-])ccc7F)c7ccc4[nH]7)C=C6)C=C5)cc3)CC2)C[C@@H]1C
REMARK SMILES IDX 18 1 17 2 16 3 15 4 13 5 14 6 11 8 12 9 10 10 1 11 2 12 3 13
REMARK SMILES IDX 88 14 4 15 87 16 89 17 5 18 6 19 7 20 8 21 86 22 9 23 85 24
REMARK SMILES IDX 19 26 20 27 21 29 22 30 23 31 84 32 24 33 83 34 25 35 26 36
REMARK SMILES IDX 27 37 77 38 28 39 82 40 76 41 78 42 29 43 81 44 75 45 74 46
REMARK SMILES IDX 30 48 62 49 42 50 61 51 43 52 46 53 60 54 79 55 44 56 45 57
REMARK SMILES IDX 59 59 80 60 47 61 31 62 32 63 40 64 33 65 39 66 41 67 38 68
REMARK SMILES IDX 34 69 35 70 36 71 37 72 63 73 64 74 72 75 65 76 71 77 73 78
REMARK SMILES IDX 70 79 66 80 67 81 68 82 69 83 48 84 49 85 57 86 50 87 56 88
REMARK SMILES IDX 58 89 55 90 51 91 52 92 53 93 54 94
REMARK H PARENT 15 7 10 25 19 28 78 47 46 58
REMARK Flexibility Score: inf
ROOT
ATOM      1  C   UNL A   1      36.843  23.540  25.004  1.00  0.00     0.118 C 
ENDROOT
BRANCH   1   2
ATOM      2  C   UNL A   1      35.685  23.855  25.936  1.00  0.00     0.042 C 
BRANCH   2   3
ATOM      3  C   UNL A   1      34.651  24.816  25.348  1.00  0.00     0.118 C 
BRANCH   3   4
ATOM      4  N   UNL A   1      33.457  24.906  26.172  1.00  0.00    -0.351 N 
ATOM      5  C   UNL A   1      32.125  24.820  25.896  1.00  0.00     0.278 C 
ATOM      6  O   UNL A   1      31.369  25.024  26.857  1.00  0.00    -0.268 OA
ATOM      7  H   UNL A   1      33.650  25.061  27.125  1.00  0.00     0.163 HD
BRANCH   5   8
ATOM      8  C   UNL A   1      31.526  24.459  24.504  1.00  0.00     0.271 C 
ATOM      9  C   UNL A   1      30.527  25.483  23.972  1.00  0.00     0.086 C 
BRANCH   8  10
ATOM     10  N   UNL A   1      31.264  23.011  24.328  1.00  0.00    -0.322 N 
ATOM     11  C   UNL A   1      32.536  16.291  26.003  1.00  0.00     0.010 C 
ATOM     12  C   UNL A   1      32.702  16.885  24.603  1.00  0.00     0.010 C 
ATOM     13  C   UNL A   1      32.626  18.409  24.649  1.00  0.00     0.125 C 
ATOM     14  C   UNL A   1      34.109  16.634  24.028  1.00  0.00     0.010 C 
ATOM     15  N   UNL A   1      34.005  18.844  24.830  1.00  0.00    -0.324 N 
ATOM     16  C   UNL A   1      34.943  17.744  24.676  1.00  0.00     0.125 C 
ATOM     17  C   UNL A   1      34.124  16.769  22.500  1.00  0.00     0.010 C 
ATOM     18  C   UNL A   1      34.423  20.152  24.852  1.00  0.00     0.320 C 
ATOM     19  O   UNL A   1      35.600  20.498  24.860  1.00  0.00    -0.248 OA
ATOM     20  N   UNL A   1      33.393  21.053  24.718  1.00  0.00    -0.313 N 
ATOM     21  C   UNL A   1      33.386  21.891  23.539  1.00  0.00     0.183 C 
ATOM     22  C   UNL A   1      32.740  21.609  25.894  1.00  0.00     0.183 C 
ATOM     23  C   UNL A   1      31.948  22.318  23.233  1.00  0.00     0.284 C 
ATOM     24  C   UNL A   1      31.347  22.197  25.559  1.00  0.00     0.284 C 
ATOM     25  H   UNL A   1      30.287  23.075  24.043  1.00  0.00     0.348 HD
ENDBRANCH   8  10
ENDBRANCH   5   8
ENDBRANCH   3   4
ENDBRANCH   2   3
ENDBRANCH   1   2
BRANCH   1  26
ATOM     26  N   UNL A   1      37.730  22.532  25.557  1.00  0.00    -0.352 N 
ATOM     27  C   UNL A   1      38.916  22.673  26.241  1.00  0.00     0.251 C 
ATOM     28  H   UNL A   1      37.438  21.602  25.420  1.00  0.00     0.163 HD
ATOM     29  O   UNL A   1      39.616  21.679  26.412  1.00  0.00    -0.269 OA
BRANCH  27  30
ATOM     30  C   UNL A   1      39.364  23.995  26.749  1.00  0.00     0.039 A 
ATOM     31  C   UNL A   1      40.067  24.846  25.888  1.00  0.00     0.014 A 
ATOM     32  C   UNL A   1      39.149  24.389  28.071  1.00  0.00     0.014 A 
ATOM     33  C   UNL A   1      40.504  26.097  26.338  1.00  0.00     0.010 A 
ATOM     34  C   UNL A   1      39.491  25.675  28.487  1.00  0.00     0.010 A 
ATOM     35  C   UNL A   1      40.197  26.536  27.634  1.00  0.00    -0.014 A 
BRANCH  35  36
ATOM     36  C   UNL A   1      40.647  27.864  28.136  1.00  0.00     0.031 A 
ATOM     37  C   UNL A   1      42.121  28.171  28.228  1.00  0.00     0.074 A 
ATOM     38  C   UNL A   1      39.743  28.771  28.560  1.00  0.00     0.049 A 
ATOM     39  N   UNL A   1      42.723  29.224  28.718  1.00  0.00    -0.248 NA
ATOM     40  C   UNL A   1      43.041  27.134  27.735  1.00  0.00     0.031 C 
ATOM     41  C   UNL A   1      38.292  28.581  28.560  1.00  0.00     0.029 A 
ATOM     42  N   UNL A   1      39.911  30.030  29.080  1.00  0.00    -0.354 N 
ATOM     43  C   UNL A   1      44.087  28.966  28.616  1.00  0.00     0.074 A 
ATOM     44  C   UNL A   1      44.219  27.627  28.083  1.00  0.00     0.031 C 
ATOM     45  C   UNL A   1      37.702  29.693  29.026  1.00  0.00     0.029 A 
ATOM     46  C   UNL A   1      38.730  30.658  29.405  1.00  0.00     0.049 A 
ATOM     47  H   UNL A   1      40.794  30.446  29.208  1.00  0.00     0.167 HD
ATOM     48  C   UNL A   1      45.134  29.778  28.910  1.00  0.00     0.034 A 
ATOM     49  C   UNL A   1      38.501  31.868  29.952  1.00  0.00     0.034 A 
ATOM     50  C   UNL A   1      44.984  31.121  29.416  1.00  0.00     0.049 A 
ATOM     51  C   UNL A   1      39.677  32.752  30.282  1.00  0.00     0.074 A 
ATOM     52  C   UNL A   1      45.969  32.053  29.694  1.00  0.00     0.029 A 
ATOM     53  N   UNL A   1      43.771  31.724  29.723  1.00  0.00    -0.354 N 
ATOM     54  N   UNL A   1      40.960  32.509  30.136  1.00  0.00    -0.248 NA
ATOM     55  C   UNL A   1      39.375  34.077  30.838  1.00  0.00     0.031 C 
ATOM     56  C   UNL A   1      45.357  33.191  30.230  1.00  0.00     0.029 A 
ATOM     57  C   UNL A   1      43.984  33.003  30.214  1.00  0.00     0.049 A 
ATOM     58  H   UNL A   1      42.887  31.304  29.609  1.00  0.00     0.167 HD
ATOM     59  C   UNL A   1      41.615  33.664  30.555  1.00  0.00     0.074 A 
ATOM     60  C   UNL A   1      40.584  34.606  30.943  1.00  0.00     0.031 C 
ATOM     61  C   UNL A   1      42.946  33.927  30.608  1.00  0.00     0.034 A 
BRANCH  48  62
ATOM     62  C   UNL A   1      46.525  29.219  28.711  1.00  0.00     0.023 A 
ATOM     63  C   UNL A   1      47.088  29.075  27.429  1.00  0.00     0.031 A 
ATOM     64  C   UNL A   1      47.285  28.785  29.811  1.00  0.00     0.131 A 
ATOM     65  C   UNL A   1      48.325  28.431  27.274  1.00  0.00     0.055 A 
ATOM     66  C   UNL A   1      48.556  28.227  29.656  1.00  0.00     0.041 A 
ATOM     67  F   UNL A   1      46.796  28.877  31.058  1.00  0.00    -0.206 F 
ATOM     68  C   UNL A   1      49.075  28.029  28.380  1.00  0.00     0.022 A 
BRANCH  65  69
ATOM     69  S   UNL A   1      48.859  27.978  25.600  1.00  0.00     0.124 S 
ATOM     70  O   UNL A   1      48.980  26.526  25.714  1.00  0.00    -0.237 OA
ATOM     71  O   UNL A   1      47.761  28.466  24.776  1.00  0.00    -0.237 OA
ATOM     72  O   UNL A   1      50.125  28.690  25.441  1.00  0.00    -0.744 OA
ENDBRANCH  65  69
ENDBRANCH  48  62
BRANCH  49  73
ATOM     73  C   UNL A   1      37.107  32.320  30.229  1.00  0.00     0.023 A 
ATOM     74  C   UNL A   1      36.342  32.955  29.237  1.00  0.00     0.031 A 
ATOM     75  C   UNL A   1      36.528  32.153  31.499  1.00  0.00     0.131 A 
ATOM     76  C   UNL A   1      35.060  33.438  29.543  1.00  0.00     0.055 A 
ATOM     77  C   UNL A   1      35.233  32.589  31.785  1.00  0.00     0.041 A 
ATOM     78  F   UNL A   1      37.213  31.546  32.483  1.00  0.00    -0.206 F 
ATOM     79  C   UNL A   1      34.495  33.247  30.805  1.00  0.00     0.022 A 
BRANCH  76  80
ATOM     80  S   UNL A   1      34.165  34.390  28.284  1.00  0.00     0.124 S 
ATOM     81  O   UNL A   1      33.837  35.610  29.013  1.00  0.00    -0.237 OA
ATOM     82  O   UNL A   1      35.170  34.520  27.233  1.00  0.00    -0.237 OA
ATOM     83  O   UNL A   1      33.029  33.533  27.953  1.00  0.00    -0.744 OA
ENDBRANCH  76  80
ENDBRANCH  49  73
BRANCH  61  84
ATOM     84  C   UNL A   1      43.355  35.308  31.060  1.00  0.00     0.023 A 
ATOM     85  C   UNL A   1      43.440  35.647  32.421  1.00  0.00     0.031 A 
ATOM     86  C   UNL A   1      43.657  36.300  30.110  1.00  0.00     0.131 A 
ATOM     87  C   UNL A   1      43.761  36.961  32.794  1.00  0.00     0.055 A 
ATOM     88  C   UNL A   1      44.036  37.589  30.488  1.00  0.00     0.041 A 
ATOM     89  F   UNL A   1      43.591  36.031  28.796  1.00  0.00    -0.206 F 
ATOM     90  C   UNL A   1      44.077  37.929  31.837  1.00  0.00     0.022 A 
BRANCH  87  91
ATOM     91  S   UNL A   1      43.672  37.415  34.548  1.00  0.00     0.124 S 
ATOM     92  O   UNL A   1      43.361  36.135  35.177  1.00  0.00    -0.237 OA
ATOM     93  O   UNL A   1      45.008  37.943  34.803  1.00  0.00    -0.237 OA
ATOM     94  O   UNL A   1      42.597  38.404  34.592  1.00  0.00    -0.744 OA
ENDBRANCH  87  91
ENDBRANCH  61  84
ENDBRANCH  35  36
ENDBRANCH  27  30
ENDBRANCH   1  26
TORSDOF 14
ENDMDL
MODEL 3
REMARK VINA RESULT:     -12.5      2.648      8.268
REMARK SMILES C[C@H]1CN(C(=O)N2CC[NH+]([C@@H](C)C(=O)NCCCNC(=O)c3ccc(-c4c5nc(c(-c6cc(S(=O)(=O)[O-])ccc6F)c6ccc([nH]6)c(-c6cc(S(=O)(=O)[O-])ccc6F)c6nc(c(-c7cc(S(=O)(=O)[O-])ccc7F)c7ccc4[nH]7)C=C6)C=C5)cc3)CC2)C[C@@H]1C
REMARK SMILES IDX 18 1 17 2 16 3 15 4 13 5 14 6 11 8 12 9 10 10 1 11 2 12 3 13
REMARK SMILES IDX 88 14 4 15 87 16 89 17 5 18 6 19 7 20 8 21 86 22 9 23 85 24
REMARK SMILES IDX 19 26 20 27 21 29 22 30 23 31 84 32 24 33 83 34 25 35 26 36
REMARK SMILES IDX 27 37 77 38 28 39 82 40 76 41 78 42 29 43 81 44 75 45 74 46
REMARK SMILES IDX 30 48 62 49 42 50 61 51 43 52 46 53 60 54 79 55 44 56 45 57
REMARK SMILES IDX 59 59 80 60 47 61 31 62 32 63 40 64 33 65 39 66 41 67 38 68
REMARK SMILES IDX 34 69 35 70 36 71 37 72 63 73 64 74 72 75 65 76 71 77 73 78
REMARK SMILES IDX 70 79 66 80 67 81 68 82 69 83 48 84 49 85 57 86 50 87 56 88
REMARK SMILES IDX 58 89 55 90 51 91 52 92 53 93 54 94
REMARK H PARENT 15 7 10 25 19 28 78 47 46 58
REMARK Flexibility Score: inf
ROOT
ATOM      1  C   UNL A   1      33.329  29.478  25.942  1.00  0.00     0.118 C 
ENDROOT
BRANCH   1   2
ATOM      2  C   UNL A   1      32.069  28.659  26.168  1.00  0.00     0.042 C 
BRANCH   2   3
ATOM      3  C   UNL A   1      32.327  27.244  26.688  1.00  0.00     0.118 C 
BRANCH   3   4
ATOM      4  N   UNL A   1      31.097  26.485  26.843  1.00  0.00    -0.351 N 
ATOM      5  C   UNL A   1      30.477  25.547  26.070  1.00  0.00     0.278 C 
ATOM      6  O   UNL A   1      29.377  25.159  26.488  1.00  0.00    -0.268 OA
ATOM      7  H   UNL A   1      30.613  26.689  27.675  1.00  0.00     0.163 HD
BRANCH   5   8
ATOM      8  C   UNL A   1      31.068  24.938  24.765  1.00  0.00     0.271 C 
ATOM      9  C   UNL A   1      30.925  25.836  23.538  1.00  0.00     0.086 C 
BRANCH   8  10
ATOM     10  N   UNL A   1      30.849  23.477  24.640  1.00  0.00    -0.322 N 
ATOM     11  C   UNL A   1      32.645  16.844  26.176  1.00  0.00     0.010 C 
ATOM     12  C   UNL A   1      32.585  17.425  24.761  1.00  0.00     0.010 C 
ATOM     13  C   UNL A   1      32.448  18.944  24.804  1.00  0.00     0.125 C 
ATOM     14  C   UNL A   1      33.907  17.226  23.994  1.00  0.00     0.010 C 
ATOM     15  N   UNL A   1      33.818  19.441  24.784  1.00  0.00    -0.324 N 
ATOM     16  C   UNL A   1      34.773  18.381  24.509  1.00  0.00     0.125 C 
ATOM     17  C   UNL A   1      33.701  17.339  22.479  1.00  0.00     0.010 C 
ATOM     18  C   UNL A   1      34.176  20.766  24.736  1.00  0.00     0.320 C 
ATOM     19  O   UNL A   1      35.325  21.163  24.575  1.00  0.00    -0.248 OA
ATOM     20  N   UNL A   1      33.098  21.620  24.741  1.00  0.00    -0.313 N 
ATOM     21  C   UNL A   1      32.887  22.439  23.568  1.00  0.00     0.183 C 
ATOM     22  C   UNL A   1      32.592  22.164  25.993  1.00  0.00     0.183 C 
ATOM     23  C   UNL A   1      31.402  22.798  23.465  1.00  0.00     0.284 C 
ATOM     24  C   UNL A   1      31.141  22.686  25.853  1.00  0.00     0.284 C 
ATOM     25  H   UNL A   1      29.839  23.495  24.495  1.00  0.00     0.348 HD
ENDBRANCH   8  10
ENDBRANCH   5   8
ENDBRANCH   3   4
ENDBRANCH   2   3
ENDBRANCH   1   2
BRANCH   1  26
ATOM     26  N   UNL A   1      33.166  30.856  26.369  1.00  0.00    -0.352 N 
ATOM     27  C   UNL A   1      33.833  31.569  27.339  1.00  0.00     0.251 C 
ATOM     28  H   UNL A   1      32.469  31.360  25.890  1.00  0.00     0.163 HD
ATOM     29  O   UNL A   1      33.374  32.652  27.692  1.00  0.00    -0.269 OA
BRANCH  27  30
ATOM     30  C   UNL A   1      35.071  31.044  27.972  1.00  0.00     0.039 A 
ATOM     31  C   UNL A   1      36.225  31.835  27.955  1.00  0.00     0.014 A 
ATOM     32  C   UNL A   1      35.127  29.768  28.536  1.00  0.00     0.014 A 
ATOM     33  C   UNL A   1      37.406  31.368  28.542  1.00  0.00     0.010 A 
ATOM     34  C   UNL A   1      36.272  29.347  29.213  1.00  0.00     0.010 A 
ATOM     35  C   UNL A   1      37.434  30.130  29.201  1.00  0.00    -0.014 A 
BRANCH  35  36
ATOM     36  C   UNL A   1      38.678  29.612  29.837  1.00  0.00     0.031 A 
ATOM     37  C   UNL A   1      39.099  30.126  31.191  1.00  0.00     0.074 A 
ATOM     38  C   UNL A   1      39.455  28.726  29.182  1.00  0.00     0.049 A 
ATOM     39  N   UNL A   1      40.186  29.875  31.875  1.00  0.00    -0.248 NA
ATOM     40  C   UNL A   1      38.191  31.082  31.843  1.00  0.00     0.031 C 
ATOM     41  C   UNL A   1      39.179  28.181  27.852  1.00  0.00     0.029 A 
ATOM     42  N   UNL A   1      40.639  28.132  29.542  1.00  0.00    -0.354 N 
ATOM     43  C   UNL A   1      40.102  30.658  33.023  1.00  0.00     0.074 A 
ATOM     44  C   UNL A   1      38.893  31.445  32.905  1.00  0.00     0.031 C 
ATOM     45  C   UNL A   1      40.148  27.312  27.521  1.00  0.00     0.029 A 
ATOM     46  C   UNL A   1      41.140  27.272  28.591  1.00  0.00     0.049 A 
ATOM     47  H   UNL A   1      41.089  28.306  30.400  1.00  0.00     0.167 HD
ATOM     48  C   UNL A   1      40.939  30.699  34.091  1.00  0.00     0.034 A 
ATOM     49  C   UNL A   1      42.273  26.542  28.578  1.00  0.00     0.034 A 
ATOM     50  C   UNL A   1      42.127  29.888  34.205  1.00  0.00     0.049 A 
ATOM     51  C   UNL A   1      43.195  26.608  29.769  1.00  0.00     0.074 A 
ATOM     52  C   UNL A   1      43.016  29.803  35.262  1.00  0.00     0.029 A 
ATOM     53  N   UNL A   1      42.595  29.022  33.225  1.00  0.00    -0.354 N 
ATOM     54  N   UNL A   1      43.078  27.320  30.867  1.00  0.00    -0.248 NA
ATOM     55  C   UNL A   1      44.395  25.762  29.725  1.00  0.00     0.031 C 
ATOM     56  C   UNL A   1      44.053  28.939  34.897  1.00  0.00     0.029 A 
ATOM     57  C   UNL A   1      43.774  28.422  33.641  1.00  0.00     0.049 A 
ATOM     58  H   UNL A   1      42.155  28.858  32.359  1.00  0.00     0.167 HD
ATOM     59  C   UNL A   1      44.175  26.984  31.656  1.00  0.00     0.074 A 
ATOM     60  C   UNL A   1      44.931  25.995  30.914  1.00  0.00     0.031 C 
ATOM     61  C   UNL A   1      44.523  27.445  32.885  1.00  0.00     0.034 A 
BRANCH  48  62
ATOM     62  C   UNL A   1      40.603  31.668  35.201  1.00  0.00     0.023 A 
ATOM     63  C   UNL A   1      39.605  31.387  36.153  1.00  0.00     0.031 A 
ATOM     64  C   UNL A   1      41.257  32.910  35.288  1.00  0.00     0.131 A 
ATOM     65  C   UNL A   1      39.229  32.364  37.087  1.00  0.00     0.055 A 
ATOM     66  C   UNL A   1      40.940  33.844  36.278  1.00  0.00     0.041 A 
ATOM     67  F   UNL A   1      42.204  33.248  34.399  1.00  0.00    -0.206 F 
ATOM     68  C   UNL A   1      39.906  33.581  37.173  1.00  0.00     0.022 A 
BRANCH  65  69
ATOM     69  S   UNL A   1      37.733  32.085  38.075  1.00  0.00     0.124 S 
ATOM     70  O   UNL A   1      37.380  30.719  37.693  1.00  0.00    -0.237 OA
ATOM     71  O   UNL A   1      38.218  32.261  39.438  1.00  0.00    -0.237 OA
ATOM     72  O   UNL A   1      36.811  33.114  37.600  1.00  0.00    -0.744 OA
ENDBRANCH  65  69
ENDBRANCH  48  62
BRANCH  49  73
ATOM     73  C   UNL A   1      42.606  25.687  27.403  1.00  0.00     0.023 A 
ATOM     74  C   UNL A   1      42.159  24.358  27.324  1.00  0.00     0.031 A 
ATOM     75  C   UNL A   1      43.405  26.175  26.353  1.00  0.00     0.131 A 
ATOM     76  C   UNL A   1      42.548  23.551  26.244  1.00  0.00     0.055 A 
ATOM     77  C   UNL A   1      43.746  25.384  25.254  1.00  0.00     0.041 A 
ATOM     78  F   UNL A   1      43.854  27.441  26.374  1.00  0.00    -0.206 F 
ATOM     79  C   UNL A   1      43.327  24.058  25.202  1.00  0.00     0.022 A 
BRANCH  76  80
ATOM     80  S   UNL A   1      42.082  21.797  26.256  1.00  0.00     0.124 S 
ATOM     81  O   UNL A   1      42.945  21.253  25.214  1.00  0.00    -0.237 OA
ATOM     82  O   UNL A   1      42.405  21.408  27.626  1.00  0.00    -0.237 OA
ATOM     83  O   UNL A   1      40.656  21.822  25.938  1.00  0.00    -0.744 OA
ENDBRANCH  76  80
ENDBRANCH  49  73
BRANCH  61  84
ATOM     84  C   UNL A   1      45.753  26.843  33.520  1.00  0.00     0.023 A 
ATOM     85  C   UNL A   1      45.685  25.691  34.322  1.00  0.00     0.031 A 
ATOM     86  C   UNL A   1      47.011  27.439  33.322  1.00  0.00     0.131 A 
ATOM     87  C   UNL A   1      46.845  25.205  34.944  1.00  0.00     0.055 A 
ATOM     88  C   UNL A   1      48.171  26.915  33.894  1.00  0.00     0.041 A 
ATOM     89  F   UNL A   1      47.133  28.542  32.566  1.00  0.00    -0.206 F 
ATOM     90  C   UNL A   1      48.090  25.798  34.721  1.00  0.00     0.022 A 
BRANCH  87  91
ATOM     91  S   UNL A   1      46.691  23.837  36.125  1.00  0.00     0.124 S 
ATOM     92  O   UNL A   1      46.718  24.537  37.405  1.00  0.00    -0.237 OA
ATOM     93  O   UNL A   1      45.412  23.242  35.751  1.00  0.00    -0.237 OA
ATOM     94  O   UNL A   1      47.863  23.009  35.846  1.00  0.00    -0.744 OA
ENDBRANCH  87  91
ENDBRANCH  61  84
ENDBRANCH  35  36
ENDBRANCH  27  30
ENDBRANCH   1  26
TORSDOF 14
ENDMDL
