MODEL 1
REMARK VINA RESULT:     -12.7      0.000      0.000
REMARK SMILES O=C(NCCCNC(=O)[C@H]1CN(S(=O)(=O)c2ccc(Cl)nc2)c2ccccc21)c1ccc(-c2c3nc(c(-c4cc(S(=O)(=O)[O-])ccc4F)c4ccc([nH]4)c(-c4cc(S(=O)(=O)[O-])ccc4F)c4nc(c(-c5cc(S(=O)(=O)[O-])ccc5F)c5ccc2[nH]5)C=C4)C=C3)cc1
REMARK SMILES IDX 4 1 3 2 1 3 2 4 29 6 30 7 91 8 31 9 90 10 32 11 33 12 34 13
REMARK SMILES IDX 84 14 35 15 89 16 83 17 85 18 36 19 88 20 82 21 81 22 37 24
REMARK SMILES IDX 69 25 49 26 68 27 50 28 53 29 67 30 86 31 51 32 52 33 66 35
REMARK SMILES IDX 87 36 54 37 38 38 39 39 47 40 40 41 46 42 48 43 45 44 41 45
REMARK SMILES IDX 42 46 43 47 44 48 70 49 71 50 79 51 72 52 78 53 80 54 77 55
REMARK SMILES IDX 73 56 74 57 75 58 76 59 55 60 56 61 64 62 57 63 63 64 65 65
REMARK SMILES IDX 62 66 58 67 59 68 60 69 61 70 5 71 6 72 7 73 8 74 9 76 10 77
REMARK SMILES IDX 11 78 28 79 12 80 23 81 27 82 24 83 26 84 25 85 13 86 14 87
REMARK SMILES IDX 15 88 16 89 17 90 22 91 18 92 21 93 19 94 20 95
REMARK H PARENT 3 5 85 23 53 34 7 75
REMARK Flexibility Score: inf
ROOT
ATOM      1  C   UNL A   1      32.955  32.551  27.073  1.00  0.00     0.118 C 
ENDROOT
BRANCH   1   2
ATOM      2  N   UNL A   1      32.621  33.870  27.589  1.00  0.00    -0.352 N 
ATOM      3  O   UNL A   1      32.609  35.572  29.064  1.00  0.00    -0.269 OA
ATOM      4  C   UNL A   1      33.149  34.545  28.664  1.00  0.00     0.251 C 
ATOM      5  H   UNL A   1      31.913  34.349  27.098  1.00  0.00     0.163 HD
BRANCH   4   6
ATOM      6  C   UNL A   1      34.355  34.019  29.336  1.00  0.00     0.039 A 
ATOM      7  C   UNL A   1      34.234  33.120  30.398  1.00  0.00     0.014 A 
ATOM      8  C   UNL A   1      35.619  34.411  28.889  1.00  0.00     0.014 A 
ATOM      9  C   UNL A   1      35.361  32.723  31.103  1.00  0.00     0.010 A 
ATOM     10  C   UNL A   1      36.761  33.922  29.531  1.00  0.00     0.010 A 
ATOM     11  C   UNL A   1      36.638  33.082  30.649  1.00  0.00    -0.014 A 
BRANCH  11  12
ATOM     12  C   UNL A   1      37.824  32.444  31.271  1.00  0.00     0.031 A 
ATOM     13  C   UNL A   1      38.548  31.311  30.602  1.00  0.00     0.074 A 
ATOM     14  C   UNL A   1      38.234  32.915  32.466  1.00  0.00     0.049 A 
ATOM     15  N   UNL A   1      39.575  30.629  31.037  1.00  0.00    -0.248 NA
ATOM     16  C   UNL A   1      38.058  30.884  29.283  1.00  0.00     0.031 C 
ATOM     17  C   UNL A   1      37.594  34.014  33.200  1.00  0.00     0.029 A 
ATOM     18  N   UNL A   1      39.276  32.546  33.278  1.00  0.00    -0.354 N 
ATOM     19  C   UNL A   1      39.844  29.676  30.061  1.00  0.00     0.074 A 
ATOM     20  C   UNL A   1      38.862  29.863  29.012  1.00  0.00     0.031 C 
ATOM     21  C   UNL A   1      38.271  34.245  34.332  1.00  0.00     0.029 A 
ATOM     22  C   UNL A   1      39.332  33.256  34.456  1.00  0.00     0.049 A 
ATOM     23  H   UNL A   1      39.921  31.841  33.040  1.00  0.00     0.167 HD
ATOM     24  C   UNL A   1      40.819  28.735  30.054  1.00  0.00     0.034 A 
ATOM     25  C   UNL A   1      40.115  33.098  35.539  1.00  0.00     0.034 A 
ATOM     26  C   UNL A   1      41.791  28.579  31.112  1.00  0.00     0.049 A 
ATOM     27  C   UNL A   1      41.144  32.000  35.522  1.00  0.00     0.074 A 
ATOM     28  C   UNL A   1      42.868  27.712  31.165  1.00  0.00     0.029 A 
ATOM     29  N   UNL A   1      41.789  29.282  32.309  1.00  0.00    -0.354 N 
ATOM     30  N   UNL A   1      41.428  31.153  34.559  1.00  0.00    -0.248 NA
ATOM     31  C   UNL A   1      41.956  31.831  36.733  1.00  0.00     0.031 C 
ATOM     32  C   UNL A   1      43.459  27.823  32.427  1.00  0.00     0.029 A 
ATOM     33  C   UNL A   1      42.808  28.823  33.131  1.00  0.00     0.049 A 
ATOM     34  H   UNL A   1      41.158  30.002  32.541  1.00  0.00     0.167 HD
ATOM     35  C   UNL A   1      42.460  30.361  35.047  1.00  0.00     0.074 A 
ATOM     36  C   UNL A   1      42.772  30.853  36.373  1.00  0.00     0.031 C 
ATOM     37  C   UNL A   1      43.091  29.314  34.458  1.00  0.00     0.034 A 
BRANCH  24  38
ATOM     38  C   UNL A   1      40.867  27.759  28.904  1.00  0.00     0.023 A 
ATOM     39  C   UNL A   1      41.794  27.877  27.857  1.00  0.00     0.031 A 
ATOM     40  C   UNL A   1      39.996  26.653  28.895  1.00  0.00     0.131 A 
ATOM     41  C   UNL A   1      41.810  26.922  26.827  1.00  0.00     0.055 A 
ATOM     42  C   UNL A   1      40.059  25.672  27.903  1.00  0.00     0.041 A 
ATOM     43  F   UNL A   1      39.075  26.501  29.860  1.00  0.00    -0.206 F 
ATOM     44  C   UNL A   1      40.967  25.807  26.858  1.00  0.00     0.022 A 
BRANCH  41  45
ATOM     45  S   UNL A   1      42.891  27.198  25.398  1.00  0.00     0.124 S 
ATOM     46  O   UNL A   1      42.813  25.909  24.712  1.00  0.00    -0.237 OA
ATOM     47  O   UNL A   1      42.244  28.318  24.724  1.00  0.00    -0.237 OA
ATOM     48  O   UNL A   1      44.188  27.498  25.999  1.00  0.00    -0.744 OA
ENDBRANCH  41  45
ENDBRANCH  24  38
BRANCH  25  49
ATOM     49  C   UNL A   1      39.905  33.936  36.756  1.00  0.00     0.023 A 
ATOM     50  C   UNL A   1      39.318  33.401  37.911  1.00  0.00     0.031 A 
ATOM     51  C   UNL A   1      40.225  35.307  36.755  1.00  0.00     0.131 A 
ATOM     52  C   UNL A   1      39.007  34.243  38.989  1.00  0.00     0.055 A 
ATOM     53  C   UNL A   1      39.984  36.124  37.859  1.00  0.00     0.041 A 
ATOM     54  F   UNL A   1      40.785  35.876  35.674  1.00  0.00    -0.206 F 
ATOM     55  C   UNL A   1      39.351  35.596  38.980  1.00  0.00     0.022 A 
BRANCH  52  56
ATOM     56  S   UNL A   1      38.014  33.569  40.349  1.00  0.00     0.124 S 
ATOM     57  O   UNL A   1      36.867  33.021  39.633  1.00  0.00    -0.237 OA
ATOM     58  O   UNL A   1      38.929  32.596  40.936  1.00  0.00    -0.237 OA
ATOM     59  O   UNL A   1      37.733  34.740  41.176  1.00  0.00    -0.744 OA
ENDBRANCH  52  56
ENDBRANCH  25  49
BRANCH  37  60
ATOM     60  C   UNL A   1      44.193  28.652  35.247  1.00  0.00     0.023 A 
ATOM     61  C   UNL A   1      43.925  27.595  36.133  1.00  0.00     0.031 A 
ATOM     62  C   UNL A   1      45.522  29.089  35.116  1.00  0.00     0.131 A 
ATOM     63  C   UNL A   1      44.964  27.042  36.893  1.00  0.00     0.055 A 
ATOM     64  C   UNL A   1      46.563  28.491  35.827  1.00  0.00     0.041 A 
ATOM     65  F   UNL A   1      45.832  30.099  34.289  1.00  0.00    -0.206 F 
ATOM     66  C   UNL A   1      46.284  27.469  36.731  1.00  0.00     0.022 A 
BRANCH  63  67
ATOM     67  S   UNL A   1      44.555  25.810  38.160  1.00  0.00     0.124 S 
ATOM     68  O   UNL A   1      45.834  25.136  38.351  1.00  0.00    -0.237 OA
ATOM     69  O   UNL A   1      44.099  26.640  39.270  1.00  0.00    -0.237 OA
ATOM     70  O   UNL A   1      43.515  25.000  37.526  1.00  0.00    -0.744 OA
ENDBRANCH  63  67
ENDBRANCH  37  60
ENDBRANCH  11  12
ENDBRANCH   4   6
ENDBRANCH   1   2
BRANCH   1  71
ATOM     71  C   UNL A   1      31.731  31.767  26.631  1.00  0.00     0.042 C 
BRANCH  71  72
ATOM     72  C   UNL A   1      32.041  30.339  26.221  1.00  0.00     0.117 C 
BRANCH  72  73
ATOM     73  N   UNL A   1      31.067  29.818  25.276  1.00  0.00    -0.355 N 
ATOM     74  C   UNL A   1      31.036  28.623  24.619  1.00  0.00     0.229 C 
ATOM     75  H   UNL A   1      30.313  30.419  25.083  1.00  0.00     0.163 HD
ATOM     76  O   UNL A   1      30.127  28.450  23.806  1.00  0.00    -0.274 OA
BRANCH  74  77
ATOM     77  C   UNL A   1      32.125  27.601  24.896  1.00  0.00     0.131 C 
ATOM     78  C   UNL A   1      31.589  26.504  25.832  1.00  0.00     0.154 C 
ATOM     79  C   UNL A   1      32.519  26.799  23.687  1.00  0.00    -0.009 A 
ATOM     80  N   UNL A   1      31.331  25.278  24.996  1.00  0.00    -0.265 N 
ATOM     81  C   UNL A   1      32.026  25.496  23.760  1.00  0.00     0.056 A 
ATOM     82  C   UNL A   1      33.164  27.271  22.548  1.00  0.00     0.007 A 
ATOM     83  C   UNL A   1      32.047  24.697  22.629  1.00  0.00     0.027 A 
ATOM     84  C   UNL A   1      33.262  26.431  21.440  1.00  0.00     0.000 A 
ATOM     85  C   UNL A   1      32.690  25.157  21.475  1.00  0.00     0.002 A 
BRANCH  80  86
ATOM     86  S   UNL A   1      31.525  23.863  25.923  1.00  0.00     0.265 S 
ATOM     87  O   UNL A   1      31.453  24.230  27.327  1.00  0.00    -0.201 OA
ATOM     88  O   UNL A   1      30.615  22.874  25.392  1.00  0.00    -0.201 OA
BRANCH  86  89
ATOM     89  C   UNL A   1      33.151  23.295  25.618  1.00  0.00     0.106 A 
ATOM     90  C   UNL A   1      34.250  24.043  26.040  1.00  0.00     0.027 A 
ATOM     91  C   UNL A   1      33.349  22.110  24.933  1.00  0.00     0.135 A 
ATOM     92  C   UNL A   1      35.524  23.614  25.685  1.00  0.00     0.042 A 
ATOM     93  N   UNL A   1      34.583  21.670  24.584  1.00  0.00    -0.243 NA
ATOM     94  C   UNL A   1      35.630  22.439  24.957  1.00  0.00     0.129 A 
ATOM     95  Cl  UNL A   1      37.160  21.886  24.416  1.00  0.00    -0.062 Cl
ENDBRANCH  86  89
ENDBRANCH  80  86
ENDBRANCH  74  77
ENDBRANCH  72  73
ENDBRANCH  71  72
ENDBRANCH   1  71
TORSDOF 15
ENDMDL
MODEL 2
REMARK VINA RESULT:     -12.6      1.307      1.475
REMARK SMILES O=C(NCCCNC(=O)[C@H]1CN(S(=O)(=O)c2ccc(Cl)nc2)c2ccccc21)c1ccc(-c2c3nc(c(-c4cc(S(=O)(=O)[O-])ccc4F)c4ccc([nH]4)c(-c4cc(S(=O)(=O)[O-])ccc4F)c4nc(c(-c5cc(S(=O)(=O)[O-])ccc5F)c5ccc2[nH]5)C=C4)C=C3)cc1
REMARK SMILES IDX 4 1 3 2 1 3 2 4 29 6 30 7 91 8 31 9 90 10 32 11 33 12 34 13
REMARK SMILES IDX 84 14 35 15 89 16 83 17 85 18 36 19 88 20 82 21 81 22 37 24
REMARK SMILES IDX 69 25 49 26 68 27 50 28 53 29 67 30 86 31 51 32 52 33 66 35
REMARK SMILES IDX 87 36 54 37 38 38 39 39 47 40 40 41 46 42 48 43 45 44 41 45
REMARK SMILES IDX 42 46 43 47 44 48 70 49 71 50 79 51 72 52 78 53 80 54 77 55
REMARK SMILES IDX 73 56 74 57 75 58 76 59 55 60 56 61 64 62 57 63 63 64 65 65
REMARK SMILES IDX 62 66 58 67 59 68 60 69 61 70 5 71 6 72 7 73 8 74 9 76 10 77
REMARK SMILES IDX 11 78 28 79 12 80 23 81 27 82 24 83 26 84 25 85 13 86 14 87
REMARK SMILES IDX 15 88 16 89 17 90 22 91 18 92 21 93 19 94 20 95
REMARK H PARENT 3 5 85 23 53 34 7 75
REMARK Flexibility Score: inf
ROOT
ATOM      1  C   UNL A   1      32.880  32.520  27.162  1.00  0.00     0.118 C 
ENDROOT
BRANCH   1   2
ATOM      2  N   UNL A   1      32.592  33.868  27.630  1.00  0.00    -0.352 N 
ATOM      3  O   UNL A   1      32.659  35.629  29.031  1.00  0.00    -0.269 OA
ATOM      4  C   UNL A   1      33.162  34.573  28.662  1.00  0.00     0.251 C 
ATOM      5  H   UNL A   1      31.884  34.344  27.135  1.00  0.00     0.163 HD
BRANCH   4   6
ATOM      6  C   UNL A   1      34.371  34.045  29.327  1.00  0.00     0.039 A 
ATOM      7  C   UNL A   1      34.253  33.175  30.414  1.00  0.00     0.014 A 
ATOM      8  C   UNL A   1      35.634  34.404  28.850  1.00  0.00     0.014 A 
ATOM      9  C   UNL A   1      35.385  32.777  31.110  1.00  0.00     0.010 A 
ATOM     10  C   UNL A   1      36.779  33.913  29.485  1.00  0.00     0.010 A 
ATOM     11  C   UNL A   1      36.661  33.103  30.626  1.00  0.00    -0.014 A 
BRANCH  11  12
ATOM     12  C   UNL A   1      37.847  32.462  31.244  1.00  0.00     0.031 A 
ATOM     13  C   UNL A   1      38.557  31.317  30.581  1.00  0.00     0.074 A 
ATOM     14  C   UNL A   1      38.270  32.940  32.432  1.00  0.00     0.049 A 
ATOM     15  N   UNL A   1      39.581  30.631  31.013  1.00  0.00    -0.248 NA
ATOM     16  C   UNL A   1      38.053  30.882  29.269  1.00  0.00     0.031 C 
ATOM     17  C   UNL A   1      37.644  34.051  33.161  1.00  0.00     0.029 A 
ATOM     18  N   UNL A   1      39.315  32.570  33.239  1.00  0.00    -0.354 N 
ATOM     19  C   UNL A   1      39.835  29.667  30.044  1.00  0.00     0.074 A 
ATOM     20  C   UNL A   1      38.846  29.852  29.002  1.00  0.00     0.031 C 
ATOM     21  C   UNL A   1      38.332  34.286  34.286  1.00  0.00     0.029 A 
ATOM     22  C   UNL A   1      39.386  33.290  34.410  1.00  0.00     0.049 A 
ATOM     23  H   UNL A   1      39.952  31.858  33.003  1.00  0.00     0.167 HD
ATOM     24  C   UNL A   1      40.803  28.718  30.038  1.00  0.00     0.034 A 
ATOM     25  C   UNL A   1      40.176  33.136  35.489  1.00  0.00     0.034 A 
ATOM     26  C   UNL A   1      41.781  28.564  31.089  1.00  0.00     0.049 A 
ATOM     27  C   UNL A   1      41.197  32.029  35.473  1.00  0.00     0.074 A 
ATOM     28  C   UNL A   1      42.852  27.689  31.142  1.00  0.00     0.029 A 
ATOM     29  N   UNL A   1      41.795  29.278  32.280  1.00  0.00    -0.354 N 
ATOM     30  N   UNL A   1      41.466  31.172  34.516  1.00  0.00    -0.248 NA
ATOM     31  C   UNL A   1      42.016  31.865  36.679  1.00  0.00     0.031 C 
ATOM     32  C   UNL A   1      43.454  27.807  32.398  1.00  0.00     0.029 A 
ATOM     33  C   UNL A   1      42.817  28.818  33.098  1.00  0.00     0.049 A 
ATOM     34  H   UNL A   1      41.171  30.004  32.510  1.00  0.00     0.167 HD
ATOM     35  C   UNL A   1      42.496  30.376  35.003  1.00  0.00     0.074 A 
ATOM     36  C   UNL A   1      42.822  30.877  36.321  1.00  0.00     0.031 C 
ATOM     37  C   UNL A   1      43.114  29.319  34.419  1.00  0.00     0.034 A 
BRANCH  24  38
ATOM     38  C   UNL A   1      40.834  27.731  28.897  1.00  0.00     0.023 A 
ATOM     39  C   UNL A   1      41.753  27.833  27.840  1.00  0.00     0.031 A 
ATOM     40  C   UNL A   1      39.955  26.632  28.904  1.00  0.00     0.131 A 
ATOM     41  C   UNL A   1      41.753  26.869  26.820  1.00  0.00     0.055 A 
ATOM     42  C   UNL A   1      40.002  25.642  27.921  1.00  0.00     0.041 A 
ATOM     43  F   UNL A   1      39.041  26.495  29.879  1.00  0.00    -0.206 F 
ATOM     44  C   UNL A   1      40.903  25.760  26.867  1.00  0.00     0.022 A 
BRANCH  41  45
ATOM     45  S   UNL A   1      42.825  27.124  25.379  1.00  0.00     0.124 S 
ATOM     46  O   UNL A   1      42.660  25.862  24.659  1.00  0.00    -0.237 OA
ATOM     47  O   UNL A   1      42.233  28.299  24.749  1.00  0.00    -0.237 OA
ATOM     48  O   UNL A   1      44.147  27.330  25.965  1.00  0.00    -0.744 OA
ENDBRANCH  41  45
ENDBRANCH  24  38
BRANCH  25  49
ATOM     49  C   UNL A   1      39.982  33.986  36.699  1.00  0.00     0.023 A 
ATOM     50  C   UNL A   1      40.870  35.028  37.001  1.00  0.00     0.031 A 
ATOM     51  C   UNL A   1      38.943  33.721  37.612  1.00  0.00     0.131 A 
ATOM     52  C   UNL A   1      40.744  35.722  38.215  1.00  0.00     0.055 A 
ATOM     53  C   UNL A   1      38.777  34.465  38.780  1.00  0.00     0.041 A 
ATOM     54  F   UNL A   1      38.065  32.732  37.377  1.00  0.00    -0.206 F 
ATOM     55  C   UNL A   1      39.695  35.460  39.098  1.00  0.00     0.022 A 
BRANCH  52  56
ATOM     56  S   UNL A   1      42.061  36.876  38.687  1.00  0.00     0.124 S 
ATOM     57  O   UNL A   1      42.686  37.154  37.399  1.00  0.00    -0.237 OA
ATOM     58  O   UNL A   1      41.302  37.971  39.282  1.00  0.00    -0.237 OA
ATOM     59  O   UNL A   1      42.872  36.100  39.622  1.00  0.00    -0.744 OA
ENDBRANCH  52  56
ENDBRANCH  25  49
BRANCH  37  60
ATOM     60  C   UNL A   1      44.216  28.655  35.205  1.00  0.00     0.023 A 
ATOM     61  C   UNL A   1      43.951  27.589  36.082  1.00  0.00     0.031 A 
ATOM     62  C   UNL A   1      45.544  29.099  35.081  1.00  0.00     0.131 A 
ATOM     63  C   UNL A   1      44.991  27.035  36.840  1.00  0.00     0.055 A 
ATOM     64  C   UNL A   1      46.586  28.500  35.790  1.00  0.00     0.041 A 
ATOM     65  F   UNL A   1      45.852  30.118  34.263  1.00  0.00    -0.206 F 
ATOM     66  C   UNL A   1      46.309  27.469  36.685  1.00  0.00     0.022 A 
BRANCH  63  67
ATOM     67  S   UNL A   1      44.584  25.791  38.095  1.00  0.00     0.124 S 
ATOM     68  O   UNL A   1      45.865  25.612  38.771  1.00  0.00    -0.237 OA
ATOM     69  O   UNL A   1      43.541  26.455  38.870  1.00  0.00    -0.237 OA
ATOM     70  O   UNL A   1      44.133  24.644  37.306  1.00  0.00    -0.744 OA
ENDBRANCH  63  67
ENDBRANCH  37  60
ENDBRANCH  11  12
ENDBRANCH   4   6
ENDBRANCH   1   2
BRANCH   1  71
ATOM     71  C   UNL A   1      31.660  31.829  26.578  1.00  0.00     0.042 C 
BRANCH  71  72
ATOM     72  C   UNL A   1      31.882  30.358  26.277  1.00  0.00     0.117 C 
BRANCH  72  73
ATOM     73  N   UNL A   1      31.000  29.875  25.227  1.00  0.00    -0.355 N 
ATOM     74  C   UNL A   1      31.053  28.723  24.499  1.00  0.00     0.229 C 
ATOM     75  H   UNL A   1      30.248  30.471  25.010  1.00  0.00     0.163 HD
ATOM     76  O   UNL A   1      30.216  28.581  23.607  1.00  0.00    -0.274 OA
BRANCH  74  77
ATOM     77  C   UNL A   1      32.143  27.709  24.801  1.00  0.00     0.131 C 
ATOM     78  C   UNL A   1      31.611  26.640  25.770  1.00  0.00     0.154 C 
ATOM     79  C   UNL A   1      32.533  26.874  23.614  1.00  0.00    -0.009 A 
ATOM     80  N   UNL A   1      31.351  25.391  24.970  1.00  0.00    -0.265 N 
ATOM     81  C   UNL A   1      32.042  25.574  23.726  1.00  0.00     0.056 A 
ATOM     82  C   UNL A   1      33.174  27.314  22.460  1.00  0.00     0.007 A 
ATOM     83  C   UNL A   1      32.059  24.742  22.618  1.00  0.00     0.027 A 
ATOM     84  C   UNL A   1      33.267  26.442  21.376  1.00  0.00     0.000 A 
ATOM     85  C   UNL A   1      32.696  25.169  21.449  1.00  0.00     0.002 A 
BRANCH  80  86
ATOM     86  S   UNL A   1      31.550  24.002  25.936  1.00  0.00     0.265 S 
ATOM     87  O   UNL A   1      31.495  24.411  27.330  1.00  0.00    -0.201 OA
ATOM     88  O   UNL A   1      30.629  23.002  25.445  1.00  0.00    -0.201 OA
BRANCH  86  89
ATOM     89  C   UNL A   1      33.169  23.418  25.630  1.00  0.00     0.106 A 
ATOM     90  C   UNL A   1      34.277  24.179  26.005  1.00  0.00     0.027 A 
ATOM     91  C   UNL A   1      33.354  22.206  24.990  1.00  0.00     0.135 A 
ATOM     92  C   UNL A   1      35.543  23.732  25.649  1.00  0.00     0.042 A 
ATOM     93  N   UNL A   1      34.582  21.748  24.640  1.00  0.00    -0.243 NA
ATOM     94  C   UNL A   1      35.636  22.529  24.967  1.00  0.00     0.129 A 
ATOM     95  Cl  UNL A   1      37.156  21.950  24.425  1.00  0.00    -0.062 Cl
ENDBRANCH  86  89
ENDBRANCH  80  86
ENDBRANCH  74  77
ENDBRANCH  72  73
ENDBRANCH  71  72
ENDBRANCH   1  71
TORSDOF 15
ENDMDL
MODEL 3
REMARK VINA RESULT:     -12.5      1.861      2.163
REMARK SMILES O=C(NCCCNC(=O)[C@H]1CN(S(=O)(=O)c2ccc(Cl)nc2)c2ccccc21)c1ccc(-c2c3nc(c(-c4cc(S(=O)(=O)[O-])ccc4F)c4ccc([nH]4)c(-c4cc(S(=O)(=O)[O-])ccc4F)c4nc(c(-c5cc(S(=O)(=O)[O-])ccc5F)c5ccc2[nH]5)C=C4)C=C3)cc1
REMARK SMILES IDX 4 1 3 2 1 3 2 4 29 6 30 7 91 8 31 9 90 10 32 11 33 12 34 13
REMARK SMILES IDX 84 14 35 15 89 16 83 17 85 18 36 19 88 20 82 21 81 22 37 24
REMARK SMILES IDX 69 25 49 26 68 27 50 28 53 29 67 30 86 31 51 32 52 33 66 35
REMARK SMILES IDX 87 36 54 37 38 38 39 39 47 40 40 41 46 42 48 43 45 44 41 45
REMARK SMILES IDX 42 46 43 47 44 48 70 49 71 50 79 51 72 52 78 53 80 54 77 55
REMARK SMILES IDX 73 56 74 57 75 58 76 59 55 60 56 61 64 62 57 63 63 64 65 65
REMARK SMILES IDX 62 66 58 67 59 68 60 69 61 70 5 71 6 72 7 73 8 74 9 76 10 77
REMARK SMILES IDX 11 78 28 79 12 80 23 81 27 82 24 83 26 84 25 85 13 86 14 87
REMARK SMILES IDX 15 88 16 89 17 90 22 91 18 92 21 93 19 94 20 95
REMARK H PARENT 3 5 85 23 53 34 7 75
REMARK Flexibility Score: inf
ROOT
ATOM      1  C   UNL A   1      32.783  32.848  27.246  1.00  0.00     0.118 C 
ENDROOT
BRANCH   1   2
ATOM      2  N   UNL A   1      32.531  34.205  27.711  1.00  0.00    -0.352 N 
ATOM      3  O   UNL A   1      32.651  35.969  29.104  1.00  0.00    -0.269 OA
ATOM      4  C   UNL A   1      33.126  34.900  28.736  1.00  0.00     0.251 C 
ATOM      5  H   UNL A   1      31.832  34.696  27.219  1.00  0.00     0.163 HD
BRANCH   4   6
ATOM      6  C   UNL A   1      34.326  34.344  29.396  1.00  0.00     0.039 A 
ATOM      7  C   UNL A   1      34.203  33.612  30.579  1.00  0.00     0.014 A 
ATOM      8  C   UNL A   1      35.583  34.538  28.817  1.00  0.00     0.014 A 
ATOM      9  C   UNL A   1      35.339  33.197  31.258  1.00  0.00     0.010 A 
ATOM     10  C   UNL A   1      36.720  34.022  29.446  1.00  0.00     0.010 A 
ATOM     11  C   UNL A   1      36.605  33.355  30.676  1.00  0.00    -0.014 A 
BRANCH  11  12
ATOM     12  C   UNL A   1      37.771  32.685  31.303  1.00  0.00     0.031 A 
ATOM     13  C   UNL A   1      38.462  31.528  30.641  1.00  0.00     0.074 A 
ATOM     14  C   UNL A   1      38.192  33.148  32.498  1.00  0.00     0.049 A 
ATOM     15  N   UNL A   1      39.467  30.817  31.080  1.00  0.00    -0.248 NA
ATOM     16  C   UNL A   1      37.961  31.111  29.322  1.00  0.00     0.031 C 
ATOM     17  C   UNL A   1      37.583  34.269  33.226  1.00  0.00     0.029 A 
ATOM     18  N   UNL A   1      39.220  32.751  33.313  1.00  0.00    -0.354 N 
ATOM     19  C   UNL A   1      39.709  29.852  30.109  1.00  0.00     0.074 A 
ATOM     20  C   UNL A   1      38.735  30.064  29.057  1.00  0.00     0.031 C 
ATOM     21  C   UNL A   1      38.265  34.484  34.359  1.00  0.00     0.029 A 
ATOM     22  C   UNL A   1      39.296  33.464  34.488  1.00  0.00     0.049 A 
ATOM     23  H   UNL A   1      39.844  32.026  33.080  1.00  0.00     0.167 HD
ATOM     24  C   UNL A   1      40.656  28.882  30.108  1.00  0.00     0.034 A 
ATOM     25  C   UNL A   1      40.071  33.287  35.574  1.00  0.00     0.034 A 
ATOM     26  C   UNL A   1      41.620  28.702  31.168  1.00  0.00     0.049 A 
ATOM     27  C   UNL A   1      41.067  32.158  35.563  1.00  0.00     0.074 A 
ATOM     28  C   UNL A   1      42.670  27.803  31.227  1.00  0.00     0.029 A 
ATOM     29  N   UNL A   1      41.637  29.410  32.363  1.00  0.00    -0.354 N 
ATOM     30  N   UNL A   1      41.327  31.300  34.604  1.00  0.00    -0.248 NA
ATOM     31  C   UNL A   1      41.871  31.970  36.777  1.00  0.00     0.031 C 
ATOM     32  C   UNL A   1      43.262  27.902  32.489  1.00  0.00     0.029 A 
ATOM     33  C   UNL A   1      42.640  28.923  33.188  1.00  0.00     0.049 A 
ATOM     34  H   UNL A   1      41.027  30.149  32.590  1.00  0.00     0.167 HD
ATOM     35  C   UNL A   1      42.334  30.478  35.098  1.00  0.00     0.074 A 
ATOM     36  C   UNL A   1      42.658  30.966  36.422  1.00  0.00     0.031 C 
ATOM     37  C   UNL A   1      42.935  29.411  34.514  1.00  0.00     0.034 A 
BRANCH  24  38
ATOM     38  C   UNL A   1      40.676  27.901  28.962  1.00  0.00     0.023 A 
ATOM     39  C   UNL A   1      41.593  28.001  27.903  1.00  0.00     0.031 A 
ATOM     40  C   UNL A   1      39.790  26.808  28.967  1.00  0.00     0.131 A 
ATOM     41  C   UNL A   1      41.584  27.042  26.878  1.00  0.00     0.055 A 
ATOM     42  C   UNL A   1      39.828  25.822  27.979  1.00  0.00     0.041 A 
ATOM     43  F   UNL A   1      38.878  26.673  29.943  1.00  0.00    -0.206 F 
ATOM     44  C   UNL A   1      40.726  25.939  26.923  1.00  0.00     0.022 A 
BRANCH  41  45
ATOM     45  S   UNL A   1      42.652  27.296  25.435  1.00  0.00     0.124 S 
ATOM     46  O   UNL A   1      42.442  26.058  24.687  1.00  0.00    -0.237 OA
ATOM     47  O   UNL A   1      42.094  28.504  24.838  1.00  0.00    -0.237 OA
ATOM     48  O   UNL A   1      43.985  27.446  26.015  1.00  0.00    -0.744 OA
ENDBRANCH  41  45
ENDBRANCH  24  38
BRANCH  25  49
ATOM     49  C   UNL A   1      39.884  34.136  36.787  1.00  0.00     0.023 A 
ATOM     50  C   UNL A   1      40.795  35.151  37.107  1.00  0.00     0.031 A 
ATOM     51  C   UNL A   1      38.826  33.893  37.684  1.00  0.00     0.131 A 
ATOM     52  C   UNL A   1      40.672  35.841  38.323  1.00  0.00     0.055 A 
ATOM     53  C   UNL A   1      38.664  34.634  38.854  1.00  0.00     0.041 A 
ATOM     54  F   UNL A   1      37.925  32.929  37.431  1.00  0.00    -0.206 F 
ATOM     55  C   UNL A   1      39.604  35.603  39.190  1.00  0.00     0.022 A 
BRANCH  52  56
ATOM     56  S   UNL A   1      42.013  36.957  38.820  1.00  0.00     0.124 S 
ATOM     57  O   UNL A   1      42.636  37.258  37.536  1.00  0.00    -0.237 OA
ATOM     58  O   UNL A   1      41.278  38.049  39.448  1.00  0.00    -0.237 OA
ATOM     59  O   UNL A   1      42.814  36.140  39.728  1.00  0.00    -0.744 OA
ENDBRANCH  52  56
ENDBRANCH  25  49
BRANCH  37  60
ATOM     60  C   UNL A   1      44.014  28.719  35.308  1.00  0.00     0.023 A 
ATOM     61  C   UNL A   1      43.723  27.629  36.145  1.00  0.00     0.031 A 
ATOM     62  C   UNL A   1      45.346  29.161  35.231  1.00  0.00     0.131 A 
ATOM     63  C   UNL A   1      44.741  27.048  36.913  1.00  0.00     0.055 A 
ATOM     64  C   UNL A   1      46.367  28.536  35.949  1.00  0.00     0.041 A 
ATOM     65  F   UNL A   1      45.679  30.202  34.452  1.00  0.00    -0.206 F 
ATOM     66  C   UNL A   1      46.065  27.480  36.805  1.00  0.00     0.022 A 
BRANCH  63  67
ATOM     67  S   UNL A   1      44.298  25.769  38.119  1.00  0.00     0.124 S 
ATOM     68  O   UNL A   1      44.250  26.529  39.363  1.00  0.00    -0.237 OA
ATOM     69  O   UNL A   1      43.016  25.290  37.614  1.00  0.00    -0.237 OA
ATOM     70  O   UNL A   1      45.398  24.809  38.020  1.00  0.00    -0.744 OA
ENDBRANCH  63  67
ENDBRANCH  37  60
ENDBRANCH  11  12
ENDBRANCH   4   6
ENDBRANCH   1   2
BRANCH   1  71
ATOM     71  C   UNL A   1      31.509  32.111  26.870  1.00  0.00     0.042 C 
BRANCH  71  72
ATOM     72  C   UNL A   1      31.758  30.786  26.175  1.00  0.00     0.117 C 
BRANCH  72  73
ATOM     73  N   UNL A   1      31.699  29.665  27.097  1.00  0.00    -0.355 N 
ATOM     74  C   UNL A   1      32.016  28.352  26.903  1.00  0.00     0.229 C 
ATOM     75  H   UNL A   1      31.383  29.888  28.002  1.00  0.00     0.163 HD
ATOM     76  O   UNL A   1      31.807  27.578  27.838  1.00  0.00    -0.274 OA
BRANCH  74  77
ATOM     77  C   UNL A   1      32.570  27.919  25.557  1.00  0.00     0.131 C 
ATOM     78  C   UNL A   1      33.683  26.877  25.759  1.00  0.00     0.154 C 
ATOM     79  C   UNL A   1      31.586  27.150  24.721  1.00  0.00    -0.009 A 
ATOM     80  N   UNL A   1      33.114  25.528  25.408  1.00  0.00    -0.265 N 
ATOM     81  C   UNL A   1      31.904  25.793  24.683  1.00  0.00     0.056 A 
ATOM     82  C   UNL A   1      30.414  27.640  24.152  1.00  0.00     0.007 A 
ATOM     83  C   UNL A   1      30.973  24.889  24.199  1.00  0.00     0.027 A 
ATOM     84  C   UNL A   1      29.518  26.734  23.586  1.00  0.00     0.000 A 
ATOM     85  C   UNL A   1      29.788  25.363  23.626  1.00  0.00     0.002 A 
BRANCH  80  86
ATOM     86  S   UNL A   1      34.330  24.492  24.820  1.00  0.00     0.265 S 
ATOM     87  O   UNL A   1      34.396  24.648  23.377  1.00  0.00    -0.201 OA
ATOM     88  O   UNL A   1      35.511  24.718  25.622  1.00  0.00    -0.201 OA
BRANCH  86  89
ATOM     89  C   UNL A   1      33.786  22.862  25.141  1.00  0.00     0.106 A 
ATOM     90  C   UNL A   1      33.961  22.294  26.403  1.00  0.00     0.027 A 
ATOM     91  C   UNL A   1      33.200  22.119  24.131  1.00  0.00     0.135 A 
ATOM     92  C   UNL A   1      33.615  20.961  26.589  1.00  0.00     0.042 A 
ATOM     93  N   UNL A   1      32.848  20.820  24.294  1.00  0.00    -0.243 NA
ATOM     94  C   UNL A   1      33.077  20.277  25.510  1.00  0.00     0.129 A 
ATOM     95  Cl  UNL A   1      32.697  18.611  25.638  1.00  0.00    -0.062 Cl
ENDBRANCH  86  89
ENDBRANCH  80  86
ENDBRANCH  74  77
ENDBRANCH  72  73
ENDBRANCH  71  72
ENDBRANCH   1  71
TORSDOF 15
ENDMDL
