MODEL 1
REMARK VINA RESULT:     -11.5      0.000      0.000
REMARK SMILES Cc1cc(Oc2ccnc(C(=O)NCCCNC(=O)c3ccc(-c4c5nc(c(-c6cc(S(=O)(=O)[O-])ccc6F)c6ccc([nH]6)c(-c6cc(S(=O)(=O)[O-])ccc6F)c6nc(c(-c7cc(S(=O)(=O)[O-])ccc7F)c7ccc4[nH]7)C=C6)C=C5)cc3)c2)cc(C)c1Cl
REMARK SMILES IDX 15 1 14 2 13 3 11 4 12 5 10 7 6 8 7 9 83 10 8 11 9 12 5 13
REMARK SMILES IDX 4 14 1 15 2 16 3 17 87 18 85 19 88 20 84 21 86 22 16 23
REMARK SMILES IDX 17 24 18 25 19 27 20 28 21 29 82 30 22 31 81 32 23 33 24 34
REMARK SMILES IDX 25 35 75 36 26 37 80 38 74 39 76 40 27 41 79 42 73 43 72 44
REMARK SMILES IDX 28 46 60 47 40 48 59 49 41 50 44 51 58 52 77 53 42 54 43 55
REMARK SMILES IDX 57 57 78 58 45 59 29 60 30 61 38 62 31 63 37 64 39 65 36 66
REMARK SMILES IDX 32 67 33 68 34 69 35 70 61 71 62 72 70 73 63 74 69 75 71 76
REMARK SMILES IDX 68 77 64 78 65 79 66 80 67 81 46 82 47 83 55 84 48 85 54 86
REMARK SMILES IDX 56 87 53 88 49 89 50 90 51 91 52 92
REMARK H PARENT 13 6 17 26 76 45 44 56
REMARK Flexibility Score: inf
ROOT
ATOM      1  C   UNL A   1      33.057  34.775  28.763  1.00  0.00     0.042 C 
ENDROOT
BRANCH   1   2
ATOM      2  C   UNL A   1      33.728  36.062  29.245  1.00  0.00     0.118 C 
BRANCH   2   3
ATOM      3  N   UNL A   1      33.008  36.639  30.365  1.00  0.00    -0.351 N 
ATOM      4  C   UNL A   1      33.022  36.406  31.722  1.00  0.00     0.270 C 
ATOM      5  O   UNL A   1      32.283  37.128  32.399  1.00  0.00    -0.268 OA
ATOM      6  H   UNL A   1      32.376  37.345  30.099  1.00  0.00     0.163 HD
BRANCH   4   7
ATOM      7  C   UNL A   1      33.891  35.382  32.402  1.00  0.00     0.131 A 
ATOM      8  C   UNL A   1      35.877  34.574  33.436  1.00  0.00     0.131 A 
ATOM      9  C   UNL A   1      35.238  33.382  33.746  1.00  0.00     0.067 A 
ATOM     10  C   UNL A   1      35.218  35.583  32.738  1.00  0.00     0.081 A 
ATOM     11  C   UNL A   1      33.939  33.235  33.310  1.00  0.00     0.116 A 
ATOM     12  N   UNL A   1      33.257  34.204  32.665  1.00  0.00    -0.251 NA
BRANCH   8  13
ATOM     13  O   UNL A   1      37.132  34.834  33.922  1.00  0.00    -0.457 OA
BRANCH  13  14
ATOM     14  C   UNL A   1      38.213  34.671  33.085  1.00  0.00     0.128 A 
ATOM     15  C   UNL A   1      42.007  34.603  32.971  1.00  0.00     0.046 C 
ATOM     16  C   UNL A   1      40.574  34.544  32.514  1.00  0.00    -0.028 A 
ATOM     17  C   UNL A   1      39.553  34.694  33.470  1.00  0.00     0.052 A 
ATOM     18  C   UNL A   1      40.229  34.357  31.161  1.00  0.00     0.047 A 
ATOM     19  C   UNL A   1      38.879  34.306  30.767  1.00  0.00    -0.028 A 
ATOM     20  Cl  UNL A   1      41.479  34.203  29.970  1.00  0.00    -0.084 Cl
ATOM     21  C   UNL A   1      37.884  34.475  31.741  1.00  0.00     0.052 A 
ATOM     22  C   UNL A   1      38.470  34.084  29.337  1.00  0.00     0.046 C 
ENDBRANCH  13  14
ENDBRANCH   8  13
ENDBRANCH   4   7
ENDBRANCH   2   3
ENDBRANCH   1   2
BRANCH   1  23
ATOM     23  C   UNL A   1      34.014  33.582  28.704  1.00  0.00     0.118 C 
BRANCH  23  24
ATOM     24  N   UNL A   1      33.493  32.514  27.862  1.00  0.00    -0.352 N 
ATOM     25  C   UNL A   1      34.075  31.340  27.455  1.00  0.00     0.251 C 
ATOM     26  H   UNL A   1      32.576  32.658  27.532  1.00  0.00     0.163 HD
ATOM     27  O   UNL A   1      33.563  30.715  26.530  1.00  0.00    -0.269 OA
BRANCH  25  28
ATOM     28  C   UNL A   1      35.301  30.830  28.108  1.00  0.00     0.039 A 
ATOM     29  C   UNL A   1      35.181  29.834  29.083  1.00  0.00     0.014 A 
ATOM     30  C   UNL A   1      36.557  31.366  27.814  1.00  0.00     0.014 A 
ATOM     31  C   UNL A   1      36.323  29.342  29.722  1.00  0.00     0.010 A 
ATOM     32  C   UNL A   1      37.701  30.829  28.403  1.00  0.00     0.010 A 
ATOM     33  C   UNL A   1      37.596  29.814  29.367  1.00  0.00    -0.014 A 
BRANCH  33  34
ATOM     34  C   UNL A   1      38.827  29.263  29.993  1.00  0.00     0.031 A 
ATOM     35  C   UNL A   1      39.289  29.773  31.331  1.00  0.00     0.074 A 
ATOM     36  C   UNL A   1      39.563  28.354  29.321  1.00  0.00     0.049 A 
ATOM     37  N   UNL A   1      40.384  29.495  31.991  1.00  0.00    -0.248 NA
ATOM     38  C   UNL A   1      38.417  30.750  32.001  1.00  0.00     0.031 C 
ATOM     39  C   UNL A   1      39.235  27.811  28.001  1.00  0.00     0.029 A 
ATOM     40  N   UNL A   1      40.745  27.737  29.646  1.00  0.00    -0.354 N 
ATOM     41  C   UNL A   1      40.344  30.274  33.143  1.00  0.00     0.074 A 
ATOM     42  C   UNL A   1      39.138  31.074  33.063  1.00  0.00     0.031 C 
ATOM     43  C   UNL A   1      40.184  26.935  27.636  1.00  0.00     0.029 A 
ATOM     44  C   UNL A   1      41.212  26.886  28.670  1.00  0.00     0.049 A 
ATOM     45  H   UNL A   1      41.215  27.888  30.498  1.00  0.00     0.167 HD
ATOM     46  C   UNL A   1      41.221  30.308  34.176  1.00  0.00     0.034 A 
ATOM     47  C   UNL A   1      42.349  26.165  28.605  1.00  0.00     0.034 A 
ATOM     48  C   UNL A   1      42.407  29.487  34.246  1.00  0.00     0.049 A 
ATOM     49  C   UNL A   1      43.314  26.226  29.763  1.00  0.00     0.074 A 
ATOM     50  C   UNL A   1      43.330  29.392  35.274  1.00  0.00     0.029 A 
ATOM     51  N   UNL A   1      42.839  28.625  33.246  1.00  0.00    -0.354 N 
ATOM     52  N   UNL A   1      43.233  26.929  30.869  1.00  0.00    -0.248 NA
ATOM     53  C   UNL A   1      44.516  25.387  29.670  1.00  0.00     0.031 C 
ATOM     54  C   UNL A   1      44.352  28.527  34.868  1.00  0.00     0.029 A 
ATOM     55  C   UNL A   1      44.029  28.019  33.620  1.00  0.00     0.049 A 
ATOM     56  H   UNL A   1      42.369  28.467  32.396  1.00  0.00     0.167 HD
ATOM     57  C   UNL A   1      44.358  26.591  31.616  1.00  0.00     0.074 A 
ATOM     58  C   UNL A   1      45.091  25.611  30.841  1.00  0.00     0.031 C 
ATOM     59  C   UNL A   1      44.751  27.047  32.832  1.00  0.00     0.034 A 
BRANCH  46  60
ATOM     60  C   UNL A   1      40.946  31.279  35.299  1.00  0.00     0.023 A 
ATOM     61  C   UNL A   1      39.794  31.182  36.098  1.00  0.00     0.031 A 
ATOM     62  C   UNL A   1      41.847  32.325  35.570  1.00  0.00     0.131 A 
ATOM     63  C   UNL A   1      39.539  32.149  37.083  1.00  0.00     0.055 A 
ATOM     64  C   UNL A   1      41.626  33.240  36.603  1.00  0.00     0.041 A 
ATOM     65  F   UNL A   1      42.955  32.482  34.829  1.00  0.00    -0.206 F 
ATOM     66  C   UNL A   1      40.460  33.163  37.357  1.00  0.00     0.022 A 
BRANCH  63  67
ATOM     67  S   UNL A   1      37.926  32.139  37.910  1.00  0.00     0.124 S 
ATOM     68  O   UNL A   1      38.297  32.471  39.284  1.00  0.00    -0.237 OA
ATOM     69  O   UNL A   1      37.190  33.167  37.182  1.00  0.00    -0.237 OA
ATOM     70  O   UNL A   1      37.447  30.773  37.715  1.00  0.00    -0.744 OA
ENDBRANCH  63  67
ENDBRANCH  46  60
BRANCH  47  71
ATOM     71  C   UNL A   1      42.656  25.338  27.402  1.00  0.00     0.023 A 
ATOM     72  C   UNL A   1      42.203  24.014  27.298  1.00  0.00     0.031 A 
ATOM     73  C   UNL A   1      43.450  25.845  26.357  1.00  0.00     0.131 A 
ATOM     74  C   UNL A   1      42.590  23.225  26.204  1.00  0.00     0.055 A 
ATOM     75  C   UNL A   1      43.786  25.075  25.244  1.00  0.00     0.041 A 
ATOM     76  F   UNL A   1      43.906  27.108  26.402  1.00  0.00    -0.206 F 
ATOM     77  C   UNL A   1      43.367  23.750  25.169  1.00  0.00     0.022 A 
BRANCH  74  78
ATOM     78  S   UNL A   1      42.143  21.466  26.201  1.00  0.00     0.124 S 
ATOM     79  O   UNL A   1      40.728  21.520  25.849  1.00  0.00    -0.237 OA
ATOM     80  O   UNL A   1      43.038  20.929  25.182  1.00  0.00    -0.237 OA
ATOM     81  O   UNL A   1      42.430  21.041  27.569  1.00  0.00    -0.744 OA
ENDBRANCH  74  78
ENDBRANCH  47  71
BRANCH  59  82
ATOM     82  C   UNL A   1      46.006  26.448  33.417  1.00  0.00     0.023 A 
ATOM     83  C   UNL A   1      45.984  25.241  34.137  1.00  0.00     0.031 A 
ATOM     84  C   UNL A   1      47.241  27.103  33.260  1.00  0.00     0.131 A 
ATOM     85  C   UNL A   1      47.164  24.755  34.721  1.00  0.00     0.055 A 
ATOM     86  C   UNL A   1      48.421  26.583  33.790  1.00  0.00     0.041 A 
ATOM     87  F   UNL A   1      47.319  28.260  32.583  1.00  0.00    -0.206 F 
ATOM     88  C   UNL A   1      48.385  25.409  34.537  1.00  0.00     0.022 A 
BRANCH  85  89
ATOM     89  S   UNL A   1      47.067  23.301  35.801  1.00  0.00     0.124 S 
ATOM     90  O   UNL A   1      47.486  23.850  37.087  1.00  0.00    -0.237 OA
ATOM     91  O   UNL A   1      45.661  22.927  35.696  1.00  0.00    -0.237 OA
ATOM     92  O   UNL A   1      48.005  22.359  35.194  1.00  0.00    -0.744 OA
ENDBRANCH  85  89
ENDBRANCH  59  82
ENDBRANCH  33  34
ENDBRANCH  25  28
ENDBRANCH  23  24
ENDBRANCH   1  23
TORSDOF 15
ENDMDL
MODEL 2
REMARK VINA RESULT:     -11.1      4.439     10.422
REMARK SMILES Cc1cc(Oc2ccnc(C(=O)NCCCNC(=O)c3ccc(-c4c5nc(c(-c6cc(S(=O)(=O)[O-])ccc6F)c6ccc([nH]6)c(-c6cc(S(=O)(=O)[O-])ccc6F)c6nc(c(-c7cc(S(=O)(=O)[O-])ccc7F)c7ccc4[nH]7)C=C6)C=C5)cc3)c2)cc(C)c1Cl
REMARK SMILES IDX 15 1 14 2 13 3 11 4 12 5 10 7 6 8 7 9 83 10 8 11 9 12 5 13
REMARK SMILES IDX 4 14 1 15 2 16 3 17 87 18 85 19 88 20 84 21 86 22 16 23
REMARK SMILES IDX 17 24 18 25 19 27 20 28 21 29 82 30 22 31 81 32 23 33 24 34
REMARK SMILES IDX 25 35 75 36 26 37 80 38 74 39 76 40 27 41 79 42 73 43 72 44
REMARK SMILES IDX 28 46 60 47 40 48 59 49 41 50 44 51 58 52 77 53 42 54 43 55
REMARK SMILES IDX 57 57 78 58 45 59 29 60 30 61 38 62 31 63 37 64 39 65 36 66
REMARK SMILES IDX 32 67 33 68 34 69 35 70 61 71 62 72 70 73 63 74 69 75 71 76
REMARK SMILES IDX 68 77 64 78 65 79 66 80 67 81 46 82 47 83 55 84 48 85 54 86
REMARK SMILES IDX 56 87 53 88 49 89 50 90 51 91 52 92
REMARK H PARENT 13 6 17 26 76 45 44 56
REMARK Flexibility Score: inf
ROOT
ATOM      1  C   UNL A   1      31.451  32.024  26.690  1.00  0.00     0.042 C 
ENDROOT
BRANCH   1   2
ATOM      2  C   UNL A   1      31.496  30.509  26.486  1.00  0.00     0.118 C 
BRANCH   2   3
ATOM      3  N   UNL A   1      32.381  30.155  25.392  1.00  0.00    -0.351 N 
ATOM      4  C   UNL A   1      32.366  29.155  24.445  1.00  0.00     0.270 C 
ATOM      5  O   UNL A   1      33.285  29.179  23.622  1.00  0.00    -0.268 OA
ATOM      6  H   UNL A   1      33.155  30.757  25.307  1.00  0.00     0.163 HD
BRANCH   4   7
ATOM      7  C   UNL A   1      31.300  28.096  24.342  1.00  0.00     0.131 A 
ATOM      8  C   UNL A   1      30.190  26.078  24.944  1.00  0.00     0.131 A 
ATOM      9  C   UNL A   1      29.172  26.363  24.045  1.00  0.00     0.067 A 
ATOM     10  C   UNL A   1      31.282  26.931  25.087  1.00  0.00     0.081 A 
ATOM     11  C   UNL A   1      29.304  27.507  23.289  1.00  0.00     0.116 A 
ATOM     12  N   UNL A   1      30.327  28.375  23.428  1.00  0.00    -0.251 NA
BRANCH   8  13
ATOM     13  O   UNL A   1      30.081  25.013  25.801  1.00  0.00    -0.457 OA
BRANCH  13  14
ATOM     14  C   UNL A   1      31.030  24.018  25.745  1.00  0.00     0.128 A 
ATOM     15  C   UNL A   1      33.688  22.213  27.768  1.00  0.00     0.046 C 
ATOM     16  C   UNL A   1      32.806  22.599  26.611  1.00  0.00    -0.028 A 
ATOM     17  C   UNL A   1      31.849  23.613  26.798  1.00  0.00     0.052 A 
ATOM     18  C   UNL A   1      32.919  21.985  25.348  1.00  0.00     0.047 A 
ATOM     19  C   UNL A   1      32.079  22.367  24.287  1.00  0.00    -0.028 A 
ATOM     20  Cl  UNL A   1      34.117  20.756  25.096  1.00  0.00    -0.084 Cl
ATOM     21  C   UNL A   1      31.146  23.394  24.500  1.00  0.00     0.052 A 
ATOM     22  C   UNL A   1      32.153  21.720  22.932  1.00  0.00     0.046 C 
ENDBRANCH  13  14
ENDBRANCH   8  13
ENDBRANCH   4   7
ENDBRANCH   2   3
ENDBRANCH   1   2
BRANCH   1  23
ATOM     23  C   UNL A   1      32.782  32.608  27.168  1.00  0.00     0.118 C 
BRANCH  23  24
ATOM     24  N   UNL A   1      32.636  33.987  27.614  1.00  0.00    -0.352 N 
ATOM     25  C   UNL A   1      33.223  34.647  28.665  1.00  0.00     0.251 C 
ATOM     26  H   UNL A   1      32.018  34.532  27.076  1.00  0.00     0.163 HD
ATOM     27  O   UNL A   1      32.754  35.724  29.023  1.00  0.00    -0.269 OA
BRANCH  25  28
ATOM     28  C   UNL A   1      34.396  34.076  29.365  1.00  0.00     0.039 A 
ATOM     29  C   UNL A   1      34.183  33.200  30.434  1.00  0.00     0.014 A 
ATOM     30  C   UNL A   1      35.698  34.444  29.017  1.00  0.00     0.014 A 
ATOM     31  C   UNL A   1      35.273  32.656  31.118  1.00  0.00     0.010 A 
ATOM     32  C   UNL A   1      36.785  33.850  29.655  1.00  0.00     0.010 A 
ATOM     33  C   UNL A   1      36.585  32.952  30.716  1.00  0.00    -0.014 A 
BRANCH  33  34
ATOM     34  C   UNL A   1      37.758  32.338  31.392  1.00  0.00     0.031 A 
ATOM     35  C   UNL A   1      38.504  31.207  30.735  1.00  0.00     0.074 A 
ATOM     36  C   UNL A   1      38.106  32.754  32.627  1.00  0.00     0.049 A 
ATOM     37  N   UNL A   1      39.483  30.478  31.204  1.00  0.00    -0.248 NA
ATOM     38  C   UNL A   1      38.069  30.830  29.382  1.00  0.00     0.031 C 
ATOM     39  C   UNL A   1      37.435  33.816  33.379  1.00  0.00     0.029 A 
ATOM     40  N   UNL A   1      39.097  32.326  33.474  1.00  0.00    -0.354 N 
ATOM     41  C   UNL A   1      39.769  29.542  30.215  1.00  0.00     0.074 A 
ATOM     42  C   UNL A   1      38.824  29.768  29.141  1.00  0.00     0.031 C 
ATOM     43  C   UNL A   1      38.041  33.965  34.567  1.00  0.00     0.029 A 
ATOM     44  C   UNL A   1      39.111  32.981  34.685  1.00  0.00     0.049 A 
ATOM     45  H   UNL A   1      39.739  31.618  33.238  1.00  0.00     0.167 HD
ATOM     46  C   UNL A   1      40.740  28.595  30.198  1.00  0.00     0.034 A 
ATOM     47  C   UNL A   1      39.885  32.796  35.773  1.00  0.00     0.034 A 
ATOM     48  C   UNL A   1      41.686  28.398  31.270  1.00  0.00     0.049 A 
ATOM     49  C   UNL A   1      40.951  31.730  35.733  1.00  0.00     0.074 A 
ATOM     50  C   UNL A   1      42.750  27.514  31.330  1.00  0.00     0.029 A 
ATOM     51  N   UNL A   1      41.680  29.093  32.474  1.00  0.00    -0.354 N 
ATOM     52  N   UNL A   1      41.242  30.889  34.767  1.00  0.00    -0.248 NA
ATOM     53  C   UNL A   1      41.801  31.596  36.924  1.00  0.00     0.031 C 
ATOM     54  C   UNL A   1      43.343  27.625  32.593  1.00  0.00     0.029 A 
ATOM     55  C   UNL A   1      42.701  28.634  33.293  1.00  0.00     0.049 A 
ATOM     56  H   UNL A   1      41.044  29.805  32.711  1.00  0.00     0.167 HD
ATOM     57  C   UNL A   1      42.329  30.150  35.224  1.00  0.00     0.074 A 
ATOM     58  C   UNL A   1      42.651  30.655  36.543  1.00  0.00     0.031 C 
ATOM     59  C   UNL A   1      43.004  29.145  34.610  1.00  0.00     0.034 A 
BRANCH  46  60
ATOM     60  C   UNL A   1      40.809  27.683  28.996  1.00  0.00     0.023 A 
ATOM     61  C   UNL A   1      41.747  27.881  27.968  1.00  0.00     0.031 A 
ATOM     62  C   UNL A   1      39.917  26.602  28.872  1.00  0.00     0.131 A 
ATOM     63  C   UNL A   1      41.729  27.056  26.833  1.00  0.00     0.055 A 
ATOM     64  C   UNL A   1      39.955  25.737  27.776  1.00  0.00     0.041 A 
ATOM     65  F   UNL A   1      38.986  26.373  29.811  1.00  0.00    -0.206 F 
ATOM     66  C   UNL A   1      40.855  25.970  26.741  1.00  0.00     0.022 A 
BRANCH  63  67
ATOM     67  S   UNL A   1      42.774  27.502  25.420  1.00  0.00     0.124 S 
ATOM     68  O   UNL A   1      42.740  26.274  24.629  1.00  0.00    -0.237 OA
ATOM     69  O   UNL A   1      42.069  28.646  24.854  1.00  0.00    -0.237 OA
ATOM     70  O   UNL A   1      44.067  27.805  26.030  1.00  0.00    -0.744 OA
ENDBRANCH  63  67
ENDBRANCH  46  60
BRANCH  47  71
ATOM     71  C   UNL A   1      39.675  33.617  37.002  1.00  0.00     0.023 A 
ATOM     72  C   UNL A   1      39.047  33.076  38.135  1.00  0.00     0.031 A 
ATOM     73  C   UNL A   1      40.056  34.970  37.044  1.00  0.00     0.131 A 
ATOM     74  C   UNL A   1      38.771  33.896  39.240  1.00  0.00     0.055 A 
ATOM     75  C   UNL A   1      39.830  35.766  38.166  1.00  0.00     0.041 A 
ATOM     76  F   UNL A   1      40.665  35.536  35.989  1.00  0.00    -0.206 F 
ATOM     77  C   UNL A   1      39.169  35.234  39.269  1.00  0.00     0.022 A 
BRANCH  74  78
ATOM     78  S   UNL A   1      37.790  33.211  40.605  1.00  0.00     0.124 S 
ATOM     79  O   UNL A   1      36.504  32.979  39.959  1.00  0.00    -0.237 OA
ATOM     80  O   UNL A   1      38.556  32.020  40.957  1.00  0.00    -0.237 OA
ATOM     81  O   UNL A   1      37.805  34.278  41.603  1.00  0.00    -0.744 OA
ENDBRANCH  74  78
ENDBRANCH  47  71
BRANCH  59  82
ATOM     82  C   UNL A   1      44.188  28.564  35.343  1.00  0.00     0.023 A 
ATOM     83  C   UNL A   1      44.040  27.536  36.290  1.00  0.00     0.031 A 
ATOM     84  C   UNL A   1      45.482  29.058  35.097  1.00  0.00     0.131 A 
ATOM     85  C   UNL A   1      45.160  27.073  36.998  1.00  0.00     0.055 A 
ATOM     86  C   UNL A   1      46.600  28.549  35.758  1.00  0.00     0.041 A 
ATOM     87  F   UNL A   1      45.680  30.041  34.204  1.00  0.00    -0.206 F 
ATOM     88  C   UNL A   1      46.441  27.561  36.725  1.00  0.00     0.022 A 
BRANCH  85  89
ATOM     89  S   UNL A   1      44.910  25.885  38.345  1.00  0.00     0.124 S 
ATOM     90  O   UNL A   1      44.149  24.831  37.682  1.00  0.00    -0.237 OA
ATOM     91  O   UNL A   1      46.278  25.544  38.720  1.00  0.00    -0.237 OA
ATOM     92  O   UNL A   1      44.167  26.651  39.345  1.00  0.00    -0.744 OA
ENDBRANCH  85  89
ENDBRANCH  59  82
ENDBRANCH  33  34
ENDBRANCH  25  28
ENDBRANCH  23  24
ENDBRANCH   1  23
TORSDOF 15
ENDMDL
MODEL 3
REMARK VINA RESULT:     -10.9      4.635     10.585
REMARK SMILES Cc1cc(Oc2ccnc(C(=O)NCCCNC(=O)c3ccc(-c4c5nc(c(-c6cc(S(=O)(=O)[O-])ccc6F)c6ccc([nH]6)c(-c6cc(S(=O)(=O)[O-])ccc6F)c6nc(c(-c7cc(S(=O)(=O)[O-])ccc7F)c7ccc4[nH]7)C=C6)C=C5)cc3)c2)cc(C)c1Cl
REMARK SMILES IDX 15 1 14 2 13 3 11 4 12 5 10 7 6 8 7 9 83 10 8 11 9 12 5 13
REMARK SMILES IDX 4 14 1 15 2 16 3 17 87 18 85 19 88 20 84 21 86 22 16 23
REMARK SMILES IDX 17 24 18 25 19 27 20 28 21 29 82 30 22 31 81 32 23 33 24 34
REMARK SMILES IDX 25 35 75 36 26 37 80 38 74 39 76 40 27 41 79 42 73 43 72 44
REMARK SMILES IDX 28 46 60 47 40 48 59 49 41 50 44 51 58 52 77 53 42 54 43 55
REMARK SMILES IDX 57 57 78 58 45 59 29 60 30 61 38 62 31 63 37 64 39 65 36 66
REMARK SMILES IDX 32 67 33 68 34 69 35 70 61 71 62 72 70 73 63 74 69 75 71 76
REMARK SMILES IDX 68 77 64 78 65 79 66 80 67 81 46 82 47 83 55 84 48 85 54 86
REMARK SMILES IDX 56 87 53 88 49 89 50 90 51 91 52 92
REMARK H PARENT 13 6 17 26 76 45 44 56
REMARK Flexibility Score: inf
ROOT
ATOM      1  C   UNL A   1      31.379  32.291  26.528  1.00  0.00     0.042 C 
ENDROOT
BRANCH   1   2
ATOM      2  C   UNL A   1      31.283  30.780  26.312  1.00  0.00     0.118 C 
BRANCH   2   3
ATOM      3  N   UNL A   1      32.299  30.320  25.383  1.00  0.00    -0.351 N 
ATOM      4  C   UNL A   1      32.396  29.230  24.547  1.00  0.00     0.270 C 
ATOM      5  O   UNL A   1      33.415  29.173  23.853  1.00  0.00    -0.268 OA
ATOM      6  H   UNL A   1      33.085  30.911  25.342  1.00  0.00     0.163 HD
BRANCH   4   7
ATOM      7  C   UNL A   1      31.340  28.165  24.410  1.00  0.00     0.131 A 
ATOM      8  C   UNL A   1      30.256  26.114  24.941  1.00  0.00     0.131 A 
ATOM      9  C   UNL A   1      29.228  26.423  24.062  1.00  0.00     0.067 A 
ATOM     10  C   UNL A   1      31.339  26.971  25.109  1.00  0.00     0.081 A 
ATOM     11  C   UNL A   1      29.342  27.596  23.350  1.00  0.00     0.116 A 
ATOM     12  N   UNL A   1      30.357  28.469  23.515  1.00  0.00    -0.251 NA
BRANCH   8  13
ATOM     13  O   UNL A   1      30.164  25.015  25.756  1.00  0.00    -0.457 OA
BRANCH  13  14
ATOM     14  C   UNL A   1      31.032  23.966  25.555  1.00  0.00     0.128 A 
ATOM     15  C   UNL A   1      32.222  21.433  22.990  1.00  0.00     0.046 C 
ATOM     16  C   UNL A   1      32.097  22.184  24.289  1.00  0.00    -0.028 A 
ATOM     17  C   UNL A   1      31.196  23.260  24.364  1.00  0.00     0.052 A 
ATOM     18  C   UNL A   1      32.846  21.832  25.429  1.00  0.00     0.047 A 
ATOM     19  C   UNL A   1      32.707  22.555  26.628  1.00  0.00    -0.028 A 
ATOM     20  Cl  UNL A   1      33.937  20.486  25.359  1.00  0.00    -0.084 Cl
ATOM     21  C   UNL A   1      31.787  23.613  26.677  1.00  0.00     0.052 A 
ATOM     22  C   UNL A   1      33.505  22.226  27.860  1.00  0.00     0.046 C 
ENDBRANCH  13  14
ENDBRANCH   8  13
ENDBRANCH   4   7
ENDBRANCH   2   3
ENDBRANCH   1   2
BRANCH   1  23
ATOM     23  C   UNL A   1      32.673  32.719  27.222  1.00  0.00     0.118 C 
BRANCH  23  24
ATOM     24  N   UNL A   1      32.600  34.095  27.697  1.00  0.00    -0.352 N 
ATOM     25  C   UNL A   1      33.232  34.704  28.752  1.00  0.00     0.251 C 
ATOM     26  H   UNL A   1      32.002  34.679  27.179  1.00  0.00     0.163 HD
ATOM     27  O   UNL A   1      32.821  35.796  29.138  1.00  0.00    -0.269 OA
BRANCH  25  28
ATOM     28  C   UNL A   1      34.386  34.065  29.423  1.00  0.00     0.039 A 
ATOM     29  C   UNL A   1      35.679  34.412  29.017  1.00  0.00     0.014 A 
ATOM     30  C   UNL A   1      34.205  33.085  30.402  1.00  0.00     0.014 A 
ATOM     31  C   UNL A   1      36.786  33.815  29.628  1.00  0.00     0.010 A 
ATOM     32  C   UNL A   1      35.308  32.540  31.057  1.00  0.00     0.010 A 
ATOM     33  C   UNL A   1      36.612  32.896  30.674  1.00  0.00    -0.014 A 
BRANCH  33  34
ATOM     34  C   UNL A   1      37.776  32.293  31.376  1.00  0.00     0.031 A 
ATOM     35  C   UNL A   1      38.566  31.190  30.723  1.00  0.00     0.074 A 
ATOM     36  C   UNL A   1      38.075  32.694  32.629  1.00  0.00     0.049 A 
ATOM     37  N   UNL A   1      39.544  30.472  31.211  1.00  0.00    -0.248 NA
ATOM     38  C   UNL A   1      38.182  30.829  29.350  1.00  0.00     0.031 C 
ATOM     39  C   UNL A   1      37.358  33.728  33.377  1.00  0.00     0.029 A 
ATOM     40  N   UNL A   1      39.048  32.271  33.499  1.00  0.00    -0.354 N 
ATOM     41  C   UNL A   1      39.881  29.561  30.215  1.00  0.00     0.074 A 
ATOM     42  C   UNL A   1      38.966  29.787  29.115  1.00  0.00     0.031 C 
ATOM     43  C   UNL A   1      37.923  33.868  34.587  1.00  0.00     0.029 A 
ATOM     44  C   UNL A   1      39.010  32.904  34.721  1.00  0.00     0.049 A 
ATOM     45  H   UNL A   1      39.711  31.580  33.272  1.00  0.00     0.167 HD
ATOM     46  C   UNL A   1      40.871  28.634  30.212  1.00  0.00     0.034 A 
ATOM     47  C   UNL A   1      39.752  32.715  35.831  1.00  0.00     0.034 A 
ATOM     48  C   UNL A   1      41.787  28.437  31.311  1.00  0.00     0.049 A 
ATOM     49  C   UNL A   1      40.840  31.671  35.806  1.00  0.00     0.074 A 
ATOM     50  C   UNL A   1      42.866  27.574  31.390  1.00  0.00     0.029 A 
ATOM     51  N   UNL A   1      41.728  29.109  32.526  1.00  0.00    -0.354 N 
ATOM     52  N   UNL A   1      41.180  30.854  34.835  1.00  0.00    -0.248 NA
ATOM     53  C   UNL A   1      41.655  31.532  37.021  1.00  0.00     0.031 C 
ATOM     54  C   UNL A   1      43.417  27.674  32.672  1.00  0.00     0.029 A 
ATOM     55  C   UNL A   1      42.731  28.657  33.369  1.00  0.00     0.049 A 
ATOM     56  H   UNL A   1      41.070  29.804  32.755  1.00  0.00     0.167 HD
ATOM     57  C   UNL A   1      42.267  30.129  35.313  1.00  0.00     0.074 A 
ATOM     58  C   UNL A   1      42.536  30.616  36.651  1.00  0.00     0.031 C 
ATOM     59  C   UNL A   1      42.982  29.149  34.704  1.00  0.00     0.034 A 
BRANCH  46  60
ATOM     60  C   UNL A   1      40.997  27.746  28.997  1.00  0.00     0.023 A 
ATOM     61  C   UNL A   1      41.991  27.957  28.025  1.00  0.00     0.031 A 
ATOM     62  C   UNL A   1      40.105  26.676  28.804  1.00  0.00     0.131 A 
ATOM     63  C   UNL A   1      42.027  27.154  26.874  1.00  0.00     0.055 A 
ATOM     64  C   UNL A   1      40.195  25.832  27.694  1.00  0.00     0.041 A 
ATOM     65  F   UNL A   1      39.123  26.436  29.687  1.00  0.00    -0.206 F 
ATOM     66  C   UNL A   1      41.151  26.078  26.714  1.00  0.00     0.022 A 
BRANCH  63  67
ATOM     67  S   UNL A   1      43.149  27.620  25.528  1.00  0.00     0.124 S 
ATOM     68  O   UNL A   1      42.239  28.296  24.606  1.00  0.00    -0.237 OA
ATOM     69  O   UNL A   1      44.120  28.470  26.206  1.00  0.00    -0.237 OA
ATOM     70  O   UNL A   1      43.666  26.338  25.053  1.00  0.00    -0.744 OA
ENDBRANCH  63  67
ENDBRANCH  46  60
BRANCH  47  71
ATOM     71  C   UNL A   1      39.486  33.508  37.066  1.00  0.00     0.023 A 
ATOM     72  C   UNL A   1      40.174  34.706  37.318  1.00  0.00     0.031 A 
ATOM     73  C   UNL A   1      38.575  33.056  38.037  1.00  0.00     0.131 A 
ATOM     74  C   UNL A   1      39.981  35.380  38.534  1.00  0.00     0.055 A 
ATOM     75  C   UNL A   1      38.344  33.760  39.219  1.00  0.00     0.041 A 
ATOM     76  F   UNL A   1      37.886  31.919  37.844  1.00  0.00    -0.206 F 
ATOM     77  C   UNL A   1      39.062  34.924  39.480  1.00  0.00     0.022 A 
BRANCH  74  78
ATOM     78  S   UNL A   1      41.026  36.817  38.903  1.00  0.00     0.124 S 
ATOM     79  O   UNL A   1      41.680  36.399  40.138  1.00  0.00    -0.237 OA
ATOM     80  O   UNL A   1      41.875  36.885  37.719  1.00  0.00    -0.237 OA
ATOM     81  O   UNL A   1      40.065  37.909  39.044  1.00  0.00    -0.744 OA
ENDBRANCH  74  78
ENDBRANCH  47  71
BRANCH  59  82
ATOM     82  C   UNL A   1      44.154  28.579  35.465  1.00  0.00     0.023 A 
ATOM     83  C   UNL A   1      43.989  27.570  36.429  1.00  0.00     0.031 A 
ATOM     84  C   UNL A   1      45.452  29.064  35.227  1.00  0.00     0.131 A 
ATOM     85  C   UNL A   1      45.098  27.117  37.161  1.00  0.00     0.055 A 
ATOM     86  C   UNL A   1      46.559  28.565  35.913  1.00  0.00     0.041 A 
ATOM     87  F   UNL A   1      45.666  30.029  34.318  1.00  0.00    -0.206 F 
ATOM     88  C   UNL A   1      46.384  27.596  36.896  1.00  0.00     0.022 A 
BRANCH  85  89
ATOM     89  S   UNL A   1      44.825  25.956  38.527  1.00  0.00     0.124 S 
ATOM     90  O   UNL A   1      43.534  26.396  39.046  1.00  0.00    -0.237 OA
ATOM     91  O   UNL A   1      44.833  24.666  37.847  1.00  0.00    -0.237 OA
ATOM     92  O   UNL A   1      45.964  26.195  39.414  1.00  0.00    -0.744 OA
ENDBRANCH  85  89
ENDBRANCH  59  82
ENDBRANCH  33  34
ENDBRANCH  25  28
ENDBRANCH  23  24
ENDBRANCH   1  23
TORSDOF 15
ENDMDL
