MODEL 1
REMARK VINA RESULT:     -10.3      0.000      0.000
REMARK SMILES C#CCN(CC(=O)NCCCNC(=O)c1ccc(-c2c3nc(c(-c4cc(S(=O)(=O)[O-])ccc4F)c4ccc([nH]4)c(-c4cc(S(=O)(=O)[O-])ccc4F)c4nc(c(-c5cc(S(=O)(=O)[O-])ccc5F)c5ccc2[nH]5)C=C4)C=C3)cc1)C(=O)N(C)[C@H](C)c1cccs1
REMARK SMILES IDX 9 1 8 2 6 3 7 4 5 6 4 7 3 8 2 9 1 10 78 11 79 12 80 13 81 14
REMARK SMILES IDX 82 15 83 16 84 17 85 18 88 19 86 20 87 21 10 22 11 23 12 24
REMARK SMILES IDX 13 25 14 27 15 28 16 29 77 30 17 31 76 32 18 33 19 34 20 35
REMARK SMILES IDX 70 36 21 37 75 38 69 39 71 40 22 41 74 42 68 43 67 44 23 46
REMARK SMILES IDX 55 47 35 48 54 49 36 50 39 51 53 52 72 53 37 54 38 55 52 57
REMARK SMILES IDX 73 58 40 59 24 60 25 61 33 62 26 63 32 64 34 65 31 66 27 67
REMARK SMILES IDX 28 68 29 69 30 70 56 71 57 72 65 73 58 74 64 75 66 76 63 77
REMARK SMILES IDX 59 78 60 79 61 80 62 81 41 82 42 83 50 84 43 85 49 86 51 87
REMARK SMILES IDX 48 88 44 89 45 90 46 91 47 92
REMARK H PARENT 8 5 12 26 71 45 39 56
REMARK Flexibility Score: inf
ROOT
ATOM      1  C   UNL A   1      31.454  30.516  25.936  1.00  0.00     0.117 C 
ENDROOT
BRANCH   1   2
ATOM      2  N   UNL A   1      30.923  30.381  24.596  1.00  0.00    -0.354 N 
ATOM      3  C   UNL A   1      30.631  29.249  23.894  1.00  0.00     0.239 C 
ATOM      4  O   UNL A   1      29.937  29.368  22.880  1.00  0.00    -0.273 OA
ATOM      5  H   UNL A   1      30.749  31.227  24.125  1.00  0.00     0.163 HD
BRANCH   3   6
ATOM      6  C   UNL A   1      31.023  27.863  24.421  1.00  0.00     0.222 C 
BRANCH   6   7
ATOM      7  N   UNL A   1      31.985  27.117  23.610  1.00  0.00    -0.304 N 
BRANCH   7   8
ATOM      8  C   UNL A   1      33.389  27.538  23.759  1.00  0.00     0.211 C 
BRANCH   8   9
ATOM      9  C   UNL A   1      33.765  27.771  25.213  1.00  0.00    -0.085 C 
ATOM     10  C   UNL A   1      34.088  27.971  26.460  1.00  0.00     0.006 C 
ENDBRANCH   8   9
ENDBRANCH   7   8
BRANCH   7  11
ATOM     11  C   UNL A   1      31.776  26.061  22.733  1.00  0.00     0.321 C 
ATOM     12  O   UNL A   1      31.546  26.343  21.551  1.00  0.00    -0.248 OA
BRANCH  11  13
ATOM     13  N   UNL A   1      31.804  24.731  23.106  1.00  0.00    -0.320 N 
ATOM     14  C   UNL A   1      30.742  23.908  23.667  1.00  0.00     0.149 C 
BRANCH  13  15
ATOM     15  C   UNL A   1      33.119  24.027  23.078  1.00  0.00     0.124 C 
ATOM     16  C   UNL A   1      33.245  23.080  21.881  1.00  0.00     0.037 C 
BRANCH  15  17
ATOM     17  C   UNL A   1      33.540  23.470  24.429  1.00  0.00     0.027 A 
ATOM     18  C   UNL A   1      33.729  24.183  25.603  1.00  0.00     0.017 A 
ATOM     19  S   UNL A   1      33.957  21.815  24.657  1.00  0.00    -0.147 S 
ATOM     20  C   UNL A   1      34.175  23.365  26.682  1.00  0.00     0.012 A 
ATOM     21  C   UNL A   1      34.310  22.049  26.308  1.00  0.00     0.065 A 
ENDBRANCH  15  17
ENDBRANCH  13  15
ENDBRANCH  11  13
ENDBRANCH   7  11
ENDBRANCH   6   7
ENDBRANCH   3   6
ENDBRANCH   1   2
BRANCH   1  22
ATOM     22  C   UNL A   1      31.371  31.936  26.477  1.00  0.00     0.042 C 
BRANCH  22  23
ATOM     23  C   UNL A   1      32.631  32.412  27.193  1.00  0.00     0.118 C 
BRANCH  23  24
ATOM     24  N   UNL A   1      32.555  33.815  27.581  1.00  0.00    -0.352 N 
ATOM     25  C   UNL A   1      33.208  34.509  28.565  1.00  0.00     0.251 C 
ATOM     26  H   UNL A   1      31.928  34.354  27.046  1.00  0.00     0.163 HD
ATOM     27  O   UNL A   1      32.801  35.634  28.858  1.00  0.00    -0.269 OA
BRANCH  25  28
ATOM     28  C   UNL A   1      34.374  33.936  29.272  1.00  0.00     0.039 A 
ATOM     29  C   UNL A   1      34.150  33.000  30.287  1.00  0.00     0.014 A 
ATOM     30  C   UNL A   1      35.677  34.358  28.995  1.00  0.00     0.014 A 
ATOM     31  C   UNL A   1      35.231  32.453  30.984  1.00  0.00     0.010 A 
ATOM     32  C   UNL A   1      36.758  33.756  29.636  1.00  0.00     0.010 A 
ATOM     33  C   UNL A   1      36.546  32.807  30.646  1.00  0.00    -0.014 A 
BRANCH  33  34
ATOM     34  C   UNL A   1      37.710  32.210  31.353  1.00  0.00     0.031 A 
ATOM     35  C   UNL A   1      38.483  31.085  30.719  1.00  0.00     0.074 A 
ATOM     36  C   UNL A   1      38.030  32.642  32.589  1.00  0.00     0.049 A 
ATOM     37  N   UNL A   1      39.477  30.385  31.204  1.00  0.00    -0.248 NA
ATOM     38  C   UNL A   1      38.058  30.672  29.372  1.00  0.00     0.031 C 
ATOM     39  C   UNL A   1      37.326  33.695  33.324  1.00  0.00     0.029 A 
ATOM     40  N   UNL A   1      39.022  32.244  33.448  1.00  0.00    -0.354 N 
ATOM     41  C   UNL A   1      39.786  29.439  30.231  1.00  0.00     0.074 A 
ATOM     42  C   UNL A   1      38.833  29.619  29.157  1.00  0.00     0.031 C 
ATOM     43  C   UNL A   1      37.923  33.875  34.513  1.00  0.00     0.029 A 
ATOM     44  C   UNL A   1      39.022  32.925  34.644  1.00  0.00     0.049 A 
ATOM     45  H   UNL A   1      39.674  31.539  33.230  1.00  0.00     0.167 HD
ATOM     46  C   UNL A   1      40.784  28.520  30.226  1.00  0.00     0.034 A 
ATOM     47  C   UNL A   1      39.813  32.791  35.726  1.00  0.00     0.034 A 
ATOM     48  C   UNL A   1      41.737  28.367  31.301  1.00  0.00     0.049 A 
ATOM     49  C   UNL A   1      40.917  31.765  35.698  1.00  0.00     0.074 A 
ATOM     50  C   UNL A   1      42.820  27.509  31.378  1.00  0.00     0.029 A 
ATOM     51  N   UNL A   1      41.717  29.086  32.489  1.00  0.00    -0.354 N 
ATOM     52  N   UNL A   1      41.227  30.910  34.751  1.00  0.00    -0.248 NA
ATOM     53  C   UNL A   1      41.785  31.697  36.880  1.00  0.00     0.031 C 
ATOM     54  C   UNL A   1      43.419  27.668  32.633  1.00  0.00     0.029 A 
ATOM     55  C   UNL A   1      42.753  28.675  33.315  1.00  0.00     0.049 A 
ATOM     56  H   UNL A   1      41.063  29.787  32.713  1.00  0.00     0.167 HD
ATOM     57  C   UNL A   1      42.345  30.223  35.213  1.00  0.00     0.074 A 
ATOM     58  C   UNL A   1      42.663  30.775  36.514  1.00  0.00     0.031 C 
ATOM     59  C   UNL A   1      43.049  29.227  34.615  1.00  0.00     0.034 A 
BRANCH  46  60
ATOM     60  C   UNL A   1      40.874  27.600  29.032  1.00  0.00     0.023 A 
ATOM     61  C   UNL A   1      41.830  27.792  28.019  1.00  0.00     0.031 A 
ATOM     62  C   UNL A   1      39.969  26.533  28.884  1.00  0.00     0.131 A 
ATOM     63  C   UNL A   1      41.808  26.989  26.869  1.00  0.00     0.055 A 
ATOM     64  C   UNL A   1      40.005  25.683  27.776  1.00  0.00     0.041 A 
ATOM     65  F   UNL A   1      39.019  26.309  29.806  1.00  0.00    -0.206 F 
ATOM     66  C   UNL A   1      40.918  25.919  26.752  1.00  0.00     0.022 A 
BRANCH  63  67
ATOM     67  S   UNL A   1      42.858  27.455  25.466  1.00  0.00     0.124 S 
ATOM     68  O   UNL A   1      42.059  28.505  24.837  1.00  0.00    -0.237 OA
ATOM     69  O   UNL A   1      44.086  27.891  26.121  1.00  0.00    -0.237 OA
ATOM     70  O   UNL A   1      42.967  26.219  24.694  1.00  0.00    -0.744 OA
ENDBRANCH  63  67
ENDBRANCH  46  60
BRANCH  47  71
ATOM     71  C   UNL A   1      39.595  33.644  36.929  1.00  0.00     0.023 A 
ATOM     72  C   UNL A   1      38.941  33.140  38.063  1.00  0.00     0.031 A 
ATOM     73  C   UNL A   1      40.009  34.988  36.947  1.00  0.00     0.131 A 
ATOM     74  C   UNL A   1      38.678  33.985  39.152  1.00  0.00     0.055 A 
ATOM     75  C   UNL A   1      39.790  35.811  38.053  1.00  0.00     0.041 A 
ATOM     76  F   UNL A   1      40.646  35.516  35.891  1.00  0.00    -0.206 F 
ATOM     77  C   UNL A   1      39.109  35.313  39.160  1.00  0.00     0.022 A 
BRANCH  74  78
ATOM     78  S   UNL A   1      37.694  33.340  40.533  1.00  0.00     0.124 S 
ATOM     79  O   UNL A   1      38.522  32.233  40.998  1.00  0.00    -0.237 OA
ATOM     80  O   UNL A   1      37.616  34.498  41.417  1.00  0.00    -0.237 OA
ATOM     81  O   UNL A   1      36.434  32.956  39.901  1.00  0.00    -0.744 OA
ENDBRANCH  74  78
ENDBRANCH  47  71
BRANCH  59  82
ATOM     82  C   UNL A   1      44.259  28.710  35.355  1.00  0.00     0.023 A 
ATOM     83  C   UNL A   1      45.539  29.248  35.145  1.00  0.00     0.031 A 
ATOM     84  C   UNL A   1      44.127  27.646  36.265  1.00  0.00     0.131 A 
ATOM     85  C   UNL A   1      46.649  28.681  35.791  1.00  0.00     0.055 A 
ATOM     86  C   UNL A   1      45.225  27.125  36.949  1.00  0.00     0.041 A 
ATOM     87  F   UNL A   1      42.926  27.094  36.501  1.00  0.00    -0.206 F 
ATOM     88  C   UNL A   1      46.498  27.633  36.703  1.00  0.00     0.022 A 
BRANCH  85  89
ATOM     89  S   UNL A   1      48.307  29.269  35.350  1.00  0.00     0.124 S 
ATOM     90  O   UNL A   1      48.663  28.378  34.251  1.00  0.00    -0.237 OA
ATOM     91  O   UNL A   1      48.060  30.660  34.989  1.00  0.00    -0.237 OA
ATOM     92  O   UNL A   1      49.077  29.075  36.578  1.00  0.00    -0.744 OA
ENDBRANCH  85  89
ENDBRANCH  59  82
ENDBRANCH  33  34
ENDBRANCH  25  28
ENDBRANCH  23  24
ENDBRANCH  22  23
ENDBRANCH   1  22
TORSDOF 20
ENDMDL
MODEL 2
REMARK VINA RESULT:     -10.2      1.874      2.807
REMARK SMILES C#CCN(CC(=O)NCCCNC(=O)c1ccc(-c2c3nc(c(-c4cc(S(=O)(=O)[O-])ccc4F)c4ccc([nH]4)c(-c4cc(S(=O)(=O)[O-])ccc4F)c4nc(c(-c5cc(S(=O)(=O)[O-])ccc5F)c5ccc2[nH]5)C=C4)C=C3)cc1)C(=O)N(C)[C@H](C)c1cccs1
REMARK SMILES IDX 9 1 8 2 6 3 7 4 5 6 4 7 3 8 2 9 1 10 78 11 79 12 80 13 81 14
REMARK SMILES IDX 82 15 83 16 84 17 85 18 88 19 86 20 87 21 10 22 11 23 12 24
REMARK SMILES IDX 13 25 14 27 15 28 16 29 77 30 17 31 76 32 18 33 19 34 20 35
REMARK SMILES IDX 70 36 21 37 75 38 69 39 71 40 22 41 74 42 68 43 67 44 23 46
REMARK SMILES IDX 55 47 35 48 54 49 36 50 39 51 53 52 72 53 37 54 38 55 52 57
REMARK SMILES IDX 73 58 40 59 24 60 25 61 33 62 26 63 32 64 34 65 31 66 27 67
REMARK SMILES IDX 28 68 29 69 30 70 56 71 57 72 65 73 58 74 64 75 66 76 63 77
REMARK SMILES IDX 59 78 60 79 61 80 62 81 41 82 42 83 50 84 43 85 49 86 51 87
REMARK SMILES IDX 48 88 44 89 45 90 46 91 47 92
REMARK H PARENT 8 5 12 26 71 45 39 56
REMARK Flexibility Score: inf
ROOT
ATOM      1  C   UNL A   1      31.500  30.397  26.155  1.00  0.00     0.117 C 
ENDROOT
BRANCH   1   2
ATOM      2  N   UNL A   1      32.616  30.057  25.298  1.00  0.00    -0.354 N 
ATOM      3  C   UNL A   1      33.287  28.876  25.184  1.00  0.00     0.239 C 
ATOM      4  O   UNL A   1      34.022  28.727  24.203  1.00  0.00    -0.273 OA
ATOM      5  H   UNL A   1      32.935  30.782  24.714  1.00  0.00     0.163 HD
BRANCH   3   6
ATOM      6  C   UNL A   1      33.029  27.718  26.155  1.00  0.00     0.222 C 
BRANCH   6   7
ATOM      7  N   UNL A   1      32.555  26.470  25.555  1.00  0.00    -0.304 N 
BRANCH   7   8
ATOM      8  C   UNL A   1      33.594  25.448  25.335  1.00  0.00     0.211 C 
BRANCH   8   9
ATOM      9  C   UNL A   1      33.382  24.220  26.205  1.00  0.00    -0.085 C 
ATOM     10  C   UNL A   1      33.200  23.167  26.952  1.00  0.00     0.006 C 
ENDBRANCH   8   9
ENDBRANCH   7   8
BRANCH   7  11
ATOM     11  C   UNL A   1      31.273  26.099  25.177  1.00  0.00     0.321 C 
ATOM     12  O   UNL A   1      30.360  26.312  25.983  1.00  0.00    -0.248 OA
BRANCH  11  13
ATOM     13  N   UNL A   1      30.966  25.503  23.968  1.00  0.00    -0.320 N 
ATOM     14  C   UNL A   1      30.746  24.097  23.662  1.00  0.00     0.149 C 
BRANCH  13  15
ATOM     15  C   UNL A   1      30.986  26.358  22.746  1.00  0.00     0.124 C 
ATOM     16  C   UNL A   1      32.404  26.569  22.208  1.00  0.00     0.037 C 
BRANCH  15  17
ATOM     17  C   UNL A   1      30.113  27.598  22.856  1.00  0.00     0.027 A 
ATOM     18  C   UNL A   1      28.778  27.649  23.225  1.00  0.00     0.017 A 
ATOM     19  S   UNL A   1      30.673  29.166  22.415  1.00  0.00    -0.147 S 
ATOM     20  C   UNL A   1      28.239  28.968  23.178  1.00  0.00     0.012 A 
ATOM     21  C   UNL A   1      29.176  29.892  22.782  1.00  0.00     0.065 A 
ENDBRANCH  15  17
ENDBRANCH  13  15
ENDBRANCH  11  13
ENDBRANCH   7  11
ENDBRANCH   6   7
ENDBRANCH   3   6
ENDBRANCH   1   2
BRANCH   1  22
ATOM     22  C   UNL A   1      31.455  31.873  26.529  1.00  0.00     0.042 C 
BRANCH  22  23
ATOM     23  C   UNL A   1      32.764  32.419  27.089  1.00  0.00     0.118 C 
BRANCH  23  24
ATOM     24  N   UNL A   1      32.643  33.799  27.544  1.00  0.00    -0.352 N 
ATOM     25  C   UNL A   1      33.257  34.461  28.574  1.00  0.00     0.251 C 
ATOM     26  H   UNL A   1      32.013  34.347  27.022  1.00  0.00     0.163 HD
ATOM     27  O   UNL A   1      32.814  35.559  28.912  1.00  0.00    -0.269 OA
BRANCH  25  28
ATOM     28  C   UNL A   1      34.423  33.883  29.278  1.00  0.00     0.039 A 
ATOM     29  C   UNL A   1      34.199  32.955  30.300  1.00  0.00     0.014 A 
ATOM     30  C   UNL A   1      35.728  34.294  28.991  1.00  0.00     0.014 A 
ATOM     31  C   UNL A   1      35.279  32.405  30.994  1.00  0.00     0.010 A 
ATOM     32  C   UNL A   1      36.808  33.688  29.629  1.00  0.00     0.010 A 
ATOM     33  C   UNL A   1      36.595  32.747  30.646  1.00  0.00    -0.014 A 
BRANCH  33  34
ATOM     34  C   UNL A   1      37.758  32.146  31.350  1.00  0.00     0.031 A 
ATOM     35  C   UNL A   1      38.543  31.038  30.701  1.00  0.00     0.074 A 
ATOM     36  C   UNL A   1      38.068  32.559  32.595  1.00  0.00     0.049 A 
ATOM     37  N   UNL A   1      39.539  30.336  31.181  1.00  0.00    -0.248 NA
ATOM     38  C   UNL A   1      38.130  30.645  29.346  1.00  0.00     0.031 C 
ATOM     39  C   UNL A   1      37.352  33.595  33.344  1.00  0.00     0.029 A 
ATOM     40  N   UNL A   1      39.058  32.154  33.453  1.00  0.00    -0.354 N 
ATOM     41  C   UNL A   1      39.860  29.409  30.194  1.00  0.00     0.074 A 
ATOM     42  C   UNL A   1      38.913  29.601  29.117  1.00  0.00     0.031 C 
ATOM     43  C   UNL A   1      37.941  33.758  34.540  1.00  0.00     0.029 A 
ATOM     44  C   UNL A   1      39.046  32.813  34.661  1.00  0.00     0.049 A 
ATOM     45  H   UNL A   1      39.716  31.456  33.227  1.00  0.00     0.167 HD
ATOM     46  C   UNL A   1      40.865  28.497  30.180  1.00  0.00     0.034 A 
ATOM     47  C   UNL A   1      39.831  32.667  35.745  1.00  0.00     0.034 A 
ATOM     48  C   UNL A   1      41.812  28.332  31.257  1.00  0.00     0.049 A 
ATOM     49  C   UNL A   1      40.942  31.649  35.707  1.00  0.00     0.074 A 
ATOM     50  C   UNL A   1      42.901  27.481  31.326  1.00  0.00     0.029 A 
ATOM     51  N   UNL A   1      41.780  29.031  32.458  1.00  0.00    -0.354 N 
ATOM     52  N   UNL A   1      41.264  30.813  34.748  1.00  0.00    -0.248 NA
ATOM     53  C   UNL A   1      41.803  31.567  36.893  1.00  0.00     0.031 C 
ATOM     54  C   UNL A   1      43.491  27.622  32.588  1.00  0.00     0.029 A 
ATOM     55  C   UNL A   1      42.814  28.613  33.282  1.00  0.00     0.049 A 
ATOM     56  H   UNL A   1      41.120  29.723  32.689  1.00  0.00     0.167 HD
ATOM     57  C   UNL A   1      42.384  30.125  35.204  1.00  0.00     0.074 A 
ATOM     58  C   UNL A   1      42.690  30.657  36.517  1.00  0.00     0.031 C 
ATOM     59  C   UNL A   1      43.098  29.145  34.594  1.00  0.00     0.034 A 
BRANCH  46  60
ATOM     60  C   UNL A   1      40.968  27.598  28.970  1.00  0.00     0.023 A 
ATOM     61  C   UNL A   1      41.983  27.762  28.011  1.00  0.00     0.031 A 
ATOM     62  C   UNL A   1      40.019  26.582  28.754  1.00  0.00     0.131 A 
ATOM     63  C   UNL A   1      41.978  26.984  26.843  1.00  0.00     0.055 A 
ATOM     64  C   UNL A   1      40.069  25.754  27.630  1.00  0.00     0.041 A 
ATOM     65  F   UNL A   1      39.015  26.389  29.623  1.00  0.00    -0.206 F 
ATOM     66  C   UNL A   1      41.042  25.964  26.657  1.00  0.00     0.022 A 
BRANCH  63  67
ATOM     67  S   UNL A   1      43.120  27.424  25.504  1.00  0.00     0.124 S 
ATOM     68  O   UNL A   1      44.141  28.181  26.225  1.00  0.00    -0.237 OA
ATOM     69  O   UNL A   1      43.530  26.120  24.997  1.00  0.00    -0.237 OA
ATOM     70  O   UNL A   1      42.293  28.216  24.595  1.00  0.00    -0.744 OA
ENDBRANCH  63  67
ENDBRANCH  46  60
BRANCH  47  71
ATOM     71  C   UNL A   1      39.600  33.497  36.961  1.00  0.00     0.023 A 
ATOM     72  C   UNL A   1      38.935  32.972  38.080  1.00  0.00     0.031 A 
ATOM     73  C   UNL A   1      40.011  34.842  37.007  1.00  0.00     0.131 A 
ATOM     74  C   UNL A   1      38.660  33.797  39.181  1.00  0.00     0.055 A 
ATOM     75  C   UNL A   1      39.780  35.644  38.126  1.00  0.00     0.041 A 
ATOM     76  F   UNL A   1      40.658  35.390  35.967  1.00  0.00    -0.206 F 
ATOM     77  C   UNL A   1      39.089  35.125  39.217  1.00  0.00     0.022 A 
BRANCH  74  78
ATOM     78  S   UNL A   1      37.664  33.126  40.540  1.00  0.00     0.124 S 
ATOM     79  O   UNL A   1      37.728  34.205  41.519  1.00  0.00    -0.237 OA
ATOM     80  O   UNL A   1      36.370  32.921  39.895  1.00  0.00    -0.237 OA
ATOM     81  O   UNL A   1      38.373  31.903  40.909  1.00  0.00    -0.744 OA
ENDBRANCH  74  78
ENDBRANCH  47  71
BRANCH  59  82
ATOM     82  C   UNL A   1      44.307  28.623  35.332  1.00  0.00     0.023 A 
ATOM     83  C   UNL A   1      44.202  27.608  36.298  1.00  0.00     0.031 A 
ATOM     84  C   UNL A   1      45.578  29.170  35.080  1.00  0.00     0.131 A 
ATOM     85  C   UNL A   1      45.338  27.211  37.020  1.00  0.00     0.055 A 
ATOM     86  C   UNL A   1      46.713  28.730  35.759  1.00  0.00     0.041 A 
ATOM     87  F   UNL A   1      45.734  30.143  34.169  1.00  0.00    -0.206 F 
ATOM     88  C   UNL A   1      46.595  27.755  36.747  1.00  0.00     0.022 A 
BRANCH  85  89
ATOM     89  S   UNL A   1      45.133  26.041  38.391  1.00  0.00     0.124 S 
ATOM     90  O   UNL A   1      43.778  26.336  38.842  1.00  0.00    -0.237 OA
ATOM     91  O   UNL A   1      45.321  24.753  37.733  1.00  0.00    -0.237 OA
ATOM     92  O   UNL A   1      46.193  26.419  39.325  1.00  0.00    -0.744 OA
ENDBRANCH  85  89
ENDBRANCH  59  82
ENDBRANCH  33  34
ENDBRANCH  25  28
ENDBRANCH  23  24
ENDBRANCH  22  23
ENDBRANCH   1  22
TORSDOF 20
ENDMDL
MODEL 3
REMARK VINA RESULT:     -10.2      3.648      8.574
REMARK SMILES C#CCN(CC(=O)NCCCNC(=O)c1ccc(-c2c3nc(c(-c4cc(S(=O)(=O)[O-])ccc4F)c4ccc([nH]4)c(-c4cc(S(=O)(=O)[O-])ccc4F)c4nc(c(-c5cc(S(=O)(=O)[O-])ccc5F)c5ccc2[nH]5)C=C4)C=C3)cc1)C(=O)N(C)[C@H](C)c1cccs1
REMARK SMILES IDX 9 1 8 2 6 3 7 4 5 6 4 7 3 8 2 9 1 10 78 11 79 12 80 13 81 14
REMARK SMILES IDX 82 15 83 16 84 17 85 18 88 19 86 20 87 21 10 22 11 23 12 24
REMARK SMILES IDX 13 25 14 27 15 28 16 29 77 30 17 31 76 32 18 33 19 34 20 35
REMARK SMILES IDX 70 36 21 37 75 38 69 39 71 40 22 41 74 42 68 43 67 44 23 46
REMARK SMILES IDX 55 47 35 48 54 49 36 50 39 51 53 52 72 53 37 54 38 55 52 57
REMARK SMILES IDX 73 58 40 59 24 60 25 61 33 62 26 63 32 64 34 65 31 66 27 67
REMARK SMILES IDX 28 68 29 69 30 70 56 71 57 72 65 73 58 74 64 75 66 76 63 77
REMARK SMILES IDX 59 78 60 79 61 80 62 81 41 82 42 83 50 84 43 85 49 86 51 87
REMARK SMILES IDX 48 88 44 89 45 90 46 91 47 92
REMARK H PARENT 8 5 12 26 71 45 39 56
REMARK Flexibility Score: inf
ROOT
ATOM      1  C   UNL A   1      31.668  28.206  26.518  1.00  0.00     0.117 C 
ENDROOT
BRANCH   1   2
ATOM      2  N   UNL A   1      30.919  27.016  26.866  1.00  0.00    -0.354 N 
ATOM      3  C   UNL A   1      30.662  25.908  26.115  1.00  0.00     0.239 C 
ATOM      4  O   UNL A   1      30.240  24.905  26.699  1.00  0.00    -0.273 OA
ATOM      5  H   UNL A   1      30.542  27.007  27.775  1.00  0.00     0.163 HD
BRANCH   3   6
ATOM      6  C   UNL A   1      31.021  25.857  24.625  1.00  0.00     0.222 C 
BRANCH   6   7
ATOM      7  N   UNL A   1      32.162  25.013  24.268  1.00  0.00    -0.304 N 
BRANCH   7   8
ATOM      8  C   UNL A   1      33.463  25.704  24.227  1.00  0.00     0.211 C 
BRANCH   8   9
ATOM      9  C   UNL A   1      33.446  26.900  23.289  1.00  0.00    -0.085 C 
ATOM     10  C   UNL A   1      33.432  27.925  22.485  1.00  0.00     0.006 C 
ENDBRANCH   8   9
ENDBRANCH   7   8
BRANCH   7  11
ATOM     11  C   UNL A   1      32.206  23.657  23.978  1.00  0.00     0.321 C 
ATOM     12  O   UNL A   1      31.784  23.300  22.872  1.00  0.00    -0.248 OA
BRANCH  11  13
ATOM     13  N   UNL A   1      32.682  22.695  24.850  1.00  0.00    -0.320 N 
ATOM     14  C   UNL A   1      32.807  22.746  26.300  1.00  0.00     0.149 C 
BRANCH  13  15
ATOM     15  C   UNL A   1      33.292  21.467  24.266  1.00  0.00     0.124 C 
ATOM     16  C   UNL A   1      32.528  20.198  24.653  1.00  0.00     0.037 C 
BRANCH  15  17
ATOM     17  C   UNL A   1      34.806  21.414  24.405  1.00  0.00     0.027 A 
ATOM     18  C   UNL A   1      35.554  20.409  25.000  1.00  0.00     0.017 A 
ATOM     19  S   UNL A   1      35.827  22.708  23.908  1.00  0.00    -0.147 S 
ATOM     20  C   UNL A   1      36.951  20.690  25.010  1.00  0.00     0.012 A 
ATOM     21  C   UNL A   1      37.237  21.898  24.417  1.00  0.00     0.065 A 
ENDBRANCH  15  17
ENDBRANCH  13  15
ENDBRANCH  11  13
ENDBRANCH   7  11
ENDBRANCH   6   7
ENDBRANCH   3   6
ENDBRANCH   1   2
BRANCH   1  22
ATOM     22  C   UNL A   1      33.142  28.118  26.887  1.00  0.00     0.042 C 
BRANCH  22  23
ATOM     23  C   UNL A   1      34.034  29.116  26.155  1.00  0.00     0.118 C 
BRANCH  23  24
ATOM     24  N   UNL A   1      33.943  30.459  26.714  1.00  0.00    -0.352 N 
ATOM     25  C   UNL A   1      34.652  31.061  27.720  1.00  0.00     0.251 C 
ATOM     26  H   UNL A   1      33.257  31.030  26.298  1.00  0.00     0.163 HD
ATOM     27  O   UNL A   1      34.232  32.125  28.177  1.00  0.00    -0.269 OA
BRANCH  25  28
ATOM     28  C   UNL A   1      35.891  30.459  28.261  1.00  0.00     0.039 A 
ATOM     29  C   UNL A   1      37.105  30.736  27.626  1.00  0.00     0.014 A 
ATOM     30  C   UNL A   1      35.861  29.574  29.342  1.00  0.00     0.014 A 
ATOM     31  C   UNL A   1      38.289  30.169  28.104  1.00  0.00     0.010 A 
ATOM     32  C   UNL A   1      37.050  29.071  29.866  1.00  0.00     0.010 A 
ATOM     33  C   UNL A   1      38.275  29.353  29.245  1.00  0.00    -0.014 A 
BRANCH  33  34
ATOM     34  C   UNL A   1      39.529  28.769  29.789  1.00  0.00     0.031 A 
ATOM     35  C   UNL A   1      40.154  29.344  31.031  1.00  0.00     0.074 A 
ATOM     36  C   UNL A   1      40.133  27.760  29.130  1.00  0.00     0.049 A 
ATOM     37  N   UNL A   1      41.279  29.025  31.618  1.00  0.00    -0.248 NA
ATOM     38  C   UNL A   1      39.430  30.448  31.681  1.00  0.00     0.031 C 
ATOM     39  C   UNL A   1      39.647  27.150  27.890  1.00  0.00     0.029 A 
ATOM     40  N   UNL A   1      41.291  27.078  29.403  1.00  0.00    -0.354 N 
ATOM     41  C   UNL A   1      41.408  29.898  32.694  1.00  0.00     0.074 A 
ATOM     42  C   UNL A   1      40.275  30.796  32.639  1.00  0.00     0.031 C 
ATOM     43  C   UNL A   1      40.487  26.169  27.524  1.00  0.00     0.029 A 
ATOM     44  C   UNL A   1      41.592  26.108  28.474  1.00  0.00     0.049 A 
ATOM     45  H   UNL A   1      41.854  27.263  30.189  1.00  0.00     0.167 HD
ATOM     46  C   UNL A   1      42.371  29.932  33.650  1.00  0.00     0.034 A 
ATOM     47  C   UNL A   1      42.644  25.270  28.394  1.00  0.00     0.034 A 
ATOM     48  C   UNL A   1      43.486  29.016  33.697  1.00  0.00     0.049 A 
ATOM     49  C   UNL A   1      43.701  25.325  29.467  1.00  0.00     0.074 A 
ATOM     50  C   UNL A   1      44.487  28.923  34.648  1.00  0.00     0.029 A 
ATOM     51  N   UNL A   1      43.749  28.034  32.750  1.00  0.00    -0.354 N 
ATOM     52  N   UNL A   1      43.784  26.124  30.505  1.00  0.00    -0.248 NA
ATOM     53  C   UNL A   1      44.798  24.355  29.364  1.00  0.00     0.031 C 
ATOM     54  C   UNL A   1      45.386  27.928  34.245  1.00  0.00     0.029 A 
ATOM     55  C   UNL A   1      44.908  27.349  33.080  1.00  0.00     0.049 A 
ATOM     56  H   UNL A   1      43.192  27.851  31.959  1.00  0.00     0.167 HD
ATOM     57  C   UNL A   1      44.928  25.733  31.194  1.00  0.00     0.074 A 
ATOM     58  C   UNL A   1      45.491  24.616  30.462  1.00  0.00     0.031 C 
ATOM     59  C   UNL A   1      45.463  26.246  32.332  1.00  0.00     0.034 A 
BRANCH  46  60
ATOM     60  C   UNL A   1      42.266  31.013  34.700  1.00  0.00     0.023 A 
ATOM     61  C   UNL A   1      42.801  32.297  34.497  1.00  0.00     0.031 A 
ATOM     62  C   UNL A   1      41.650  30.747  35.937  1.00  0.00     0.131 A 
ATOM     63  C   UNL A   1      42.787  33.237  35.539  1.00  0.00     0.055 A 
ATOM     64  C   UNL A   1      41.564  31.715  36.941  1.00  0.00     0.041 A 
ATOM     65  F   UNL A   1      41.137  29.535  36.199  1.00  0.00    -0.206 F 
ATOM     66  C   UNL A   1      42.150  32.963  36.751  1.00  0.00     0.022 A 
BRANCH  63  67
ATOM     67  S   UNL A   1      43.744  34.764  35.340  1.00  0.00     0.124 S 
ATOM     68  O   UNL A   1      44.683  34.389  34.285  1.00  0.00    -0.237 OA
ATOM     69  O   UNL A   1      42.719  35.733  34.969  1.00  0.00    -0.237 OA
ATOM     70  O   UNL A   1      44.346  34.966  36.657  1.00  0.00    -0.744 OA
ENDBRANCH  63  67
ENDBRANCH  46  60
BRANCH  47  71
ATOM     71  C   UNL A   1      42.758  24.310  27.261  1.00  0.00     0.023 A 
ATOM     72  C   UNL A   1      42.123  23.059  27.306  1.00  0.00     0.031 A 
ATOM     73  C   UNL A   1      43.535  24.616  26.129  1.00  0.00     0.131 A 
ATOM     74  C   UNL A   1      42.310  22.141  26.261  1.00  0.00     0.055 A 
ATOM     75  C   UNL A   1      43.677  23.718  25.068  1.00  0.00     0.041 A 
ATOM     76  F   UNL A   1      44.156  25.800  26.032  1.00  0.00    -0.206 F 
ATOM     77  C   UNL A   1      43.072  22.466  25.138  1.00  0.00     0.022 A 
BRANCH  74  78
ATOM     78  S   UNL A   1      41.600  20.480  26.429  1.00  0.00     0.124 S 
ATOM     79  O   UNL A   1      40.183  20.737  26.203  1.00  0.00    -0.237 OA
ATOM     80  O   UNL A   1      42.295  19.745  25.376  1.00  0.00    -0.237 OA
ATOM     81  O   UNL A   1      41.956  20.095  27.793  1.00  0.00    -0.744 OA
ENDBRANCH  74  78
ENDBRANCH  47  71
BRANCH  59  82
ATOM     82  C   UNL A   1      46.699  25.566  32.869  1.00  0.00     0.023 A 
ATOM     83  C   UNL A   1      47.980  25.864  32.376  1.00  0.00     0.031 A 
ATOM     84  C   UNL A   1      46.586  24.588  33.873  1.00  0.00     0.131 A 
ATOM     85  C   UNL A   1      49.093  25.149  32.844  1.00  0.00     0.055 A 
ATOM     86  C   UNL A   1      47.702  23.922  34.378  1.00  0.00     0.041 A 
ATOM     87  F   UNL A   1      45.385  24.264  34.379  1.00  0.00    -0.206 F 
ATOM     88  C   UNL A   1      48.964  24.190  33.853  1.00  0.00     0.022 A 
BRANCH  85  89
ATOM     89  S   UNL A   1      50.701  25.419  32.049  1.00  0.00     0.124 S 
ATOM     90  O   UNL A   1      51.605  24.698  32.939  1.00  0.00    -0.237 OA
ATOM     91  O   UNL A   1      50.500  24.829  30.730  1.00  0.00    -0.237 OA
ATOM     92  O   UNL A   1      50.849  26.873  32.061  1.00  0.00    -0.744 OA
ENDBRANCH  85  89
ENDBRANCH  59  82
ENDBRANCH  33  34
ENDBRANCH  25  28
ENDBRANCH  23  24
ENDBRANCH  22  23
ENDBRANCH   1  22
TORSDOF 20
ENDMDL
