MODEL 1
REMARK VINA RESULT:     -12.3      0.000      0.000
REMARK SMILES Cc1cc(F)c([C@](C)(NC=O)C(=O)NCCCNC(=O)c2ccc(-c3c4nc(c(-c5cc(S(=O)(=O)[O-])ccc5F)c5ccc([nH]5)c(-c5cc(S(=O)(=O)[O-])ccc5F)c5nc(c(-c6cc(S(=O)(=O)[O-])ccc6F)c6ccc3[nH]6)C=C5)C=C4)cc2)cc1F
REMARK SMILES IDX 17 1 16 2 15 3 14 4 12 5 13 6 7 8 8 9 6 10 1 11 2 12 3 13
REMARK SMILES IDX 85 14 4 15 84 16 86 17 5 18 9 19 10 20 11 22 18 23 19 24
REMARK SMILES IDX 20 26 21 27 22 28 83 29 23 30 82 31 24 32 25 33 26 34 76 35
REMARK SMILES IDX 27 36 81 37 75 38 77 39 28 40 80 41 74 42 73 43 29 45 61 46
REMARK SMILES IDX 41 47 60 48 42 49 45 50 59 51 78 52 43 53 44 54 58 56 79 57
REMARK SMILES IDX 46 58 30 59 31 60 39 61 32 62 38 63 40 64 37 65 33 66 34 67
REMARK SMILES IDX 35 68 36 69 62 70 63 71 71 72 64 73 70 74 72 75 69 76 65 77
REMARK SMILES IDX 66 78 67 79 68 80 47 81 48 82 56 83 49 84 55 85 57 86 54 87
REMARK SMILES IDX 50 88 51 89 52 90 53 91
REMARK H PARENT 14 7 9 21 18 25 77 44 45 55
REMARK Flexibility Score: inf
ROOT
ATOM      1  C   UNL A   1      37.532  21.505  25.007  1.00  0.00     0.118 C 
ENDROOT
BRANCH   1   2
ATOM      2  C   UNL A   1      36.160  21.392  25.651  1.00  0.00     0.042 C 
BRANCH   2   3
ATOM      3  C   UNL A   1      35.606  22.718  26.144  1.00  0.00     0.117 C 
BRANCH   3   4
ATOM      4  N   UNL A   1      34.677  22.571  27.250  1.00  0.00    -0.354 N 
ATOM      5  C   UNL A   1      33.309  22.583  27.279  1.00  0.00     0.250 C 
ATOM      6  O   UNL A   1      32.781  22.381  28.378  1.00  0.00    -0.272 OA
ATOM      7  H   UNL A   1      35.103  22.442  28.129  1.00  0.00     0.163 HD
BRANCH   5   8
ATOM      8  C   UNL A   1      32.450  22.832  25.979  1.00  0.00     0.144 C 
ATOM      9  C   UNL A   1      30.977  23.088  26.370  1.00  0.00     0.051 C 
BRANCH   8  10
ATOM     10  C   UNL A   1      32.535  21.590  25.064  1.00  0.00     0.025 A 
ATOM     11  C   UNL A   1      32.344  18.102  22.473  1.00  0.00     0.047 C 
ATOM     12  C   UNL A   1      32.416  19.307  23.359  1.00  0.00    -0.012 A 
ATOM     13  C   UNL A   1      32.196  20.588  22.850  1.00  0.00     0.046 A 
ATOM     14  C   UNL A   1      32.741  19.183  24.706  1.00  0.00     0.126 A 
ATOM     15  C   UNL A   1      32.243  21.701  23.695  1.00  0.00     0.129 A 
ATOM     16  C   UNL A   1      32.813  20.295  25.546  1.00  0.00     0.049 A 
ATOM     17  F   UNL A   1      32.960  17.970  25.233  1.00  0.00    -0.207 F 
ATOM     18  F   UNL A   1      31.969  22.897  23.158  1.00  0.00    -0.207 F 
ENDBRANCH   8  10
BRANCH   8  19
ATOM     19  N   UNL A   1      32.945  24.051  25.308  1.00  0.00    -0.341 N 
ATOM     20  C   UNL A   1      32.289  25.245  25.297  1.00  0.00     0.338 C 
ATOM     21  H   UNL A   1      33.807  23.998  24.837  1.00  0.00     0.164 HD
ATOM     22  O   UNL A   1      32.594  26.139  24.511  1.00  0.00    -0.279 OA
ENDBRANCH   8  19
ENDBRANCH   5   8
ENDBRANCH   3   4
ENDBRANCH   2   3
ENDBRANCH   1   2
BRANCH   1  23
ATOM     23  N   UNL A   1      38.466  20.489  25.480  1.00  0.00    -0.352 N 
ATOM     24  C   UNL A   1      39.648  20.617  26.174  1.00  0.00     0.251 C 
ATOM     25  H   UNL A   1      38.210  19.562  25.269  1.00  0.00     0.163 HD
ATOM     26  O   UNL A   1      40.373  19.637  26.314  1.00  0.00    -0.269 OA
BRANCH  24  27
ATOM     27  C   UNL A   1      40.056  21.934  26.714  1.00  0.00     0.039 A 
ATOM     28  C   UNL A   1      39.504  23.111  26.210  1.00  0.00     0.014 A 
ATOM     29  C   UNL A   1      41.021  21.997  27.723  1.00  0.00     0.014 A 
ATOM     30  C   UNL A   1      40.071  24.334  26.541  1.00  0.00     0.010 A 
ATOM     31  C   UNL A   1      41.502  23.241  28.150  1.00  0.00     0.010 A 
ATOM     32  C   UNL A   1      41.075  24.420  27.519  1.00  0.00    -0.014 A 
BRANCH  32  33
ATOM     33  C   UNL A   1      41.649  25.752  27.861  1.00  0.00     0.031 A 
ATOM     34  C   UNL A   1      43.019  26.154  27.375  1.00  0.00     0.074 A 
ATOM     35  C   UNL A   1      40.896  26.629  28.557  1.00  0.00     0.049 A 
ATOM     36  N   UNL A   1      43.657  27.281  27.561  1.00  0.00    -0.248 NA
ATOM     37  C   UNL A   1      43.774  25.168  26.583  1.00  0.00     0.031 C 
ATOM     38  C   UNL A   1      39.549  26.356  29.063  1.00  0.00     0.029 A 
ATOM     39  N   UNL A   1      41.129  27.930  28.930  1.00  0.00    -0.354 N 
ATOM     40  C   UNL A   1      44.887  27.138  26.925  1.00  0.00     0.074 A 
ATOM     41  C   UNL A   1      44.924  25.799  26.383  1.00  0.00     0.031 C 
ATOM     42  C   UNL A   1      39.047  27.472  29.609  1.00  0.00     0.029 A 
ATOM     43  C   UNL A   1      40.066  28.517  29.579  1.00  0.00     0.049 A 
ATOM     44  H   UNL A   1      41.976  28.398  28.751  1.00  0.00     0.167 HD
ATOM     45  C   UNL A   1      45.880  28.048  26.790  1.00  0.00     0.034 A 
ATOM     46  C   UNL A   1      39.923  29.751  30.106  1.00  0.00     0.034 A 
ATOM     47  C   UNL A   1      45.813  29.391  27.310  1.00  0.00     0.049 A 
ATOM     48  C   UNL A   1      41.069  30.722  29.983  1.00  0.00     0.074 A 
ATOM     49  C   UNL A   1      46.766  30.391  27.212  1.00  0.00     0.029 A 
ATOM     50  N   UNL A   1      44.741  29.931  28.004  1.00  0.00    -0.354 N 
ATOM     51  N   UNL A   1      42.212  30.575  29.355  1.00  0.00    -0.248 NA
ATOM     52  C   UNL A   1      40.912  32.027  30.641  1.00  0.00     0.031 C 
ATOM     53  C   UNL A   1      46.300  31.509  27.901  1.00  0.00     0.029 A 
ATOM     54  C   UNL A   1      45.020  31.241  28.360  1.00  0.00     0.049 A 
ATOM     55  H   UNL A   1      43.904  29.455  28.211  1.00  0.00     0.167 HD
ATOM     56  C   UNL A   1      42.895  31.777  29.516  1.00  0.00     0.074 A 
ATOM     57  C   UNL A   1      42.024  32.650  30.274  1.00  0.00     0.031 C 
ATOM     58  C   UNL A   1      44.135  32.120  29.085  1.00  0.00     0.034 A 
BRANCH  45  59
ATOM     59  C   UNL A   1      47.131  27.667  26.034  1.00  0.00     0.023 A 
ATOM     60  C   UNL A   1      47.248  27.977  24.664  1.00  0.00     0.031 A 
ATOM     61  C   UNL A   1      48.114  26.847  26.614  1.00  0.00     0.131 A 
ATOM     62  C   UNL A   1      48.288  27.423  23.910  1.00  0.00     0.055 A 
ATOM     63  C   UNL A   1      49.178  26.336  25.867  1.00  0.00     0.041 A 
ATOM     64  F   UNL A   1      48.049  26.521  27.915  1.00  0.00    -0.206 F 
ATOM     65  C   UNL A   1      49.258  26.608  24.505  1.00  0.00     0.022 A 
BRANCH  62  66
ATOM     66  S   UNL A   1      48.379  27.665  22.113  1.00  0.00     0.124 S 
ATOM     67  O   UNL A   1      48.579  26.300  21.635  1.00  0.00    -0.237 OA
ATOM     68  O   UNL A   1      47.071  28.243  21.819  1.00  0.00    -0.237 OA
ATOM     69  O   UNL A   1      49.521  28.557  21.938  1.00  0.00    -0.744 OA
ENDBRANCH  62  66
ENDBRANCH  45  59
BRANCH  46  70
ATOM     70  C   UNL A   1      38.634  30.137  30.756  1.00  0.00     0.023 A 
ATOM     71  C   UNL A   1      37.630  30.813  30.039  1.00  0.00     0.031 A 
ATOM     72  C   UNL A   1      38.419  29.903  32.124  1.00  0.00     0.131 A 
ATOM     73  C   UNL A   1      36.494  31.291  30.705  1.00  0.00     0.055 A 
ATOM     74  C   UNL A   1      37.249  30.309  32.767  1.00  0.00     0.041 A 
ATOM     75  F   UNL A   1      39.351  29.276  32.859  1.00  0.00    -0.206 F 
ATOM     76  C   UNL A   1      36.286  31.023  32.061  1.00  0.00     0.022 A 
BRANCH  73  77
ATOM     77  S   UNL A   1      35.321  32.394  29.869  1.00  0.00     0.124 S 
ATOM     78  O   UNL A   1      36.175  33.515  29.487  1.00  0.00    -0.237 OA
ATOM     79  O   UNL A   1      34.852  31.554  28.769  1.00  0.00    -0.237 OA
ATOM     80  O   UNL A   1      34.324  32.677  30.897  1.00  0.00    -0.744 OA
ENDBRANCH  73  77
ENDBRANCH  46  70
BRANCH  58  81
ATOM     81  C   UNL A   1      44.649  33.508  29.384  1.00  0.00     0.023 A 
ATOM     82  C   UNL A   1      44.393  34.560  28.483  1.00  0.00     0.031 A 
ATOM     83  C   UNL A   1      45.518  33.753  30.462  1.00  0.00     0.131 A 
ATOM     84  C   UNL A   1      45.039  35.793  28.648  1.00  0.00     0.055 A 
ATOM     85  C   UNL A   1      46.113  35.000  30.653  1.00  0.00     0.041 A 
ATOM     86  F   UNL A   1      45.807  32.779  31.340  1.00  0.00    -0.206 F 
ATOM     87  C   UNL A   1      45.888  36.021  29.735  1.00  0.00     0.022 A 
BRANCH  84  88
ATOM     88  S   UNL A   1      44.880  37.105  27.406  1.00  0.00     0.124 S 
ATOM     89  O   UNL A   1      46.019  36.832  26.532  1.00  0.00    -0.237 OA
ATOM     90  O   UNL A   1      43.569  36.823  26.828  1.00  0.00    -0.237 OA
ATOM     91  O   UNL A   1      44.974  38.338  28.180  1.00  0.00    -0.744 OA
ENDBRANCH  84  88
ENDBRANCH  58  81
ENDBRANCH  32  33
ENDBRANCH  24  27
ENDBRANCH   1  23
TORSDOF 15
ENDMDL
MODEL 2
REMARK VINA RESULT:     -12.2      5.403     10.442
REMARK SMILES Cc1cc(F)c([C@](C)(NC=O)C(=O)NCCCNC(=O)c2ccc(-c3c4nc(c(-c5cc(S(=O)(=O)[O-])ccc5F)c5ccc([nH]5)c(-c5cc(S(=O)(=O)[O-])ccc5F)c5nc(c(-c6cc(S(=O)(=O)[O-])ccc6F)c6ccc3[nH]6)C=C5)C=C4)cc2)cc1F
REMARK SMILES IDX 17 1 16 2 15 3 14 4 12 5 13 6 7 8 8 9 6 10 1 11 2 12 3 13
REMARK SMILES IDX 85 14 4 15 84 16 86 17 5 18 9 19 10 20 11 22 18 23 19 24
REMARK SMILES IDX 20 26 21 27 22 28 83 29 23 30 82 31 24 32 25 33 26 34 76 35
REMARK SMILES IDX 27 36 81 37 75 38 77 39 28 40 80 41 74 42 73 43 29 45 61 46
REMARK SMILES IDX 41 47 60 48 42 49 45 50 59 51 78 52 43 53 44 54 58 56 79 57
REMARK SMILES IDX 46 58 30 59 31 60 39 61 32 62 38 63 40 64 37 65 33 66 34 67
REMARK SMILES IDX 35 68 36 69 62 70 63 71 71 72 64 73 70 74 72 75 69 76 65 77
REMARK SMILES IDX 66 78 67 79 68 80 47 81 48 82 56 83 49 84 55 85 57 86 54 87
REMARK SMILES IDX 50 88 51 89 52 90 53 91
REMARK H PARENT 14 7 9 21 18 25 77 44 45 55
REMARK Flexibility Score: inf
ROOT
ATOM      1  C   UNL A   1      32.751  29.757  25.807  1.00  0.00     0.118 C 
ENDROOT
BRANCH   1   2
ATOM      2  C   UNL A   1      31.785  28.725  26.366  1.00  0.00     0.042 C 
BRANCH   2   3
ATOM      3  C   UNL A   1      32.415  27.362  26.598  1.00  0.00     0.117 C 
BRANCH   3   4
ATOM      4  N   UNL A   1      33.019  26.803  25.401  1.00  0.00    -0.354 N 
ATOM      5  C   UNL A   1      32.460  26.145  24.340  1.00  0.00     0.250 C 
ATOM      6  O   UNL A   1      33.229  25.822  23.428  1.00  0.00    -0.272 OA
ATOM      7  H   UNL A   1      33.996  26.914  25.344  1.00  0.00     0.163 HD
BRANCH   5   8
ATOM      8  C   UNL A   1      30.916  25.823  24.278  1.00  0.00     0.144 C 
ATOM      9  C   UNL A   1      30.678  24.592  23.374  1.00  0.00     0.051 C 
BRANCH   8  10
ATOM     10  C   UNL A   1      30.163  27.042  23.702  1.00  0.00     0.025 A 
ATOM     11  C   UNL A   1      27.897  30.212  21.771  1.00  0.00     0.047 C 
ATOM     12  C   UNL A   1      28.673  29.124  22.444  1.00  0.00    -0.012 A 
ATOM     13  C   UNL A   1      28.028  28.146  23.205  1.00  0.00     0.046 A 
ATOM     14  C   UNL A   1      30.061  29.079  22.358  1.00  0.00     0.126 A 
ATOM     15  C   UNL A   1      28.765  27.122  23.808  1.00  0.00     0.129 A 
ATOM     16  C   UNL A   1      30.799  28.071  22.979  1.00  0.00     0.049 A 
ATOM     17  F   UNL A   1      30.716  29.998  21.636  1.00  0.00    -0.207 F 
ATOM     18  F   UNL A   1      28.084  26.184  24.479  1.00  0.00    -0.207 F 
ENDBRANCH   8  10
BRANCH   8  19
ATOM     19  N   UNL A   1      30.449  25.470  25.633  1.00  0.00    -0.341 N 
ATOM     20  C   UNL A   1      30.488  24.214  26.160  1.00  0.00     0.338 C 
ATOM     21  H   UNL A   1      30.084  26.191  26.195  1.00  0.00     0.164 HD
ATOM     22  O   UNL A   1      29.849  23.919  27.166  1.00  0.00    -0.279 OA
ENDBRANCH   8  19
ENDBRANCH   5   8
ENDBRANCH   3   4
ENDBRANCH   2   3
ENDBRANCH   1   2
BRANCH   1  23
ATOM     23  N   UNL A   1      32.462  31.112  26.264  1.00  0.00    -0.352 N 
ATOM     24  C   UNL A   1      33.130  31.911  27.165  1.00  0.00     0.251 C 
ATOM     25  H   UNL A   1      31.660  31.521  25.864  1.00  0.00     0.163 HD
ATOM     26  O   UNL A   1      32.609  32.956  27.543  1.00  0.00    -0.269 OA
BRANCH  24  27
ATOM     27  C   UNL A   1      34.446  31.494  27.699  1.00  0.00     0.039 A 
ATOM     28  C   UNL A   1      34.686  30.163  28.037  1.00  0.00     0.014 A 
ATOM     29  C   UNL A   1      35.449  32.449  27.886  1.00  0.00     0.014 A 
ATOM     30  C   UNL A   1      35.821  29.831  28.765  1.00  0.00     0.010 A 
ATOM     31  C   UNL A   1      36.650  32.085  28.506  1.00  0.00     0.010 A 
ATOM     32  C   UNL A   1      36.823  30.785  29.007  1.00  0.00    -0.014 A 
BRANCH  32  33
ATOM     33  C   UNL A   1      38.036  30.389  29.777  1.00  0.00     0.031 A 
ATOM     34  C   UNL A   1      38.258  30.886  31.184  1.00  0.00     0.074 A 
ATOM     35  C   UNL A   1      38.906  29.519  29.224  1.00  0.00     0.049 A 
ATOM     36  N   UNL A   1      39.244  30.620  32.002  1.00  0.00    -0.248 NA
ATOM     37  C   UNL A   1      37.249  31.799  31.748  1.00  0.00     0.031 C 
ATOM     38  C   UNL A   1      38.784  28.958  27.877  1.00  0.00     0.029 A 
ATOM     39  N   UNL A   1      40.039  28.925  29.725  1.00  0.00    -0.354 N 
ATOM     40  C   UNL A   1      38.986  31.339  33.165  1.00  0.00     0.074 A 
ATOM     41  C   UNL A   1      37.770  32.087  32.934  1.00  0.00     0.031 C 
ATOM     42  C   UNL A   1      39.751  28.050  27.687  1.00  0.00     0.029 A 
ATOM     43  C   UNL A   1      40.620  28.025  28.860  1.00  0.00     0.049 A 
ATOM     44  H   UNL A   1      40.401  29.124  30.619  1.00  0.00     0.167 HD
ATOM     45  C   UNL A   1      39.687  31.355  34.323  1.00  0.00     0.034 A 
ATOM     46  C   UNL A   1      41.734  27.273  28.982  1.00  0.00     0.034 A 
ATOM     47  C   UNL A   1      40.880  30.579  34.548  1.00  0.00     0.049 A 
ATOM     48  C   UNL A   1      42.519  27.355  30.265  1.00  0.00     0.074 A 
ATOM     49  C   UNL A   1      41.654  30.519  35.694  1.00  0.00     0.029 A 
ATOM     50  N   UNL A   1      41.464  29.718  33.630  1.00  0.00    -0.354 N 
ATOM     51  N   UNL A   1      42.242  28.021  31.361  1.00  0.00    -0.248 NA
ATOM     52  C   UNL A   1      43.771  26.587  30.332  1.00  0.00     0.031 C 
ATOM     53  C   UNL A   1      42.738  29.678  35.448  1.00  0.00     0.029 A 
ATOM     54  C   UNL A   1      42.601  29.145  34.177  1.00  0.00     0.049 A 
ATOM     55  H   UNL A   1      41.121  29.541  32.724  1.00  0.00     0.167 HD
ATOM     56  C   UNL A   1      43.267  27.727  32.257  1.00  0.00     0.074 A 
ATOM     57  C   UNL A   1      44.152  26.801  31.584  1.00  0.00     0.031 C 
ATOM     58  C   UNL A   1      43.461  28.193  33.516  1.00  0.00     0.034 A 
BRANCH  45  59
ATOM     59  C   UNL A   1      39.198  32.209  35.470  1.00  0.00     0.023 A 
ATOM     60  C   UNL A   1      39.650  33.536  35.601  1.00  0.00     0.031 A 
ATOM     61  C   UNL A   1      38.441  31.658  36.519  1.00  0.00     0.131 A 
ATOM     62  C   UNL A   1      39.391  34.248  36.779  1.00  0.00     0.055 A 
ATOM     63  C   UNL A   1      38.145  32.389  37.671  1.00  0.00     0.041 A 
ATOM     64  F   UNL A   1      37.987  30.397  36.443  1.00  0.00    -0.206 F 
ATOM     65  C   UNL A   1      38.636  33.683  37.813  1.00  0.00     0.022 A 
BRANCH  62  66
ATOM     66  S   UNL A   1      40.094  35.898  37.053  1.00  0.00     0.124 S 
ATOM     67  O   UNL A   1      39.697  36.601  35.836  1.00  0.00    -0.237 OA
ATOM     68  O   UNL A   1      39.408  36.323  38.270  1.00  0.00    -0.237 OA
ATOM     69  O   UNL A   1      41.526  35.651  37.187  1.00  0.00    -0.744 OA
ENDBRANCH  62  66
ENDBRANCH  45  59
BRANCH  46  70
ATOM     70  C   UNL A   1      42.136  26.357  27.872  1.00  0.00     0.023 A 
ATOM     71  C   UNL A   1      41.635  25.044  27.792  1.00  0.00     0.031 A 
ATOM     72  C   UNL A   1      43.087  26.755  26.919  1.00  0.00     0.131 A 
ATOM     73  C   UNL A   1      42.136  24.160  26.830  1.00  0.00     0.055 A 
ATOM     74  C   UNL A   1      43.525  25.896  25.909  1.00  0.00     0.041 A 
ATOM     75  F   UNL A   1      43.609  27.991  26.958  1.00  0.00    -0.206 F 
ATOM     76  C   UNL A   1      43.063  24.584  25.872  1.00  0.00     0.022 A 
BRANCH  73  77
ATOM     77  S   UNL A   1      41.712  22.397  26.875  1.00  0.00     0.124 S 
ATOM     78  O   UNL A   1      40.283  22.435  27.170  1.00  0.00    -0.237 OA
ATOM     79  O   UNL A   1      42.066  21.968  25.524  1.00  0.00    -0.237 OA
ATOM     80  O   UNL A   1      42.564  21.865  27.934  1.00  0.00    -0.744 OA
ENDBRANCH  73  77
ENDBRANCH  46  70
BRANCH  58  81
ATOM     81  C   UNL A   1      44.661  27.707  34.293  1.00  0.00     0.023 A 
ATOM     82  C   UNL A   1      44.536  26.601  35.156  1.00  0.00     0.031 A 
ATOM     83  C   UNL A   1      45.869  28.426  34.305  1.00  0.00     0.131 A 
ATOM     84  C   UNL A   1      45.582  26.276  36.030  1.00  0.00     0.055 A 
ATOM     85  C   UNL A   1      46.929  28.062  35.136  1.00  0.00     0.041 A 
ATOM     86  F   UNL A   1      46.033  29.496  33.512  1.00  0.00    -0.206 F 
ATOM     87  C   UNL A   1      46.782  26.994  36.016  1.00  0.00     0.022 A 
BRANCH  84  88
ATOM     88  S   UNL A   1      45.385  24.980  37.284  1.00  0.00     0.124 S 
ATOM     89  O   UNL A   1      45.187  23.790  36.459  1.00  0.00    -0.237 OA
ATOM     90  O   UNL A   1      46.661  25.042  37.991  1.00  0.00    -0.237 OA
ATOM     91  O   UNL A   1      44.220  25.403  38.051  1.00  0.00    -0.744 OA
ENDBRANCH  84  88
ENDBRANCH  58  81
ENDBRANCH  32  33
ENDBRANCH  24  27
ENDBRANCH   1  23
TORSDOF 15
ENDMDL
MODEL 3
REMARK VINA RESULT:     -12.1      5.413     10.396
REMARK SMILES Cc1cc(F)c([C@](C)(NC=O)C(=O)NCCCNC(=O)c2ccc(-c3c4nc(c(-c5cc(S(=O)(=O)[O-])ccc5F)c5ccc([nH]5)c(-c5cc(S(=O)(=O)[O-])ccc5F)c5nc(c(-c6cc(S(=O)(=O)[O-])ccc6F)c6ccc3[nH]6)C=C5)C=C4)cc2)cc1F
REMARK SMILES IDX 17 1 16 2 15 3 14 4 12 5 13 6 7 8 8 9 6 10 1 11 2 12 3 13
REMARK SMILES IDX 85 14 4 15 84 16 86 17 5 18 9 19 10 20 11 22 18 23 19 24
REMARK SMILES IDX 20 26 21 27 22 28 83 29 23 30 82 31 24 32 25 33 26 34 76 35
REMARK SMILES IDX 27 36 81 37 75 38 77 39 28 40 80 41 74 42 73 43 29 45 61 46
REMARK SMILES IDX 41 47 60 48 42 49 45 50 59 51 78 52 43 53 44 54 58 56 79 57
REMARK SMILES IDX 46 58 30 59 31 60 39 61 32 62 38 63 40 64 37 65 33 66 34 67
REMARK SMILES IDX 35 68 36 69 62 70 63 71 71 72 64 73 70 74 72 75 69 76 65 77
REMARK SMILES IDX 66 78 67 79 68 80 47 81 48 82 56 83 49 84 55 85 57 86 54 87
REMARK SMILES IDX 50 88 51 89 52 90 53 91
REMARK H PARENT 14 7 9 21 18 25 77 44 45 55
REMARK Flexibility Score: inf
ROOT
ATOM      1  C   UNL A   1      32.928  29.734  26.443  1.00  0.00     0.118 C 
ENDROOT
BRANCH   1   2
ATOM      2  C   UNL A   1      32.224  28.795  27.409  1.00  0.00     0.042 C 
BRANCH   2   3
ATOM      3  C   UNL A   1      31.511  27.640  26.726  1.00  0.00     0.117 C 
BRANCH   3   4
ATOM      4  N   UNL A   1      32.382  26.863  25.862  1.00  0.00    -0.354 N 
ATOM      5  C   UNL A   1      32.092  26.012  24.831  1.00  0.00     0.250 C 
ATOM      6  O   UNL A   1      33.058  25.522  24.236  1.00  0.00    -0.272 OA
ATOM      7  H   UNL A   1      33.343  26.965  26.051  1.00  0.00     0.163 HD
BRANCH   5   8
ATOM      8  C   UNL A   1      30.606  25.679  24.417  1.00  0.00     0.144 C 
ATOM      9  C   UNL A   1      30.601  24.535  23.378  1.00  0.00     0.051 C 
BRANCH   8  10
ATOM     10  C   UNL A   1      29.953  26.938  23.805  1.00  0.00     0.025 A 
ATOM     11  C   UNL A   1      27.967  30.227  21.766  1.00  0.00     0.047 C 
ATOM     12  C   UNL A   1      28.646  29.097  22.477  1.00  0.00    -0.012 A 
ATOM     13  C   UNL A   1      27.910  28.157  23.200  1.00  0.00     0.046 A 
ATOM     14  C   UNL A   1      30.032  28.977  22.463  1.00  0.00     0.126 A 
ATOM     15  C   UNL A   1      28.557  27.094  23.838  1.00  0.00     0.129 A 
ATOM     16  C   UNL A   1      30.681  27.930  23.119  1.00  0.00     0.049 A 
ATOM     17  F   UNL A   1      30.774  29.859  21.780  1.00  0.00    -0.207 F 
ATOM     18  F   UNL A   1      27.791  26.194  24.470  1.00  0.00    -0.207 F 
ENDBRANCH   8  10
BRANCH   8  19
ATOM     19  N   UNL A   1      29.878  25.196  25.607  1.00  0.00    -0.341 N 
ATOM     20  C   UNL A   1      30.326  24.214  26.439  1.00  0.00     0.338 C 
ATOM     21  H   UNL A   1      29.010  25.611  25.813  1.00  0.00     0.164 HD
ATOM     22  O   UNL A   1      29.578  23.662  27.242  1.00  0.00    -0.279 OA
ENDBRANCH   8  19
ENDBRANCH   5   8
ENDBRANCH   3   4
ENDBRANCH   2   3
ENDBRANCH   1   2
BRANCH   1  23
ATOM     23  N   UNL A   1      32.805  31.137  26.824  1.00  0.00    -0.352 N 
ATOM     24  C   UNL A   1      33.637  31.933  27.578  1.00  0.00     0.251 C 
ATOM     25  H   UNL A   1      31.996  31.588  26.487  1.00  0.00     0.163 HD
ATOM     26  O   UNL A   1      33.251  33.043  27.931  1.00  0.00    -0.269 OA
BRANCH  24  27
ATOM     27  C   UNL A   1      34.970  31.438  27.990  1.00  0.00     0.039 A 
ATOM     28  C   UNL A   1      35.141  30.117  28.402  1.00  0.00     0.014 A 
ATOM     29  C   UNL A   1      36.062  32.310  27.987  1.00  0.00     0.014 A 
ATOM     30  C   UNL A   1      36.325  29.736  29.020  1.00  0.00     0.010 A 
ATOM     31  C   UNL A   1      37.296  31.884  28.493  1.00  0.00     0.010 A 
ATOM     32  C   UNL A   1      37.423  30.611  29.071  1.00  0.00    -0.014 A 
BRANCH  32  33
ATOM     33  C   UNL A   1      38.683  30.163  29.727  1.00  0.00     0.031 A 
ATOM     34  C   UNL A   1      39.055  30.647  31.106  1.00  0.00     0.074 A 
ATOM     35  C   UNL A   1      39.461  29.256  29.098  1.00  0.00     0.049 A 
ATOM     36  N   UNL A   1      40.101  30.339  31.830  1.00  0.00    -0.248 NA
ATOM     37  C   UNL A   1      38.144  31.603  31.758  1.00  0.00     0.031 C 
ATOM     38  C   UNL A   1      39.190  28.703  27.769  1.00  0.00     0.029 A 
ATOM     39  N   UNL A   1      40.608  28.614  29.494  1.00  0.00    -0.354 N 
ATOM     40  C   UNL A   1      39.982  31.067  33.010  1.00  0.00     0.074 A 
ATOM     41  C   UNL A   1      38.784  31.866  32.890  1.00  0.00     0.031 C 
ATOM     42  C   UNL A   1      40.095  27.754  27.494  1.00  0.00     0.029 A 
ATOM     43  C   UNL A   1      41.067  27.691  28.581  1.00  0.00     0.049 A 
ATOM     44  H   UNL A   1      41.059  28.795  30.349  1.00  0.00     0.167 HD
ATOM     45  C   UNL A   1      40.788  31.051  34.098  1.00  0.00     0.034 A 
ATOM     46  C   UNL A   1      42.154  26.891  28.601  1.00  0.00     0.034 A 
ATOM     47  C   UNL A   1      41.962  30.223  34.214  1.00  0.00     0.049 A 
ATOM     48  C   UNL A   1      43.058  26.937  29.806  1.00  0.00     0.074 A 
ATOM     49  C   UNL A   1      42.835  30.129  35.284  1.00  0.00     0.029 A 
ATOM     50  N   UNL A   1      42.421  29.340  33.248  1.00  0.00    -0.354 N 
ATOM     51  N   UNL A   1      42.912  27.613  30.921  1.00  0.00    -0.248 NA
ATOM     52  C   UNL A   1      44.276  26.116  29.759  1.00  0.00     0.031 C 
ATOM     53  C   UNL A   1      43.855  29.243  34.941  1.00  0.00     0.029 A 
ATOM     54  C   UNL A   1      43.578  28.717  33.689  1.00  0.00     0.049 A 
ATOM     55  H   UNL A   1      41.988  29.178  32.378  1.00  0.00     0.167 HD
ATOM     56  C   UNL A   1      44.002  27.275  31.720  1.00  0.00     0.074 A 
ATOM     57  C   UNL A   1      44.781  26.312  30.970  1.00  0.00     0.031 C 
ATOM     58  C   UNL A   1      44.331  27.730  32.954  1.00  0.00     0.034 A 
BRANCH  45  59
ATOM     59  C   UNL A   1      40.444  31.923  35.282  1.00  0.00     0.023 A 
ATOM     60  C   UNL A   1      39.450  31.514  36.193  1.00  0.00     0.031 A 
ATOM     61  C   UNL A   1      40.961  33.225  35.405  1.00  0.00     0.131 A 
ATOM     62  C   UNL A   1      38.964  32.416  37.147  1.00  0.00     0.055 A 
ATOM     63  C   UNL A   1      40.507  34.105  36.389  1.00  0.00     0.041 A 
ATOM     64  F   UNL A   1      41.909  33.664  34.561  1.00  0.00    -0.206 F 
ATOM     65  C   UNL A   1      39.491  33.708  37.254  1.00  0.00     0.022 A 
BRANCH  62  66
ATOM     66  S   UNL A   1      37.573  31.981  38.228  1.00  0.00     0.124 S 
ATOM     67  O   UNL A   1      38.152  32.176  39.556  1.00  0.00    -0.237 OA
ATOM     68  O   UNL A   1      36.566  32.963  37.838  1.00  0.00    -0.237 OA
ATOM     69  O   UNL A   1      37.278  30.596  37.879  1.00  0.00    -0.744 OA
ENDBRANCH  62  66
ENDBRANCH  45  59
BRANCH  46  70
ATOM     70  C   UNL A   1      42.412  25.959  27.462  1.00  0.00     0.023 A 
ATOM     71  C   UNL A   1      41.887  24.654  27.454  1.00  0.00     0.031 A 
ATOM     72  C   UNL A   1      43.252  26.335  26.401  1.00  0.00     0.131 A 
ATOM     73  C   UNL A   1      42.261  23.754  26.448  1.00  0.00     0.055 A 
ATOM     74  C   UNL A   1      43.558  25.462  25.356  1.00  0.00     0.041 A 
ATOM     75  F   UNL A   1      43.793  27.563  26.367  1.00  0.00    -0.206 F 
ATOM     76  C   UNL A   1      43.076  24.157  25.385  1.00  0.00     0.022 A 
BRANCH  73  77
ATOM     77  S   UNL A   1      41.820  21.998  26.560  1.00  0.00     0.124 S 
ATOM     78  O   UNL A   1      42.415  21.456  25.342  1.00  0.00    -0.237 OA
ATOM     79  O   UNL A   1      42.468  21.605  27.809  1.00  0.00    -0.237 OA
ATOM     80  O   UNL A   1      40.361  22.013  26.599  1.00  0.00    -0.744 OA
ENDBRANCH  73  77
ENDBRANCH  46  70
BRANCH  58  81
ATOM     81  C   UNL A   1      45.576  27.192  33.618  1.00  0.00     0.023 A 
ATOM     82  C   UNL A   1      45.485  26.089  34.489  1.00  0.00     0.031 A 
ATOM     83  C   UNL A   1      46.809  27.860  33.519  1.00  0.00     0.131 A 
ATOM     84  C   UNL A   1      46.591  25.717  35.264  1.00  0.00     0.055 A 
ATOM     85  C   UNL A   1      47.924  27.449  34.250  1.00  0.00     0.041 A 
ATOM     86  F   UNL A   1      46.944  28.926  32.714  1.00  0.00    -0.206 F 
ATOM     87  C   UNL A   1      47.814  26.385  35.140  1.00  0.00     0.022 A 
BRANCH  84  88
ATOM     88  S   UNL A   1      46.456  24.426  36.530  1.00  0.00     0.124 S 
ATOM     89  O   UNL A   1      47.859  24.099  36.778  1.00  0.00    -0.237 OA
ATOM     90  O   UNL A   1      45.779  25.131  37.615  1.00  0.00    -0.237 OA
ATOM     91  O   UNL A   1      45.679  23.375  35.883  1.00  0.00    -0.744 OA
ENDBRANCH  84  88
ENDBRANCH  58  81
ENDBRANCH  32  33
ENDBRANCH  24  27
ENDBRANCH   1  23
TORSDOF 15
ENDMDL
