MODEL 1
REMARK VINA RESULT:     -12.7      0.000      0.000
REMARK SMILES CC1(C)[C@H](C(=O)NCCCNC(=O)c2ccc(-c3c4nc(c(-c5cc(S(=O)(=O)[O-])ccc5F)c5ccc([nH]5)c(-c5cc(S(=O)(=O)[O-])ccc5F)c5nc(c(-c6cc(S(=O)(=O)[O-])ccc6F)c6ccc3[nH]6)C=C5)C=C4)cc2)[C@H]1C(=O)Nc1cccc2[nH]ccc12
REMARK SMILES IDX 9 1 8 2 7 3 5 4 6 5 4 7 1 8 2 9 3 10 77 11 78 12 79 13 80 14
REMARK SMILES IDX 81 16 82 17 89 18 83 19 85 20 88 21 84 22 86 23 87 24 10 26
REMARK SMILES IDX 11 27 12 28 13 30 14 31 15 32 76 33 16 34 75 35 17 36 18 37
REMARK SMILES IDX 19 38 69 39 20 40 74 41 68 42 70 43 21 44 73 45 67 46 66 47
REMARK SMILES IDX 22 49 54 50 34 51 53 52 35 53 38 54 52 55 71 56 36 57 37 58
REMARK SMILES IDX 51 60 72 61 39 62 23 63 24 64 32 65 25 66 31 67 33 68 30 69
REMARK SMILES IDX 26 70 27 71 28 72 29 73 55 74 56 75 64 76 57 77 63 78 65 79
REMARK SMILES IDX 62 80 58 81 59 82 60 83 61 84 40 85 41 86 49 87 42 88 48 89
REMARK SMILES IDX 50 90 47 91 43 92 44 93 45 94 46 95
REMARK H PARENT 7 6 80 15 86 25 11 29 70 48 38 59
REMARK Flexibility Score: inf
ROOT
ATOM      1  C   UNL A   1      33.549  29.005  23.969  1.00  0.00     0.042 C 
ENDROOT
BRANCH   1   2
ATOM      2  C   UNL A   1      32.460  28.809  22.919  1.00  0.00     0.117 C 
BRANCH   2   3
ATOM      3  N   UNL A   1      32.830  27.814  21.940  1.00  0.00    -0.356 N 
ATOM      4  C   UNL A   1      32.950  26.457  21.950  1.00  0.00     0.224 C 
ATOM      5  O   UNL A   1      33.277  25.956  20.870  1.00  0.00    -0.275 OA
ATOM      6  H   UNL A   1      33.046  28.206  21.064  1.00  0.00     0.163 HD
BRANCH   4   7
ATOM      7  C   UNL A   1      32.723  25.514  23.080  1.00  0.00     0.098 C 
ATOM      8  C   UNL A   1      31.412  23.456  23.722  1.00  0.00     0.013 C 
ATOM      9  C   UNL A   1      32.691  23.980  23.122  1.00  0.00    -0.011 C 
ATOM     10  C   UNL A   1      33.275  22.921  22.230  1.00  0.00     0.013 C 
ATOM     11  C   UNL A   1      33.765  24.803  23.861  1.00  0.00     0.098 C 
BRANCH  11  12
ATOM     12  C   UNL A   1      34.010  24.704  25.333  1.00  0.00     0.228 C 
ATOM     13  O   UNL A   1      33.627  25.650  26.022  1.00  0.00    -0.274 OA
ATOM     14  N   UNL A   1      34.363  23.543  25.977  1.00  0.00    -0.325 N 
ATOM     15  H   UNL A   1      33.882  23.367  26.818  1.00  0.00     0.169 HD
BRANCH  14  16
ATOM     16  C   UNL A   1      35.305  22.577  25.617  1.00  0.00     0.050 A 
ATOM     17  C   UNL A   1      36.640  22.978  25.488  1.00  0.00     0.027 A 
ATOM     18  C   UNL A   1      34.954  21.265  25.222  1.00  0.00     0.023 A 
ATOM     19  C   UNL A   1      37.635  22.049  25.186  1.00  0.00     0.004 A 
ATOM     20  C   UNL A   1      35.978  20.341  24.999  1.00  0.00     0.047 A 
ATOM     21  C   UNL A   1      33.737  20.588  24.912  1.00  0.00     0.030 A 
ATOM     22  C   UNL A   1      37.329  20.699  25.002  1.00  0.00     0.027 A 
ATOM     23  N   UNL A   1      35.385  19.110  24.817  1.00  0.00    -0.361 N 
ATOM     24  C   UNL A   1      34.028  19.257  24.712  1.00  0.00     0.083 A 
ATOM     25  H   UNL A   1      35.865  18.253  24.771  1.00  0.00     0.166 HD
ENDBRANCH  14  16
ENDBRANCH  11  12
ENDBRANCH   4   7
ENDBRANCH   2   3
ENDBRANCH   1   2
BRANCH   1  26
ATOM     26  C   UNL A   1      33.038  29.058  25.403  1.00  0.00     0.118 C 
BRANCH  26  27
ATOM     27  N   UNL A   1      32.607  30.393  25.785  1.00  0.00    -0.352 N 
ATOM     28  C   UNL A   1      33.003  31.195  26.827  1.00  0.00     0.251 C 
ATOM     29  H   UNL A   1      31.919  30.786  25.201  1.00  0.00     0.163 HD
ATOM     30  O   UNL A   1      32.321  32.180  27.104  1.00  0.00    -0.269 OA
BRANCH  28  31
ATOM     31  C   UNL A   1      34.216  30.889  27.621  1.00  0.00     0.039 A 
ATOM     32  C   UNL A   1      35.144  31.909  27.859  1.00  0.00     0.014 A 
ATOM     33  C   UNL A   1      34.484  29.595  28.078  1.00  0.00     0.014 A 
ATOM     34  C   UNL A   1      36.304  31.644  28.596  1.00  0.00     0.010 A 
ATOM     35  C   UNL A   1      35.594  29.353  28.885  1.00  0.00     0.010 A 
ATOM     36  C   UNL A   1      36.526  30.370  29.140  1.00  0.00    -0.014 A 
BRANCH  36  37
ATOM     37  C   UNL A   1      37.742  30.063  29.942  1.00  0.00     0.031 A 
ATOM     38  C   UNL A   1      38.788  29.132  29.384  1.00  0.00     0.074 A 
ATOM     39  C   UNL A   1      37.879  30.570  31.183  1.00  0.00     0.049 A 
ATOM     40  N   UNL A   1      39.853  28.638  29.962  1.00  0.00    -0.248 NA
ATOM     41  C   UNL A   1      38.590  28.671  28.001  1.00  0.00     0.031 C 
ATOM     42  C   UNL A   1      36.927  31.467  31.840  1.00  0.00     0.029 A 
ATOM     43  N   UNL A   1      38.868  30.396  32.121  1.00  0.00    -0.354 N 
ATOM     44  C   UNL A   1      40.442  27.799  29.021  1.00  0.00     0.074 A 
ATOM     45  C   UNL A   1      39.579  27.803  27.859  1.00  0.00     0.031 C 
ATOM     46  C   UNL A   1      37.389  31.783  33.062  1.00  0.00     0.029 A 
ATOM     47  C   UNL A   1      38.640  31.069  33.299  1.00  0.00     0.049 A 
ATOM     48  H   UNL A   1      39.666  29.841  31.964  1.00  0.00     0.167 HD
ATOM     49  C   UNL A   1      41.608  27.112  29.105  1.00  0.00     0.034 A 
ATOM     50  C   UNL A   1      39.349  31.094  34.446  1.00  0.00     0.034 A 
ATOM     51  C   UNL A   1      42.468  27.134  30.262  1.00  0.00     0.049 A 
ATOM     52  C   UNL A   1      40.624  30.288  34.530  1.00  0.00     0.074 A 
ATOM     53  C   UNL A   1      43.685  26.500  30.447  1.00  0.00     0.029 A 
ATOM     54  N   UNL A   1      42.204  27.832  31.434  1.00  0.00    -0.354 N 
ATOM     55  N   UNL A   1      41.177  29.519  33.620  1.00  0.00    -0.248 NA
ATOM     56  C   UNL A   1      41.375  30.364  35.790  1.00  0.00     0.031 C 
ATOM     57  C   UNL A   1      44.126  26.764  31.747  1.00  0.00     0.029 A 
ATOM     58  C   UNL A   1      43.224  27.627  32.350  1.00  0.00     0.049 A 
ATOM     59  H   UNL A   1      41.410  28.390  31.592  1.00  0.00     0.167 HD
ATOM     60  C   UNL A   1      42.361  29.055  34.186  1.00  0.00     0.074 A 
ATOM     61  C   UNL A   1      42.447  29.638  35.508  1.00  0.00     0.031 C 
ATOM     62  C   UNL A   1      43.298  28.225  33.661  1.00  0.00     0.034 A 
BRANCH  49  63
ATOM     63  C   UNL A   1      42.008  26.267  27.918  1.00  0.00     0.023 A 
ATOM     64  C   UNL A   1      41.627  24.918  27.813  1.00  0.00     0.031 A 
ATOM     65  C   UNL A   1      42.791  26.812  26.885  1.00  0.00     0.131 A 
ATOM     66  C   UNL A   1      42.086  24.141  26.740  1.00  0.00     0.055 A 
ATOM     67  C   UNL A   1      43.176  26.055  25.776  1.00  0.00     0.041 A 
ATOM     68  F   UNL A   1      43.202  28.089  26.938  1.00  0.00    -0.206 F 
ATOM     69  C   UNL A   1      42.836  24.707  25.706  1.00  0.00     0.022 A 
BRANCH  66  70
ATOM     70  S   UNL A   1      41.801  22.351  26.781  1.00  0.00     0.124 S 
ATOM     71  O   UNL A   1      40.453  22.282  27.342  1.00  0.00    -0.237 OA
ATOM     72  O   UNL A   1      41.928  21.978  25.377  1.00  0.00    -0.237 OA
ATOM     73  O   UNL A   1      42.859  21.855  27.657  1.00  0.00    -0.744 OA
ENDBRANCH  66  70
ENDBRANCH  49  63
BRANCH  50  74
ATOM     74  C   UNL A   1      38.882  31.892  35.617  1.00  0.00     0.023 A 
ATOM     75  C   UNL A   1      38.314  31.263  36.738  1.00  0.00     0.031 A 
ATOM     76  C   UNL A   1      38.927  33.297  35.609  1.00  0.00     0.131 A 
ATOM     77  C   UNL A   1      37.758  32.033  37.769  1.00  0.00     0.055 A 
ATOM     78  C   UNL A   1      38.430  34.060  36.668  1.00  0.00     0.041 A 
ATOM     79  F   UNL A   1      39.461  33.954  34.565  1.00  0.00    -0.206 F 
ATOM     80  C   UNL A   1      37.823  33.428  37.749  1.00  0.00     0.022 A 
BRANCH  77  81
ATOM     81  S   UNL A   1      36.836  31.186  39.083  1.00  0.00     0.124 S 
ATOM     82  O   UNL A   1      36.640  29.864  38.500  1.00  0.00    -0.237 OA
ATOM     83  O   UNL A   1      37.767  31.264  40.203  1.00  0.00    -0.237 OA
ATOM     84  O   UNL A   1      35.626  31.993  39.222  1.00  0.00    -0.744 OA
ENDBRANCH  77  81
ENDBRANCH  50  74
BRANCH  62  85
ATOM     85  C   UNL A   1      44.527  27.958  34.494  1.00  0.00     0.023 A 
ATOM     86  C   UNL A   1      44.589  26.893  35.409  1.00  0.00     0.031 A 
ATOM     87  C   UNL A   1      45.655  28.790  34.366  1.00  0.00     0.131 A 
ATOM     88  C   UNL A   1      45.735  26.719  36.199  1.00  0.00     0.055 A 
ATOM     89  C   UNL A   1      46.814  28.575  35.111  1.00  0.00     0.041 A 
ATOM     90  F   UNL A   1      45.649  29.822  33.508  1.00  0.00    -0.206 F 
ATOM     91  C   UNL A   1      46.854  27.541  36.044  1.00  0.00     0.022 A 
BRANCH  88  92
ATOM     92  S   UNL A   1      45.715  25.448  37.493  1.00  0.00     0.124 S 
ATOM     93  O   UNL A   1      47.130  25.336  37.830  1.00  0.00    -0.237 OA
ATOM     94  O   UNL A   1      44.864  26.054  38.512  1.00  0.00    -0.237 OA
ATOM     95  O   UNL A   1      45.143  24.283  36.821  1.00  0.00    -0.744 OA
ENDBRANCH  88  92
ENDBRANCH  62  85
ENDBRANCH  36  37
ENDBRANCH  28  31
ENDBRANCH  26  27
ENDBRANCH   1  26
TORSDOF 15
ENDMDL
MODEL 2
REMARK VINA RESULT:     -12.5      3.349      4.976
REMARK SMILES CC1(C)[C@H](C(=O)NCCCNC(=O)c2ccc(-c3c4nc(c(-c5cc(S(=O)(=O)[O-])ccc5F)c5ccc([nH]5)c(-c5cc(S(=O)(=O)[O-])ccc5F)c5nc(c(-c6cc(S(=O)(=O)[O-])ccc6F)c6ccc3[nH]6)C=C5)C=C4)cc2)[C@H]1C(=O)Nc1cccc2[nH]ccc12
REMARK SMILES IDX 9 1 8 2 7 3 5 4 6 5 4 7 1 8 2 9 3 10 77 11 78 12 79 13 80 14
REMARK SMILES IDX 81 16 82 17 89 18 83 19 85 20 88 21 84 22 86 23 87 24 10 26
REMARK SMILES IDX 11 27 12 28 13 30 14 31 15 32 76 33 16 34 75 35 17 36 18 37
REMARK SMILES IDX 19 38 69 39 20 40 74 41 68 42 70 43 21 44 73 45 67 46 66 47
REMARK SMILES IDX 22 49 54 50 34 51 53 52 35 53 38 54 52 55 71 56 36 57 37 58
REMARK SMILES IDX 51 60 72 61 39 62 23 63 24 64 32 65 25 66 31 67 33 68 30 69
REMARK SMILES IDX 26 70 27 71 28 72 29 73 55 74 56 75 64 76 57 77 63 78 65 79
REMARK SMILES IDX 62 80 58 81 59 82 60 83 61 84 40 85 41 86 49 87 42 88 48 89
REMARK SMILES IDX 50 90 47 91 43 92 44 93 45 94 46 95
REMARK H PARENT 7 6 80 15 86 25 11 29 70 48 38 59
REMARK Flexibility Score: inf
ROOT
ATOM      1  C   UNL A   1      31.541  32.115  26.821  1.00  0.00     0.042 C 
ENDROOT
BRANCH   1   2
ATOM      2  C   UNL A   1      31.682  30.600  26.926  1.00  0.00     0.117 C 
BRANCH   2   3
ATOM      3  N   UNL A   1      32.996  30.214  27.387  1.00  0.00    -0.356 N 
ATOM      4  C   UNL A   1      33.937  29.324  26.964  1.00  0.00     0.224 C 
ATOM      5  O   UNL A   1      34.974  29.306  27.635  1.00  0.00    -0.275 OA
ATOM      6  H   UNL A   1      33.275  30.707  28.191  1.00  0.00     0.163 HD
BRANCH   4   7
ATOM      7  C   UNL A   1      33.880  28.395  25.803  1.00  0.00     0.098 C 
ATOM      8  C   UNL A   1      33.984  25.945  25.206  1.00  0.00     0.013 C 
ATOM      9  C   UNL A   1      33.090  27.096  25.588  1.00  0.00    -0.011 C 
ATOM     10  C   UNL A   1      31.837  26.548  26.210  1.00  0.00     0.013 C 
ATOM     11  C   UNL A   1      32.839  28.363  24.746  1.00  0.00     0.098 C 
BRANCH  11  12
ATOM     12  C   UNL A   1      32.935  28.393  23.253  1.00  0.00     0.228 C 
ATOM     13  O   UNL A   1      34.069  28.382  22.772  1.00  0.00    -0.274 OA
ATOM     14  N   UNL A   1      31.878  28.149  22.410  1.00  0.00    -0.325 N 
ATOM     15  H   UNL A   1      32.077  27.557  21.649  1.00  0.00     0.169 HD
BRANCH  14  16
ATOM     16  C   UNL A   1      30.564  28.619  22.471  1.00  0.00     0.050 A 
ATOM     17  C   UNL A   1      30.319  29.936  22.064  1.00  0.00     0.027 A 
ATOM     18  C   UNL A   1      29.510  27.892  23.070  1.00  0.00     0.023 A 
ATOM     19  C   UNL A   1      29.022  30.444  22.048  1.00  0.00     0.004 A 
ATOM     20  C   UNL A   1      28.212  28.397  22.972  1.00  0.00     0.047 A 
ATOM     21  C   UNL A   1      29.414  26.709  23.862  1.00  0.00     0.030 A 
ATOM     22  C   UNL A   1      27.934  29.660  22.439  1.00  0.00     0.027 A 
ATOM     23  N   UNL A   1      27.359  27.430  23.457  1.00  0.00    -0.361 N 
ATOM     24  C   UNL A   1      28.078  26.426  24.045  1.00  0.00     0.083 A 
ATOM     25  H   UNL A   1      26.377  27.457  23.389  1.00  0.00     0.166 HD
ENDBRANCH  14  16
ENDBRANCH  11  12
ENDBRANCH   4   7
ENDBRANCH   2   3
ENDBRANCH   1   2
BRANCH   1  26
ATOM     26  C   UNL A   1      32.839  32.884  27.025  1.00  0.00     0.118 C 
BRANCH  26  27
ATOM     27  N   UNL A   1      32.617  34.194  27.616  1.00  0.00    -0.352 N 
ATOM     28  C   UNL A   1      33.143  34.764  28.750  1.00  0.00     0.251 C 
ATOM     29  H   UNL A   1      31.986  34.766  27.122  1.00  0.00     0.163 HD
ATOM     30  O   UNL A   1      32.619  35.783  29.194  1.00  0.00    -0.269 OA
BRANCH  28  31
ATOM     31  C   UNL A   1      34.309  34.169  29.444  1.00  0.00     0.039 A 
ATOM     32  C   UNL A   1      34.088  33.337  30.547  1.00  0.00     0.014 A 
ATOM     33  C   UNL A   1      35.620  34.470  29.062  1.00  0.00     0.014 A 
ATOM     34  C   UNL A   1      35.172  32.771  31.228  1.00  0.00     0.010 A 
ATOM     35  C   UNL A   1      36.694  33.838  29.685  1.00  0.00     0.010 A 
ATOM     36  C   UNL A   1      36.485  32.993  30.785  1.00  0.00    -0.014 A 
BRANCH  36  37
ATOM     37  C   UNL A   1      37.657  32.392  31.479  1.00  0.00     0.031 A 
ATOM     38  C   UNL A   1      38.406  31.257  30.830  1.00  0.00     0.074 A 
ATOM     39  C   UNL A   1      38.009  32.823  32.707  1.00  0.00     0.049 A 
ATOM     40  N   UNL A   1      39.370  30.515  31.313  1.00  0.00    -0.248 NA
ATOM     41  C   UNL A   1      37.994  30.889  29.466  1.00  0.00     0.031 C 
ATOM     42  C   UNL A   1      37.350  33.900  33.447  1.00  0.00     0.029 A 
ATOM     43  N   UNL A   1      39.002  32.400  33.556  1.00  0.00    -0.354 N 
ATOM     44  C   UNL A   1      39.668  29.586  30.321  1.00  0.00     0.074 A 
ATOM     45  C   UNL A   1      38.738  29.819  29.236  1.00  0.00     0.031 C 
ATOM     46  C   UNL A   1      37.971  34.069  34.626  1.00  0.00     0.029 A 
ATOM     47  C   UNL A   1      39.035  33.078  34.753  1.00  0.00     0.049 A 
ATOM     48  H   UNL A   1      39.633  31.678  33.329  1.00  0.00     0.167 HD
ATOM     49  C   UNL A   1      40.643  28.644  30.303  1.00  0.00     0.034 A 
ATOM     50  C   UNL A   1      39.821  32.909  35.836  1.00  0.00     0.034 A 
ATOM     51  C   UNL A   1      41.576  28.436  31.383  1.00  0.00     0.049 A 
ATOM     52  C   UNL A   1      40.874  31.827  35.807  1.00  0.00     0.074 A 
ATOM     53  C   UNL A   1      42.621  27.532  31.460  1.00  0.00     0.029 A 
ATOM     54  N   UNL A   1      41.579  29.148  32.577  1.00  0.00    -0.354 N 
ATOM     55  N   UNL A   1      41.156  30.973  34.850  1.00  0.00    -0.248 NA
ATOM     56  C   UNL A   1      41.722  31.694  36.999  1.00  0.00     0.031 C 
ATOM     57  C   UNL A   1      43.216  27.654  32.720  1.00  0.00     0.029 A 
ATOM     58  C   UNL A   1      42.594  28.688  33.401  1.00  0.00     0.049 A 
ATOM     59  H   UNL A   1      40.953  29.872  32.803  1.00  0.00     0.167 HD
ATOM     60  C   UNL A   1      42.241  30.232  35.311  1.00  0.00     0.074 A 
ATOM     61  C   UNL A   1      42.568  30.746  36.624  1.00  0.00     0.031 C 
ATOM     62  C   UNL A   1      42.911  29.220  34.704  1.00  0.00     0.034 A 
BRANCH  49  63
ATOM     63  C   UNL A   1      40.737  27.759  29.082  1.00  0.00     0.023 A 
ATOM     64  C   UNL A   1      41.683  27.999  28.070  1.00  0.00     0.031 A 
ATOM     65  C   UNL A   1      39.863  26.669  28.920  1.00  0.00     0.131 A 
ATOM     66  C   UNL A   1      41.688  27.209  26.912  1.00  0.00     0.055 A 
ATOM     67  C   UNL A   1      39.927  25.834  27.801  1.00  0.00     0.041 A 
ATOM     68  F   UNL A   1      38.926  26.400  29.842  1.00  0.00    -0.206 F 
ATOM     69  C   UNL A   1      40.834  26.111  26.782  1.00  0.00     0.022 A 
BRANCH  66  70
ATOM     70  S   UNL A   1      42.735  27.716  25.521  1.00  0.00     0.124 S 
ATOM     71  O   UNL A   1      42.004  28.874  25.010  1.00  0.00    -0.237 OA
ATOM     72  O   UNL A   1      44.008  28.001  26.171  1.00  0.00    -0.237 OA
ATOM     73  O   UNL A   1      42.729  26.548  24.644  1.00  0.00    -0.744 OA
ENDBRANCH  66  70
ENDBRANCH  49  63
BRANCH  50  74
ATOM     74  C   UNL A   1      39.650  33.765  37.046  1.00  0.00     0.023 A 
ATOM     75  C   UNL A   1      40.495  34.863  37.279  1.00  0.00     0.031 A 
ATOM     76  C   UNL A   1      38.688  33.460  38.026  1.00  0.00     0.131 A 
ATOM     77  C   UNL A   1      40.408  35.572  38.485  1.00  0.00     0.055 A 
ATOM     78  C   UNL A   1      38.562  34.210  39.197  1.00  0.00     0.041 A 
ATOM     79  F   UNL A   1      37.851  32.424  37.857  1.00  0.00    -0.206 F 
ATOM     80  C   UNL A   1      39.438  35.263  39.441  1.00  0.00     0.022 A 
BRANCH  77  81
ATOM     81  S   UNL A   1      41.664  36.834  38.841  1.00  0.00     0.124 S 
ATOM     82  O   UNL A   1      42.422  36.200  39.914  1.00  0.00    -0.237 OA
ATOM     83  O   UNL A   1      42.344  36.953  37.556  1.00  0.00    -0.237 OA
ATOM     84  O   UNL A   1      40.873  37.997  39.237  1.00  0.00    -0.744 OA
ENDBRANCH  77  81
ENDBRANCH  50  74
BRANCH  62  85
ATOM     85  C   UNL A   1      44.108  28.654  35.428  1.00  0.00     0.023 A 
ATOM     86  C   UNL A   1      43.990  27.594  36.344  1.00  0.00     0.031 A 
ATOM     87  C   UNL A   1      45.387  29.190  35.195  1.00  0.00     0.131 A 
ATOM     88  C   UNL A   1      45.124  27.138  37.032  1.00  0.00     0.055 A 
ATOM     89  C   UNL A   1      46.520  28.693  35.838  1.00  0.00     0.041 A 
ATOM     90  F   UNL A   1      45.556  30.204  34.331  1.00  0.00    -0.206 F 
ATOM     91  C   UNL A   1      46.390  27.668  36.772  1.00  0.00     0.022 A 
BRANCH  88  92
ATOM     92  S   UNL A   1      44.911  25.893  38.334  1.00  0.00     0.124 S 
ATOM     93  O   UNL A   1      46.254  25.337  38.446  1.00  0.00    -0.237 OA
ATOM     94  O   UNL A   1      44.459  26.699  39.464  1.00  0.00    -0.237 OA
ATOM     95  O   UNL A   1      43.907  24.986  37.780  1.00  0.00    -0.744 OA
ENDBRANCH  88  92
ENDBRANCH  62  85
ENDBRANCH  36  37
ENDBRANCH  28  31
ENDBRANCH  26  27
ENDBRANCH   1  26
TORSDOF 15
ENDMDL
MODEL 3
REMARK VINA RESULT:     -12.5      1.481      1.728
REMARK SMILES CC1(C)[C@H](C(=O)NCCCNC(=O)c2ccc(-c3c4nc(c(-c5cc(S(=O)(=O)[O-])ccc5F)c5ccc([nH]5)c(-c5cc(S(=O)(=O)[O-])ccc5F)c5nc(c(-c6cc(S(=O)(=O)[O-])ccc6F)c6ccc3[nH]6)C=C5)C=C4)cc2)[C@H]1C(=O)Nc1cccc2[nH]ccc12
REMARK SMILES IDX 9 1 8 2 7 3 5 4 6 5 4 7 1 8 2 9 3 10 77 11 78 12 79 13 80 14
REMARK SMILES IDX 81 16 82 17 89 18 83 19 85 20 88 21 84 22 86 23 87 24 10 26
REMARK SMILES IDX 11 27 12 28 13 30 14 31 15 32 76 33 16 34 75 35 17 36 18 37
REMARK SMILES IDX 19 38 69 39 20 40 74 41 68 42 70 43 21 44 73 45 67 46 66 47
REMARK SMILES IDX 22 49 54 50 34 51 53 52 35 53 38 54 52 55 71 56 36 57 37 58
REMARK SMILES IDX 51 60 72 61 39 62 23 63 24 64 32 65 25 66 31 67 33 68 30 69
REMARK SMILES IDX 26 70 27 71 28 72 29 73 55 74 56 75 64 76 57 77 63 78 65 79
REMARK SMILES IDX 62 80 58 81 59 82 60 83 61 84 40 85 41 86 49 87 42 88 48 89
REMARK SMILES IDX 50 90 47 91 43 92 44 93 45 94 46 95
REMARK H PARENT 7 6 80 15 86 25 11 29 70 48 38 59
REMARK Flexibility Score: inf
ROOT
ATOM      1  C   UNL A   1      32.907  28.832  23.844  1.00  0.00     0.042 C 
ENDROOT
BRANCH   1   2
ATOM      2  C   UNL A   1      34.030  28.642  22.829  1.00  0.00     0.117 C 
BRANCH   2   3
ATOM      3  N   UNL A   1      33.664  27.705  21.793  1.00  0.00    -0.356 N 
ATOM      4  C   UNL A   1      33.187  26.430  21.777  1.00  0.00     0.224 C 
ATOM      5  O   UNL A   1      32.970  25.969  20.652  1.00  0.00    -0.275 OA
ATOM      6  H   UNL A   1      33.788  28.074  20.888  1.00  0.00     0.163 HD
BRANCH   4   7
ATOM      7  C   UNL A   1      32.884  25.539  22.931  1.00  0.00     0.098 C 
ATOM      8  C   UNL A   1      31.418  23.605  23.621  1.00  0.00     0.013 C 
ATOM      9  C   UNL A   1      32.735  24.014  23.016  1.00  0.00    -0.011 C 
ATOM     10  C   UNL A   1      33.243  22.889  22.159  1.00  0.00     0.013 C 
ATOM     11  C   UNL A   1      33.865  24.774  23.739  1.00  0.00     0.098 C 
BRANCH  11  12
ATOM     12  C   UNL A   1      34.094  24.699  25.216  1.00  0.00     0.228 C 
ATOM     13  O   UNL A   1      33.747  25.677  25.880  1.00  0.00    -0.274 OA
ATOM     14  N   UNL A   1      34.389  23.539  25.890  1.00  0.00    -0.325 N 
ATOM     15  H   UNL A   1      33.894  23.404  26.730  1.00  0.00     0.169 HD
BRANCH  14  16
ATOM     16  C   UNL A   1      35.290  22.523  25.561  1.00  0.00     0.050 A 
ATOM     17  C   UNL A   1      36.641  22.863  25.428  1.00  0.00     0.027 A 
ATOM     18  C   UNL A   1      34.884  21.218  25.199  1.00  0.00     0.023 A 
ATOM     19  C   UNL A   1      37.596  21.884  25.157  1.00  0.00     0.004 A 
ATOM     20  C   UNL A   1      35.867  20.245  25.006  1.00  0.00     0.047 A 
ATOM     21  C   UNL A   1      33.640  20.586  24.901  1.00  0.00     0.030 A 
ATOM     22  C   UNL A   1      37.233  20.544  25.006  1.00  0.00     0.027 A 
ATOM     23  N   UNL A   1      35.222  19.037  24.854  1.00  0.00    -0.361 N 
ATOM     24  C   UNL A   1      33.874  19.239  24.738  1.00  0.00     0.083 A 
ATOM     25  H   UNL A   1      35.665  18.158  24.834  1.00  0.00     0.166 HD
ENDBRANCH  14  16
ENDBRANCH  11  12
ENDBRANCH   4   7
ENDBRANCH   2   3
ENDBRANCH   1   2
BRANCH   1  26
ATOM     26  C   UNL A   1      33.382  29.131  25.260  1.00  0.00     0.118 C 
BRANCH  26  27
ATOM     27  N   UNL A   1      32.861  30.393  25.761  1.00  0.00    -0.352 N 
ATOM     28  C   UNL A   1      33.214  31.131  26.863  1.00  0.00     0.251 C 
ATOM     29  H   UNL A   1      32.135  30.782  25.220  1.00  0.00     0.163 HD
ATOM     30  O   UNL A   1      32.467  32.035  27.232  1.00  0.00    -0.269 OA
BRANCH  28  31
ATOM     31  C   UNL A   1      34.461  30.849  27.614  1.00  0.00     0.039 A 
ATOM     32  C   UNL A   1      35.405  31.871  27.765  1.00  0.00     0.014 A 
ATOM     33  C   UNL A   1      34.742  29.575  28.115  1.00  0.00     0.014 A 
ATOM     34  C   UNL A   1      36.596  31.629  28.459  1.00  0.00     0.010 A 
ATOM     35  C   UNL A   1      35.886  29.359  28.880  1.00  0.00     0.010 A 
ATOM     36  C   UNL A   1      36.835  30.379  29.048  1.00  0.00    -0.014 A 
BRANCH  36  37
ATOM     37  C   UNL A   1      38.085  30.097  29.806  1.00  0.00     0.031 A 
ATOM     38  C   UNL A   1      39.097  29.132  29.244  1.00  0.00     0.074 A 
ATOM     39  C   UNL A   1      38.282  30.658  31.015  1.00  0.00     0.049 A 
ATOM     40  N   UNL A   1      40.185  28.656  29.795  1.00  0.00    -0.248 NA
ATOM     41  C   UNL A   1      38.832  28.612  27.893  1.00  0.00     0.031 C 
ATOM     42  C   UNL A   1      37.368  31.593  31.674  1.00  0.00     0.029 A 
ATOM     43  N   UNL A   1      39.312  30.517  31.914  1.00  0.00    -0.354 N 
ATOM     44  C   UNL A   1      40.724  27.770  28.866  1.00  0.00     0.074 A 
ATOM     45  C   UNL A   1      39.808  27.729  27.745  1.00  0.00     0.031 C 
ATOM     46  C   UNL A   1      37.888  31.958  32.858  1.00  0.00     0.029 A 
ATOM     47  C   UNL A   1      39.144  31.245  33.069  1.00  0.00     0.049 A 
ATOM     48  H   UNL A   1      40.098  29.949  31.746  1.00  0.00     0.167 HD
ATOM     49  C   UNL A   1      41.887  27.077  28.928  1.00  0.00     0.034 A 
ATOM     50  C   UNL A   1      39.905  31.315  34.181  1.00  0.00     0.034 A 
ATOM     51  C   UNL A   1      42.800  27.143  30.042  1.00  0.00     0.049 A 
ATOM     52  C   UNL A   1      41.177  30.503  34.243  1.00  0.00     0.074 A 
ATOM     53  C   UNL A   1      44.019  26.507  30.199  1.00  0.00     0.029 A 
ATOM     54  N   UNL A   1      42.595  27.896  31.192  1.00  0.00    -0.354 N 
ATOM     55  N   UNL A   1      41.681  29.688  33.344  1.00  0.00    -0.248 NA
ATOM     56  C   UNL A   1      41.985  30.628  35.462  1.00  0.00     0.031 C 
ATOM     57  C   UNL A   1      44.523  26.826  31.465  1.00  0.00     0.029 A 
ATOM     58  C   UNL A   1      43.655  27.723  32.069  1.00  0.00     0.049 A 
ATOM     59  H   UNL A   1      41.813  28.468  31.360  1.00  0.00     0.167 HD
ATOM     60  C   UNL A   1      42.887  29.240  33.876  1.00  0.00     0.074 A 
ATOM     61  C   UNL A   1      43.038  29.881  35.165  1.00  0.00     0.031 C 
ATOM     62  C   UNL A   1      43.793  28.379  33.346  1.00  0.00     0.034 A 
BRANCH  49  63
ATOM     63  C   UNL A   1      42.227  26.176  27.764  1.00  0.00     0.023 A 
ATOM     64  C   UNL A   1      41.763  24.851  27.699  1.00  0.00     0.031 A 
ATOM     65  C   UNL A   1      43.034  26.643  26.711  1.00  0.00     0.131 A 
ATOM     66  C   UNL A   1      42.166  24.017  26.645  1.00  0.00     0.055 A 
ATOM     67  C   UNL A   1      43.365  25.833  25.622  1.00  0.00     0.041 A 
ATOM     68  F   UNL A   1      43.524  27.892  26.726  1.00  0.00    -0.206 F 
ATOM     69  C   UNL A   1      42.942  24.506  25.592  1.00  0.00     0.022 A 
BRANCH  66  70
ATOM     70  S   UNL A   1      41.770  22.250  26.738  1.00  0.00     0.124 S 
ATOM     71  O   UNL A   1      42.716  21.791  27.753  1.00  0.00    -0.237 OA
ATOM     72  O   UNL A   1      40.366  22.261  27.133  1.00  0.00    -0.237 OA
ATOM     73  O   UNL A   1      42.035  21.767  25.385  1.00  0.00    -0.744 OA
ENDBRANCH  66  70
ENDBRANCH  49  63
BRANCH  50  74
ATOM     74  C   UNL A   1      39.497  32.169  35.335  1.00  0.00     0.023 A 
ATOM     75  C   UNL A   1      38.817  31.619  36.434  1.00  0.00     0.031 A 
ATOM     76  C   UNL A   1      39.716  33.558  35.329  1.00  0.00     0.131 A 
ATOM     77  C   UNL A   1      38.323  32.456  37.444  1.00  0.00     0.055 A 
ATOM     78  C   UNL A   1      39.278  34.380  36.370  1.00  0.00     0.041 A 
ATOM     79  F   UNL A   1      40.363  34.140  34.306  1.00  0.00    -0.206 F 
ATOM     80  C   UNL A   1      38.560  33.832  37.428  1.00  0.00     0.022 A 
BRANCH  77  81
ATOM     81  S   UNL A   1      37.257  31.734  38.724  1.00  0.00     0.124 S 
ATOM     82  O   UNL A   1      37.020  30.397  38.190  1.00  0.00    -0.237 OA
ATOM     83  O   UNL A   1      38.109  31.812  39.905  1.00  0.00    -0.237 OA
ATOM     84  O   UNL A   1      36.094  32.618  38.735  1.00  0.00    -0.744 OA
ENDBRANCH  77  81
ENDBRANCH  50  74
BRANCH  62  85
ATOM     85  C   UNL A   1      45.058  28.139  34.133  1.00  0.00     0.023 A 
ATOM     86  C   UNL A   1      46.207  28.928  33.953  1.00  0.00     0.031 A 
ATOM     87  C   UNL A   1      45.110  27.097  35.077  1.00  0.00     0.131 A 
ATOM     88  C   UNL A   1      47.375  28.632  34.670  1.00  0.00     0.055 A 
ATOM     89  C   UNL A   1      46.256  26.845  35.830  1.00  0.00     0.041 A 
ATOM     90  F   UNL A   1      44.042  26.312  35.288  1.00  0.00    -0.206 F 
ATOM     91  C   UNL A   1      47.403  27.607  35.620  1.00  0.00     0.022 A 
BRANCH  88  92
ATOM     92  S   UNL A   1      48.890  29.554  34.287  1.00  0.00     0.124 S 
ATOM     93  O   UNL A   1      49.689  29.338  35.488  1.00  0.00    -0.237 OA
ATOM     94  O   UNL A   1      49.363  28.887  33.078  1.00  0.00    -0.237 OA
ATOM     95  O   UNL A   1      48.417  30.924  34.093  1.00  0.00    -0.744 OA
ENDBRANCH  88  92
ENDBRANCH  62  85
ENDBRANCH  36  37
ENDBRANCH  28  31
ENDBRANCH  26  27
ENDBRANCH   1  26
TORSDOF 15
ENDMDL
