MODEL 1
REMARK VINA RESULT:     -13.1      0.000      0.000
REMARK SMILES O=C(NC1(C(=O)NCCCNC(=O)c2ccc(-c3c4nc(c(-c5cc(S(=O)(=O)[O-])ccc5F)c5ccc([nH]5)c(-c5cc(S(=O)(=O)[O-])ccc5F)c5nc(c(-c6cc(S(=O)(=O)[O-])ccc6F)c6ccc3[nH]6)C=C5)C=C4)cc2)Cc2ccccc2C1)OCC1c2ccccc2-c2ccccc21
REMARK SMILES IDX 8 1 7 2 5 3 6 4 4 6 77 7 84 8 78 9 83 10 79 11 82 12 80 13
REMARK SMILES IDX 81 14 3 15 1 16 2 17 85 19 86 20 87 21 88 22 99 23 89 24
REMARK SMILES IDX 93 25 94 26 98 27 90 28 92 29 95 30 97 31 91 32 96 33 9 34
REMARK SMILES IDX 10 35 11 36 12 37 13 39 14 40 15 41 76 42 16 43 75 44 17 45
REMARK SMILES IDX 18 46 19 47 69 48 20 49 74 50 68 51 70 52 21 53 73 54 67 55
REMARK SMILES IDX 66 56 22 58 54 59 34 60 53 61 35 62 38 63 52 64 71 65 36 66
REMARK SMILES IDX 37 67 51 69 72 70 39 71 23 72 24 73 32 74 25 75 31 76 33 77
REMARK SMILES IDX 30 78 26 79 27 80 28 81 29 82 55 83 56 84 64 85 57 86 63 87
REMARK SMILES IDX 65 88 62 89 58 90 59 91 60 92 61 93 40 94 41 95 49 96 42 97
REMARK SMILES IDX 48 98 50 99 47 100 43 101 44 102 45 103 46 104
REMARK H PARENT 7 5 3 18 11 38 70 57 38 68
REMARK Flexibility Score: inf
ROOT
ATOM      1  C   UNL A   1      35.946  19.966  25.009  1.00  0.00     0.117 C 
ENDROOT
BRANCH   1   2
ATOM      2  N   UNL A   1      34.910  21.055  24.784  1.00  0.00    -0.354 N 
ATOM      3  C   UNL A   1      35.131  22.368  24.352  1.00  0.00     0.246 C 
ATOM      4  O   UNL A   1      36.042  22.561  23.535  1.00  0.00    -0.272 OA
ATOM      5  H   UNL A   1      33.973  20.808  24.963  1.00  0.00     0.163 HD
BRANCH   3   6
ATOM      6  C   UNL A   1      34.179  23.726  24.867  1.00  0.00     0.130 C 
ATOM      7  C   UNL A   1      32.850  23.679  23.957  1.00  0.00     0.075 C 
ATOM      8  C   UNL A   1      34.262  25.301  24.957  1.00  0.00     0.075 C 
ATOM      9  C   UNL A   1      32.912  24.967  23.110  1.00  0.00    -0.042 A 
ATOM     10  C   UNL A   1      33.611  25.930  23.802  1.00  0.00    -0.042 A 
ATOM     11  C   UNL A   1      32.598  25.275  21.794  1.00  0.00     0.004 A 
ATOM     12  C   UNL A   1      33.918  27.215  23.346  1.00  0.00     0.004 A 
ATOM     13  C   UNL A   1      32.992  26.530  21.252  1.00  0.00     0.000 A 
ATOM     14  C   UNL A   1      33.625  27.508  22.032  1.00  0.00     0.000 A 
BRANCH   6  15
ATOM     15  N   UNL A   1      34.201  23.421  26.288  1.00  0.00    -0.306 N 
ATOM     16  O   UNL A   1      32.834  22.760  27.999  1.00  0.00    -0.225 OA
ATOM     17  C   UNL A   1      32.965  23.316  26.934  1.00  0.00     0.408 C 
ATOM     18  H   UNL A   1      35.048  23.293  26.774  1.00  0.00     0.168 HD
BRANCH  17  19
ATOM     19  O   UNL A   1      31.960  24.018  26.301  1.00  0.00    -0.449 OA
BRANCH  19  20
ATOM     20  C   UNL A   1      30.999  24.943  26.941  1.00  0.00     0.248 C 
BRANCH  20  21
ATOM     21  C   UNL A   1      31.152  26.538  26.535  1.00  0.00     0.088 C 
ATOM     22  C   UNL A   1      30.496  26.887  25.191  1.00  0.00    -0.029 A 
ATOM     23  C   UNL A   1      32.211  27.767  26.620  1.00  0.00    -0.029 A 
ATOM     24  C   UNL A   1      29.522  26.204  24.490  1.00  0.00     0.005 A 
ATOM     25  C   UNL A   1      30.900  28.172  24.760  1.00  0.00    -0.014 A 
ATOM     26  C   UNL A   1      31.898  28.714  25.634  1.00  0.00    -0.014 A 
ATOM     27  C   UNL A   1      33.172  28.251  27.510  1.00  0.00     0.005 A 
ATOM     28  C   UNL A   1      28.959  26.824  23.371  1.00  0.00     0.000 A 
ATOM     29  C   UNL A   1      30.344  28.787  23.658  1.00  0.00     0.009 A 
ATOM     30  C   UNL A   1      32.446  30.018  25.590  1.00  0.00     0.009 A 
ATOM     31  C   UNL A   1      33.721  29.551  27.515  1.00  0.00     0.000 A 
ATOM     32  C   UNL A   1      29.361  28.103  22.962  1.00  0.00     0.001 A 
ATOM     33  C   UNL A   1      33.345  30.449  26.553  1.00  0.00     0.001 A 
ENDBRANCH  20  21
ENDBRANCH  19  20
ENDBRANCH  17  19
ENDBRANCH   6  15
ENDBRANCH   3   6
ENDBRANCH   1   2
BRANCH   1  34
ATOM     34  C   UNL A   1      37.416  20.419  24.694  1.00  0.00     0.042 C 
BRANCH  34  35
ATOM     35  C   UNL A   1      38.494  20.705  25.761  1.00  0.00     0.118 C 
BRANCH  35  36
ATOM     36  N   UNL A   1      39.623  19.759  25.752  1.00  0.00    -0.352 N 
ATOM     37  C   UNL A   1      40.979  19.816  26.035  1.00  0.00     0.251 C 
ATOM     38  H   UNL A   1      39.344  18.856  25.473  1.00  0.00     0.163 HD
ATOM     39  O   UNL A   1      41.609  18.759  25.904  1.00  0.00    -0.269 OA
BRANCH  37  40
ATOM     40  C   UNL A   1      41.759  21.033  26.445  1.00  0.00     0.039 A 
ATOM     41  C   UNL A   1      42.040  22.009  25.463  1.00  0.00     0.014 A 
ATOM     42  C   UNL A   1      42.276  21.253  27.717  1.00  0.00     0.014 A 
ATOM     43  C   UNL A   1      42.724  23.203  25.772  1.00  0.00     0.010 A 
ATOM     44  C   UNL A   1      42.890  22.478  28.047  1.00  0.00     0.010 A 
ATOM     45  C   UNL A   1      43.100  23.487  27.091  1.00  0.00    -0.014 A 
BRANCH  45  46
ATOM     46  C   UNL A   1      43.659  24.819  27.511  1.00  0.00     0.031 A 
ATOM     47  C   UNL A   1      42.758  25.897  28.077  1.00  0.00     0.074 A 
ATOM     48  C   UNL A   1      44.956  25.121  27.273  1.00  0.00     0.049 A 
ATOM     49  N   UNL A   1      43.001  27.171  28.273  1.00  0.00    -0.248 NA
ATOM     50  C   UNL A   1      41.394  25.490  28.438  1.00  0.00     0.031 C 
ATOM     51  C   UNL A   1      45.950  24.202  26.714  1.00  0.00     0.029 A 
ATOM     52  N   UNL A   1      45.662  26.294  27.441  1.00  0.00    -0.354 N 
ATOM     53  C   UNL A   1      41.808  27.727  28.729  1.00  0.00     0.074 A 
ATOM     54  C   UNL A   1      40.837  26.651  28.756  1.00  0.00     0.031 C 
ATOM     55  C   UNL A   1      47.128  24.835  26.596  1.00  0.00     0.029 A 
ATOM     56  C   UNL A   1      46.968  26.227  27.003  1.00  0.00     0.049 A 
ATOM     57  H   UNL A   1      45.269  27.104  27.838  1.00  0.00     0.167 HD
ATOM     58  C   UNL A   1      41.546  29.008  29.098  1.00  0.00     0.034 A 
ATOM     59  C   UNL A   1      47.924  27.177  26.902  1.00  0.00     0.034 A 
ATOM     60  C   UNL A   1      42.530  30.066  29.121  1.00  0.00     0.049 A 
ATOM     61  C   UNL A   1      47.604  28.595  27.313  1.00  0.00     0.074 A 
ATOM     62  C   UNL A   1      42.379  31.372  29.561  1.00  0.00     0.029 A 
ATOM     63  N   UNL A   1      43.843  29.947  28.691  1.00  0.00    -0.354 N 
ATOM     64  N   UNL A   1      46.476  29.088  27.771  1.00  0.00    -0.248 NA
ATOM     65  C   UNL A   1      48.685  29.584  27.192  1.00  0.00     0.031 C 
ATOM     66  C   UNL A   1      43.578  32.057  29.335  1.00  0.00     0.029 A 
ATOM     67  C   UNL A   1      44.501  31.161  28.823  1.00  0.00     0.049 A 
ATOM     68  H   UNL A   1      44.249  29.121  28.341  1.00  0.00     0.167 HD
ATOM     69  C   UNL A   1      46.727  30.436  28.019  1.00  0.00     0.074 A 
ATOM     70  C   UNL A   1      48.114  30.673  27.684  1.00  0.00     0.031 C 
ATOM     71  C   UNL A   1      45.884  31.393  28.482  1.00  0.00     0.034 A 
BRANCH  58  72
ATOM     72  C   UNL A   1      40.126  29.357  29.488  1.00  0.00     0.023 A 
ATOM     73  C   UNL A   1      39.723  29.448  30.831  1.00  0.00     0.031 A 
ATOM     74  C   UNL A   1      39.164  29.624  28.495  1.00  0.00     0.131 A 
ATOM     75  C   UNL A   1      38.385  29.731  31.143  1.00  0.00     0.055 A 
ATOM     76  C   UNL A   1      37.853  29.982  28.814  1.00  0.00     0.041 A 
ATOM     77  F   UNL A   1      39.485  29.542  27.194  1.00  0.00    -0.206 F 
ATOM     78  C   UNL A   1      37.453  30.024  30.145  1.00  0.00     0.022 A 
BRANCH  75  79
ATOM     79  S   UNL A   1      37.853  29.598  32.872  1.00  0.00     0.124 S 
ATOM     80  O   UNL A   1      36.760  30.567  32.918  1.00  0.00    -0.237 OA
ATOM     81  O   UNL A   1      37.468  28.196  32.978  1.00  0.00    -0.237 OA
ATOM     82  O   UNL A   1      39.044  29.977  33.628  1.00  0.00    -0.744 OA
ENDBRANCH  75  79
ENDBRANCH  58  72
BRANCH  59  83
ATOM     83  C   UNL A   1      49.277  26.849  26.354  1.00  0.00     0.023 A 
ATOM     84  C   UNL A   1      49.657  27.279  25.072  1.00  0.00     0.031 A 
ATOM     85  C   UNL A   1      50.179  26.039  27.067  1.00  0.00     0.131 A 
ATOM     86  C   UNL A   1      50.873  26.847  24.517  1.00  0.00     0.055 A 
ATOM     87  C   UNL A   1      51.415  25.664  26.536  1.00  0.00     0.041 A 
ATOM     88  F   UNL A   1      49.870  25.597  28.297  1.00  0.00    -0.206 F 
ATOM     89  C   UNL A   1      51.761  26.054  25.247  1.00  0.00     0.022 A 
BRANCH  86  90
ATOM     90  S   UNL A   1      51.224  27.243  22.781  1.00  0.00     0.124 S 
ATOM     91  O   UNL A   1      51.586  28.653  22.867  1.00  0.00    -0.237 OA
ATOM     92  O   UNL A   1      52.310  26.318  22.476  1.00  0.00    -0.237 OA
ATOM     93  O   UNL A   1      49.959  26.961  22.107  1.00  0.00    -0.744 OA
ENDBRANCH  86  90
ENDBRANCH  59  83
BRANCH  71  94
ATOM     94  C   UNL A   1      46.458  32.773  28.693  1.00  0.00     0.023 A 
ATOM     95  C   UNL A   1      46.608  33.682  27.632  1.00  0.00     0.031 A 
ATOM     96  C   UNL A   1      46.878  33.178  29.973  1.00  0.00     0.131 A 
ATOM     97  C   UNL A   1      47.215  34.928  27.856  1.00  0.00     0.055 A 
ATOM     98  C   UNL A   1      47.426  34.442  30.202  1.00  0.00     0.041 A 
ATOM     99  F   UNL A   1      46.762  32.350  31.024  1.00  0.00    -0.206 F 
ATOM    100  C   UNL A   1      47.609  35.320  29.138  1.00  0.00     0.022 A 
BRANCH  97 101
ATOM    101  S   UNL A   1      47.563  35.998  26.432  1.00  0.00     0.124 S 
ATOM    102  O   UNL A   1      48.375  37.050  27.035  1.00  0.00    -0.237 OA
ATOM    103  O   UNL A   1      48.263  35.093  25.526  1.00  0.00    -0.237 OA
ATOM    104  O   UNL A   1      46.236  36.417  25.985  1.00  0.00    -0.744 OA
ENDBRANCH  97 101
ENDBRANCH  71  94
ENDBRANCH  45  46
ENDBRANCH  37  40
ENDBRANCH  35  36
ENDBRANCH  34  35
ENDBRANCH   1  34
TORSDOF 17
ENDMDL
MODEL 2
REMARK VINA RESULT:     -13.0      5.364     10.916
REMARK SMILES O=C(NC1(C(=O)NCCCNC(=O)c2ccc(-c3c4nc(c(-c5cc(S(=O)(=O)[O-])ccc5F)c5ccc([nH]5)c(-c5cc(S(=O)(=O)[O-])ccc5F)c5nc(c(-c6cc(S(=O)(=O)[O-])ccc6F)c6ccc3[nH]6)C=C5)C=C4)cc2)Cc2ccccc2C1)OCC1c2ccccc2-c2ccccc21
REMARK SMILES IDX 8 1 7 2 5 3 6 4 4 6 77 7 84 8 78 9 83 10 79 11 82 12 80 13
REMARK SMILES IDX 81 14 3 15 1 16 2 17 85 19 86 20 87 21 88 22 99 23 89 24
REMARK SMILES IDX 93 25 94 26 98 27 90 28 92 29 95 30 97 31 91 32 96 33 9 34
REMARK SMILES IDX 10 35 11 36 12 37 13 39 14 40 15 41 76 42 16 43 75 44 17 45
REMARK SMILES IDX 18 46 19 47 69 48 20 49 74 50 68 51 70 52 21 53 73 54 67 55
REMARK SMILES IDX 66 56 22 58 54 59 34 60 53 61 35 62 38 63 52 64 71 65 36 66
REMARK SMILES IDX 37 67 51 69 72 70 39 71 23 72 24 73 32 74 25 75 31 76 33 77
REMARK SMILES IDX 30 78 26 79 27 80 28 81 29 82 55 83 56 84 64 85 57 86 63 87
REMARK SMILES IDX 65 88 62 89 58 90 59 91 60 92 61 93 40 94 41 95 49 96 42 97
REMARK SMILES IDX 48 98 50 99 47 100 43 101 44 102 45 103 46 104
REMARK H PARENT 7 5 3 18 11 38 70 57 38 68
REMARK Flexibility Score: inf
ROOT
ATOM      1  C   UNL A   1      31.785  29.590  27.230  1.00  0.00     0.117 C 
ENDROOT
BRANCH   1   2
ATOM      2  N   UNL A   1      32.550  28.708  26.257  1.00  0.00    -0.354 N 
ATOM      3  C   UNL A   1      32.028  27.743  25.388  1.00  0.00     0.246 C 
ATOM      4  O   UNL A   1      30.918  27.961  24.882  1.00  0.00    -0.272 OA
ATOM      5  H   UNL A   1      33.527  28.831  26.235  1.00  0.00     0.163 HD
BRANCH   3   6
ATOM      6  C   UNL A   1      32.865  26.284  24.954  1.00  0.00     0.130 C 
ATOM      7  C   UNL A   1      31.705  25.196  24.688  1.00  0.00     0.075 C 
ATOM      8  C   UNL A   1      33.914  25.265  25.548  1.00  0.00     0.075 C 
ATOM      9  C   UNL A   1      31.913  24.129  25.783  1.00  0.00    -0.042 A 
ATOM     10  C   UNL A   1      33.242  24.102  26.140  1.00  0.00    -0.042 A 
ATOM     11  C   UNL A   1      31.058  23.377  26.574  1.00  0.00     0.004 A 
ATOM     12  C   UNL A   1      33.814  23.299  27.131  1.00  0.00     0.004 A 
ATOM     13  C   UNL A   1      31.583  22.633  27.667  1.00  0.00     0.000 A 
ATOM     14  C   UNL A   1      32.959  22.571  27.928  1.00  0.00     0.000 A 
BRANCH   6  15
ATOM     15  N   UNL A   1      33.688  26.865  23.906  1.00  0.00    -0.306 N 
ATOM     16  O   UNL A   1      33.854  27.006  21.629  1.00  0.00    -0.225 OA
ATOM     17  C   UNL A   1      33.484  26.395  22.604  1.00  0.00     0.408 C 
ATOM     18  H   UNL A   1      34.359  27.559  24.104  1.00  0.00     0.168 HD
BRANCH  17  19
ATOM     19  O   UNL A   1      32.950  25.124  22.563  1.00  0.00    -0.449 OA
BRANCH  19  20
ATOM     20  C   UNL A   1      33.527  23.952  21.870  1.00  0.00     0.248 C 
BRANCH  20  21
ATOM     21  C   UNL A   1      34.403  22.914  22.814  1.00  0.00     0.088 C 
ATOM     22  C   UNL A   1      33.562  21.771  23.399  1.00  0.00    -0.029 A 
ATOM     23  C   UNL A   1      35.615  22.909  23.896  1.00  0.00    -0.029 A 
ATOM     24  C   UNL A   1      32.343  21.277  22.977  1.00  0.00     0.005 A 
ATOM     25  C   UNL A   1      34.281  21.094  24.412  1.00  0.00    -0.014 A 
ATOM     26  C   UNL A   1      35.524  21.752  24.684  1.00  0.00    -0.014 A 
ATOM     27  C   UNL A   1      36.818  23.583  24.112  1.00  0.00     0.005 A 
ATOM     28  C   UNL A   1      31.865  20.106  23.572  1.00  0.00     0.000 A 
ATOM     29  C   UNL A   1      33.812  19.936  24.998  1.00  0.00     0.009 A 
ATOM     30  C   UNL A   1      36.553  21.300  25.542  1.00  0.00     0.009 A 
ATOM     31  C   UNL A   1      37.878  23.151  24.936  1.00  0.00     0.000 A 
ATOM     32  C   UNL A   1      32.594  19.440  24.568  1.00  0.00     0.001 A 
ATOM     33  C   UNL A   1      37.751  21.990  25.650  1.00  0.00     0.001 A 
ENDBRANCH  20  21
ENDBRANCH  19  20
ENDBRANCH  17  19
ENDBRANCH   6  15
ENDBRANCH   3   6
ENDBRANCH   1   2
BRANCH   1  34
ATOM     34  C   UNL A   1      31.713  31.097  26.793  1.00  0.00     0.042 C 
BRANCH  34  35
ATOM     35  C   UNL A   1      32.911  32.071  26.803  1.00  0.00     0.118 C 
BRANCH  35  36
ATOM     36  N   UNL A   1      32.648  33.350  27.485  1.00  0.00    -0.352 N 
ATOM     37  C   UNL A   1      33.265  34.103  28.472  1.00  0.00     0.251 C 
ATOM     38  H   UNL A   1      31.824  33.778  27.157  1.00  0.00     0.163 HD
ATOM     39  O   UNL A   1      32.709  35.165  28.776  1.00  0.00    -0.269 OA
BRANCH  37  40
ATOM     40  C   UNL A   1      34.513  33.741  29.228  1.00  0.00     0.039 A 
ATOM     41  C   UNL A   1      34.405  32.815  30.289  1.00  0.00     0.014 A 
ATOM     42  C   UNL A   1      35.769  34.290  28.996  1.00  0.00     0.014 A 
ATOM     43  C   UNL A   1      35.533  32.384  31.019  1.00  0.00     0.010 A 
ATOM     44  C   UNL A   1      36.907  33.804  29.670  1.00  0.00     0.010 A 
ATOM     45  C   UNL A   1      36.817  32.823  30.672  1.00  0.00    -0.014 A 
BRANCH  45  46
ATOM     46  C   UNL A   1      38.067  32.255  31.287  1.00  0.00     0.031 A 
ATOM     47  C   UNL A   1      38.825  31.132  30.610  1.00  0.00     0.074 A 
ATOM     48  C   UNL A   1      38.464  32.654  32.517  1.00  0.00     0.049 A 
ATOM     49  N   UNL A   1      39.772  30.359  31.085  1.00  0.00    -0.248 NA
ATOM     50  C   UNL A   1      38.441  30.819  29.228  1.00  0.00     0.031 C 
ATOM     51  C   UNL A   1      37.831  33.709  33.311  1.00  0.00     0.029 A 
ATOM     52  N   UNL A   1      39.479  32.202  33.335  1.00  0.00    -0.354 N 
ATOM     53  C   UNL A   1      40.060  29.437  30.081  1.00  0.00     0.074 A 
ATOM     54  C   UNL A   1      39.166  29.736  28.981  1.00  0.00     0.031 C 
ATOM     55  C   UNL A   1      38.470  33.830  34.485  1.00  0.00     0.029 A 
ATOM     56  C   UNL A   1      39.518  32.819  34.568  1.00  0.00     0.049 A 
ATOM     57  H   UNL A   1      40.117  31.503  33.063  1.00  0.00     0.167 HD
ATOM     58  C   UNL A   1      40.985  28.441  30.072  1.00  0.00     0.034 A 
ATOM     59  C   UNL A   1      40.279  32.583  35.659  1.00  0.00     0.034 A 
ATOM     60  C   UNL A   1      41.911  28.180  31.150  1.00  0.00     0.049 A 
ATOM     61  C   UNL A   1      41.295  31.464  35.624  1.00  0.00     0.074 A 
ATOM     62  C   UNL A   1      42.939  27.251  31.196  1.00  0.00     0.029 A 
ATOM     63  N   UNL A   1      41.929  28.843  32.368  1.00  0.00    -0.354 N 
ATOM     64  N   UNL A   1      41.569  30.627  34.650  1.00  0.00    -0.248 NA
ATOM     65  C   UNL A   1      42.104  31.260  36.835  1.00  0.00     0.031 C 
ATOM     66  C   UNL A   1      43.531  27.307  32.462  1.00  0.00     0.029 A 
ATOM     67  C   UNL A   1      42.924  28.322  33.182  1.00  0.00     0.049 A 
ATOM     68  H   UNL A   1      41.322  29.577  32.620  1.00  0.00     0.167 HD
ATOM     69  C   UNL A   1      42.601  29.820  35.125  1.00  0.00     0.074 A 
ATOM     70  C   UNL A   1      42.915  30.284  36.459  1.00  0.00     0.031 C 
ATOM     71  C   UNL A   1      43.230  28.785  34.514  1.00  0.00     0.034 A 
BRANCH  58  72
ATOM     72  C   UNL A   1      41.033  27.531  28.865  1.00  0.00     0.023 A 
ATOM     73  C   UNL A   1      42.040  27.637  27.891  1.00  0.00     0.031 A 
ATOM     74  C   UNL A   1      40.063  26.523  28.699  1.00  0.00     0.131 A 
ATOM     75  C   UNL A   1      42.018  26.799  26.766  1.00  0.00     0.055 A 
ATOM     76  C   UNL A   1      40.092  25.642  27.616  1.00  0.00     0.041 A 
ATOM     77  F   UNL A   1      39.069  26.379  29.588  1.00  0.00    -0.206 F 
ATOM     78  C   UNL A   1      41.066  25.785  26.634  1.00  0.00     0.022 A 
BRANCH  75  79
ATOM     79  S   UNL A   1      43.185  27.129  25.418  1.00  0.00     0.124 S 
ATOM     80  O   UNL A   1      42.393  27.999  24.551  1.00  0.00    -0.237 OA
ATOM     81  O   UNL A   1      44.300  27.762  26.111  1.00  0.00    -0.237 OA
ATOM     82  O   UNL A   1      43.462  25.802  24.871  1.00  0.00    -0.744 OA
ENDBRANCH  75  79
ENDBRANCH  58  72
BRANCH  59  83
ATOM     83  C   UNL A   1      40.102  33.386  36.908  1.00  0.00     0.023 A 
ATOM     84  C   UNL A   1      39.334  32.894  37.977  1.00  0.00     0.031 A 
ATOM     85  C   UNL A   1      40.628  34.686  37.023  1.00  0.00     0.131 A 
ATOM     86  C   UNL A   1      39.063  33.716  39.084  1.00  0.00     0.055 A 
ATOM     87  C   UNL A   1      40.407  35.475  38.154  1.00  0.00     0.041 A 
ATOM     88  F   UNL A   1      41.369  35.210  36.033  1.00  0.00    -0.206 F 
ATOM     89  C   UNL A   1      39.606  34.998  39.186  1.00  0.00     0.022 A 
BRANCH  86  90
ATOM     90  S   UNL A   1      37.890  33.124  40.336  1.00  0.00     0.124 S 
ATOM     91  O   UNL A   1      36.738  32.767  39.516  1.00  0.00    -0.237 OA
ATOM     92  O   UNL A   1      38.623  32.013  40.933  1.00  0.00    -0.237 OA
ATOM     93  O   UNL A   1      37.706  34.285  41.203  1.00  0.00    -0.744 OA
ENDBRANCH  86  90
ENDBRANCH  59  83
BRANCH  71  94
ATOM     94  C   UNL A   1      44.353  28.118  35.270  1.00  0.00     0.023 A 
ATOM     95  C   UNL A   1      45.683  28.558  35.158  1.00  0.00     0.031 A 
ATOM     96  C   UNL A   1      44.091  27.014  36.102  1.00  0.00     0.131 A 
ATOM     97  C   UNL A   1      46.709  27.864  35.820  1.00  0.00     0.055 A 
ATOM     98  C   UNL A   1      45.107  26.364  36.805  1.00  0.00     0.041 A 
ATOM     99  F   UNL A   1      42.839  26.548  36.245  1.00  0.00    -0.206 F 
ATOM    100  C   UNL A   1      46.427  26.781  36.656  1.00  0.00     0.022 A 
BRANCH  97 101
ATOM    101  S   UNL A   1      48.430  28.342  35.503  1.00  0.00     0.124 S 
ATOM    102  O   UNL A   1      48.334  29.796  35.435  1.00  0.00    -0.237 OA
ATOM    103  O   UNL A   1      49.124  27.804  36.670  1.00  0.00    -0.237 OA
ATOM    104  O   UNL A   1      48.744  27.681  34.238  1.00  0.00    -0.744 OA
ENDBRANCH  97 101
ENDBRANCH  71  94
ENDBRANCH  45  46
ENDBRANCH  37  40
ENDBRANCH  35  36
ENDBRANCH  34  35
ENDBRANCH   1  34
TORSDOF 17
ENDMDL
MODEL 3
REMARK VINA RESULT:     -12.9      5.375     10.857
REMARK SMILES O=C(NC1(C(=O)NCCCNC(=O)c2ccc(-c3c4nc(c(-c5cc(S(=O)(=O)[O-])ccc5F)c5ccc([nH]5)c(-c5cc(S(=O)(=O)[O-])ccc5F)c5nc(c(-c6cc(S(=O)(=O)[O-])ccc6F)c6ccc3[nH]6)C=C5)C=C4)cc2)Cc2ccccc2C1)OCC1c2ccccc2-c2ccccc21
REMARK SMILES IDX 8 1 7 2 5 3 6 4 4 6 77 7 84 8 78 9 83 10 79 11 82 12 80 13
REMARK SMILES IDX 81 14 3 15 1 16 2 17 85 19 86 20 87 21 88 22 99 23 89 24
REMARK SMILES IDX 93 25 94 26 98 27 90 28 92 29 95 30 97 31 91 32 96 33 9 34
REMARK SMILES IDX 10 35 11 36 12 37 13 39 14 40 15 41 76 42 16 43 75 44 17 45
REMARK SMILES IDX 18 46 19 47 69 48 20 49 74 50 68 51 70 52 21 53 73 54 67 55
REMARK SMILES IDX 66 56 22 58 54 59 34 60 53 61 35 62 38 63 52 64 71 65 36 66
REMARK SMILES IDX 37 67 51 69 72 70 39 71 23 72 24 73 32 74 25 75 31 76 33 77
REMARK SMILES IDX 30 78 26 79 27 80 28 81 29 82 55 83 56 84 64 85 57 86 63 87
REMARK SMILES IDX 65 88 62 89 58 90 59 91 60 92 61 93 40 94 41 95 49 96 42 97
REMARK SMILES IDX 48 98 50 99 47 100 43 101 44 102 45 103 46 104
REMARK H PARENT 7 5 3 18 11 38 70 57 38 68
REMARK Flexibility Score: inf
ROOT
ATOM      1  C   UNL A   1      31.450  29.571  26.990  1.00  0.00     0.117 C 
ENDROOT
BRANCH   1   2
ATOM      2  N   UNL A   1      32.299  28.689  26.090  1.00  0.00    -0.354 N 
ATOM      3  C   UNL A   1      31.857  27.722  25.178  1.00  0.00     0.246 C 
ATOM      4  O   UNL A   1      30.796  27.940  24.575  1.00  0.00    -0.272 OA
ATOM      5  H   UNL A   1      33.274  28.811  26.155  1.00  0.00     0.163 HD
BRANCH   3   6
ATOM      6  C   UNL A   1      32.729  26.264  24.821  1.00  0.00     0.130 C 
ATOM      7  C   UNL A   1      31.595  25.161  24.511  1.00  0.00     0.075 C 
ATOM      8  C   UNL A   1      33.751  25.266  25.494  1.00  0.00     0.075 C 
ATOM      9  C   UNL A   1      31.749  24.117  25.637  1.00  0.00    -0.042 A 
ATOM     10  C   UNL A   1      33.056  24.108  26.069  1.00  0.00    -0.042 A 
ATOM     11  C   UNL A   1      30.857  23.372  26.392  1.00  0.00     0.004 A 
ATOM     12  C   UNL A   1      33.577  23.330  27.107  1.00  0.00     0.004 A 
ATOM     13  C   UNL A   1      31.325  22.653  27.528  1.00  0.00     0.000 A 
ATOM     14  C   UNL A   1      32.684  22.609  27.868  1.00  0.00     0.000 A 
BRANCH   6  15
ATOM     15  N   UNL A   1      33.606  26.833  23.811  1.00  0.00    -0.306 N 
ATOM     16  O   UNL A   1      33.861  26.988  21.543  1.00  0.00    -0.225 OA
ATOM     17  C   UNL A   1      33.440  26.379  22.498  1.00  0.00     0.408 C 
ATOM     18  H   UNL A   1      34.285  27.507  24.040  1.00  0.00     0.168 HD
BRANCH  17  19
ATOM     19  O   UNL A   1      32.875  25.122  22.425  1.00  0.00    -0.449 OA
BRANCH  19  20
ATOM     20  C   UNL A   1      33.474  23.928  21.790  1.00  0.00     0.248 C 
BRANCH  20  21
ATOM     21  C   UNL A   1      34.365  22.952  22.784  1.00  0.00     0.088 C 
ATOM     22  C   UNL A   1      33.552  21.799  23.388  1.00  0.00    -0.029 A 
ATOM     23  C   UNL A   1      35.553  23.023  23.889  1.00  0.00    -0.029 A 
ATOM     24  C   UNL A   1      32.359  21.250  22.959  1.00  0.00     0.005 A 
ATOM     25  C   UNL A   1      34.271  21.180  24.437  1.00  0.00    -0.014 A 
ATOM     26  C   UNL A   1      35.485  21.889  24.712  1.00  0.00    -0.014 A 
ATOM     27  C   UNL A   1      36.728  23.745  24.107  1.00  0.00     0.005 A 
ATOM     28  C   UNL A   1      31.910  20.082  23.581  1.00  0.00     0.000 A 
ATOM     29  C   UNL A   1      33.830  20.026  25.051  1.00  0.00     0.009 A 
ATOM     30  C   UNL A   1      36.511  21.500  25.605  1.00  0.00     0.009 A 
ATOM     31  C   UNL A   1      37.785  23.376  24.966  1.00  0.00     0.000 A 
ATOM     32  C   UNL A   1      32.639  19.473  24.613  1.00  0.00     0.001 A 
ATOM     33  C   UNL A   1      37.682  22.235  25.714  1.00  0.00     0.001 A 
ENDBRANCH  20  21
ENDBRANCH  19  20
ENDBRANCH  17  19
ENDBRANCH   6  15
ENDBRANCH   3   6
ENDBRANCH   1   2
BRANCH   1  34
ATOM     34  C   UNL A   1      31.547  31.101  26.649  1.00  0.00     0.042 C 
BRANCH  34  35
ATOM     35  C   UNL A   1      32.814  31.962  26.836  1.00  0.00     0.118 C 
BRANCH  35  36
ATOM     36  N   UNL A   1      32.569  33.271  27.467  1.00  0.00    -0.352 N 
ATOM     37  C   UNL A   1      33.209  34.063  28.409  1.00  0.00     0.251 C 
ATOM     38  H   UNL A   1      31.742  33.689  27.137  1.00  0.00     0.163 HD
ATOM     39  O   UNL A   1      32.663  35.140  28.678  1.00  0.00    -0.269 OA
BRANCH  37  40
ATOM     40  C   UNL A   1      34.469  33.727  29.157  1.00  0.00     0.039 A 
ATOM     41  C   UNL A   1      34.390  32.789  30.210  1.00  0.00     0.014 A 
ATOM     42  C   UNL A   1      35.709  34.312  28.925  1.00  0.00     0.014 A 
ATOM     43  C   UNL A   1      35.531  32.381  30.931  1.00  0.00     0.010 A 
ATOM     44  C   UNL A   1      36.862  33.850  29.590  1.00  0.00     0.010 A 
ATOM     45  C   UNL A   1      36.802  32.857  30.584  1.00  0.00    -0.014 A 
BRANCH  45  46
ATOM     46  C   UNL A   1      38.069  32.317  31.188  1.00  0.00     0.031 A 
ATOM     47  C   UNL A   1      38.813  31.169  30.538  1.00  0.00     0.074 A 
ATOM     48  C   UNL A   1      38.497  32.766  32.390  1.00  0.00     0.049 A 
ATOM     49  N   UNL A   1      39.775  30.418  31.019  1.00  0.00    -0.248 NA
ATOM     50  C   UNL A   1      38.394  30.800  29.180  1.00  0.00     0.031 C 
ATOM     51  C   UNL A   1      37.881  33.851  33.157  1.00  0.00     0.029 A 
ATOM     52  N   UNL A   1      39.534  32.350  33.200  1.00  0.00    -0.354 N 
ATOM     53  C   UNL A   1      40.039  29.456  30.046  1.00  0.00     0.074 A 
ATOM     54  C   UNL A   1      39.116  29.709  28.958  1.00  0.00     0.031 C 
ATOM     55  C   UNL A   1      38.550  34.021  34.308  1.00  0.00     0.029 A 
ATOM     56  C   UNL A   1      39.603  33.016  34.405  1.00  0.00     0.049 A 
ATOM     57  H   UNL A   1      40.166  31.642  32.939  1.00  0.00     0.167 HD
ATOM     58  C   UNL A   1      40.966  28.463  30.053  1.00  0.00     0.034 A 
ATOM     59  C   UNL A   1      40.393  32.825  35.485  1.00  0.00     0.034 A 
ATOM     60  C   UNL A   1      41.920  28.247  31.116  1.00  0.00     0.049 A 
ATOM     61  C   UNL A   1      41.411  31.708  35.468  1.00  0.00     0.074 A 
ATOM     62  C   UNL A   1      42.952  27.322  31.173  1.00  0.00     0.029 A 
ATOM     63  N   UNL A   1      41.967  28.959  32.306  1.00  0.00    -0.354 N 
ATOM     64  N   UNL A   1      41.662  30.833  34.522  1.00  0.00    -0.248 NA
ATOM     65  C   UNL A   1      42.251  31.555  36.665  1.00  0.00     0.031 C 
ATOM     66  C   UNL A   1      43.577  27.431  32.420  1.00  0.00     0.029 A 
ATOM     67  C   UNL A   1      42.985  28.473  33.114  1.00  0.00     0.049 A 
ATOM     68  H   UNL A   1      41.365  29.701  32.543  1.00  0.00     0.167 HD
ATOM     69  C   UNL A   1      42.708  30.048  35.003  1.00  0.00     0.074 A 
ATOM     70  C   UNL A   1      43.055  30.566  36.308  1.00  0.00     0.031 C 
ATOM     71  C   UNL A   1      43.324  28.990  34.418  1.00  0.00     0.034 A 
BRANCH  58  72
ATOM     72  C   UNL A   1      40.985  27.504  28.883  1.00  0.00     0.023 A 
ATOM     73  C   UNL A   1      41.949  27.591  27.864  1.00  0.00     0.031 A 
ATOM     74  C   UNL A   1      40.032  26.471  28.798  1.00  0.00     0.131 A 
ATOM     75  C   UNL A   1      41.901  26.707  26.776  1.00  0.00     0.055 A 
ATOM     76  C   UNL A   1      40.037  25.546  27.752  1.00  0.00     0.041 A 
ATOM     77  F   UNL A   1      39.078  26.343  29.733  1.00  0.00    -0.206 F 
ATOM     78  C   UNL A   1      40.968  25.669  26.725  1.00  0.00     0.022 A 
BRANCH  75  79
ATOM     79  S   UNL A   1      43.005  27.005  25.369  1.00  0.00     0.124 S 
ATOM     80  O   UNL A   1      44.248  27.372  26.043  1.00  0.00    -0.237 OA
ATOM     81  O   UNL A   1      43.004  25.717  24.687  1.00  0.00    -0.237 OA
ATOM     82  O   UNL A   1      42.352  28.095  24.646  1.00  0.00    -0.744 OA
ENDBRANCH  75  79
ENDBRANCH  58  72
BRANCH  59  83
ATOM     83  C   UNL A   1      40.246  33.679  36.704  1.00  0.00     0.023 A 
ATOM     84  C   UNL A   1      41.099  34.772  36.924  1.00  0.00     0.031 A 
ATOM     85  C   UNL A   1      39.306  33.369  37.704  1.00  0.00     0.131 A 
ATOM     86  C   UNL A   1      41.039  35.478  38.138  1.00  0.00     0.055 A 
ATOM     87  C   UNL A   1      39.208  34.114  38.882  1.00  0.00     0.041 A 
ATOM     88  F   UNL A   1      38.464  32.334  37.551  1.00  0.00    -0.206 F 
ATOM     89  C   UNL A   1      40.089  35.165  39.112  1.00  0.00     0.022 A 
BRANCH  86  90
ATOM     90  S   UNL A   1      42.300  36.739  38.471  1.00  0.00     0.124 S 
ATOM     91  O   UNL A   1      41.538  37.729  39.223  1.00  0.00    -0.237 OA
ATOM     92  O   UNL A   1      43.291  35.981  39.227  1.00  0.00    -0.237 OA
ATOM     93  O   UNL A   1      42.723  37.157  37.136  1.00  0.00    -0.744 OA
ENDBRANCH  86  90
ENDBRANCH  59  83
BRANCH  71  94
ATOM     94  C   UNL A   1      44.469  28.357  35.171  1.00  0.00     0.023 A 
ATOM     95  C   UNL A   1      44.300  27.178  35.917  1.00  0.00     0.031 A 
ATOM     96  C   UNL A   1      45.743  28.952  35.156  1.00  0.00     0.131 A 
ATOM     97  C   UNL A   1      45.371  26.661  36.663  1.00  0.00     0.055 A 
ATOM     98  C   UNL A   1      46.821  28.400  35.852  1.00  0.00     0.041 A 
ATOM     99  F   UNL A   1      45.963  30.081  34.463  1.00  0.00    -0.206 F 
ATOM    100  C   UNL A   1      46.635  27.256  36.621  1.00  0.00     0.022 A 
BRANCH  97 101
ATOM    101  S   UNL A   1      45.068  25.249  37.761  1.00  0.00     0.124 S 
ATOM    102  O   UNL A   1      46.338  24.535  37.695  1.00  0.00    -0.237 OA
ATOM    103  O   UNL A   1      44.769  25.901  39.033  1.00  0.00    -0.237 OA
ATOM    104  O   UNL A   1      43.937  24.565  37.137  1.00  0.00    -0.744 OA
ENDBRANCH  97 101
ENDBRANCH  71  94
ENDBRANCH  45  46
ENDBRANCH  37  40
ENDBRANCH  35  36
ENDBRANCH  34  35
ENDBRANCH   1  34
TORSDOF 17
ENDMDL
