MODEL 1
REMARK VINA RESULT:     -10.9      0.000      0.000
REMARK SMILES C#CCN(CC(=O)NCCCNC(=O)c1ccc(-c2c3nc(c(-c4cc(S(=O)(=O)[O-])ccc4F)c4ccc([nH]4)c(-c4cc(S(=O)(=O)[O-])ccc4F)c4nc(c(-c5cc(S(=O)(=O)[O-])ccc5F)c5ccc2[nH]5)C=C4)C=C3)cc1)C(=O)Nc1cccc(C#N)c1
REMARK SMILES IDX 9 1 8 2 6 3 7 4 5 6 4 7 3 8 2 9 1 10 78 11 79 12 80 13 81 15
REMARK SMILES IDX 82 16 88 17 83 18 85 19 84 20 86 21 87 22 10 23 11 24 12 25
REMARK SMILES IDX 13 26 14 28 15 29 16 30 77 31 17 32 76 33 18 34 19 35 20 36
REMARK SMILES IDX 70 37 21 38 75 39 69 40 71 41 22 42 74 43 68 44 67 45 23 47
REMARK SMILES IDX 55 48 35 49 54 50 36 51 39 52 53 53 72 54 37 55 38 56 52 58
REMARK SMILES IDX 73 59 40 60 24 61 25 62 33 63 26 64 32 65 34 66 31 67 27 68
REMARK SMILES IDX 28 69 29 70 30 71 56 72 57 73 65 74 58 75 64 76 66 77 63 78
REMARK SMILES IDX 59 79 60 80 61 81 62 82 41 83 42 84 50 85 43 86 49 87 51 88
REMARK SMILES IDX 48 89 44 90 45 91 46 92 47 93
REMARK H PARENT 8 5 80 14 12 27 71 46 39 57
REMARK Flexibility Score: inf
ROOT
ATOM      1  C   UNL A   1      35.230  20.671  25.208  1.00  0.00     0.117 C 
ENDROOT
BRANCH   1   2
ATOM      2  N   UNL A   1      34.570  21.119  26.408  1.00  0.00    -0.354 N 
ATOM      3  C   UNL A   1      33.465  21.873  26.585  1.00  0.00     0.239 C 
ATOM      4  O   UNL A   1      33.538  22.611  27.571  1.00  0.00    -0.273 OA
ATOM      5  H   UNL A   1      35.000  20.824  27.244  1.00  0.00     0.163 HD
BRANCH   3   6
ATOM      6  C   UNL A   1      32.157  21.735  25.766  1.00  0.00     0.222 C 
BRANCH   6   7
ATOM      7  N   UNL A   1      31.327  22.912  25.502  1.00  0.00    -0.304 N 
BRANCH   7   8
ATOM      8  C   UNL A   1      31.214  23.249  24.081  1.00  0.00     0.211 C 
BRANCH   8   9
ATOM      9  C   UNL A   1      32.486  23.701  23.382  1.00  0.00    -0.085 C 
ATOM     10  C   UNL A   1      33.578  24.089  22.783  1.00  0.00     0.006 C 
ENDBRANCH   8   9
ENDBRANCH   7   8
BRANCH   7  11
ATOM     11  C   UNL A   1      30.731  23.774  26.397  1.00  0.00     0.323 C 
ATOM     12  O   UNL A   1      29.959  23.342  27.264  1.00  0.00    -0.248 OA
ATOM     13  N   UNL A   1      31.065  25.083  26.557  1.00  0.00    -0.308 N 
ATOM     14  H   UNL A   1      30.832  25.400  27.459  1.00  0.00     0.171 HD
BRANCH  13  15
ATOM     15  C   UNL A   1      31.646  26.106  25.799  1.00  0.00     0.044 A 
ATOM     16  C   UNL A   1      32.999  26.405  25.993  1.00  0.00     0.026 A 
ATOM     17  C   UNL A   1      30.923  26.884  24.911  1.00  0.00     0.045 A 
ATOM     18  C   UNL A   1      33.648  27.321  25.157  1.00  0.00     0.004 A 
ATOM     19  C   UNL A   1      31.574  27.720  23.997  1.00  0.00     0.054 A 
ATOM     20  C   UNL A   1      32.947  27.933  24.120  1.00  0.00     0.019 A 
BRANCH  19  21
ATOM     21  C   UNL A   1      30.878  28.280  22.868  1.00  0.00     0.099 C 
ATOM     22  N   UNL A   1      30.231  28.691  22.001  1.00  0.00    -0.192 NA
ENDBRANCH  19  21
ENDBRANCH  13  15
ENDBRANCH   7  11
ENDBRANCH   6   7
ENDBRANCH   3   6
ENDBRANCH   1   2
BRANCH   1  23
ATOM     23  C   UNL A   1      36.042  21.789  24.558  1.00  0.00     0.042 C 
BRANCH  23  24
ATOM     24  C   UNL A   1      37.095  22.440  25.457  1.00  0.00     0.118 C 
BRANCH  24  25
ATOM     25  N   UNL A   1      38.063  21.493  25.986  1.00  0.00    -0.352 N 
ATOM     26  C   UNL A   1      39.322  21.676  26.486  1.00  0.00     0.251 C 
ATOM     27  H   UNL A   1      37.758  20.557  25.984  1.00  0.00     0.163 HD
ATOM     28  O   UNL A   1      40.061  20.702  26.601  1.00  0.00    -0.269 OA
BRANCH  26  29
ATOM     29  C   UNL A   1      39.795  23.021  26.871  1.00  0.00     0.039 A 
ATOM     30  C   UNL A   1      40.635  23.141  27.980  1.00  0.00     0.014 A 
ATOM     31  C   UNL A   1      39.367  24.164  26.191  1.00  0.00     0.014 A 
ATOM     32  C   UNL A   1      41.082  24.402  28.373  1.00  0.00     0.010 A 
ATOM     33  C   UNL A   1      39.890  25.411  26.525  1.00  0.00     0.010 A 
ATOM     34  C   UNL A   1      40.743  25.545  27.629  1.00  0.00    -0.014 A 
BRANCH  34  35
ATOM     35  C   UNL A   1      41.272  26.879  28.012  1.00  0.00     0.031 A 
ATOM     36  C   UNL A   1      42.693  27.258  27.690  1.00  0.00     0.074 A 
ATOM     37  C   UNL A   1      40.469  27.743  28.665  1.00  0.00     0.049 A 
ATOM     38  N   UNL A   1      43.324  28.377  27.939  1.00  0.00    -0.248 NA
ATOM     39  C   UNL A   1      43.519  26.239  27.027  1.00  0.00     0.031 C 
ATOM     40  C   UNL A   1      39.087  27.468  29.065  1.00  0.00     0.029 A 
ATOM     41  N   UNL A   1      40.689  29.026  29.099  1.00  0.00    -0.354 N 
ATOM     42  C   UNL A   1      44.619  28.197  27.465  1.00  0.00     0.074 A 
ATOM     43  C   UNL A   1      44.701  26.836  26.982  1.00  0.00     0.031 C 
ATOM     44  C   UNL A   1      38.569  28.564  29.640  1.00  0.00     0.029 A 
ATOM     45  C   UNL A   1      39.594  29.600  29.705  1.00  0.00     0.049 A 
ATOM     46  H   UNL A   1      41.549  29.492  28.987  1.00  0.00     0.167 HD
ATOM     47  C   UNL A   1      45.638  29.092  27.414  1.00  0.00     0.034 A 
ATOM     48  C   UNL A   1      39.436  30.818  30.257  1.00  0.00     0.034 A 
ATOM     49  C   UNL A   1      45.535  30.446  27.905  1.00  0.00     0.049 A 
ATOM     50  C   UNL A   1      40.597  31.782  30.228  1.00  0.00     0.074 A 
ATOM     51  C   UNL A   1      46.487  31.449  27.867  1.00  0.00     0.029 A 
ATOM     52  N   UNL A   1      44.420  30.983  28.537  1.00  0.00    -0.354 N 
ATOM     53  N   UNL A   1      41.799  31.611  29.728  1.00  0.00    -0.248 NA
ATOM     54  C   UNL A   1      40.373  33.104  30.823  1.00  0.00     0.031 C 
ATOM     55  C   UNL A   1      45.984  32.558  28.552  1.00  0.00     0.029 A 
ATOM     56  C   UNL A   1      44.677  32.289  28.927  1.00  0.00     0.049 A 
ATOM     57  H   UNL A   1      43.572  30.506  28.687  1.00  0.00     0.167 HD
ATOM     58  C   UNL A   1      42.462  32.822  29.915  1.00  0.00     0.074 A 
ATOM     59  C   UNL A   1      41.518  33.713  30.559  1.00  0.00     0.031 C 
ATOM     60  C   UNL A   1      43.731  33.168  29.577  1.00  0.00     0.034 A 
BRANCH  47  61
ATOM     61  C   UNL A   1      46.953  28.624  26.836  1.00  0.00     0.023 A 
ATOM     62  C   UNL A   1      47.140  28.465  25.451  1.00  0.00     0.031 A 
ATOM     63  C   UNL A   1      48.032  28.313  27.682  1.00  0.00     0.131 A 
ATOM     64  C   UNL A   1      48.346  27.938  24.961  1.00  0.00     0.055 A 
ATOM     65  C   UNL A   1      49.260  27.875  27.181  1.00  0.00     0.041 A 
ATOM     66  F   UNL A   1      47.910  28.418  29.014  1.00  0.00    -0.206 F 
ATOM     67  C   UNL A   1      49.418  27.669  25.814  1.00  0.00     0.022 A 
BRANCH  64  68
ATOM     68  S   UNL A   1      48.434  27.459  23.214  1.00  0.00     0.124 S 
ATOM     69  O   UNL A   1      47.280  28.161  22.657  1.00  0.00    -0.237 OA
ATOM     70  O   UNL A   1      49.743  27.962  22.814  1.00  0.00    -0.237 OA
ATOM     71  O   UNL A   1      48.309  26.003  23.251  1.00  0.00    -0.744 OA
ENDBRANCH  64  68
ENDBRANCH  47  61
BRANCH  48  72
ATOM     72  C   UNL A   1      38.141  31.198  30.893  1.00  0.00     0.023 A 
ATOM     73  C   UNL A   1      37.129  31.837  30.159  1.00  0.00     0.031 A 
ATOM     74  C   UNL A   1      37.912  30.967  32.262  1.00  0.00     0.131 A 
ATOM     75  C   UNL A   1      35.962  32.272  30.805  1.00  0.00     0.055 A 
ATOM     76  C   UNL A   1      36.722  31.341  32.887  1.00  0.00     0.041 A 
ATOM     77  F   UNL A   1      38.844  30.359  33.014  1.00  0.00    -0.206 F 
ATOM     78  C   UNL A   1      35.744  32.012  32.160  1.00  0.00     0.022 A 
BRANCH  75  79
ATOM     79  S   UNL A   1      34.778  33.282  29.874  1.00  0.00     0.124 S 
ATOM     80  O   UNL A   1      33.979  33.865  30.946  1.00  0.00    -0.237 OA
ATOM     81  O   UNL A   1      35.658  34.198  29.158  1.00  0.00    -0.237 OA
ATOM     82  O   UNL A   1      34.084  32.305  29.037  1.00  0.00    -0.744 OA
ENDBRANCH  75  79
ENDBRANCH  48  72
BRANCH  60  83
ATOM     83  C   UNL A   1      44.151  34.595  29.842  1.00  0.00     0.023 A 
ATOM     84  C   UNL A   1      44.653  35.007  31.089  1.00  0.00     0.031 A 
ATOM     85  C   UNL A   1      44.033  35.563  28.828  1.00  0.00     0.131 A 
ATOM     86  C   UNL A   1      44.953  36.360  31.309  1.00  0.00     0.055 A 
ATOM     87  C   UNL A   1      44.407  36.892  29.029  1.00  0.00     0.041 A 
ATOM     88  F   UNL A   1      43.554  35.231  27.618  1.00  0.00    -0.206 F 
ATOM     89  C   UNL A   1      44.854  37.301  30.282  1.00  0.00     0.022 A 
BRANCH  86  90
ATOM     90  S   UNL A   1      45.356  36.899  32.994  1.00  0.00     0.124 S 
ATOM     91  O   UNL A   1      46.753  37.297  32.859  1.00  0.00    -0.237 OA
ATOM     92  O   UNL A   1      44.403  37.983  33.212  1.00  0.00    -0.237 OA
ATOM     93  O   UNL A   1      45.126  35.701  33.801  1.00  0.00    -0.744 OA
ENDBRANCH  86  90
ENDBRANCH  60  83
ENDBRANCH  34  35
ENDBRANCH  26  29
ENDBRANCH  24  25
ENDBRANCH  23  24
ENDBRANCH   1  23
TORSDOF 19
ENDMDL
MODEL 2
REMARK VINA RESULT:     -10.8      1.621      1.920
REMARK SMILES C#CCN(CC(=O)NCCCNC(=O)c1ccc(-c2c3nc(c(-c4cc(S(=O)(=O)[O-])ccc4F)c4ccc([nH]4)c(-c4cc(S(=O)(=O)[O-])ccc4F)c4nc(c(-c5cc(S(=O)(=O)[O-])ccc5F)c5ccc2[nH]5)C=C4)C=C3)cc1)C(=O)Nc1cccc(C#N)c1
REMARK SMILES IDX 9 1 8 2 6 3 7 4 5 6 4 7 3 8 2 9 1 10 78 11 79 12 80 13 81 15
REMARK SMILES IDX 82 16 88 17 83 18 85 19 84 20 86 21 87 22 10 23 11 24 12 25
REMARK SMILES IDX 13 26 14 28 15 29 16 30 77 31 17 32 76 33 18 34 19 35 20 36
REMARK SMILES IDX 70 37 21 38 75 39 69 40 71 41 22 42 74 43 68 44 67 45 23 47
REMARK SMILES IDX 55 48 35 49 54 50 36 51 39 52 53 53 72 54 37 55 38 56 52 58
REMARK SMILES IDX 73 59 40 60 24 61 25 62 33 63 26 64 32 65 34 66 31 67 27 68
REMARK SMILES IDX 28 69 29 70 30 71 56 72 57 73 65 74 58 75 64 76 66 77 63 78
REMARK SMILES IDX 59 79 60 80 61 81 62 82 41 83 42 84 50 85 43 86 49 87 51 88
REMARK SMILES IDX 48 89 44 90 45 91 46 92 47 93
REMARK H PARENT 8 5 80 14 12 27 71 46 39 57
REMARK Flexibility Score: inf
ROOT
ATOM      1  C   UNL A   1      34.398  20.565  24.847  1.00  0.00     0.117 C 
ENDROOT
BRANCH   1   2
ATOM      2  N   UNL A   1      33.709  20.912  26.064  1.00  0.00    -0.354 N 
ATOM      3  C   UNL A   1      32.722  21.800  26.304  1.00  0.00     0.239 C 
ATOM      4  O   UNL A   1      32.817  22.341  27.407  1.00  0.00    -0.273 OA
ATOM      5  H   UNL A   1      34.011  20.414  26.858  1.00  0.00     0.163 HD
BRANCH   3   6
ATOM      6  C   UNL A   1      31.487  22.020  25.393  1.00  0.00     0.222 C 
BRANCH   6   7
ATOM      7  N   UNL A   1      30.872  23.346  25.298  1.00  0.00    -0.304 N 
BRANCH   7   8
ATOM      8  C   UNL A   1      30.710  23.825  23.922  1.00  0.00     0.211 C 
BRANCH   8   9
ATOM      9  C   UNL A   1      31.984  24.071  23.130  1.00  0.00    -0.085 C 
ATOM     10  C   UNL A   1      33.077  24.282  22.451  1.00  0.00     0.006 C 
ENDBRANCH   8   9
ENDBRANCH   7   8
BRANCH   7  11
ATOM     11  C   UNL A   1      30.519  24.216  26.306  1.00  0.00     0.323 C 
ATOM     12  O   UNL A   1      29.844  23.820  27.267  1.00  0.00    -0.248 OA
ATOM     13  N   UNL A   1      31.019  25.471  26.462  1.00  0.00    -0.308 N 
ATOM     14  H   UNL A   1      30.963  25.761  27.401  1.00  0.00     0.171 HD
BRANCH  13  15
ATOM     15  C   UNL A   1      31.589  26.467  25.661  1.00  0.00     0.044 A 
ATOM     16  C   UNL A   1      32.971  26.676  25.725  1.00  0.00     0.026 A 
ATOM     17  C   UNL A   1      30.835  27.304  24.856  1.00  0.00     0.045 A 
ATOM     18  C   UNL A   1      33.594  27.562  24.839  1.00  0.00     0.004 A 
ATOM     19  C   UNL A   1      31.448  28.112  23.891  1.00  0.00     0.054 A 
ATOM     20  C   UNL A   1      32.837  28.234  23.882  1.00  0.00     0.019 A 
BRANCH  19  21
ATOM     21  C   UNL A   1      30.683  28.734  22.841  1.00  0.00     0.099 C 
ATOM     22  N   UNL A   1      30.151  29.222  21.936  1.00  0.00    -0.192 NA
ENDBRANCH  19  21
ENDBRANCH  13  15
ENDBRANCH   7  11
ENDBRANCH   6   7
ENDBRANCH   3   6
ENDBRANCH   1   2
BRANCH   1  23
ATOM     23  C   UNL A   1      35.339  21.679  24.392  1.00  0.00     0.042 C 
BRANCH  23  24
ATOM     24  C   UNL A   1      36.401  22.094  25.413  1.00  0.00     0.118 C 
BRANCH  24  25
ATOM     25  N   UNL A   1      37.390  21.060  25.664  1.00  0.00    -0.352 N 
ATOM     26  C   UNL A   1      38.725  21.139  25.953  1.00  0.00     0.251 C 
ATOM     27  H   UNL A   1      37.038  20.142  25.619  1.00  0.00     0.163 HD
ATOM     28  O   UNL A   1      39.417  20.132  25.837  1.00  0.00    -0.269 OA
BRANCH  26  29
ATOM     29  C   UNL A   1      39.330  22.414  26.386  1.00  0.00     0.039 A 
ATOM     30  C   UNL A   1      40.408  22.375  27.272  1.00  0.00     0.014 A 
ATOM     31  C   UNL A   1      38.805  23.644  25.978  1.00  0.00     0.014 A 
ATOM     32  C   UNL A   1      40.987  23.567  27.708  1.00  0.00     0.010 A 
ATOM     33  C   UNL A   1      39.443  24.828  26.338  1.00  0.00     0.010 A 
ATOM     34  C   UNL A   1      40.533  24.803  27.218  1.00  0.00    -0.014 A 
BRANCH  34  35
ATOM     35  C   UNL A   1      41.193  26.067  27.634  1.00  0.00     0.031 A 
ATOM     36  C   UNL A   1      42.603  26.370  27.203  1.00  0.00     0.074 A 
ATOM     37  C   UNL A   1      40.518  26.935  28.413  1.00  0.00     0.049 A 
ATOM     38  N   UNL A   1      43.335  27.424  27.463  1.00  0.00    -0.248 NA
ATOM     39  C   UNL A   1      43.288  25.347  26.401  1.00  0.00     0.031 C 
ATOM     40  C   UNL A   1      39.160  26.728  28.924  1.00  0.00     0.029 A 
ATOM     41  N   UNL A   1      40.871  28.166  28.906  1.00  0.00    -0.354 N 
ATOM     42  C   UNL A   1      44.566  27.190  26.857  1.00  0.00     0.074 A 
ATOM     43  C   UNL A   1      44.502  25.863  26.283  1.00  0.00     0.031 C 
ATOM     44  C   UNL A   1      38.780  27.813  29.614  1.00  0.00     0.029 A 
ATOM     45  C   UNL A   1      39.881  28.769  29.648  1.00  0.00     0.049 A 
ATOM     46  H   UNL A   1      41.749  28.580  28.744  1.00  0.00     0.167 HD
ATOM     47  C   UNL A   1      45.639  28.015  26.768  1.00  0.00     0.034 A 
ATOM     48  C   UNL A   1      39.863  29.953  30.291  1.00  0.00     0.034 A 
ATOM     49  C   UNL A   1      45.682  29.334  27.352  1.00  0.00     0.049 A 
ATOM     50  C   UNL A   1      41.086  30.835  30.213  1.00  0.00     0.074 A 
ATOM     51  C   UNL A   1      46.698  30.270  27.288  1.00  0.00     0.029 A 
ATOM     52  N   UNL A   1      44.671  29.900  28.120  1.00  0.00    -0.354 N 
ATOM     53  N   UNL A   1      42.222  30.619  29.592  1.00  0.00    -0.248 NA
ATOM     54  C   UNL A   1      41.015  32.125  30.910  1.00  0.00     0.031 C 
ATOM     55  C   UNL A   1      46.343  31.360  28.089  1.00  0.00     0.029 A 
ATOM     56  C   UNL A   1      45.059  31.154  28.567  1.00  0.00     0.049 A 
ATOM     57  H   UNL A   1      43.807  29.472  28.319  1.00  0.00     0.167 HD
ATOM     58  C   UNL A   1      42.987  31.766  29.793  1.00  0.00     0.074 A 
ATOM     59  C   UNL A   1      42.174  32.672  30.578  1.00  0.00     0.031 C 
ATOM     60  C   UNL A   1      44.243  32.048  29.358  1.00  0.00     0.034 A 
BRANCH  47  61
ATOM     61  C   UNL A   1      46.859  27.500  26.040  1.00  0.00     0.023 A 
ATOM     62  C   UNL A   1      47.143  27.872  24.713  1.00  0.00     0.031 A 
ATOM     63  C   UNL A   1      47.743  26.608  26.672  1.00  0.00     0.131 A 
ATOM     64  C   UNL A   1      48.234  27.298  24.040  1.00  0.00     0.055 A 
ATOM     65  C   UNL A   1      48.878  26.111  26.027  1.00  0.00     0.041 A 
ATOM     66  F   UNL A   1      47.514  26.194  27.928  1.00  0.00    -0.206 F 
ATOM     67  C   UNL A   1      49.120  26.443  24.698  1.00  0.00     0.022 A 
BRANCH  64  68
ATOM     68  S   UNL A   1      48.384  27.561  22.252  1.00  0.00     0.124 S 
ATOM     69  O   UNL A   1      49.521  28.476  22.183  1.00  0.00    -0.237 OA
ATOM     70  O   UNL A   1      48.617  26.212  21.753  1.00  0.00    -0.237 OA
ATOM     71  O   UNL A   1      47.098  28.151  21.883  1.00  0.00    -0.744 OA
ENDBRANCH  64  68
ENDBRANCH  47  61
BRANCH  48  72
ATOM     72  C   UNL A   1      38.663  30.375  31.068  1.00  0.00     0.023 A 
ATOM     73  C   UNL A   1      37.596  31.049  30.453  1.00  0.00     0.031 A 
ATOM     74  C   UNL A   1      38.584  30.149  32.456  1.00  0.00     0.131 A 
ATOM     75  C   UNL A   1      36.525  31.521  31.228  1.00  0.00     0.055 A 
ATOM     76  C   UNL A   1      37.486  30.561  33.211  1.00  0.00     0.041 A 
ATOM     77  F   UNL A   1      39.575  29.509  33.097  1.00  0.00    -0.206 F 
ATOM     78  C   UNL A   1      36.455  31.266  32.600  1.00  0.00     0.022 A 
BRANCH  75  79
ATOM     79  S   UNL A   1      35.277  32.571  30.436  1.00  0.00     0.124 S 
ATOM     80  O   UNL A   1      34.915  31.773  29.270  1.00  0.00    -0.237 OA
ATOM     81  O   UNL A   1      34.264  32.678  31.480  1.00  0.00    -0.237 OA
ATOM     82  O   UNL A   1      36.005  33.805  30.148  1.00  0.00    -0.744 OA
ENDBRANCH  75  79
ENDBRANCH  48  72
BRANCH  60  83
ATOM     83  C   UNL A   1      44.790  33.420  29.674  1.00  0.00     0.023 A 
ATOM     84  C   UNL A   1      44.717  34.484  28.758  1.00  0.00     0.031 A 
ATOM     85  C   UNL A   1      45.411  33.661  30.914  1.00  0.00     0.131 A 
ATOM     86  C   UNL A   1      45.313  35.716  29.068  1.00  0.00     0.055 A 
ATOM     87  C   UNL A   1      45.933  34.911  31.247  1.00  0.00     0.041 A 
ATOM     88  F   UNL A   1      45.517  32.682  31.827  1.00  0.00    -0.206 F 
ATOM     89  C   UNL A   1      45.901  35.943  30.314  1.00  0.00     0.022 A 
BRANCH  86  90
ATOM     90  S   UNL A   1      45.421  36.981  27.772  1.00  0.00     0.124 S 
ATOM     91  O   UNL A   1      46.737  37.561  28.023  1.00  0.00    -0.237 OA
ATOM     92  O   UNL A   1      45.296  36.190  26.552  1.00  0.00    -0.237 OA
ATOM     93  O   UNL A   1      44.289  37.862  28.058  1.00  0.00    -0.744 OA
ENDBRANCH  86  90
ENDBRANCH  60  83
ENDBRANCH  34  35
ENDBRANCH  26  29
ENDBRANCH  24  25
ENDBRANCH  23  24
ENDBRANCH   1  23
TORSDOF 19
ENDMDL
MODEL 3
REMARK VINA RESULT:     -10.7      5.352      8.312
REMARK SMILES C#CCN(CC(=O)NCCCNC(=O)c1ccc(-c2c3nc(c(-c4cc(S(=O)(=O)[O-])ccc4F)c4ccc([nH]4)c(-c4cc(S(=O)(=O)[O-])ccc4F)c4nc(c(-c5cc(S(=O)(=O)[O-])ccc5F)c5ccc2[nH]5)C=C4)C=C3)cc1)C(=O)Nc1cccc(C#N)c1
REMARK SMILES IDX 9 1 8 2 6 3 7 4 5 6 4 7 3 8 2 9 1 10 78 11 79 12 80 13 81 15
REMARK SMILES IDX 82 16 88 17 83 18 85 19 84 20 86 21 87 22 10 23 11 24 12 25
REMARK SMILES IDX 13 26 14 28 15 29 16 30 77 31 17 32 76 33 18 34 19 35 20 36
REMARK SMILES IDX 70 37 21 38 75 39 69 40 71 41 22 42 74 43 68 44 67 45 23 47
REMARK SMILES IDX 55 48 35 49 54 50 36 51 39 52 53 53 72 54 37 55 38 56 52 58
REMARK SMILES IDX 73 59 40 60 24 61 25 62 33 63 26 64 32 65 34 66 31 67 27 68
REMARK SMILES IDX 28 69 29 70 30 71 56 72 57 73 65 74 58 75 64 76 66 77 63 78
REMARK SMILES IDX 59 79 60 80 61 81 62 82 41 83 42 84 50 85 43 86 49 87 51 88
REMARK SMILES IDX 48 89 44 90 45 91 46 92 47 93
REMARK H PARENT 8 5 80 14 12 27 71 46 39 57
REMARK Flexibility Score: inf
ROOT
ATOM      1  C   UNL A   1      31.255  30.748  26.372  1.00  0.00     0.117 C 
ENDROOT
BRANCH   1   2
ATOM      2  N   UNL A   1      32.185  30.252  25.390  1.00  0.00    -0.354 N 
ATOM      3  C   UNL A   1      32.698  29.018  25.196  1.00  0.00     0.239 C 
ATOM      4  O   UNL A   1      33.865  29.038  24.799  1.00  0.00    -0.273 OA
ATOM      5  H   UNL A   1      32.501  30.929  24.749  1.00  0.00     0.163 HD
BRANCH   3   6
ATOM      6  C   UNL A   1      31.890  27.699  25.283  1.00  0.00     0.222 C 
BRANCH   6   7
ATOM      7  N   UNL A   1      31.127  27.227  24.124  1.00  0.00    -0.304 N 
BRANCH   7   8
ATOM      8  C   UNL A   1      30.224  26.113  24.425  1.00  0.00     0.211 C 
BRANCH   8   9
ATOM      9  C   UNL A   1      30.561  24.771  23.798  1.00  0.00    -0.085 C 
ATOM     10  C   UNL A   1      30.851  23.619  23.260  1.00  0.00     0.006 C 
ENDBRANCH   8   9
ENDBRANCH   7   8
BRANCH   7  11
ATOM     11  C   UNL A   1      31.214  27.621  22.807  1.00  0.00     0.323 C 
ATOM     12  O   UNL A   1      32.075  27.132  22.062  1.00  0.00    -0.248 OA
ATOM     13  N   UNL A   1      30.291  28.381  22.159  1.00  0.00    -0.308 N 
ATOM     14  H   UNL A   1      30.319  28.222  21.188  1.00  0.00     0.171 HD
BRANCH  13  15
ATOM     15  C   UNL A   1      29.312  29.326  22.485  1.00  0.00     0.044 A 
ATOM     16  C   UNL A   1      28.049  28.879  22.888  1.00  0.00     0.026 A 
ATOM     17  C   UNL A   1      29.517  30.690  22.361  1.00  0.00     0.045 A 
ATOM     18  C   UNL A   1      27.093  29.788  23.356  1.00  0.00     0.004 A 
ATOM     19  C   UNL A   1      28.618  31.603  22.926  1.00  0.00     0.054 A 
ATOM     20  C   UNL A   1      27.402  31.144  23.431  1.00  0.00     0.019 A 
BRANCH  19  21
ATOM     21  C   UNL A   1      28.968  32.990  23.093  1.00  0.00     0.099 C 
ATOM     22  N   UNL A   1      29.344  34.073  23.251  1.00  0.00    -0.192 NA
ENDBRANCH  19  21
ENDBRANCH  13  15
ENDBRANCH   7  11
ENDBRANCH   6   7
ENDBRANCH   3   6
ENDBRANCH   1   2
BRANCH   1  23
ATOM     23  C   UNL A   1      31.410  32.252  26.589  1.00  0.00     0.042 C 
BRANCH  23  24
ATOM     24  C   UNL A   1      32.799  32.707  27.040  1.00  0.00     0.118 C 
BRANCH  24  25
ATOM     25  N   UNL A   1      32.808  34.044  27.612  1.00  0.00    -0.352 N 
ATOM     26  C   UNL A   1      33.459  34.555  28.701  1.00  0.00     0.251 C 
ATOM     27  H   UNL A   1      32.247  34.695  27.131  1.00  0.00     0.163 HD
ATOM     28  O   UNL A   1      33.087  35.630  29.162  1.00  0.00    -0.269 OA
BRANCH  26  29
ATOM     29  C   UNL A   1      34.581  33.824  29.321  1.00  0.00     0.039 A 
ATOM     30  C   UNL A   1      35.885  34.224  29.022  1.00  0.00     0.014 A 
ATOM     31  C   UNL A   1      34.362  32.713  30.140  1.00  0.00     0.014 A 
ATOM     32  C   UNL A   1      36.963  33.540  29.583  1.00  0.00     0.010 A 
ATOM     33  C   UNL A   1      35.434  32.092  30.775  1.00  0.00     0.010 A 
ATOM     34  C   UNL A   1      36.748  32.490  30.492  1.00  0.00    -0.014 A 
BRANCH  34  35
ATOM     35  C   UNL A   1      37.897  31.804  31.139  1.00  0.00     0.031 A 
ATOM     36  C   UNL A   1      38.679  30.757  30.392  1.00  0.00     0.074 A 
ATOM     37  C   UNL A   1      38.222  32.120  32.408  1.00  0.00     0.049 A 
ATOM     38  N   UNL A   1      39.713  30.061  30.791  1.00  0.00    -0.248 NA
ATOM     39  C   UNL A   1      38.225  30.430  29.033  1.00  0.00     0.031 C 
ATOM     40  C   UNL A   1      37.509  33.092  33.242  1.00  0.00     0.029 A 
ATOM     41  N   UNL A   1      39.236  31.672  33.217  1.00  0.00    -0.354 N 
ATOM     42  C   UNL A   1      40.032  29.215  29.734  1.00  0.00     0.074 A 
ATOM     43  C   UNL A   1      39.036  29.434  28.708  1.00  0.00     0.031 C 
ATOM     44  C   UNL A   1      38.136  33.201  34.423  1.00  0.00     0.029 A 
ATOM     45  C   UNL A   1      39.258  32.269  34.457  1.00  0.00     0.049 A 
ATOM     46  H   UNL A   1      39.886  30.989  32.936  1.00  0.00     0.167 HD
ATOM     47  C   UNL A   1      41.075  28.353  29.620  1.00  0.00     0.034 A 
ATOM     48  C   UNL A   1      40.082  32.082  35.506  1.00  0.00     0.034 A 
ATOM     49  C   UNL A   1      42.056  28.147  30.659  1.00  0.00     0.049 A 
ATOM     50  C   UNL A   1      41.208  31.086  35.371  1.00  0.00     0.074 A 
ATOM     51  C   UNL A   1      43.174  27.333  30.636  1.00  0.00     0.029 A 
ATOM     52  N   UNL A   1      42.030  28.748  31.912  1.00  0.00    -0.354 N 
ATOM     53  N   UNL A   1      41.526  30.332  34.345  1.00  0.00    -0.248 NA
ATOM     54  C   UNL A   1      42.093  30.929  36.532  1.00  0.00     0.031 C 
ATOM     55  C   UNL A   1      43.771  27.371  31.899  1.00  0.00     0.029 A 
ATOM     56  C   UNL A   1      43.090  28.291  32.680  1.00  0.00     0.049 A 
ATOM     57  H   UNL A   1      41.358  29.402  32.210  1.00  0.00     0.167 HD
ATOM     58  C   UNL A   1      42.673  29.639  34.724  1.00  0.00     0.074 A 
ATOM     59  C   UNL A   1      42.996  30.079  36.066  1.00  0.00     0.031 C 
ATOM     60  C   UNL A   1      43.399  28.731  34.023  1.00  0.00     0.034 A 
BRANCH  47  61
ATOM     61  C   UNL A   1      41.184  27.552  28.344  1.00  0.00     0.023 A 
ATOM     62  C   UNL A   1      40.866  26.182  28.300  1.00  0.00     0.031 A 
ATOM     63  C   UNL A   1      41.629  28.158  27.157  1.00  0.00     0.131 A 
ATOM     64  C   UNL A   1      41.071  25.451  27.119  1.00  0.00     0.055 A 
ATOM     65  C   UNL A   1      41.743  27.446  25.961  1.00  0.00     0.041 A 
ATOM     66  F   UNL A   1      41.971  29.456  27.138  1.00  0.00    -0.206 F 
ATOM     67  C   UNL A   1      41.479  26.080  25.941  1.00  0.00     0.022 A 
BRANCH  64  68
ATOM     68  S   UNL A   1      40.950  23.642  27.187  1.00  0.00     0.124 S 
ATOM     69  O   UNL A   1      39.502  23.444  27.186  1.00  0.00    -0.237 OA
ATOM     70  O   UNL A   1      41.653  23.232  25.978  1.00  0.00    -0.237 OA
ATOM     71  O   UNL A   1      41.616  23.302  28.443  1.00  0.00    -0.744 OA
ENDBRANCH  64  68
ENDBRANCH  47  61
BRANCH  48  72
ATOM     72  C   UNL A   1      39.876  32.838  36.775  1.00  0.00     0.023 A 
ATOM     73  C   UNL A   1      38.948  32.408  37.737  1.00  0.00     0.031 A 
ATOM     74  C   UNL A   1      40.575  34.033  37.026  1.00  0.00     0.131 A 
ATOM     75  C   UNL A   1      38.703  33.192  38.874  1.00  0.00     0.055 A 
ATOM     76  C   UNL A   1      40.378  34.775  38.192  1.00  0.00     0.041 A 
ATOM     77  F   UNL A   1      41.476  34.492  36.142  1.00  0.00    -0.206 F 
ATOM     78  C   UNL A   1      39.425  34.363  39.117  1.00  0.00     0.022 A 
BRANCH  75  79
ATOM     79  S   UNL A   1      37.348  32.717  39.982  1.00  0.00     0.124 S 
ATOM     80  O   UNL A   1      36.226  32.628  39.054  1.00  0.00    -0.237 OA
ATOM     81  O   UNL A   1      37.831  31.454  40.529  1.00  0.00    -0.237 OA
ATOM     82  O   UNL A   1      37.285  33.824  40.934  1.00  0.00    -0.744 OA
ENDBRANCH  75  79
ENDBRANCH  48  72
BRANCH  60  83
ATOM     83  C   UNL A   1      44.653  28.197  34.676  1.00  0.00     0.023 A 
ATOM     84  C   UNL A   1      44.649  27.030  35.460  1.00  0.00     0.031 A 
ATOM     85  C   UNL A   1      45.873  28.881  34.520  1.00  0.00     0.131 A 
ATOM     86  C   UNL A   1      45.824  26.622  36.111  1.00  0.00     0.055 A 
ATOM     87  C   UNL A   1      47.054  28.426  35.106  1.00  0.00     0.041 A 
ATOM     88  F   UNL A   1      45.937  30.006  33.788  1.00  0.00    -0.206 F 
ATOM     89  C   UNL A   1      47.030  27.299  35.922  1.00  0.00     0.022 A 
BRANCH  86  90
ATOM     90  S   UNL A   1      45.726  25.264  37.310  1.00  0.00     0.124 S 
ATOM     91  O   UNL A   1      46.996  24.577  37.094  1.00  0.00    -0.237 OA
ATOM     92  O   UNL A   1      45.594  25.974  38.578  1.00  0.00    -0.237 OA
ATOM     93  O   UNL A   1      44.539  24.520  36.890  1.00  0.00    -0.744 OA
ENDBRANCH  86  90
ENDBRANCH  60  83
ENDBRANCH  34  35
ENDBRANCH  26  29
ENDBRANCH  24  25
ENDBRANCH  23  24
ENDBRANCH   1  23
TORSDOF 19
ENDMDL
