MODEL 1
REMARK VINA RESULT:     -11.4      0.000      0.000
REMARK SMILES CCC(CC)NC(=O)N[C@@H]1C=C[C@@H](C(=O)NCCCNC(=O)c2ccc(-c3c4nc(c(-c5cc(S(=O)(=O)[O-])ccc5F)c5ccc([nH]5)c(-c5cc(S(=O)(=O)[O-])ccc5F)c5nc(c(-c6cc(S(=O)(=O)[O-])ccc6F)c6ccc3[nH]6)C=C5)C=C4)cc2)C1
REMARK SMILES IDX 18 1 17 2 16 3 14 4 15 5 13 7 10 8 11 9 86 10 12 11 9 12
REMARK SMILES IDX 6 13 7 14 8 16 3 18 2 19 1 20 4 21 5 22 19 23 20 24 21 25
REMARK SMILES IDX 22 27 23 28 24 29 85 30 25 31 84 32 26 33 27 34 28 35 78 36
REMARK SMILES IDX 29 37 83 38 77 39 79 40 30 41 82 42 76 43 75 44 31 46 63 47
REMARK SMILES IDX 43 48 62 49 44 50 47 51 61 52 80 53 45 54 46 55 60 57 81 58
REMARK SMILES IDX 48 59 32 60 33 61 41 62 34 63 40 64 42 65 39 66 35 67 36 68
REMARK SMILES IDX 37 69 38 70 64 71 65 72 73 73 66 74 72 75 74 76 71 77 67 78
REMARK SMILES IDX 68 79 69 80 70 81 49 82 50 83 58 84 51 85 57 86 59 87 56 88
REMARK SMILES IDX 52 89 53 90 54 91 55 92
REMARK H PARENT 16 6 6 15 9 17 20 26 79 45 47 56
REMARK Flexibility Score: inf
ROOT
ATOM      1  C   UNL A   1      31.440  32.524  26.577  1.00  0.00     0.042 C 
ENDROOT
BRANCH   1   2
ATOM      2  C   UNL A   1      31.313  31.045  26.222  1.00  0.00     0.117 C 
BRANCH   2   3
ATOM      3  N   UNL A   1      32.521  30.290  26.501  1.00  0.00    -0.356 N 
ATOM      4  C   UNL A   1      33.306  29.512  25.707  1.00  0.00     0.227 C 
ATOM      5  O   UNL A   1      34.358  29.095  26.204  1.00  0.00    -0.274 OA
ATOM      6  H   UNL A   1      32.828  30.352  27.433  1.00  0.00     0.163 HD
BRANCH   4   7
ATOM      7  C   UNL A   1      32.944  29.132  24.267  1.00  0.00     0.103 C 
ATOM      8  C   UNL A   1      32.845  26.915  23.184  1.00  0.00     0.107 C 
ATOM      9  C   UNL A   1      31.485  27.490  23.440  1.00  0.00    -0.006 C 
ATOM     10  C   UNL A   1      33.804  28.017  23.667  1.00  0.00     0.047 C 
ATOM     11  C   UNL A   1      31.537  28.674  24.060  1.00  0.00    -0.016 C 
BRANCH   8  12
ATOM     12  N   UNL A   1      32.975  26.639  21.776  1.00  0.00    -0.332 N 
ATOM     13  N   UNL A   1      32.544  24.321  21.538  1.00  0.00    -0.335 N 
ATOM     14  C   UNL A   1      32.829  25.531  21.040  1.00  0.00     0.315 C 
ATOM     15  H   UNL A   1      32.407  23.649  20.831  1.00  0.00     0.165 HD
ATOM     16  O   UNL A   1      32.965  25.633  19.818  1.00  0.00    -0.249 OA
ATOM     17  H   UNL A   1      33.225  27.429  21.244  1.00  0.00     0.165 HD
BRANCH  13  18
ATOM     18  C   UNL A   1      32.388  23.758  22.877  1.00  0.00     0.083 C 
BRANCH  18  19
ATOM     19  C   UNL A   1      30.920  23.852  23.320  1.00  0.00     0.021 C 
ATOM     20  C   UNL A   1      30.778  24.078  24.818  1.00  0.00     0.006 C 
ENDBRANCH  18  19
BRANCH  18  21
ATOM     21  C   UNL A   1      33.010  22.350  22.943  1.00  0.00     0.021 C 
ATOM     22  C   UNL A   1      33.932  22.105  24.130  1.00  0.00     0.006 C 
ENDBRANCH  18  21
ENDBRANCH  13  18
ENDBRANCH   8  12
ENDBRANCH   4   7
ENDBRANCH   2   3
ENDBRANCH   1   2
BRANCH   1  23
ATOM     23  C   UNL A   1      32.723  32.900  27.315  1.00  0.00     0.118 C 
BRANCH  23  24
ATOM     24  N   UNL A   1      32.738  34.292  27.736  1.00  0.00    -0.352 N 
ATOM     25  C   UNL A   1      33.462  34.936  28.707  1.00  0.00     0.251 C 
ATOM     26  H   UNL A   1      32.120  34.873  27.236  1.00  0.00     0.163 HD
ATOM     27  O   UNL A   1      33.137  36.087  29.004  1.00  0.00    -0.269 OA
BRANCH  25  28
ATOM     28  C   UNL A   1      34.594  34.287  29.409  1.00  0.00     0.039 A 
ATOM     29  C   UNL A   1      34.310  33.439  30.487  1.00  0.00     0.014 A 
ATOM     30  C   UNL A   1      35.927  34.547  29.077  1.00  0.00     0.014 A 
ATOM     31  C   UNL A   1      35.349  32.820  31.190  1.00  0.00     0.010 A 
ATOM     32  C   UNL A   1      36.961  33.869  29.730  1.00  0.00     0.010 A 
ATOM     33  C   UNL A   1      36.685  33.005  30.800  1.00  0.00    -0.014 A 
BRANCH  33  34
ATOM     34  C   UNL A   1      37.788  32.297  31.505  1.00  0.00     0.031 A 
ATOM     35  C   UNL A   1      38.514  31.152  30.848  1.00  0.00     0.074 A 
ATOM     36  C   UNL A   1      38.108  32.656  32.764  1.00  0.00     0.049 A 
ATOM     37  N   UNL A   1      39.492  30.414  31.312  1.00  0.00    -0.248 NA
ATOM     38  C   UNL A   1      38.058  30.767  29.506  1.00  0.00     0.031 C 
ATOM     39  C   UNL A   1      37.438  33.705  33.536  1.00  0.00     0.029 A 
ATOM     40  N   UNL A   1      39.071  32.179  33.618  1.00  0.00    -0.354 N 
ATOM     41  C   UNL A   1      39.758  29.469  30.326  1.00  0.00     0.074 A 
ATOM     42  C   UNL A   1      38.792  29.690  29.270  1.00  0.00     0.031 C 
ATOM     43  C   UNL A   1      38.028  33.810  34.738  1.00  0.00     0.029 A 
ATOM     44  C   UNL A   1      39.094  32.816  34.836  1.00  0.00     0.049 A 
ATOM     45  H   UNL A   1      39.687  31.449  33.381  1.00  0.00     0.167 HD
ATOM     46  C   UNL A   1      40.730  28.521  30.294  1.00  0.00     0.034 A 
ATOM     47  C   UNL A   1      39.881  32.628  35.913  1.00  0.00     0.034 A 
ATOM     48  C   UNL A   1      41.693  28.321  31.352  1.00  0.00     0.049 A 
ATOM     49  C   UNL A   1      40.968  31.589  35.851  1.00  0.00     0.074 A 
ATOM     50  C   UNL A   1      42.761  27.440  31.393  1.00  0.00     0.029 A 
ATOM     51  N   UNL A   1      41.700  29.002  32.563  1.00  0.00    -0.354 N 
ATOM     52  N   UNL A   1      41.255  30.750  34.882  1.00  0.00    -0.248 NA
ATOM     53  C   UNL A   1      41.850  31.485  37.020  1.00  0.00     0.031 C 
ATOM     54  C   UNL A   1      43.370  27.542  32.650  1.00  0.00     0.029 A 
ATOM     55  C   UNL A   1      42.733  28.541  33.368  1.00  0.00     0.049 A 
ATOM     56  H   UNL A   1      41.064  29.710  32.814  1.00  0.00     0.167 HD
ATOM     57  C   UNL A   1      42.368  30.037  35.316  1.00  0.00     0.074 A 
ATOM     58  C   UNL A   1      42.707  30.555  36.626  1.00  0.00     0.031 C 
ATOM     59  C   UNL A   1      43.052  29.048  34.683  1.00  0.00     0.034 A 
BRANCH  46  60
ATOM     60  C   UNL A   1      40.773  27.615  29.082  1.00  0.00     0.023 A 
ATOM     61  C   UNL A   1      41.729  27.788  28.064  1.00  0.00     0.031 A 
ATOM     62  C   UNL A   1      39.820  26.595  28.917  1.00  0.00     0.131 A 
ATOM     63  C   UNL A   1      41.650  27.024  26.890  1.00  0.00     0.055 A 
ATOM     64  C   UNL A   1      39.803  25.776  27.785  1.00  0.00     0.041 A 
ATOM     65  F   UNL A   1      38.870  26.389  29.844  1.00  0.00    -0.206 F 
ATOM     66  C   UNL A   1      40.709  26.003  26.752  1.00  0.00     0.022 A 
BRANCH  63  67
ATOM     67  S   UNL A   1      42.679  27.506  25.475  1.00  0.00     0.124 S 
ATOM     68  O   UNL A   1      43.942  27.843  26.130  1.00  0.00    -0.237 OA
ATOM     69  O   UNL A   1      42.684  26.296  24.662  1.00  0.00    -0.237 OA
ATOM     70  O   UNL A   1      41.964  28.643  24.900  1.00  0.00    -0.744 OA
ENDBRANCH  63  67
ENDBRANCH  46  60
BRANCH  47  71
ATOM     71  C   UNL A   1      39.674  33.451  37.136  1.00  0.00     0.023 A 
ATOM     72  C   UNL A   1      39.082  32.905  38.287  1.00  0.00     0.031 A 
ATOM     73  C   UNL A   1      40.069  34.799  37.170  1.00  0.00     0.131 A 
ATOM     74  C   UNL A   1      38.876  33.714  39.414  1.00  0.00     0.055 A 
ATOM     75  C   UNL A   1      39.898  35.588  38.309  1.00  0.00     0.041 A 
ATOM     76  F   UNL A   1      40.651  35.362  36.100  1.00  0.00    -0.206 F 
ATOM     77  C   UNL A   1      39.290  35.048  39.437  1.00  0.00     0.022 A 
BRANCH  74  78
ATOM     78  S   UNL A   1      38.014  33.007  40.845  1.00  0.00     0.124 S 
ATOM     79  O   UNL A   1      38.850  33.459  41.950  1.00  0.00    -0.237 OA
ATOM     80  O   UNL A   1      36.697  33.626  40.742  1.00  0.00    -0.237 OA
ATOM     81  O   UNL A   1      38.045  31.569  40.584  1.00  0.00    -0.744 OA
ENDBRANCH  74  78
ENDBRANCH  47  71
BRANCH  59  82
ATOM     82  C   UNL A   1      44.261  28.491  35.395  1.00  0.00     0.023 A 
ATOM     83  C   UNL A   1      44.148  27.496  36.381  1.00  0.00     0.031 A 
ATOM     84  C   UNL A   1      45.545  28.982  35.096  1.00  0.00     0.131 A 
ATOM     85  C   UNL A   1      45.289  27.066  37.077  1.00  0.00     0.055 A 
ATOM     86  C   UNL A   1      46.684  28.508  35.750  1.00  0.00     0.041 A 
ATOM     87  F   UNL A   1      45.712  29.933  34.164  1.00  0.00    -0.206 F 
ATOM     88  C   UNL A   1      46.557  27.556  36.757  1.00  0.00     0.022 A 
BRANCH  85  89
ATOM     89  S   UNL A   1      45.082  25.934  38.479  1.00  0.00     0.124 S 
ATOM     90  O   UNL A   1      44.789  24.670  37.809  1.00  0.00    -0.237 OA
ATOM     91  O   UNL A   1      46.379  26.018  39.141  1.00  0.00    -0.237 OA
ATOM     92  O   UNL A   1      43.967  26.513  39.226  1.00  0.00    -0.744 OA
ENDBRANCH  85  89
ENDBRANCH  59  82
ENDBRANCH  33  34
ENDBRANCH  25  28
ENDBRANCH  23  24
ENDBRANCH   1  23
TORSDOF 17
ENDMDL
MODEL 2
REMARK VINA RESULT:     -11.3      3.202      8.663
REMARK SMILES CCC(CC)NC(=O)N[C@@H]1C=C[C@@H](C(=O)NCCCNC(=O)c2ccc(-c3c4nc(c(-c5cc(S(=O)(=O)[O-])ccc5F)c5ccc([nH]5)c(-c5cc(S(=O)(=O)[O-])ccc5F)c5nc(c(-c6cc(S(=O)(=O)[O-])ccc6F)c6ccc3[nH]6)C=C5)C=C4)cc2)C1
REMARK SMILES IDX 18 1 17 2 16 3 14 4 15 5 13 7 10 8 11 9 86 10 12 11 9 12
REMARK SMILES IDX 6 13 7 14 8 16 3 18 2 19 1 20 4 21 5 22 19 23 20 24 21 25
REMARK SMILES IDX 22 27 23 28 24 29 85 30 25 31 84 32 26 33 27 34 28 35 78 36
REMARK SMILES IDX 29 37 83 38 77 39 79 40 30 41 82 42 76 43 75 44 31 46 63 47
REMARK SMILES IDX 43 48 62 49 44 50 47 51 61 52 80 53 45 54 46 55 60 57 81 58
REMARK SMILES IDX 48 59 32 60 33 61 41 62 34 63 40 64 42 65 39 66 35 67 36 68
REMARK SMILES IDX 37 69 38 70 64 71 65 72 73 73 66 74 72 75 74 76 71 77 67 78
REMARK SMILES IDX 68 79 69 80 70 81 49 82 50 83 58 84 51 85 57 86 59 87 56 88
REMARK SMILES IDX 52 89 53 90 54 91 55 92
REMARK H PARENT 16 6 6 15 9 17 20 26 79 45 47 56
REMARK Flexibility Score: inf
ROOT
ATOM      1  C   UNL A   1      32.015  28.656  26.466  1.00  0.00     0.042 C 
ENDROOT
BRANCH   1   2
ATOM      2  C   UNL A   1      31.646  29.037  25.035  1.00  0.00     0.117 C 
BRANCH   2   3
ATOM      3  N   UNL A   1      31.117  27.923  24.270  1.00  0.00    -0.356 N 
ATOM      4  C   UNL A   1      31.696  26.775  23.825  1.00  0.00     0.227 C 
ATOM      5  O   UNL A   1      30.947  25.942  23.302  1.00  0.00    -0.274 OA
ATOM      6  H   UNL A   1      30.168  28.015  24.028  1.00  0.00     0.163 HD
BRANCH   4   7
ATOM      7  C   UNL A   1      33.197  26.484  23.933  1.00  0.00     0.103 C 
ATOM      8  C   UNL A   1      34.374  24.528  24.876  1.00  0.00     0.107 C 
ATOM      9  C   UNL A   1      34.425  24.562  23.379  1.00  0.00    -0.006 C 
ATOM     10  C   UNL A   1      33.625  25.821  25.244  1.00  0.00     0.047 C 
ATOM     11  C   UNL A   1      33.756  25.600  22.866  1.00  0.00    -0.016 C 
BRANCH   8  12
ATOM     12  N   UNL A   1      35.721  24.499  25.387  1.00  0.00    -0.332 N 
ATOM     13  N   UNL A   1      36.066  22.283  26.150  1.00  0.00    -0.335 N 
ATOM     14  C   UNL A   1      36.480  23.535  25.922  1.00  0.00     0.315 C 
ATOM     15  H   UNL A   1      36.790  21.704  26.483  1.00  0.00     0.165 HD
ATOM     16  O   UNL A   1      37.641  23.822  26.224  1.00  0.00    -0.249 OA
ATOM     17  H   UNL A   1      36.178  25.370  25.332  1.00  0.00     0.165 HD
BRANCH  13  18
ATOM     18  C   UNL A   1      34.798  21.567  26.026  1.00  0.00     0.083 C 
BRANCH  18  19
ATOM     19  C   UNL A   1      35.008  20.254  25.258  1.00  0.00     0.021 C 
ATOM     20  C   UNL A   1      33.710  19.693  24.698  1.00  0.00     0.006 C 
ENDBRANCH  18  19
BRANCH  18  21
ATOM     21  C   UNL A   1      34.123  21.427  27.403  1.00  0.00     0.021 C 
ATOM     22  C   UNL A   1      33.182  22.563  27.781  1.00  0.00     0.006 C 
ENDBRANCH  18  21
ENDBRANCH  13  18
ENDBRANCH   8  12
ENDBRANCH   4   7
ENDBRANCH   2   3
ENDBRANCH   1   2
BRANCH   1  23
ATOM     23  C   UNL A   1      33.396  29.126  26.920  1.00  0.00     0.118 C 
BRANCH  23  24
ATOM     24  N   UNL A   1      33.472  30.571  27.067  1.00  0.00    -0.352 N 
ATOM     25  C   UNL A   1      34.375  31.366  27.727  1.00  0.00     0.251 C 
ATOM     26  H   UNL A   1      32.751  31.064  26.615  1.00  0.00     0.163 HD
ATOM     27  O   UNL A   1      34.099  32.558  27.873  1.00  0.00    -0.269 OA
BRANCH  25  28
ATOM     28  C   UNL A   1      35.645  30.833  28.276  1.00  0.00     0.039 A 
ATOM     29  C   UNL A   1      35.582  29.955  29.365  1.00  0.00     0.014 A 
ATOM     30  C   UNL A   1      36.894  31.230  27.790  1.00  0.00     0.014 A 
ATOM     31  C   UNL A   1      36.756  29.443  29.926  1.00  0.00     0.010 A 
ATOM     32  C   UNL A   1      38.062  30.659  28.300  1.00  0.00     0.010 A 
ATOM     33  C   UNL A   1      38.008  29.766  29.381  1.00  0.00    -0.014 A 
BRANCH  33  34
ATOM     34  C   UNL A   1      39.255  29.171  29.935  1.00  0.00     0.031 A 
ATOM     35  C   UNL A   1      39.886  29.726  31.185  1.00  0.00     0.074 A 
ATOM     36  C   UNL A   1      39.849  28.151  29.284  1.00  0.00     0.049 A 
ATOM     37  N   UNL A   1      40.973  29.343  31.807  1.00  0.00    -0.248 NA
ATOM     38  C   UNL A   1      39.225  30.888  31.796  1.00  0.00     0.031 C 
ATOM     39  C   UNL A   1      39.375  27.563  28.029  1.00  0.00     0.029 A 
ATOM     40  N   UNL A   1      40.979  27.432  29.581  1.00  0.00    -0.354 N 
ATOM     41  C   UNL A   1      41.135  30.223  32.872  1.00  0.00     0.074 A 
ATOM     42  C   UNL A   1      40.069  31.197  32.769  1.00  0.00     0.031 C 
ATOM     43  C   UNL A   1      40.191  26.557  27.680  1.00  0.00     0.029 A 
ATOM     44  C   UNL A   1      41.265  26.448  28.663  1.00  0.00     0.049 A 
ATOM     45  H   UNL A   1      41.534  27.603  30.376  1.00  0.00     0.167 HD
ATOM     46  C   UNL A   1      42.069  30.206  33.858  1.00  0.00     0.034 A 
ATOM     47  C   UNL A   1      42.273  25.556  28.614  1.00  0.00     0.034 A 
ATOM     48  C   UNL A   1      43.120  29.220  33.953  1.00  0.00     0.049 A 
ATOM     49  C   UNL A   1      43.287  25.538  29.727  1.00  0.00     0.074 A 
ATOM     50  C   UNL A   1      44.075  29.067  34.944  1.00  0.00     0.029 A 
ATOM     51  N   UNL A   1      43.364  28.223  33.017  1.00  0.00    -0.354 N 
ATOM     52  N   UNL A   1      43.384  26.331  30.769  1.00  0.00    -0.248 NA
ATOM     53  C   UNL A   1      44.314  24.490  29.666  1.00  0.00     0.031 C 
ATOM     54  C   UNL A   1      44.933  28.024  34.574  1.00  0.00     0.029 A 
ATOM     55  C   UNL A   1      44.471  27.472  33.391  1.00  0.00     0.049 A 
ATOM     56  H   UNL A   1      42.830  28.070  32.204  1.00  0.00     0.167 HD
ATOM     57  C   UNL A   1      44.470  25.861  31.502  1.00  0.00     0.074 A 
ATOM     58  C   UNL A   1      44.982  24.707  30.790  1.00  0.00     0.031 C 
ATOM     59  C   UNL A   1      44.990  26.336  32.663  1.00  0.00     0.034 A 
BRANCH  46  60
ATOM     60  C   UNL A   1      42.004  31.310  34.892  1.00  0.00     0.023 A 
ATOM     61  C   UNL A   1      40.965  31.376  35.838  1.00  0.00     0.031 A 
ATOM     62  C   UNL A   1      42.966  32.336  34.904  1.00  0.00     0.131 A 
ATOM     63  C   UNL A   1      40.856  32.489  36.686  1.00  0.00     0.055 A 
ATOM     64  C   UNL A   1      42.903  33.396  35.813  1.00  0.00     0.041 A 
ATOM     65  F   UNL A   1      43.973  32.341  34.017  1.00  0.00    -0.206 F 
ATOM     66  C   UNL A   1      41.831  33.487  36.697  1.00  0.00     0.022 A 
BRANCH  63  67
ATOM     67  S   UNL A   1      39.330  32.699  37.644  1.00  0.00     0.124 S 
ATOM     68  O   UNL A   1      38.543  31.549  37.201  1.00  0.00    -0.237 OA
ATOM     69  O   UNL A   1      39.812  32.651  39.019  1.00  0.00    -0.237 OA
ATOM     70  O   UNL A   1      38.823  33.997  37.203  1.00  0.00    -0.744 OA
ENDBRANCH  63  67
ENDBRANCH  46  60
BRANCH  47  71
ATOM     71  C   UNL A   1      42.365  24.601  27.475  1.00  0.00     0.023 A 
ATOM     72  C   UNL A   1      41.650  23.393  27.482  1.00  0.00     0.031 A 
ATOM     73  C   UNL A   1      43.171  24.888  26.361  1.00  0.00     0.131 A 
ATOM     74  C   UNL A   1      41.779  22.501  26.407  1.00  0.00     0.055 A 
ATOM     75  C   UNL A   1      43.264  24.016  25.275  1.00  0.00     0.041 A 
ATOM     76  F   UNL A   1      43.862  26.037  26.302  1.00  0.00    -0.206 F 
ATOM     77  C   UNL A   1      42.571  22.810  25.298  1.00  0.00     0.022 A 
BRANCH  74  78
ATOM     78  S   UNL A   1      40.926  20.903  26.496  1.00  0.00     0.124 S 
ATOM     79  O   UNL A   1      40.896  20.661  27.933  1.00  0.00    -0.237 OA
ATOM     80  O   UNL A   1      39.644  21.209  25.870  1.00  0.00    -0.237 OA
ATOM     81  O   UNL A   1      41.793  20.011  25.729  1.00  0.00    -0.744 OA
ENDBRANCH  74  78
ENDBRANCH  47  71
BRANCH  59  82
ATOM     82  C   UNL A   1      46.155  25.578  33.251  1.00  0.00     0.023 A 
ATOM     83  C   UNL A   1      45.967  24.478  34.107  1.00  0.00     0.031 A 
ATOM     84  C   UNL A   1      47.473  25.978  32.969  1.00  0.00     0.131 A 
ATOM     85  C   UNL A   1      47.077  23.853  34.698  1.00  0.00     0.055 A 
ATOM     86  C   UNL A   1      48.575  25.316  33.513  1.00  0.00     0.041 A 
ATOM     87  F   UNL A   1      47.712  27.022  32.161  1.00  0.00    -0.206 F 
ATOM     88  C   UNL A   1      48.380  24.257  34.395  1.00  0.00     0.022 A 
BRANCH  85  89
ATOM     89  S   UNL A   1      46.793  22.573  35.951  1.00  0.00     0.124 S 
ATOM     90  O   UNL A   1      45.763  21.753  35.320  1.00  0.00    -0.237 OA
ATOM     91  O   UNL A   1      48.111  21.958  36.072  1.00  0.00    -0.237 OA
ATOM     92  O   UNL A   1      46.353  23.329  37.121  1.00  0.00    -0.744 OA
ENDBRANCH  85  89
ENDBRANCH  59  82
ENDBRANCH  33  34
ENDBRANCH  25  28
ENDBRANCH  23  24
ENDBRANCH   1  23
TORSDOF 17
ENDMDL
MODEL 3
REMARK VINA RESULT:     -11.3      3.568      8.773
REMARK SMILES CCC(CC)NC(=O)N[C@@H]1C=C[C@@H](C(=O)NCCCNC(=O)c2ccc(-c3c4nc(c(-c5cc(S(=O)(=O)[O-])ccc5F)c5ccc([nH]5)c(-c5cc(S(=O)(=O)[O-])ccc5F)c5nc(c(-c6cc(S(=O)(=O)[O-])ccc6F)c6ccc3[nH]6)C=C5)C=C4)cc2)C1
REMARK SMILES IDX 18 1 17 2 16 3 14 4 15 5 13 7 10 8 11 9 86 10 12 11 9 12
REMARK SMILES IDX 6 13 7 14 8 16 3 18 2 19 1 20 4 21 5 22 19 23 20 24 21 25
REMARK SMILES IDX 22 27 23 28 24 29 85 30 25 31 84 32 26 33 27 34 28 35 78 36
REMARK SMILES IDX 29 37 83 38 77 39 79 40 30 41 82 42 76 43 75 44 31 46 63 47
REMARK SMILES IDX 43 48 62 49 44 50 47 51 61 52 80 53 45 54 46 55 60 57 81 58
REMARK SMILES IDX 48 59 32 60 33 61 41 62 34 63 40 64 42 65 39 66 35 67 36 68
REMARK SMILES IDX 37 69 38 70 64 71 65 72 73 73 66 74 72 75 74 76 71 77 67 78
REMARK SMILES IDX 68 79 69 80 70 81 49 82 50 83 58 84 51 85 57 86 59 87 56 88
REMARK SMILES IDX 52 89 53 90 54 91 55 92
REMARK H PARENT 16 6 6 15 9 17 20 26 79 45 47 56
REMARK Flexibility Score: inf
ROOT
ATOM      1  C   UNL A   1      33.190  28.807  24.804  1.00  0.00     0.042 C 
ENDROOT
BRANCH   1   2
ATOM      2  C   UNL A   1      31.677  29.003  24.845  1.00  0.00     0.117 C 
BRANCH   2   3
ATOM      3  N   UNL A   1      31.145  29.561  23.615  1.00  0.00    -0.356 N 
ATOM      4  C   UNL A   1      30.514  28.982  22.557  1.00  0.00     0.227 C 
ATOM      5  O   UNL A   1      30.054  29.745  21.700  1.00  0.00    -0.274 OA
ATOM      6  H   UNL A   1      31.262  30.534  23.530  1.00  0.00     0.163 HD
BRANCH   4   7
ATOM      7  C   UNL A   1      30.365  27.467  22.383  1.00  0.00     0.103 C 
ATOM      8  C   UNL A   1      31.821  25.626  23.151  1.00  0.00     0.107 C 
ATOM      9  C   UNL A   1      30.553  25.724  23.943  1.00  0.00    -0.006 C 
ATOM     10  C   UNL A   1      31.671  26.727  22.086  1.00  0.00     0.047 C 
ATOM     11  C   UNL A   1      29.781  26.744  23.553  1.00  0.00    -0.016 C 
BRANCH   8  12
ATOM     12  N   UNL A   1      31.912  24.306  22.581  1.00  0.00    -0.332 N 
ATOM     13  N   UNL A   1      33.578  23.183  23.836  1.00  0.00    -0.335 N 
ATOM     14  C   UNL A   1      32.649  23.228  22.874  1.00  0.00     0.315 C 
ATOM     15  H   UNL A   1      33.961  22.282  23.945  1.00  0.00     0.165 HD
ATOM     16  O   UNL A   1      32.455  22.206  22.211  1.00  0.00    -0.249 OA
ATOM     17  H   UNL A   1      31.308  24.170  21.815  1.00  0.00     0.165 HD
BRANCH  13  18
ATOM     18  C   UNL A   1      34.162  24.149  24.765  1.00  0.00     0.083 C 
BRANCH  18  19
ATOM     19  C   UNL A   1      33.425  24.096  26.111  1.00  0.00     0.021 C 
ATOM     20  C   UNL A   1      32.907  25.459  26.545  1.00  0.00     0.006 C 
ENDBRANCH  18  19
BRANCH  18  21
ATOM     21  C   UNL A   1      35.690  23.966  24.839  1.00  0.00     0.021 C 
ATOM     22  C   UNL A   1      36.158  22.743  25.615  1.00  0.00     0.006 C 
ENDBRANCH  18  21
ENDBRANCH  13  18
ENDBRANCH   8  12
ENDBRANCH   4   7
ENDBRANCH   2   3
ENDBRANCH   1   2
BRANCH   1  23
ATOM     23  C   UNL A   1      33.897  28.993  26.145  1.00  0.00     0.118 C 
BRANCH  23  24
ATOM     24  N   UNL A   1      33.724  30.331  26.687  1.00  0.00    -0.352 N 
ATOM     25  C   UNL A   1      34.431  31.020  27.640  1.00  0.00     0.251 C 
ATOM     26  H   UNL A   1      32.966  30.829  26.304  1.00  0.00     0.163 HD
ATOM     27  O   UNL A   1      33.952  32.071  28.070  1.00  0.00    -0.269 OA
BRANCH  25  28
ATOM     28  C   UNL A   1      35.727  30.532  28.169  1.00  0.00     0.039 A 
ATOM     29  C   UNL A   1      35.712  29.664  29.268  1.00  0.00     0.014 A 
ATOM     30  C   UNL A   1      36.954  30.962  27.654  1.00  0.00     0.014 A 
ATOM     31  C   UNL A   1      36.912  29.194  29.811  1.00  0.00     0.010 A 
ATOM     32  C   UNL A   1      38.149  30.432  28.148  1.00  0.00     0.010 A 
ATOM     33  C   UNL A   1      38.143  29.549  29.238  1.00  0.00    -0.014 A 
BRANCH  33  34
ATOM     34  C   UNL A   1      39.418  28.998  29.773  1.00  0.00     0.031 A 
ATOM     35  C   UNL A   1      40.085  29.621  30.971  1.00  0.00     0.074 A 
ATOM     36  C   UNL A   1      40.004  27.956  29.150  1.00  0.00     0.049 A 
ATOM     37  N   UNL A   1      41.200  29.283  31.570  1.00  0.00    -0.248 NA
ATOM     38  C   UNL A   1      39.429  30.801  31.551  1.00  0.00     0.031 C 
ATOM     39  C   UNL A   1      39.493  27.303  27.942  1.00  0.00     0.029 A 
ATOM     40  N   UNL A   1      41.155  27.268  29.438  1.00  0.00    -0.354 N 
ATOM     41  C   UNL A   1      41.386  30.215  32.586  1.00  0.00     0.074 A 
ATOM     42  C   UNL A   1      40.302  31.168  32.476  1.00  0.00     0.031 C 
ATOM     43  C   UNL A   1      40.312  26.292  27.611  1.00  0.00     0.029 A 
ATOM     44  C   UNL A   1      41.422  26.245  28.558  1.00  0.00     0.049 A 
ATOM     45  H   UNL A   1      41.735  27.485  30.203  1.00  0.00     0.167 HD
ATOM     46  C   UNL A   1      42.356  30.258  33.536  1.00  0.00     0.034 A 
ATOM     47  C   UNL A   1      42.442  25.366  28.514  1.00  0.00     0.034 A 
ATOM     48  C   UNL A   1      43.425  29.292  33.639  1.00  0.00     0.049 A 
ATOM     49  C   UNL A   1      43.495  25.414  29.589  1.00  0.00     0.074 A 
ATOM     50  C   UNL A   1      44.417  29.200  34.601  1.00  0.00     0.029 A 
ATOM     51  N   UNL A   1      43.650  28.254  32.743  1.00  0.00    -0.354 N 
ATOM     52  N   UNL A   1      43.618  26.258  30.587  1.00  0.00    -0.248 NA
ATOM     53  C   UNL A   1      44.535  24.379  29.540  1.00  0.00     0.031 C 
ATOM     54  C   UNL A   1      45.277  28.151  34.249  1.00  0.00     0.029 A 
ATOM     55  C   UNL A   1      44.781  27.538  33.111  1.00  0.00     0.049 A 
ATOM     56  H   UNL A   1      43.089  28.056  31.958  1.00  0.00     0.167 HD
ATOM     57  C   UNL A   1      44.736  25.838  31.302  1.00  0.00     0.074 A 
ATOM     58  C   UNL A   1      45.240  24.659  30.626  1.00  0.00     0.031 C 
ATOM     59  C   UNL A   1      45.290  26.376  32.419  1.00  0.00     0.034 A 
BRANCH  46  60
ATOM     60  C   UNL A   1      42.312  31.409  34.518  1.00  0.00     0.023 A 
ATOM     61  C   UNL A   1      41.405  31.427  35.595  1.00  0.00     0.031 A 
ATOM     62  C   UNL A   1      43.151  32.525  34.352  1.00  0.00     0.131 A 
ATOM     63  C   UNL A   1      41.292  32.571  36.399  1.00  0.00     0.055 A 
ATOM     64  C   UNL A   1      43.096  33.624  35.212  1.00  0.00     0.041 A 
ATOM     65  F   UNL A   1      44.025  32.577  33.335  1.00  0.00    -0.206 F 
ATOM     66  C   UNL A   1      42.148  33.661  36.231  1.00  0.00     0.022 A 
BRANCH  63  67
ATOM     67  S   UNL A   1      39.893  32.685  37.549  1.00  0.00     0.124 S 
ATOM     68  O   UNL A   1      39.060  31.567  37.110  1.00  0.00    -0.237 OA
ATOM     69  O   UNL A   1      40.539  32.529  38.847  1.00  0.00    -0.237 OA
ATOM     70  O   UNL A   1      39.335  34.009  37.281  1.00  0.00    -0.744 OA
ENDBRANCH  63  67
ENDBRANCH  46  60
BRANCH  47  71
ATOM     71  C   UNL A   1      42.507  24.359  27.419  1.00  0.00     0.023 A 
ATOM     72  C   UNL A   1      41.722  23.195  27.456  1.00  0.00     0.031 A 
ATOM     73  C   UNL A   1      43.357  24.550  26.317  1.00  0.00     0.131 A 
ATOM     74  C   UNL A   1      41.827  22.252  26.423  1.00  0.00     0.055 A 
ATOM     75  C   UNL A   1      43.427  23.629  25.272  1.00  0.00     0.041 A 
ATOM     76  F   UNL A   1      44.116  25.654  26.230  1.00  0.00    -0.206 F 
ATOM     77  C   UNL A   1      42.664  22.466  25.325  1.00  0.00     0.022 A 
BRANCH  74  78
ATOM     78  S   UNL A   1      40.879  20.711  26.554  1.00  0.00     0.124 S 
ATOM     79  O   UNL A   1      40.940  20.444  27.986  1.00  0.00    -0.237 OA
ATOM     80  O   UNL A   1      39.577  21.111  26.031  1.00  0.00    -0.237 OA
ATOM     81  O   UNL A   1      41.626  19.780  25.711  1.00  0.00    -0.744 OA
ENDBRANCH  74  78
ENDBRANCH  47  71
BRANCH  59  82
ATOM     82  C   UNL A   1      46.488  25.662  32.999  1.00  0.00     0.023 A 
ATOM     83  C   UNL A   1      47.791  25.897  32.527  1.00  0.00     0.031 A 
ATOM     84  C   UNL A   1      46.317  24.714  34.024  1.00  0.00     0.131 A 
ATOM     85  C   UNL A   1      48.865  25.151  33.037  1.00  0.00     0.055 A 
ATOM     86  C   UNL A   1      47.397  24.017  34.568  1.00  0.00     0.041 A 
ATOM     87  F   UNL A   1      45.095  24.447  34.511  1.00  0.00    -0.206 F 
ATOM     88  C   UNL A   1      48.678  24.223  34.064  1.00  0.00     0.022 A 
BRANCH  85  89
ATOM     89  S   UNL A   1      50.497  25.333  32.266  1.00  0.00     0.124 S 
ATOM     90  O   UNL A   1      50.513  26.751  31.918  1.00  0.00    -0.237 OA
ATOM     91  O   UNL A   1      51.397  24.933  33.344  1.00  0.00    -0.237 OA
ATOM     92  O   UNL A   1      50.446  24.416  31.130  1.00  0.00    -0.744 OA
ENDBRANCH  85  89
ENDBRANCH  59  82
ENDBRANCH  33  34
ENDBRANCH  25  28
ENDBRANCH  23  24
ENDBRANCH   1  23
TORSDOF 17
ENDMDL
