MODEL 1
REMARK VINA RESULT:     -10.8      0.000      0.000
REMARK SMILES CC(C)(C)OC(=O)c1ccc(C[C@H]([NH3+])C(=O)NCCCNC(=O)c2ccc(-c3c4nc(c(-c5cc(S(=O)(=O)[O-])ccc5F)c5ccc([nH]5)c(-c5cc(S(=O)(=O)[O-])ccc5F)c5nc(c(-c6cc(S(=O)(=O)[O-])ccc6F)c6ccc3[nH]6)C=C5)C=C4)cc2)cc1
REMARK SMILES IDX 18 1 17 2 15 3 16 4 13 6 12 7 11 8 8 9 9 10 88 11 10 12
REMARK SMILES IDX 87 13 6 14 7 15 5 16 2 17 1 18 3 19 4 20 14 21 19 25 20 26
REMARK SMILES IDX 21 27 22 28 23 30 24 31 25 32 86 33 26 34 85 35 27 36 28 37
REMARK SMILES IDX 29 38 79 39 30 40 84 41 78 42 80 43 31 44 83 45 77 46 76 47
REMARK SMILES IDX 32 49 64 50 44 51 63 52 45 53 48 54 62 55 81 56 46 57 47 58
REMARK SMILES IDX 61 60 82 61 49 62 33 63 34 64 42 65 35 66 41 67 43 68 40 69
REMARK SMILES IDX 36 70 37 71 38 72 39 73 65 74 66 75 74 76 67 77 73 78 75 79
REMARK SMILES IDX 72 80 68 81 69 82 70 83 71 84 50 85 51 86 59 87 52 88 58 89
REMARK SMILES IDX 60 90 57 91 53 92 54 93 55 94 56 95
REMARK H PARENT 17 5 14 22 14 23 14 24 21 29 80 48 48 59
REMARK Flexibility Score: inf
ROOT
ATOM      1  C   UNL A   1      31.777  29.836  25.612  1.00  0.00     0.118 C 
ENDROOT
BRANCH   1   2
ATOM      2  N   UNL A   1      32.611  29.512  24.468  1.00  0.00    -0.351 N 
ATOM      3  C   UNL A   1      32.289  29.202  23.180  1.00  0.00     0.278 C 
ATOM      4  O   UNL A   1      33.221  28.970  22.403  1.00  0.00    -0.268 OA
ATOM      5  H   UNL A   1      33.578  29.519  24.655  1.00  0.00     0.163 HD
BRANCH   3   6
ATOM      6  C   UNL A   1      30.825  29.127  22.701  1.00  0.00     0.275 C 
BRANCH   6   7
ATOM      7  C   UNL A   1      30.377  27.678  22.416  1.00  0.00     0.111 C 
BRANCH   7   8
ATOM      8  C   UNL A   1      30.816  26.677  23.466  1.00  0.00    -0.041 A 
ATOM      9  C   UNL A   1      31.616  24.858  25.449  1.00  0.00     0.060 A 
ATOM     10  C   UNL A   1      32.286  24.900  24.223  1.00  0.00     0.016 A 
ATOM     11  C   UNL A   1      30.527  25.706  25.675  1.00  0.00     0.016 A 
ATOM     12  C   UNL A   1      31.878  25.793  23.232  1.00  0.00     0.005 A 
ATOM     13  C   UNL A   1      30.131  26.610  24.687  1.00  0.00     0.005 A 
BRANCH   9  14
ATOM     14  C   UNL A   1      32.132  23.954  26.500  1.00  0.00     0.338 C 
ATOM     15  O   UNL A   1      31.512  23.706  27.525  1.00  0.00    -0.246 OA
BRANCH  14  16
ATOM     16  O   UNL A   1      33.347  23.479  26.147  1.00  0.00    -0.456 OA
BRANCH  16  17
ATOM     17  C   UNL A   1      33.596  22.051  26.134  1.00  0.00     0.104 C 
ATOM     18  C   UNL A   1      34.872  21.879  25.297  1.00  0.00     0.056 C 
ATOM     19  C   UNL A   1      32.442  21.327  25.434  1.00  0.00     0.056 C 
ATOM     20  C   UNL A   1      33.860  21.489  27.537  1.00  0.00     0.056 C 
ENDBRANCH  16  17
ENDBRANCH  14  16
ENDBRANCH   9  14
ENDBRANCH   7   8
ENDBRANCH   6   7
BRANCH   6  21
ATOM     21  N   UNL A   1      30.621  30.041  21.552  1.00  0.00    -0.347 N 
ATOM     22  H   UNL A   1      29.968  29.618  20.893  1.00  0.00     0.345 HD
ATOM     23  H   UNL A   1      31.513  30.209  21.089  1.00  0.00     0.345 HD
ATOM     24  H   UNL A   1      30.239  30.927  21.886  1.00  0.00     0.345 HD
ENDBRANCH   6  21
ENDBRANCH   3   6
ENDBRANCH   1   2
BRANCH   1  25
ATOM     25  C   UNL A   1      32.218  29.103  26.873  1.00  0.00     0.042 C 
BRANCH  25  26
ATOM     26  C   UNL A   1      33.601  29.499  27.380  1.00  0.00     0.118 C 
BRANCH  26  27
ATOM     27  N   UNL A   1      33.671  30.896  27.780  1.00  0.00    -0.352 N 
ATOM     28  C   UNL A   1      34.581  31.562  28.561  1.00  0.00     0.251 C 
ATOM     29  H   UNL A   1      32.943  31.459  27.430  1.00  0.00     0.163 HD
ATOM     30  O   UNL A   1      34.316  32.705  28.924  1.00  0.00    -0.269 OA
BRANCH  28  31
ATOM     31  C   UNL A   1      35.850  30.923  28.983  1.00  0.00     0.039 A 
ATOM     32  C   UNL A   1      37.047  31.398  28.437  1.00  0.00     0.014 A 
ATOM     33  C   UNL A   1      35.876  29.838  29.862  1.00  0.00     0.014 A 
ATOM     34  C   UNL A   1      38.262  30.820  28.811  1.00  0.00     0.010 A 
ATOM     35  C   UNL A   1      37.093  29.319  30.301  1.00  0.00     0.010 A 
ATOM     36  C   UNL A   1      38.300  29.795  29.770  1.00  0.00    -0.014 A 
BRANCH  36  37
ATOM     37  C   UNL A   1      39.597  29.219  30.211  1.00  0.00     0.031 A 
ATOM     38  C   UNL A   1      40.319  29.781  31.406  1.00  0.00     0.074 A 
ATOM     39  C   UNL A   1      40.145  28.212  29.501  1.00  0.00     0.049 A 
ATOM     40  N   UNL A   1      41.449  29.398  31.945  1.00  0.00    -0.248 NA
ATOM     41  C   UNL A   1      39.710  30.948  32.057  1.00  0.00     0.031 C 
ATOM     42  C   UNL A   1      39.582  27.638  28.276  1.00  0.00     0.029 A 
ATOM     43  N   UNL A   1      41.296  27.495  29.704  1.00  0.00    -0.354 N 
ATOM     44  C   UNL A   1      41.695  30.287  32.987  1.00  0.00     0.074 A 
ATOM     45  C   UNL A   1      40.627  31.264  32.959  1.00  0.00     0.031 C 
ATOM     46  C   UNL A   1      40.372  26.640  27.854  1.00  0.00     0.029 A 
ATOM     47  C   UNL A   1      41.510  26.518  28.759  1.00  0.00     0.049 A 
ATOM     48  H   UNL A   1      41.912  27.664  30.454  1.00  0.00     0.167 HD
ATOM     49  C   UNL A   1      42.701  30.274  33.896  1.00  0.00     0.034 A 
ATOM     50  C   UNL A   1      42.506  25.619  28.641  1.00  0.00     0.034 A 
ATOM     51  C   UNL A   1      43.747  29.278  33.919  1.00  0.00     0.049 A 
ATOM     52  C   UNL A   1      43.581  25.583  29.693  1.00  0.00     0.074 A 
ATOM     53  C   UNL A   1      44.772  29.122  34.837  1.00  0.00     0.029 A 
ATOM     54  N   UNL A   1      43.907  28.271  32.975  1.00  0.00    -0.354 N 
ATOM     55  N   UNL A   1      43.752  26.375  30.726  1.00  0.00    -0.248 NA
ATOM     56  C   UNL A   1      44.578  24.513  29.579  1.00  0.00     0.031 C 
ATOM     57  C   UNL A   1      45.583  28.061  34.414  1.00  0.00     0.029 A 
ATOM     58  C   UNL A   1      45.026  27.507  33.273  1.00  0.00     0.049 A 
ATOM     59  H   UNL A   1      43.311  28.122  32.204  1.00  0.00     0.167 HD
ATOM     60  C   UNL A   1      44.867  25.885  31.399  1.00  0.00     0.074 A 
ATOM     61  C   UNL A   1      45.309  24.714  30.666  1.00  0.00     0.031 C 
ATOM     62  C   UNL A   1      45.470  26.356  32.521  1.00  0.00     0.034 A 
BRANCH  49  63
ATOM     63  C   UNL A   1      42.725  31.388  34.920  1.00  0.00     0.023 A 
ATOM     64  C   UNL A   1      43.311  32.637  34.643  1.00  0.00     0.031 A 
ATOM     65  C   UNL A   1      42.193  31.186  36.206  1.00  0.00     0.131 A 
ATOM     66  C   UNL A   1      43.430  33.598  35.659  1.00  0.00     0.055 A 
ATOM     67  C   UNL A   1      42.238  32.179  37.187  1.00  0.00     0.041 A 
ATOM     68  F   UNL A   1      41.637  30.010  36.539  1.00  0.00    -0.206 F 
ATOM     69  C   UNL A   1      42.875  33.387  36.922  1.00  0.00     0.022 A 
BRANCH  66  70
ATOM     70  S   UNL A   1      44.462  35.059  35.350  1.00  0.00     0.124 S 
ATOM     71  O   UNL A   1      45.780  34.455  35.168  1.00  0.00    -0.237 OA
ATOM     72  O   UNL A   1      43.850  35.630  34.157  1.00  0.00    -0.237 OA
ATOM     73  O   UNL A   1      44.310  35.849  36.570  1.00  0.00    -0.744 OA
ENDBRANCH  66  70
ENDBRANCH  49  63
BRANCH  50  74
ATOM     74  C   UNL A   1      42.522  24.670  27.492  1.00  0.00     0.023 A 
ATOM     75  C   UNL A   1      41.742  23.503  27.504  1.00  0.00     0.031 A 
ATOM     76  C   UNL A   1      43.328  24.917  26.368  1.00  0.00     0.131 A 
ATOM     77  C   UNL A   1      41.814  22.605  26.427  1.00  0.00     0.055 A 
ATOM     78  C   UNL A   1      43.364  24.043  25.281  1.00  0.00     0.041 A 
ATOM     79  F   UNL A   1      44.080  26.028  26.302  1.00  0.00    -0.206 F 
ATOM     80  C   UNL A   1      42.612  22.872  25.312  1.00  0.00     0.022 A 
BRANCH  77  81
ATOM     81  S   UNL A   1      40.888  21.048  26.530  1.00  0.00     0.124 S 
ATOM     82  O   UNL A   1      39.631  21.406  25.883  1.00  0.00    -0.237 OA
ATOM     83  O   UNL A   1      41.752  20.135  25.790  1.00  0.00    -0.237 OA
ATOM     84  O   UNL A   1      40.804  20.797  27.966  1.00  0.00    -0.744 OA
ENDBRANCH  77  81
ENDBRANCH  50  74
BRANCH  62  85
ATOM     85  C   UNL A   1      46.658  25.577  33.031  1.00  0.00     0.023 A 
ATOM     86  C   UNL A   1      47.946  25.763  32.499  1.00  0.00     0.031 A 
ATOM     87  C   UNL A   1      46.490  24.606  34.033  1.00  0.00     0.131 A 
ATOM     88  C   UNL A   1      49.002  24.940  32.919  1.00  0.00     0.055 A 
ATOM     89  C   UNL A   1      47.558  23.834  34.493  1.00  0.00     0.041 A 
ATOM     90  F   UNL A   1      45.282  24.384  34.576  1.00  0.00    -0.206 F 
ATOM     91  C   UNL A   1      48.819  23.986  33.924  1.00  0.00     0.022 A 
BRANCH  88  92
ATOM     92  S   UNL A   1      50.590  25.049  32.049  1.00  0.00     0.124 S 
ATOM     93  O   UNL A   1      50.963  23.645  31.921  1.00  0.00    -0.237 OA
ATOM     94  O   UNL A   1      50.219  25.727  30.811  1.00  0.00    -0.237 OA
ATOM     95  O   UNL A   1      51.426  25.832  32.958  1.00  0.00    -0.744 OA
ENDBRANCH  88  92
ENDBRANCH  62  85
ENDBRANCH  36  37
ENDBRANCH  28  31
ENDBRANCH  26  27
ENDBRANCH  25  26
ENDBRANCH   1  25
TORSDOF 19
ENDMDL
MODEL 2
REMARK VINA RESULT:     -10.8      4.273      9.220
REMARK SMILES CC(C)(C)OC(=O)c1ccc(C[C@H]([NH3+])C(=O)NCCCNC(=O)c2ccc(-c3c4nc(c(-c5cc(S(=O)(=O)[O-])ccc5F)c5ccc([nH]5)c(-c5cc(S(=O)(=O)[O-])ccc5F)c5nc(c(-c6cc(S(=O)(=O)[O-])ccc6F)c6ccc3[nH]6)C=C5)C=C4)cc2)cc1
REMARK SMILES IDX 18 1 17 2 15 3 16 4 13 6 12 7 11 8 8 9 9 10 88 11 10 12
REMARK SMILES IDX 87 13 6 14 7 15 5 16 2 17 1 18 3 19 4 20 14 21 19 25 20 26
REMARK SMILES IDX 21 27 22 28 23 30 24 31 25 32 86 33 26 34 85 35 27 36 28 37
REMARK SMILES IDX 29 38 79 39 30 40 84 41 78 42 80 43 31 44 83 45 77 46 76 47
REMARK SMILES IDX 32 49 64 50 44 51 63 52 45 53 48 54 62 55 81 56 46 57 47 58
REMARK SMILES IDX 61 60 82 61 49 62 33 63 34 64 42 65 35 66 41 67 43 68 40 69
REMARK SMILES IDX 36 70 37 71 38 72 39 73 65 74 66 75 74 76 67 77 73 78 75 79
REMARK SMILES IDX 72 80 68 81 69 82 70 83 71 84 50 85 51 86 59 87 52 88 58 89
REMARK SMILES IDX 60 90 57 91 53 92 54 93 55 94 56 95
REMARK H PARENT 17 5 14 22 14 23 14 24 21 29 80 48 48 59
REMARK Flexibility Score: inf
ROOT
ATOM      1  C   UNL A   1      34.480  24.708  25.345  1.00  0.00     0.118 C 
ENDROOT
BRANCH   1   2
ATOM      2  N   UNL A   1      34.511  25.051  23.934  1.00  0.00    -0.351 N 
ATOM      3  C   UNL A   1      33.523  25.448  23.083  1.00  0.00     0.278 C 
ATOM      4  O   UNL A   1      33.843  25.681  21.913  1.00  0.00    -0.268 OA
ATOM      5  H   UNL A   1      35.402  24.987  23.521  1.00  0.00     0.163 HD
BRANCH   3   6
ATOM      6  C   UNL A   1      32.059  25.592  23.546  1.00  0.00     0.275 C 
BRANCH   6   7
ATOM      7  C   UNL A   1      31.174  24.428  23.053  1.00  0.00     0.111 C 
BRANCH   7   8
ATOM      8  C   UNL A   1      31.569  23.074  23.607  1.00  0.00    -0.041 A 
ATOM      9  C   UNL A   1      32.289  20.544  24.589  1.00  0.00     0.060 A 
ATOM     10  C   UNL A   1      31.720  21.493  25.444  1.00  0.00     0.016 A 
ATOM     11  C   UNL A   1      32.525  20.868  23.249  1.00  0.00     0.016 A 
ATOM     12  C   UNL A   1      31.377  22.755  24.959  1.00  0.00     0.005 A 
ATOM     13  C   UNL A   1      32.166  22.127  22.764  1.00  0.00     0.005 A 
BRANCH   9  14
ATOM     14  C   UNL A   1      32.563  19.192  25.124  1.00  0.00     0.338 C 
ATOM     15  O   UNL A   1      32.642  18.955  26.321  1.00  0.00    -0.246 OA
BRANCH  14  16
ATOM     16  O   UNL A   1      32.708  18.313  24.107  1.00  0.00    -0.456 OA
BRANCH  16  17
ATOM     17  C   UNL A   1      33.778  17.336  24.135  1.00  0.00     0.104 C 
ATOM     18  C   UNL A   1      33.918  16.860  22.682  1.00  0.00     0.056 C 
ATOM     19  C   UNL A   1      33.374  16.145  25.011  1.00  0.00     0.056 C 
ATOM     20  C   UNL A   1      35.116  17.944  24.575  1.00  0.00     0.056 C 
ENDBRANCH  16  17
ENDBRANCH  14  16
ENDBRANCH   9  14
ENDBRANCH   7   8
ENDBRANCH   6   7
BRANCH   6  21
ATOM     21  N   UNL A   1      31.537  26.927  23.165  1.00  0.00    -0.347 N 
ATOM     22  H   UNL A   1      30.724  26.814  22.559  1.00  0.00     0.345 HD
ATOM     23  H   UNL A   1      32.262  27.446  22.670  1.00  0.00     0.345 HD
ATOM     24  H   UNL A   1      31.266  27.439  24.005  1.00  0.00     0.345 HD
ENDBRANCH   6  21
ENDBRANCH   3   6
ENDBRANCH   1   2
BRANCH   1  25
ATOM     25  C   UNL A   1      35.381  23.524  25.672  1.00  0.00     0.042 C 
BRANCH  25  26
ATOM     26  C   UNL A   1      36.775  23.607  25.060  1.00  0.00     0.118 C 
BRANCH  26  27
ATOM     27  N   UNL A   1      37.687  22.616  25.607  1.00  0.00    -0.352 N 
ATOM     28  C   UNL A   1      38.869  22.762  26.289  1.00  0.00     0.251 C 
ATOM     29  H   UNL A   1      37.409  21.682  25.466  1.00  0.00     0.163 HD
ATOM     30  O   UNL A   1      39.565  21.766  26.474  1.00  0.00    -0.269 OA
BRANCH  28  31
ATOM     31  C   UNL A   1      39.319  24.085  26.779  1.00  0.00     0.039 A 
ATOM     32  C   UNL A   1      39.000  24.453  28.090  1.00  0.00     0.014 A 
ATOM     33  C   UNL A   1      40.002  24.986  25.956  1.00  0.00     0.014 A 
ATOM     34  C   UNL A   1      39.407  25.693  28.585  1.00  0.00     0.010 A 
ATOM     35  C   UNL A   1      40.483  26.186  26.478  1.00  0.00     0.010 A 
ATOM     36  C   UNL A   1      40.179  26.560  27.794  1.00  0.00    -0.014 A 
BRANCH  36  37
ATOM     37  C   UNL A   1      40.662  27.855  28.341  1.00  0.00     0.031 A 
ATOM     38  C   UNL A   1      42.135  28.164  28.393  1.00  0.00     0.074 A 
ATOM     39  C   UNL A   1      39.768  28.736  28.832  1.00  0.00     0.049 A 
ATOM     40  N   UNL A   1      42.738  29.244  28.820  1.00  0.00    -0.248 NA
ATOM     41  C   UNL A   1      43.048  27.106  27.942  1.00  0.00     0.031 C 
ATOM     42  C   UNL A   1      38.322  28.515  28.913  1.00  0.00     0.029 A 
ATOM     43  N   UNL A   1      39.941  29.991  29.357  1.00  0.00    -0.354 N 
ATOM     44  C   UNL A   1      44.101  28.991  28.704  1.00  0.00     0.074 A 
ATOM     45  C   UNL A   1      44.231  27.630  28.228  1.00  0.00     0.031 C 
ATOM     46  C   UNL A   1      37.738  29.607  29.427  1.00  0.00     0.029 A 
ATOM     47  C   UNL A   1      38.766  30.596  29.737  1.00  0.00     0.049 A 
ATOM     48  H   UNL A   1      40.823  30.418  29.453  1.00  0.00     0.167 HD
ATOM     49  C   UNL A   1      45.145  29.822  28.948  1.00  0.00     0.034 A 
ATOM     50  C   UNL A   1      38.540  31.814  30.267  1.00  0.00     0.034 A 
ATOM     51  C   UNL A   1      44.994  31.184  29.404  1.00  0.00     0.049 A 
ATOM     52  C   UNL A   1      39.705  32.743  30.474  1.00  0.00     0.074 A 
ATOM     53  C   UNL A   1      45.974  32.141  29.611  1.00  0.00     0.029 A 
ATOM     54  N   UNL A   1      43.784  31.783  29.734  1.00  0.00    -0.354 N 
ATOM     55  N   UNL A   1      40.984  32.520  30.275  1.00  0.00    -0.248 NA
ATOM     56  C   UNL A   1      39.393  34.096  30.948  1.00  0.00     0.031 C 
ATOM     57  C   UNL A   1      45.363  33.293  30.121  1.00  0.00     0.029 A 
ATOM     58  C   UNL A   1      43.994  33.084  30.166  1.00  0.00     0.049 A 
ATOM     59  H   UNL A   1      42.903  31.345  29.671  1.00  0.00     0.167 HD
ATOM     60  C   UNL A   1      41.628  33.716  30.581  1.00  0.00     0.074 A 
ATOM     61  C   UNL A   1      40.592  34.660  30.951  1.00  0.00     0.031 C 
ATOM     62  C   UNL A   1      42.954  34.008  30.555  1.00  0.00     0.034 A 
BRANCH  49  63
ATOM     63  C   UNL A   1      46.537  29.265  28.748  1.00  0.00     0.023 A 
ATOM     64  C   UNL A   1      47.092  29.102  27.465  1.00  0.00     0.031 A 
ATOM     65  C   UNL A   1      47.305  28.852  29.850  1.00  0.00     0.131 A 
ATOM     66  C   UNL A   1      48.332  28.462  27.312  1.00  0.00     0.055 A 
ATOM     67  C   UNL A   1      48.577  28.294  29.696  1.00  0.00     0.041 A 
ATOM     68  F   UNL A   1      46.826  28.964  31.099  1.00  0.00    -0.206 F 
ATOM     69  C   UNL A   1      49.090  28.080  28.421  1.00  0.00     0.022 A 
BRANCH  66  70
ATOM     70  S   UNL A   1      48.863  27.993  25.642  1.00  0.00     0.124 S 
ATOM     71  O   UNL A   1      49.030  26.548  25.780  1.00  0.00    -0.237 OA
ATOM     72  O   UNL A   1      47.742  28.432  24.820  1.00  0.00    -0.237 OA
ATOM     73  O   UNL A   1      50.105  28.740  25.455  1.00  0.00    -0.744 OA
ENDBRANCH  66  70
ENDBRANCH  49  63
BRANCH  50  74
ATOM     74  C   UNL A   1      37.154  32.227  30.622  1.00  0.00     0.023 A 
ATOM     75  C   UNL A   1      36.297  32.795  29.665  1.00  0.00     0.031 A 
ATOM     76  C   UNL A   1      36.669  32.067  31.931  1.00  0.00     0.131 A 
ATOM     77  C   UNL A   1      35.013  33.218  30.040  1.00  0.00     0.055 A 
ATOM     78  C   UNL A   1      35.376  32.450  32.291  1.00  0.00     0.041 A 
ATOM     79  F   UNL A   1      37.444  31.515  32.879  1.00  0.00    -0.206 F 
ATOM     80  C   UNL A   1      34.543  33.040  31.345  1.00  0.00     0.022 A 
BRANCH  77  81
ATOM     81  S   UNL A   1      33.979  34.058  28.810  1.00  0.00     0.124 S 
ATOM     82  O   UNL A   1      32.908  34.599  29.639  1.00  0.00    -0.237 OA
ATOM     83  O   UNL A   1      34.910  35.031  28.248  1.00  0.00    -0.237 OA
ATOM     84  O   UNL A   1      33.586  32.981  27.904  1.00  0.00    -0.744 OA
ENDBRANCH  77  81
ENDBRANCH  50  74
BRANCH  62  85
ATOM     85  C   UNL A   1      43.343  35.422  30.913  1.00  0.00     0.023 A 
ATOM     86  C   UNL A   1      43.377  36.445  29.949  1.00  0.00     0.031 A 
ATOM     87  C   UNL A   1      43.727  35.739  32.228  1.00  0.00     0.131 A 
ATOM     88  C   UNL A   1      43.854  37.718  30.297  1.00  0.00     0.055 A 
ATOM     89  C   UNL A   1      44.139  37.024  32.583  1.00  0.00     0.041 A 
ATOM     90  F   UNL A   1      43.716  34.801  33.189  1.00  0.00    -0.206 F 
ATOM     91  C   UNL A   1      44.221  38.018  31.612  1.00  0.00     0.022 A 
BRANCH  88  92
ATOM     92  S   UNL A   1      44.103  38.943  28.983  1.00  0.00     0.124 S 
ATOM     93  O   UNL A   1      44.696  38.135  27.923  1.00  0.00    -0.237 OA
ATOM     94  O   UNL A   1      42.744  39.418  28.740  1.00  0.00    -0.237 OA
ATOM     95  O   UNL A   1      45.002  39.922  29.593  1.00  0.00    -0.744 OA
ENDBRANCH  88  92
ENDBRANCH  62  85
ENDBRANCH  36  37
ENDBRANCH  28  31
ENDBRANCH  26  27
ENDBRANCH  25  26
ENDBRANCH   1  25
TORSDOF 19
ENDMDL
MODEL 3
REMARK VINA RESULT:     -10.8      2.777      3.484
REMARK SMILES CC(C)(C)OC(=O)c1ccc(C[C@H]([NH3+])C(=O)NCCCNC(=O)c2ccc(-c3c4nc(c(-c5cc(S(=O)(=O)[O-])ccc5F)c5ccc([nH]5)c(-c5cc(S(=O)(=O)[O-])ccc5F)c5nc(c(-c6cc(S(=O)(=O)[O-])ccc6F)c6ccc3[nH]6)C=C5)C=C4)cc2)cc1
REMARK SMILES IDX 18 1 17 2 15 3 16 4 13 6 12 7 11 8 8 9 9 10 88 11 10 12
REMARK SMILES IDX 87 13 6 14 7 15 5 16 2 17 1 18 3 19 4 20 14 21 19 25 20 26
REMARK SMILES IDX 21 27 22 28 23 30 24 31 25 32 86 33 26 34 85 35 27 36 28 37
REMARK SMILES IDX 29 38 79 39 30 40 84 41 78 42 80 43 31 44 83 45 77 46 76 47
REMARK SMILES IDX 32 49 64 50 44 51 63 52 45 53 48 54 62 55 81 56 46 57 47 58
REMARK SMILES IDX 61 60 82 61 49 62 33 63 34 64 42 65 35 66 41 67 43 68 40 69
REMARK SMILES IDX 36 70 37 71 38 72 39 73 65 74 66 75 74 76 67 77 73 78 75 79
REMARK SMILES IDX 72 80 68 81 69 82 70 83 71 84 50 85 51 86 59 87 52 88 58 89
REMARK SMILES IDX 60 90 57 91 53 92 54 93 55 94 56 95
REMARK H PARENT 17 5 14 22 14 23 14 24 21 29 80 48 48 59
REMARK Flexibility Score: inf
ROOT
ATOM      1  C   UNL A   1      31.368  28.173  25.726  1.00  0.00     0.118 C 
ENDROOT
BRANCH   1   2
ATOM      2  N   UNL A   1      31.061  28.183  24.306  1.00  0.00    -0.351 N 
ATOM      3  C   UNL A   1      30.453  27.259  23.511  1.00  0.00     0.278 C 
ATOM      4  O   UNL A   1      30.318  27.539  22.316  1.00  0.00    -0.268 OA
ATOM      5  H   UNL A   1      31.341  29.002  23.837  1.00  0.00     0.163 HD
BRANCH   3   6
ATOM      6  C   UNL A   1      29.959  25.906  24.065  1.00  0.00     0.275 C 
BRANCH   6   7
ATOM      7  C   UNL A   1      30.291  24.732  23.120  1.00  0.00     0.111 C 
BRANCH   7   8
ATOM      8  C   UNL A   1      31.394  23.825  23.626  1.00  0.00    -0.041 A 
ATOM      9  C   UNL A   1      33.458  22.183  24.590  1.00  0.00     0.060 A 
ATOM     10  C   UNL A   1      32.950  21.989  23.302  1.00  0.00     0.016 A 
ATOM     11  C   UNL A   1      32.916  23.179  25.409  1.00  0.00     0.016 A 
ATOM     12  C   UNL A   1      31.914  22.795  22.829  1.00  0.00     0.005 A 
ATOM     13  C   UNL A   1      31.890  23.994  24.926  1.00  0.00     0.005 A 
BRANCH   9  14
ATOM     14  C   UNL A   1      34.609  21.361  25.022  1.00  0.00     0.338 C 
ATOM     15  O   UNL A   1      34.669  20.154  24.840  1.00  0.00    -0.246 OA
BRANCH  14  16
ATOM     16  O   UNL A   1      35.533  22.141  25.627  1.00  0.00    -0.456 OA
BRANCH  16  17
ATOM     17  C   UNL A   1      36.774  22.460  24.949  1.00  0.00     0.104 C 
ATOM     18  C   UNL A   1      37.261  23.760  25.605  1.00  0.00     0.056 C 
ATOM     19  C   UNL A   1      36.505  22.723  23.464  1.00  0.00     0.056 C 
ATOM     20  C   UNL A   1      37.848  21.384  25.156  1.00  0.00     0.056 C 
ENDBRANCH  16  17
ENDBRANCH  14  16
ENDBRANCH   9  14
ENDBRANCH   7   8
ENDBRANCH   6   7
BRANCH   6  21
ATOM     21  N   UNL A   1      28.519  25.995  24.406  1.00  0.00    -0.347 N 
ATOM     22  H   UNL A   1      27.967  26.021  23.549  1.00  0.00     0.345 HD
ATOM     23  H   UNL A   1      28.350  26.843  24.946  1.00  0.00     0.345 HD
ATOM     24  H   UNL A   1      28.250  25.181  24.959  1.00  0.00     0.345 HD
ENDBRANCH   6  21
ENDBRANCH   3   6
ENDBRANCH   1   2
BRANCH   1  25
ATOM     25  C   UNL A   1      32.854  27.975  25.994  1.00  0.00     0.042 C 
BRANCH  25  26
ATOM     26  C   UNL A   1      33.739  29.117  25.505  1.00  0.00     0.118 C 
BRANCH  26  27
ATOM     27  N   UNL A   1      33.255  30.421  25.927  1.00  0.00    -0.352 N 
ATOM     28  C   UNL A   1      33.631  31.223  26.975  1.00  0.00     0.251 C 
ATOM     29  H   UNL A   1      32.535  30.792  25.366  1.00  0.00     0.163 HD
ATOM     30  O   UNL A   1      32.932  32.196  27.248  1.00  0.00    -0.269 OA
BRANCH  28  31
ATOM     31  C   UNL A   1      34.838  30.926  27.780  1.00  0.00     0.039 A 
ATOM     32  C   UNL A   1      34.910  29.695  28.442  1.00  0.00     0.014 A 
ATOM     33  C   UNL A   1      35.871  31.854  27.936  1.00  0.00     0.014 A 
ATOM     34  C   UNL A   1      36.032  29.381  29.211  1.00  0.00     0.010 A 
ATOM     35  C   UNL A   1      37.028  31.506  28.632  1.00  0.00     0.010 A 
ATOM     36  C   UNL A   1      37.116  30.271  29.289  1.00  0.00    -0.014 A 
BRANCH  36  37
ATOM     37  C   UNL A   1      38.335  29.912  30.060  1.00  0.00     0.031 A 
ATOM     38  C   UNL A   1      38.560  30.468  31.441  1.00  0.00     0.074 A 
ATOM     39  C   UNL A   1      39.263  29.117  29.492  1.00  0.00     0.049 A 
ATOM     40  N   UNL A   1      39.553  30.255  32.267  1.00  0.00    -0.248 NA
ATOM     41  C   UNL A   1      37.556  31.416  31.943  1.00  0.00     0.031 C 
ATOM     42  C   UNL A   1      39.197  28.583  28.128  1.00  0.00     0.029 A 
ATOM     43  N   UNL A   1      40.441  28.618  29.986  1.00  0.00    -0.354 N 
ATOM     44  C   UNL A   1      39.303  31.053  33.378  1.00  0.00     0.074 A 
ATOM     45  C   UNL A   1      38.098  31.802  33.089  1.00  0.00     0.031 C 
ATOM     46  C   UNL A   1      40.271  27.811  27.906  1.00  0.00     0.029 A 
ATOM     47  C   UNL A   1      41.114  27.812  29.098  1.00  0.00     0.049 A 
ATOM     48  H   UNL A   1      40.774  28.820  30.890  1.00  0.00     0.167 HD
ATOM     49  C   UNL A   1      39.998  31.136  34.541  1.00  0.00     0.034 A 
ATOM     50  C   UNL A   1      42.275  27.142  29.230  1.00  0.00     0.034 A 
ATOM     51  C   UNL A   1      41.187  30.366  34.818  1.00  0.00     0.049 A 
ATOM     52  C   UNL A   1      43.000  27.199  30.548  1.00  0.00     0.074 A 
ATOM     53  C   UNL A   1      41.929  30.310  35.986  1.00  0.00     0.029 A 
ATOM     54  N   UNL A   1      41.816  29.520  33.912  1.00  0.00    -0.354 N 
ATOM     55  N   UNL A   1      42.703  27.890  31.624  1.00  0.00    -0.248 NA
ATOM     56  C   UNL A   1      44.198  26.363  30.677  1.00  0.00     0.031 C 
ATOM     57  C   UNL A   1      43.036  29.481  35.766  1.00  0.00     0.029 A 
ATOM     58  C   UNL A   1      42.949  28.960  34.486  1.00  0.00     0.049 A 
ATOM     59  H   UNL A   1      41.503  29.344  32.995  1.00  0.00     0.167 HD
ATOM     60  C   UNL A   1      43.669  27.555  32.568  1.00  0.00     0.074 A 
ATOM     61  C   UNL A   1      44.540  26.581  31.938  1.00  0.00     0.031 C 
ATOM     62  C   UNL A   1      43.822  28.007  33.839  1.00  0.00     0.034 A 
BRANCH  49  63
ATOM     63  C   UNL A   1      39.496  32.112  35.581  1.00  0.00     0.023 A 
ATOM     64  C   UNL A   1      39.963  33.438  35.640  1.00  0.00     0.031 A 
ATOM     65  C   UNL A   1      38.568  31.702  36.555  1.00  0.00     0.131 A 
ATOM     66  C   UNL A   1      39.574  34.275  36.697  1.00  0.00     0.055 A 
ATOM     67  C   UNL A   1      38.117  32.568  37.555  1.00  0.00     0.041 A 
ATOM     68  F   UNL A   1      38.097  30.445  36.565  1.00  0.00    -0.206 F 
ATOM     69  C   UNL A   1      38.634  33.857  37.641  1.00  0.00     0.022 A 
BRANCH  66  70
ATOM     70  S   UNL A   1      40.434  35.858  36.910  1.00  0.00     0.124 S 
ATOM     71  O   UNL A   1      40.123  36.178  38.301  1.00  0.00    -0.237 OA
ATOM     72  O   UNL A   1      41.820  35.504  36.630  1.00  0.00    -0.237 OA
ATOM     73  O   UNL A   1      39.800  36.728  35.922  1.00  0.00    -0.744 OA
ENDBRANCH  66  70
ENDBRANCH  49  63
BRANCH  50  74
ATOM     74  C   UNL A   1      42.812  26.348  28.090  1.00  0.00     0.023 A 
ATOM     75  C   UNL A   1      42.308  25.072  27.792  1.00  0.00     0.031 A 
ATOM     76  C   UNL A   1      43.849  26.855  27.287  1.00  0.00     0.131 A 
ATOM     77  C   UNL A   1      42.867  24.329  26.741  1.00  0.00     0.055 A 
ATOM     78  C   UNL A   1      44.372  26.130  26.216  1.00  0.00     0.041 A 
ATOM     79  F   UNL A   1      44.354  28.077  27.522  1.00  0.00    -0.206 F 
ATOM     80  C   UNL A   1      43.889  24.853  25.945  1.00  0.00     0.022 A 
BRANCH  77  81
ATOM     81  S   UNL A   1      42.275  22.637  26.462  1.00  0.00     0.124 S 
ATOM     82  O   UNL A   1      42.789  21.944  27.638  1.00  0.00    -0.237 OA
ATOM     83  O   UNL A   1      40.830  22.828  26.410  1.00  0.00    -0.237 OA
ATOM     84  O   UNL A   1      42.898  22.264  25.194  1.00  0.00    -0.744 OA
ENDBRANCH  77  81
ENDBRANCH  50  74
BRANCH  62  85
ATOM     85  C   UNL A   1      44.964  27.422  34.634  1.00  0.00     0.023 A 
ATOM     86  C   UNL A   1      44.801  26.265  35.417  1.00  0.00     0.031 A 
ATOM     87  C   UNL A   1      46.219  28.055  34.642  1.00  0.00     0.131 A 
ATOM     88  C   UNL A   1      45.853  25.818  36.231  1.00  0.00     0.055 A 
ATOM     89  C   UNL A   1      47.282  27.568  35.405  1.00  0.00     0.041 A 
ATOM     90  F   UNL A   1      46.431  29.164  33.916  1.00  0.00    -0.206 F 
ATOM     91  C   UNL A   1      47.097  26.454  36.218  1.00  0.00     0.022 A 
BRANCH  88  92
ATOM     92  S   UNL A   1      45.536  24.466  37.398  1.00  0.00     0.124 S 
ATOM     93  O   UNL A   1      44.350  24.943  38.100  1.00  0.00    -0.237 OA
ATOM     94  O   UNL A   1      45.336  23.327  36.507  1.00  0.00    -0.237 OA
ATOM     95  O   UNL A   1      46.755  24.416  38.204  1.00  0.00    -0.744 OA
ENDBRANCH  88  92
ENDBRANCH  62  85
ENDBRANCH  36  37
ENDBRANCH  28  31
ENDBRANCH  26  27
ENDBRANCH  25  26
ENDBRANCH   1  25
TORSDOF 19
ENDMDL
