MODEL 1
REMARK VINA RESULT:     -12.2      0.000      0.000
REMARK SMILES C[N@H+]1Cc2ccccc2C[C@@H]1C(=O)NCCC(=O)NCC(=O)NCCCNC(=O)c1ccc(-c2c3nc(c(-c4cc(S(=O)(=O)[O-])ccc4F)c4ccc([nH]4)c(-c4cc(S(=O)(=O)[O-])ccc4F)c4nc(c(-c5cc(S(=O)(=O)[O-])ccc5F)c5ccc2[nH]5)C=C4)C=C3)cc1
REMARK SMILES IDX 24 1 23 2 21 3 22 4 20 6 19 7 17 8 18 9 16 11 15 12 14 13
REMARK SMILES IDX 12 14 13 15 11 17 1 18 2 19 3 20 4 22 10 23 5 24 9 25 6 26
REMARK SMILES IDX 8 27 7 28 25 29 26 30 27 31 28 32 29 34 30 35 31 36 92 37
REMARK SMILES IDX 32 38 91 39 33 40 34 41 35 42 85 43 36 44 90 45 84 46 86 47
REMARK SMILES IDX 37 48 89 49 83 50 82 51 38 53 70 54 50 55 69 56 51 57 54 58
REMARK SMILES IDX 68 59 87 60 52 61 53 62 67 64 88 65 55 66 39 67 40 68 48 69
REMARK SMILES IDX 41 70 47 71 49 72 46 73 42 74 43 75 44 76 45 77 71 78 72 79
REMARK SMILES IDX 80 80 73 81 79 82 81 83 78 84 74 85 75 86 76 87 77 88 56 89
REMARK SMILES IDX 57 90 65 91 58 92 64 93 66 94 63 95 59 96 60 97 61 98 62 99
REMARK H PARENT 23 5 19 10 14 16 2 21 27 33 86 52 54 63
REMARK Flexibility Score: inf
ROOT
ATOM      1  C   UNL A   1      36.304  20.942  25.347  1.00  0.00     0.117 C 
ENDROOT
BRANCH   1   2
ATOM      2  N   UNL A   1      35.412  19.838  25.026  1.00  0.00    -0.355 N 
ATOM      3  C   UNL A   1      34.068  19.747  24.824  1.00  0.00     0.239 C 
ATOM      4  O   UNL A   1      33.635  18.633  24.505  1.00  0.00    -0.273 OA
ATOM      5  H   UNL A   1      35.878  18.975  24.938  1.00  0.00     0.163 HD
BRANCH   3   6
ATOM      6  C   UNL A   1      33.127  20.966  24.785  1.00  0.00     0.216 C 
BRANCH   6   7
ATOM      7  N   UNL A   1      32.671  21.494  26.058  1.00  0.00    -0.347 N 
ATOM      8  C   UNL A   1      32.894  22.703  26.643  1.00  0.00     0.222 C 
ATOM      9  O   UNL A   1      32.452  22.890  27.776  1.00  0.00    -0.275 OA
ATOM     10  H   UNL A   1      32.111  20.878  26.584  1.00  0.00     0.164 HD
BRANCH   8  11
ATOM     11  C   UNL A   1      33.698  23.778  25.941  1.00  0.00     0.121 C 
BRANCH  11  12
ATOM     12  C   UNL A   1      32.822  24.842  25.274  1.00  0.00     0.126 C 
BRANCH  12  13
ATOM     13  N   UNL A   1      33.485  25.473  24.137  1.00  0.00    -0.350 N 
ATOM     14  C   UNL A   1      32.979  25.759  22.909  1.00  0.00     0.278 C 
ATOM     15  O   UNL A   1      33.553  25.230  21.950  1.00  0.00    -0.268 OA
ATOM     16  H   UNL A   1      34.426  25.724  24.279  1.00  0.00     0.163 HD
BRANCH  14  17
ATOM     17  C   UNL A   1      31.897  26.837  22.690  1.00  0.00     0.278 C 
ATOM     18  C   UNL A   1      33.743  28.504  22.621  1.00  0.00     0.333 C 
ATOM     19  N   UNL A   1      32.382  28.203  23.075  1.00  0.00    -0.323 N 
ATOM     20  C   UNL A   1      31.460  29.213  22.514  1.00  0.00     0.299 C 
ATOM     21  H   UNL A   1      32.404  28.227  24.094  1.00  0.00     0.348 HD
ATOM     22  C   UNL A   1      29.998  28.938  22.792  1.00  0.00     0.010 A 
ATOM     23  C   UNL A   1      30.586  26.578  23.441  1.00  0.00     0.111 C 
ATOM     24  C   UNL A   1      29.041  29.935  22.560  1.00  0.00     0.010 A 
ATOM     25  C   UNL A   1      29.573  27.672  23.224  1.00  0.00    -0.033 A 
ATOM     26  C   UNL A   1      27.688  29.686  22.792  1.00  0.00     0.001 A 
ATOM     27  C   UNL A   1      28.218  27.438  23.487  1.00  0.00     0.004 A 
ATOM     28  C   UNL A   1      27.278  28.441  23.266  1.00  0.00     0.000 A 
ENDBRANCH  14  17
ENDBRANCH  12  13
ENDBRANCH  11  12
ENDBRANCH   8  11
ENDBRANCH   6   7
ENDBRANCH   3   6
ENDBRANCH   1   2
BRANCH   1  29
ATOM     29  C   UNL A   1      37.691  20.785  24.760  1.00  0.00     0.042 C 
BRANCH  29  30
ATOM     30  C   UNL A   1      38.787  21.025  25.784  1.00  0.00     0.118 C 
BRANCH  30  31
ATOM     31  N   UNL A   1      39.683  19.881  25.938  1.00  0.00    -0.352 N 
ATOM     32  C   UNL A   1      41.043  19.824  26.147  1.00  0.00     0.251 C 
ATOM     33  H   UNL A   1      39.240  19.003  25.882  1.00  0.00     0.163 HD
ATOM     34  O   UNL A   1      41.618  18.740  26.067  1.00  0.00    -0.269 OA
BRANCH  32  35
ATOM     35  C   UNL A   1      41.812  21.056  26.426  1.00  0.00     0.039 A 
ATOM     36  C   UNL A   1      42.159  21.902  25.370  1.00  0.00     0.014 A 
ATOM     37  C   UNL A   1      42.181  21.387  27.729  1.00  0.00     0.014 A 
ATOM     38  C   UNL A   1      42.778  23.127  25.638  1.00  0.00     0.010 A 
ATOM     39  C   UNL A   1      42.676  22.654  28.005  1.00  0.00     0.010 A 
ATOM     40  C   UNL A   1      42.985  23.541  26.964  1.00  0.00    -0.014 A 
BRANCH  40  41
ATOM     41  C   UNL A   1      43.532  24.883  27.299  1.00  0.00     0.031 A 
ATOM     42  C   UNL A   1      42.616  25.946  27.848  1.00  0.00     0.074 A 
ATOM     43  C   UNL A   1      44.815  25.178  27.011  1.00  0.00     0.049 A 
ATOM     44  N   UNL A   1      42.843  27.220  28.040  1.00  0.00    -0.248 NA
ATOM     45  C   UNL A   1      41.244  25.526  28.175  1.00  0.00     0.031 C 
ATOM     46  C   UNL A   1      45.788  24.254  26.423  1.00  0.00     0.029 A 
ATOM     47  N   UNL A   1      45.521  26.347  27.158  1.00  0.00    -0.354 N 
ATOM     48  C   UNL A   1      41.635  27.757  28.477  1.00  0.00     0.074 A 
ATOM     49  C   UNL A   1      40.665  26.683  28.449  1.00  0.00     0.031 C 
ATOM     50  C   UNL A   1      46.966  24.883  26.281  1.00  0.00     0.029 A 
ATOM     51  C   UNL A   1      46.822  26.267  26.717  1.00  0.00     0.049 A 
ATOM     52  H   UNL A   1      45.133  27.166  27.542  1.00  0.00     0.167 HD
ATOM     53  C   UNL A   1      41.366  29.020  28.893  1.00  0.00     0.034 A 
ATOM     54  C   UNL A   1      47.786  27.208  26.654  1.00  0.00     0.034 A 
ATOM     55  C   UNL A   1      42.356  30.068  28.950  1.00  0.00     0.049 A 
ATOM     56  C   UNL A   1      47.472  28.601  27.136  1.00  0.00     0.074 A 
ATOM     57  C   UNL A   1      42.214  31.365  29.410  1.00  0.00     0.029 A 
ATOM     58  N   UNL A   1      43.676  29.935  28.537  1.00  0.00    -0.354 N 
ATOM     59  N   UNL A   1      46.336  29.082  27.585  1.00  0.00    -0.248 NA
ATOM     60  C   UNL A   1      48.573  29.572  27.114  1.00  0.00     0.031 C 
ATOM     61  C   UNL A   1      43.432  32.031  29.227  1.00  0.00     0.029 A 
ATOM     62  C   UNL A   1      44.353  31.131  28.715  1.00  0.00     0.049 A 
ATOM     63  H   UNL A   1      44.073  29.111  28.171  1.00  0.00     0.167 HD
ATOM     64  C   UNL A   1      46.593  30.407  27.922  1.00  0.00     0.074 A 
ATOM     65  C   UNL A   1      47.995  30.642  27.640  1.00  0.00     0.031 C 
ATOM     66  C   UNL A   1      45.750  31.347  28.420  1.00  0.00     0.034 A 
BRANCH  53  67
ATOM     67  C   UNL A   1      39.945  29.326  29.303  1.00  0.00     0.023 A 
ATOM     68  C   UNL A   1      39.567  29.393  30.656  1.00  0.00     0.031 A 
ATOM     69  C   UNL A   1      38.944  29.511  28.333  1.00  0.00     0.131 A 
ATOM     70  C   UNL A   1      38.216  29.542  31.001  1.00  0.00     0.055 A 
ATOM     71  C   UNL A   1      37.614  29.751  28.684  1.00  0.00     0.041 A 
ATOM     72  F   UNL A   1      39.237  29.440  27.025  1.00  0.00    -0.206 F 
ATOM     73  C   UNL A   1      37.239  29.749  30.026  1.00  0.00     0.022 A 
BRANCH  70  74
ATOM     74  S   UNL A   1      37.737  29.306  32.734  1.00  0.00     0.124 S 
ATOM     75  O   UNL A   1      37.691  27.849  32.829  1.00  0.00    -0.237 OA
ATOM     76  O   UNL A   1      38.823  29.959  33.455  1.00  0.00    -0.237 OA
ATOM     77  O   UNL A   1      36.438  29.971  32.825  1.00  0.00    -0.744 OA
ENDBRANCH  70  74
ENDBRANCH  53  67
BRANCH  54  78
ATOM     78  C   UNL A   1      49.132  26.875  26.108  1.00  0.00     0.023 A 
ATOM     79  C   UNL A   1      49.518  27.303  24.828  1.00  0.00     0.031 A 
ATOM     80  C   UNL A   1      50.042  26.095  26.845  1.00  0.00     0.131 A 
ATOM     81  C   UNL A   1      50.760  26.909  24.304  1.00  0.00     0.055 A 
ATOM     82  C   UNL A   1      51.296  25.750  26.339  1.00  0.00     0.041 A 
ATOM     83  F   UNL A   1      49.725  25.669  28.078  1.00  0.00    -0.206 F 
ATOM     84  C   UNL A   1      51.656  26.146  25.055  1.00  0.00     0.022 A 
BRANCH  81  85
ATOM     85  S   UNL A   1      51.155  27.345  22.588  1.00  0.00     0.124 S 
ATOM     86  O   UNL A   1      51.034  28.798  22.613  1.00  0.00    -0.237 OA
ATOM     87  O   UNL A   1      52.508  26.816  22.445  1.00  0.00    -0.237 OA
ATOM     88  O   UNL A   1      50.130  26.647  21.815  1.00  0.00    -0.744 OA
ENDBRANCH  81  85
ENDBRANCH  54  78
BRANCH  66  89
ATOM     89  C   UNL A   1      46.341  32.698  28.733  1.00  0.00     0.023 A 
ATOM     90  C   UNL A   1      46.543  33.665  27.733  1.00  0.00     0.031 A 
ATOM     91  C   UNL A   1      46.714  33.016  30.050  1.00  0.00     0.131 A 
ATOM     92  C   UNL A   1      47.149  34.887  28.058  1.00  0.00     0.055 A 
ATOM     93  C   UNL A   1      47.267  34.254  30.377  1.00  0.00     0.041 A 
ATOM     94  F   UNL A   1      46.544  32.127  31.042  1.00  0.00    -0.206 F 
ATOM     95  C   UNL A   1      47.499  35.194  29.377  1.00  0.00     0.022 A 
BRANCH  92  96
ATOM     96  S   UNL A   1      47.551  36.043  26.719  1.00  0.00     0.124 S 
ATOM     97  O   UNL A   1      46.892  35.423  25.574  1.00  0.00    -0.237 OA
ATOM     98  O   UNL A   1      46.962  37.290  27.196  1.00  0.00    -0.237 OA
ATOM     99  O   UNL A   1      49.012  36.026  26.679  1.00  0.00    -0.744 OA
ENDBRANCH  92  96
ENDBRANCH  66  89
ENDBRANCH  40  41
ENDBRANCH  32  35
ENDBRANCH  30  31
ENDBRANCH  29  30
ENDBRANCH   1  29
TORSDOF 18
ENDMDL
MODEL 2
REMARK VINA RESULT:     -12.1      5.727     10.802
REMARK SMILES C[N@H+]1Cc2ccccc2C[C@@H]1C(=O)NCCC(=O)NCC(=O)NCCCNC(=O)c1ccc(-c2c3nc(c(-c4cc(S(=O)(=O)[O-])ccc4F)c4ccc([nH]4)c(-c4cc(S(=O)(=O)[O-])ccc4F)c4nc(c(-c5cc(S(=O)(=O)[O-])ccc5F)c5ccc2[nH]5)C=C4)C=C3)cc1
REMARK SMILES IDX 24 1 23 2 21 3 22 4 20 6 19 7 17 8 18 9 16 11 15 12 14 13
REMARK SMILES IDX 12 14 13 15 11 17 1 18 2 19 3 20 4 22 10 23 5 24 9 25 6 26
REMARK SMILES IDX 8 27 7 28 25 29 26 30 27 31 28 32 29 34 30 35 31 36 92 37
REMARK SMILES IDX 32 38 91 39 33 40 34 41 35 42 85 43 36 44 90 45 84 46 86 47
REMARK SMILES IDX 37 48 89 49 83 50 82 51 38 53 70 54 50 55 69 56 51 57 54 58
REMARK SMILES IDX 68 59 87 60 52 61 53 62 67 64 88 65 55 66 39 67 40 68 48 69
REMARK SMILES IDX 41 70 47 71 49 72 46 73 42 74 43 75 44 76 45 77 71 78 72 79
REMARK SMILES IDX 80 80 73 81 79 82 81 83 78 84 74 85 75 86 76 87 77 88 56 89
REMARK SMILES IDX 57 90 65 91 58 92 64 93 66 94 63 95 59 96 60 97 61 98 62 99
REMARK H PARENT 23 5 19 10 14 16 2 21 27 33 86 52 54 63
REMARK Flexibility Score: inf
ROOT
ATOM      1  C   UNL A   1      33.721  27.849  25.256  1.00  0.00     0.117 C 
ENDROOT
BRANCH   1   2
ATOM      2  N   UNL A   1      33.736  27.246  23.931  1.00  0.00    -0.355 N 
ATOM      3  C   UNL A   1      33.013  27.458  22.796  1.00  0.00     0.239 C 
ATOM      4  O   UNL A   1      33.335  26.787  21.808  1.00  0.00    -0.273 OA
ATOM      5  H   UNL A   1      34.410  26.534  23.836  1.00  0.00     0.163 HD
BRANCH   3   6
ATOM      6  C   UNL A   1      31.983  28.592  22.642  1.00  0.00     0.216 C 
BRANCH   6   7
ATOM      7  N   UNL A   1      30.584  28.212  22.557  1.00  0.00    -0.347 N 
ATOM      8  C   UNL A   1      29.782  27.590  23.464  1.00  0.00     0.222 C 
ATOM      9  O   UNL A   1      28.633  27.308  23.126  1.00  0.00    -0.275 OA
ATOM     10  H   UNL A   1      30.145  28.441  21.706  1.00  0.00     0.164 HD
BRANCH   8  11
ATOM     11  C   UNL A   1      30.296  27.215  24.839  1.00  0.00     0.121 C 
BRANCH  11  12
ATOM     12  C   UNL A   1      29.563  26.016  25.446  1.00  0.00     0.126 C 
BRANCH  12  13
ATOM     13  N   UNL A   1      30.336  25.369  26.501  1.00  0.00    -0.350 N 
ATOM     14  C   UNL A   1      31.036  24.206  26.452  1.00  0.00     0.278 C 
ATOM     15  O   UNL A   1      30.686  23.328  27.250  1.00  0.00    -0.268 OA
ATOM     16  H   UNL A   1      30.352  25.839  27.367  1.00  0.00     0.163 HD
BRANCH  14  17
ATOM     17  C   UNL A   1      32.323  24.049  25.613  1.00  0.00     0.278 C 
ATOM     18  C   UNL A   1      30.863  23.329  23.731  1.00  0.00     0.333 C 
ATOM     19  N   UNL A   1      32.123  23.122  24.451  1.00  0.00    -0.323 N 
ATOM     20  C   UNL A   1      33.246  23.294  23.505  1.00  0.00     0.299 C 
ATOM     21  H   UNL A   1      32.085  22.178  24.836  1.00  0.00     0.348 HD
ATOM     22  C   UNL A   1      34.613  23.243  24.152  1.00  0.00     0.010 A 
ATOM     23  C   UNL A   1      33.536  23.550  26.406  1.00  0.00     0.111 C 
ATOM     24  C   UNL A   1      35.760  23.122  23.357  1.00  0.00     0.010 A 
ATOM     25  C   UNL A   1      34.757  23.379  25.542  1.00  0.00    -0.033 A 
ATOM     26  C   UNL A   1      37.027  23.097  23.940  1.00  0.00     0.001 A 
ATOM     27  C   UNL A   1      36.029  23.320  26.125  1.00  0.00     0.004 A 
ATOM     28  C   UNL A   1      37.160  23.185  25.325  1.00  0.00     0.000 A 
ENDBRANCH  14  17
ENDBRANCH  12  13
ENDBRANCH  11  12
ENDBRANCH   8  11
ENDBRANCH   6   7
ENDBRANCH   3   6
ENDBRANCH   1   2
BRANCH   1  29
ATOM     29  C   UNL A   1      33.280  29.297  25.253  1.00  0.00     0.042 C 
BRANCH  29  30
ATOM     30  C   UNL A   1      32.538  29.682  26.522  1.00  0.00     0.118 C 
BRANCH  30  31
ATOM     31  N   UNL A   1      32.425  31.129  26.698  1.00  0.00    -0.352 N 
ATOM     32  C   UNL A   1      33.238  32.021  27.359  1.00  0.00     0.251 C 
ATOM     33  H   UNL A   1      31.634  31.533  26.272  1.00  0.00     0.163 HD
ATOM     34  O   UNL A   1      32.850  33.176  27.530  1.00  0.00    -0.269 OA
BRANCH  32  35
ATOM     35  C   UNL A   1      34.548  31.591  27.895  1.00  0.00     0.039 A 
ATOM     36  C   UNL A   1      35.585  32.520  28.001  1.00  0.00     0.014 A 
ATOM     37  C   UNL A   1      34.752  30.274  28.306  1.00  0.00     0.014 A 
ATOM     38  C   UNL A   1      36.784  32.152  28.619  1.00  0.00     0.010 A 
ATOM     39  C   UNL A   1      35.889  29.947  29.031  1.00  0.00     0.010 A 
ATOM     40  C   UNL A   1      36.923  30.880  29.196  1.00  0.00    -0.014 A 
BRANCH  40  41
ATOM     41  C   UNL A   1      38.135  30.484  29.964  1.00  0.00     0.031 A 
ATOM     42  C   UNL A   1      39.097  29.486  29.375  1.00  0.00     0.074 A 
ATOM     43  C   UNL A   1      38.311  30.935  31.222  1.00  0.00     0.049 A 
ATOM     44  N   UNL A   1      40.109  28.877  29.937  1.00  0.00    -0.248 NA
ATOM     45  C   UNL A   1      38.854  29.081  27.981  1.00  0.00     0.031 C 
ATOM     46  C   UNL A   1      37.418  31.859  31.926  1.00  0.00     0.029 A 
ATOM     47  N   UNL A   1      39.293  30.662  32.142  1.00  0.00    -0.354 N 
ATOM     48  C   UNL A   1      40.600  27.995  28.978  1.00  0.00     0.074 A 
ATOM     49  C   UNL A   1      39.727  28.100  27.829  1.00  0.00     0.031 C 
ATOM     50  C   UNL A   1      37.906  32.093  33.156  1.00  0.00     0.029 A 
ATOM     51  C   UNL A   1      39.114  31.300  33.348  1.00  0.00     0.049 A 
ATOM     52  H   UNL A   1      40.055  30.068  31.956  1.00  0.00     0.167 HD
ATOM     53  C   UNL A   1      41.695  27.196  29.038  1.00  0.00     0.034 A 
ATOM     54  C   UNL A   1      39.830  31.237  34.489  1.00  0.00     0.034 A 
ATOM     55  C   UNL A   1      42.575  27.134  30.179  1.00  0.00     0.049 A 
ATOM     56  C   UNL A   1      41.052  30.356  34.529  1.00  0.00     0.074 A 
ATOM     57  C   UNL A   1      43.744  26.409  30.329  1.00  0.00     0.029 A 
ATOM     58  N   UNL A   1      42.384  27.829  31.367  1.00  0.00    -0.354 N 
ATOM     59  N   UNL A   1      41.526  29.559  33.598  1.00  0.00    -0.248 NA
ATOM     60  C   UNL A   1      41.841  30.374  35.767  1.00  0.00     0.031 C 
ATOM     61  C   UNL A   1      44.231  26.624  31.623  1.00  0.00     0.029 A 
ATOM     62  C   UNL A   1      43.403  27.536  32.259  1.00  0.00     0.049 A 
ATOM     63  H   UNL A   1      41.634  28.441  31.548  1.00  0.00     0.167 HD
ATOM     64  C   UNL A   1      42.683  29.001  34.132  1.00  0.00     0.074 A 
ATOM     65  C   UNL A   1      42.844  29.565  35.457  1.00  0.00     0.031 C 
ATOM     66  C   UNL A   1      43.540  28.103  33.579  1.00  0.00     0.034 A 
BRANCH  53  67
ATOM     67  C   UNL A   1      41.982  26.325  27.838  1.00  0.00     0.023 A 
ATOM     68  C   UNL A   1      41.528  24.996  27.766  1.00  0.00     0.031 A 
ATOM     69  C   UNL A   1      42.757  26.811  26.770  1.00  0.00     0.131 A 
ATOM     70  C   UNL A   1      41.927  24.174  26.703  1.00  0.00     0.055 A 
ATOM     71  C   UNL A   1      43.075  26.013  25.669  1.00  0.00     0.041 A 
ATOM     72  F   UNL A   1      43.236  28.065  26.787  1.00  0.00    -0.206 F 
ATOM     73  C   UNL A   1      42.676  24.680  25.639  1.00  0.00     0.022 A 
BRANCH  70  74
ATOM     74  S   UNL A   1      41.584  22.396  26.811  1.00  0.00     0.124 S 
ATOM     75  O   UNL A   1      42.450  21.998  27.919  1.00  0.00    -0.237 OA
ATOM     76  O   UNL A   1      40.151  22.365  27.078  1.00  0.00    -0.237 OA
ATOM     77  O   UNL A   1      41.987  21.888  25.502  1.00  0.00    -0.744 OA
ENDBRANCH  70  74
ENDBRANCH  53  67
BRANCH  54  78
ATOM     78  C   UNL A   1      39.414  32.018  35.687  1.00  0.00     0.023 A 
ATOM     79  C   UNL A   1      38.624  31.436  36.691  1.00  0.00     0.031 A 
ATOM     80  C   UNL A   1      39.772  33.371  35.832  1.00  0.00     0.131 A 
ATOM     81  C   UNL A   1      38.178  32.215  37.770  1.00  0.00     0.055 A 
ATOM     82  C   UNL A   1      39.369  34.127  36.933  1.00  0.00     0.041 A 
ATOM     83  F   UNL A   1      40.535  33.973  34.905  1.00  0.00    -0.206 F 
ATOM     84  C   UNL A   1      38.554  33.553  37.904  1.00  0.00     0.022 A 
BRANCH  81  85
ATOM     85  S   UNL A   1      37.027  31.471  38.959  1.00  0.00     0.124 S 
ATOM     86  O   UNL A   1      36.858  30.130  38.412  1.00  0.00    -0.237 OA
ATOM     87  O   UNL A   1      37.779  31.565  40.207  1.00  0.00    -0.237 OA
ATOM     88  O   UNL A   1      35.849  32.332  38.877  1.00  0.00    -0.744 OA
ENDBRANCH  81  85
ENDBRANCH  54  78
BRANCH  66  89
ATOM     89  C   UNL A   1      44.747  27.719  34.396  1.00  0.00     0.023 A 
ATOM     90  C   UNL A   1      44.729  26.615  35.266  1.00  0.00     0.031 A 
ATOM     91  C   UNL A   1      45.928  28.476  34.307  1.00  0.00     0.131 A 
ATOM     92  C   UNL A   1      45.855  26.327  36.050  1.00  0.00     0.055 A 
ATOM     93  C   UNL A   1      47.064  28.152  35.049  1.00  0.00     0.041 A 
ATOM     94  F   UNL A   1      45.997  29.540  33.492  1.00  0.00    -0.206 F 
ATOM     95  C   UNL A   1      47.028  27.080  35.936  1.00  0.00     0.022 A 
BRANCH  92  96
ATOM     96  S   UNL A   1      45.742  25.003  37.284  1.00  0.00     0.124 S 
ATOM     97  O   UNL A   1      46.491  25.565  38.403  1.00  0.00    -0.237 OA
ATOM     98  O   UNL A   1      44.301  24.880  37.479  1.00  0.00    -0.237 OA
ATOM     99  O   UNL A   1      46.376  23.863  36.623  1.00  0.00    -0.744 OA
ENDBRANCH  92  96
ENDBRANCH  66  89
ENDBRANCH  40  41
ENDBRANCH  32  35
ENDBRANCH  30  31
ENDBRANCH  29  30
ENDBRANCH   1  29
TORSDOF 18
ENDMDL
MODEL 3
REMARK VINA RESULT:     -11.7      5.471     11.718
REMARK SMILES C[N@H+]1Cc2ccccc2C[C@@H]1C(=O)NCCC(=O)NCC(=O)NCCCNC(=O)c1ccc(-c2c3nc(c(-c4cc(S(=O)(=O)[O-])ccc4F)c4ccc([nH]4)c(-c4cc(S(=O)(=O)[O-])ccc4F)c4nc(c(-c5cc(S(=O)(=O)[O-])ccc5F)c5ccc2[nH]5)C=C4)C=C3)cc1
REMARK SMILES IDX 24 1 23 2 21 3 22 4 20 6 19 7 17 8 18 9 16 11 15 12 14 13
REMARK SMILES IDX 12 14 13 15 11 17 1 18 2 19 3 20 4 22 10 23 5 24 9 25 6 26
REMARK SMILES IDX 8 27 7 28 25 29 26 30 27 31 28 32 29 34 30 35 31 36 92 37
REMARK SMILES IDX 32 38 91 39 33 40 34 41 35 42 85 43 36 44 90 45 84 46 86 47
REMARK SMILES IDX 37 48 89 49 83 50 82 51 38 53 70 54 50 55 69 56 51 57 54 58
REMARK SMILES IDX 68 59 87 60 52 61 53 62 67 64 88 65 55 66 39 67 40 68 48 69
REMARK SMILES IDX 41 70 47 71 49 72 46 73 42 74 43 75 44 76 45 77 71 78 72 79
REMARK SMILES IDX 80 80 73 81 79 82 81 83 78 84 74 85 75 86 76 87 77 88 56 89
REMARK SMILES IDX 57 90 65 91 58 92 64 93 66 94 63 95 59 96 60 97 61 98 62 99
REMARK H PARENT 23 5 19 10 14 16 2 21 27 33 86 52 54 63
REMARK Flexibility Score: inf
ROOT
ATOM      1  C   UNL A   1      35.272  34.561  28.764  1.00  0.00     0.117 C 
ENDROOT
BRANCH   1   2
ATOM      2  N   UNL A   1      34.184  35.506  28.963  1.00  0.00    -0.355 N 
ATOM      3  C   UNL A   1      33.381  35.803  30.023  1.00  0.00     0.239 C 
ATOM      4  O   UNL A   1      32.574  36.726  29.858  1.00  0.00    -0.273 OA
ATOM      5  H   UNL A   1      33.986  36.044  28.162  1.00  0.00     0.163 HD
BRANCH   3   6
ATOM      6  C   UNL A   1      33.561  35.193  31.425  1.00  0.00     0.216 C 
BRANCH   6   7
ATOM      7  N   UNL A   1      34.836  35.409  32.086  1.00  0.00    -0.347 N 
ATOM      8  C   UNL A   1      35.661  34.533  32.721  1.00  0.00     0.222 C 
ATOM      9  O   UNL A   1      36.667  34.978  33.273  1.00  0.00    -0.275 OA
ATOM     10  H   UNL A   1      35.155  36.341  32.073  1.00  0.00     0.164 HD
BRANCH   8  11
ATOM     11  C   UNL A   1      35.334  33.055  32.787  1.00  0.00     0.121 C 
BRANCH  11  12
ATOM     12  C   UNL A   1      36.580  32.165  32.801  1.00  0.00     0.126 C 
BRANCH  12  13
ATOM     13  N   UNL A   1      36.925  31.716  34.145  1.00  0.00    -0.350 N 
ATOM     14  C   UNL A   1      38.154  31.578  34.707  1.00  0.00     0.278 C 
ATOM     15  O   UNL A   1      38.448  30.442  35.098  1.00  0.00    -0.268 OA
ATOM     16  H   UNL A   1      36.164  31.479  34.724  1.00  0.00     0.163 HD
BRANCH  14  17
ATOM     17  C   UNL A   1      39.054  32.788  35.038  1.00  0.00     0.278 C 
ATOM     18  C   UNL A   1      37.380  33.404  36.773  1.00  0.00     0.333 C 
ATOM     19  N   UNL A   1      38.291  33.879  35.728  1.00  0.00    -0.323 N 
ATOM     20  C   UNL A   1      39.253  34.826  36.332  1.00  0.00     0.299 C 
ATOM     21  H   UNL A   1      37.711  34.322  35.016  1.00  0.00     0.348 HD
ATOM     22  C   UNL A   1      40.342  35.287  35.387  1.00  0.00     0.010 A 
ATOM     23  C   UNL A   1      39.756  33.404  33.823  1.00  0.00     0.111 C 
ATOM     24  C   UNL A   1      41.153  36.377  35.732  1.00  0.00     0.010 A 
ATOM     25  C   UNL A   1      40.595  34.600  34.190  1.00  0.00    -0.033 A 
ATOM     26  C   UNL A   1      42.175  36.797  34.879  1.00  0.00     0.001 A 
ATOM     27  C   UNL A   1      41.599  35.047  33.322  1.00  0.00     0.004 A 
ATOM     28  C   UNL A   1      42.390  36.139  33.670  1.00  0.00     0.000 A 
ENDBRANCH  14  17
ENDBRANCH  12  13
ENDBRANCH  11  12
ENDBRANCH   8  11
ENDBRANCH   6   7
ENDBRANCH   3   6
ENDBRANCH   1   2
BRANCH   1  29
ATOM     29  C   UNL A   1      34.840  33.280  28.083  1.00  0.00     0.042 C 
BRANCH  29  30
ATOM     30  C   UNL A   1      34.657  32.133  29.062  1.00  0.00     0.118 C 
BRANCH  30  31
ATOM     31  N   UNL A   1      34.278  30.882  28.409  1.00  0.00    -0.352 N 
ATOM     32  C   UNL A   1      35.037  29.796  28.034  1.00  0.00     0.251 C 
ATOM     33  H   UNL A   1      33.318  30.801  28.202  1.00  0.00     0.163 HD
ATOM     34  O   UNL A   1      34.531  28.922  27.332  1.00  0.00    -0.269 OA
BRANCH  32  35
ATOM     35  C   UNL A   1      36.457  29.697  28.436  1.00  0.00     0.039 A 
ATOM     36  C   UNL A   1      36.782  29.132  29.671  1.00  0.00     0.014 A 
ATOM     37  C   UNL A   1      37.470  30.147  27.591  1.00  0.00     0.014 A 
ATOM     38  C   UNL A   1      38.125  28.922  30.005  1.00  0.00     0.010 A 
ATOM     39  C   UNL A   1      38.792  29.824  27.865  1.00  0.00     0.010 A 
ATOM     40  C   UNL A   1      39.138  29.210  29.077  1.00  0.00    -0.014 A 
BRANCH  40  41
ATOM     41  C   UNL A   1      40.569  28.896  29.343  1.00  0.00     0.031 A 
ATOM     42  C   UNL A   1      41.236  27.771  28.596  1.00  0.00     0.074 A 
ATOM     43  C   UNL A   1      41.229  29.543  30.324  1.00  0.00     0.049 A 
ATOM     44  N   UNL A   1      42.406  27.220  28.795  1.00  0.00    -0.248 NA
ATOM     45  C   UNL A   1      40.458  27.148  27.513  1.00  0.00     0.031 C 
ATOM     46  C   UNL A   1      40.674  30.612  31.160  1.00  0.00     0.029 A 
ATOM     47  N   UNL A   1      42.507  29.386  30.798  1.00  0.00    -0.354 N 
ATOM     48  C   UNL A   1      42.489  26.169  27.886  1.00  0.00     0.074 A 
ATOM     49  C   UNL A   1      41.221  26.117  27.191  1.00  0.00     0.031 C 
ATOM     50  C   UNL A   1      41.613  31.028  32.025  1.00  0.00     0.029 A 
ATOM     51  C   UNL A   1      42.817  30.225  31.844  1.00  0.00     0.049 A 
ATOM     52  H   UNL A   1      43.144  28.736  30.424  1.00  0.00     0.167 HD
ATOM     53  C   UNL A   1      43.535  25.343  27.633  1.00  0.00     0.034 A 
ATOM     54  C   UNL A   1      43.937  30.324  32.588  1.00  0.00     0.034 A 
ATOM     55  C   UNL A   1      44.805  25.435  28.311  1.00  0.00     0.049 A 
ATOM     56  C   UNL A   1      45.094  29.408  32.280  1.00  0.00     0.074 A 
ATOM     57  C   UNL A   1      45.954  24.694  28.096  1.00  0.00     0.029 A 
ATOM     58  N   UNL A   1      45.094  26.328  29.336  1.00  0.00    -0.354 N 
ATOM     59  N   UNL A   1      45.171  28.446  31.389  1.00  0.00    -0.248 NA
ATOM     60  C   UNL A   1      46.318  29.600  33.068  1.00  0.00     0.031 C 
ATOM     61  C   UNL A   1      46.919  25.103  29.024  1.00  0.00     0.029 A 
ATOM     62  C   UNL A   1      46.396  26.145  29.773  1.00  0.00     0.049 A 
ATOM     63  H   UNL A   1      44.466  26.995  29.697  1.00  0.00     0.167 HD
ATOM     64  C   UNL A   1      46.460  27.935  31.495  1.00  0.00     0.074 A 
ATOM     65  C   UNL A   1      47.130  28.706  32.523  1.00  0.00     0.031 C 
ATOM     66  C   UNL A   1      47.043  26.920  30.806  1.00  0.00     0.034 A 
BRANCH  53  67
ATOM     67  C   UNL A   1      43.334  24.270  26.589  1.00  0.00     0.023 A 
ATOM     68  C   UNL A   1      42.537  23.139  26.840  1.00  0.00     0.031 A 
ATOM     69  C   UNL A   1      43.980  24.354  25.343  1.00  0.00     0.131 A 
ATOM     70  C   UNL A   1      42.482  22.098  25.902  1.00  0.00     0.055 A 
ATOM     71  C   UNL A   1      43.847  23.355  24.376  1.00  0.00     0.041 A 
ATOM     72  F   UNL A   1      44.769  25.400  25.051  1.00  0.00    -0.206 F 
ATOM     73  C   UNL A   1      43.109  22.209  24.660  1.00  0.00     0.022 A 
BRANCH  70  74
ATOM     74  S   UNL A   1      41.707  20.534  26.394  1.00  0.00     0.124 S 
ATOM     75  O   UNL A   1      42.238  20.356  27.744  1.00  0.00    -0.237 OA
ATOM     76  O   UNL A   1      40.284  20.843  26.304  1.00  0.00    -0.237 OA
ATOM     77  O   UNL A   1      42.203  19.579  25.406  1.00  0.00    -0.744 OA
ENDBRANCH  70  74
ENDBRANCH  53  67
BRANCH  54  78
ATOM     78  C   UNL A   1      44.023  31.314  33.699  1.00  0.00     0.023 A 
ATOM     79  C   UNL A   1      43.595  30.985  34.994  1.00  0.00     0.031 A 
ATOM     80  C   UNL A   1      44.504  32.616  33.474  1.00  0.00     0.131 A 
ATOM     81  C   UNL A   1      43.611  31.959  36.005  1.00  0.00     0.055 A 
ATOM     82  C   UNL A   1      44.566  33.566  34.495  1.00  0.00     0.041 A 
ATOM     83  F   UNL A   1      44.934  32.979  32.255  1.00  0.00    -0.206 F 
ATOM     84  C   UNL A   1      44.104  33.243  35.767  1.00  0.00     0.022 A 
BRANCH  81  85
ATOM     85  S   UNL A   1      42.900  31.544  37.621  1.00  0.00     0.124 S 
ATOM     86  O   UNL A   1      41.479  31.784  37.393  1.00  0.00    -0.237 OA
ATOM     87  O   UNL A   1      43.297  30.148  37.778  1.00  0.00    -0.237 OA
ATOM     88  O   UNL A   1      43.553  32.482  38.532  1.00  0.00    -0.744 OA
ENDBRANCH  81  85
ENDBRANCH  54  78
BRANCH  66  89
ATOM     89  C   UNL A   1      48.488  26.625  31.116  1.00  0.00     0.023 A 
ATOM     90  C   UNL A   1      49.535  27.245  30.413  1.00  0.00     0.031 A 
ATOM     91  C   UNL A   1      48.818  25.704  32.125  1.00  0.00     0.131 A 
ATOM     92  C   UNL A   1      50.864  26.899  30.695  1.00  0.00     0.055 A 
ATOM     93  C   UNL A   1      50.144  25.404  32.438  1.00  0.00     0.041 A 
ATOM     94  F   UNL A   1      47.856  25.083  32.825  1.00  0.00    -0.206 F 
ATOM     95  C   UNL A   1      51.176  25.993  31.713  1.00  0.00     0.022 A 
BRANCH  92  96
ATOM     96  S   UNL A   1      52.182  27.587  29.656  1.00  0.00     0.124 S 
ATOM     97  O   UNL A   1      52.942  28.382  30.615  1.00  0.00    -0.237 OA
ATOM     98  O   UNL A   1      52.845  26.387  29.156  1.00  0.00    -0.237 OA
ATOM     99  O   UNL A   1      51.457  28.358  28.648  1.00  0.00    -0.744 OA
ENDBRANCH  92  96
ENDBRANCH  66  89
ENDBRANCH  40  41
ENDBRANCH  32  35
ENDBRANCH  30  31
ENDBRANCH  29  30
ENDBRANCH   1  29
TORSDOF 18
ENDMDL
