MODEL 1
REMARK VINA RESULT:     -12.3      0.000      0.000
REMARK SMILES COc1ccc([C@@H](CC(=O)NCCCNC(=O)c2ccc(-c3c4nc(c(-c5cc(S(=O)(=O)[O-])ccc5F)c5ccc([nH]5)c(-c5cc(S(=O)(=O)[O-])ccc5F)c5nc(c(-c6cc(S(=O)(=O)[O-])ccc6F)c6ccc3[nH]6)C=C5)C=C4)cc2)C2CCCCC2)cc1Cl
REMARK SMILES IDX 13 1 12 2 11 3 9 4 10 5 8 7 7 8 6 9 3 10 4 11 88 12 5 13
REMARK SMILES IDX 87 14 89 15 2 16 1 17 81 18 82 19 86 20 83 21 85 22 84 23
REMARK SMILES IDX 14 24 15 25 16 26 17 28 18 29 19 30 80 31 20 32 79 33 21 34
REMARK SMILES IDX 22 35 23 36 73 37 24 38 78 39 72 40 74 41 25 42 77 43 71 44
REMARK SMILES IDX 70 45 26 47 58 48 38 49 57 50 39 51 42 52 56 53 75 54 40 55
REMARK SMILES IDX 41 56 55 58 76 59 43 60 27 61 28 62 36 63 29 64 35 65 37 66
REMARK SMILES IDX 34 67 30 68 31 69 32 70 33 71 59 72 60 73 68 74 61 75 67 76
REMARK SMILES IDX 69 77 66 78 62 79 63 80 64 81 65 82 44 83 45 84 53 85 46 86
REMARK SMILES IDX 52 87 54 88 51 89 47 90 48 91 49 92 50 93
REMARK H PARENT 11 6 15 27 74 46 42 57
REMARK Flexibility Score: inf
ROOT
ATOM      1  C   UNL A   1      32.189  29.977  25.231  1.00  0.00     0.042 C 
ENDROOT
BRANCH   1   2
ATOM      2  C   UNL A   1      33.145  28.799  25.132  1.00  0.00     0.117 C 
BRANCH   2   3
ATOM      3  N   UNL A   1      33.899  28.832  23.890  1.00  0.00    -0.356 N 
ATOM      4  C   UNL A   1      33.668  28.224  22.696  1.00  0.00     0.220 C 
ATOM      5  O   UNL A   1      34.440  28.494  21.769  1.00  0.00    -0.275 OA
ATOM      6  H   UNL A   1      34.713  29.386  23.918  1.00  0.00     0.163 HD
BRANCH   4   7
ATOM      7  C   UNL A   1      32.471  27.317  22.453  1.00  0.00     0.108 C 
BRANCH   7   8
ATOM      8  C   UNL A   1      31.190  27.383  23.342  1.00  0.00     0.032 C 
BRANCH   8   9
ATOM      9  C   UNL A   1      31.046  26.153  24.249  1.00  0.00    -0.042 A 
ATOM     10  C   UNL A   1      30.623  23.763  25.737  1.00  0.00     0.137 A 
ATOM     11  C   UNL A   1      30.281  25.003  26.271  1.00  0.00     0.048 A 
ATOM     12  C   UNL A   1      31.255  23.727  24.489  1.00  0.00     0.083 A 
ATOM     13  C   UNL A   1      30.515  26.181  25.544  1.00  0.00     0.008 A 
ATOM     14  C   UNL A   1      31.472  24.905  23.763  1.00  0.00     0.028 A 
ATOM     15  Cl  UNL A   1      31.770  22.235  23.782  1.00  0.00    -0.080 Cl
BRANCH  10  16
ATOM     16  O   UNL A   1      30.244  22.573  26.288  1.00  0.00    -0.495 OA
ATOM     17  C   UNL A   1      29.304  22.596  27.354  1.00  0.00     0.278 C 
ENDBRANCH  10  16
ENDBRANCH   8   9
BRANCH   8  18
ATOM     18  C   UNL A   1      29.898  27.982  22.666  1.00  0.00    -0.003 C 
ATOM     19  C   UNL A   1      28.589  27.780  23.457  1.00  0.00     0.004 C 
ATOM     20  C   UNL A   1      30.154  29.442  22.199  1.00  0.00     0.004 C 
ATOM     21  C   UNL A   1      27.422  28.660  23.024  1.00  0.00     0.000 C 
ATOM     22  C   UNL A   1      28.908  30.235  21.824  1.00  0.00     0.000 C 
ATOM     23  C   UNL A   1      27.833  30.113  22.890  1.00  0.00     0.000 C 
ENDBRANCH   8  18
ENDBRANCH   7   8
ENDBRANCH   4   7
ENDBRANCH   2   3
ENDBRANCH   1   2
BRANCH   1  24
ATOM     24  C   UNL A   1      31.792  30.412  26.633  1.00  0.00     0.118 C 
BRANCH  24  25
ATOM     25  N   UNL A   1      31.936  31.843  26.807  1.00  0.00    -0.352 N 
ATOM     26  C   UNL A   1      32.870  32.626  27.440  1.00  0.00     0.251 C 
ATOM     27  H   UNL A   1      31.215  32.363  26.383  1.00  0.00     0.163 HD
ATOM     28  O   UNL A   1      32.538  33.792  27.665  1.00  0.00    -0.269 OA
BRANCH  26  29
ATOM     29  C   UNL A   1      34.236  32.175  27.854  1.00  0.00     0.039 A 
ATOM     30  C   UNL A   1      34.390  30.814  28.172  1.00  0.00     0.014 A 
ATOM     31  C   UNL A   1      35.318  33.024  28.094  1.00  0.00     0.014 A 
ATOM     32  C   UNL A   1      35.577  30.331  28.745  1.00  0.00     0.010 A 
ATOM     33  C   UNL A   1      36.542  32.521  28.569  1.00  0.00     0.010 A 
ATOM     34  C   UNL A   1      36.672  31.179  28.954  1.00  0.00    -0.014 A 
BRANCH  34  35
ATOM     35  C   UNL A   1      37.900  30.698  29.661  1.00  0.00     0.031 A 
ATOM     36  C   UNL A   1      38.181  31.130  31.086  1.00  0.00     0.074 A 
ATOM     37  C   UNL A   1      38.764  29.865  29.045  1.00  0.00     0.049 A 
ATOM     38  N   UNL A   1      39.199  30.838  31.859  1.00  0.00    -0.248 NA
ATOM     39  C   UNL A   1      37.200  32.028  31.712  1.00  0.00     0.031 C 
ATOM     40  C   UNL A   1      38.630  29.378  27.671  1.00  0.00     0.029 A 
ATOM     41  N   UNL A   1      39.924  29.276  29.491  1.00  0.00    -0.354 N 
ATOM     42  C   UNL A   1      38.987  31.528  33.052  1.00  0.00     0.074 A 
ATOM     43  C   UNL A   1      37.780  32.307  32.868  1.00  0.00     0.031 C 
ATOM     44  C   UNL A   1      39.642  28.537  27.401  1.00  0.00     0.029 A 
ATOM     45  C   UNL A   1      40.528  28.461  28.560  1.00  0.00     0.049 A 
ATOM     46  H   UNL A   1      40.288  29.424  30.393  1.00  0.00     0.167 HD
ATOM     47  C   UNL A   1      39.707  31.498  34.203  1.00  0.00     0.034 A 
ATOM     48  C   UNL A   1      41.664  27.738  28.625  1.00  0.00     0.034 A 
ATOM     49  C   UNL A   1      40.899  30.703  34.387  1.00  0.00     0.049 A 
ATOM     50  C   UNL A   1      42.466  27.741  29.904  1.00  0.00     0.074 A 
ATOM     51  C   UNL A   1      41.683  30.576  35.522  1.00  0.00     0.029 A 
ATOM     52  N   UNL A   1      41.482  29.901  33.415  1.00  0.00    -0.354 N 
ATOM     53  N   UNL A   1      42.233  28.379  31.027  1.00  0.00    -0.248 NA
ATOM     54  C   UNL A   1      43.676  26.909  29.928  1.00  0.00     0.031 C 
ATOM     55  C   UNL A   1      42.777  29.759  35.213  1.00  0.00     0.029 A 
ATOM     56  C   UNL A   1      42.627  29.298  33.915  1.00  0.00     0.049 A 
ATOM     57  H   UNL A   1      41.132  29.778  32.502  1.00  0.00     0.167 HD
ATOM     58  C   UNL A   1      43.242  27.986  31.905  1.00  0.00     0.074 A 
ATOM     59  C   UNL A   1      44.075  27.047  31.183  1.00  0.00     0.031 C 
ATOM     60  C   UNL A   1      43.456  28.363  33.193  1.00  0.00     0.034 A 
BRANCH  47  61
ATOM     61  C   UNL A   1      39.235  32.371  35.347  1.00  0.00     0.023 A 
ATOM     62  C   UNL A   1      39.673  33.700  35.497  1.00  0.00     0.031 A 
ATOM     63  C   UNL A   1      38.349  31.863  36.315  1.00  0.00     0.131 A 
ATOM     64  C   UNL A   1      39.293  34.442  36.625  1.00  0.00     0.055 A 
ATOM     65  C   UNL A   1      37.901  32.639  37.387  1.00  0.00     0.041 A 
ATOM     66  F   UNL A   1      37.909  30.597  36.243  1.00  0.00    -0.206 F 
ATOM     67  C   UNL A   1      38.388  33.932  37.557  1.00  0.00     0.022 A 
BRANCH  64  68
ATOM     68  S   UNL A   1      40.123  36.025  36.939  1.00  0.00     0.124 S 
ATOM     69  O   UNL A   1      39.410  36.499  38.124  1.00  0.00    -0.237 OA
ATOM     70  O   UNL A   1      41.507  35.621  37.145  1.00  0.00    -0.237 OA
ATOM     71  O   UNL A   1      39.868  36.792  35.721  1.00  0.00    -0.744 OA
ENDBRANCH  64  68
ENDBRANCH  47  61
BRANCH  48  72
ATOM     72  C   UNL A   1      42.129  26.948  27.446  1.00  0.00     0.023 A 
ATOM     73  C   UNL A   1      41.858  25.573  27.339  1.00  0.00     0.031 A 
ATOM     74  C   UNL A   1      42.905  27.544  26.434  1.00  0.00     0.131 A 
ATOM     75  C   UNL A   1      42.405  24.830  26.281  1.00  0.00     0.055 A 
ATOM     76  C   UNL A   1      43.393  26.813  25.349  1.00  0.00     0.041 A 
ATOM     77  F   UNL A   1      43.193  28.854  26.483  1.00  0.00    -0.206 F 
ATOM     78  C   UNL A   1      43.157  25.444  25.278  1.00  0.00     0.022 A 
BRANCH  75  79
ATOM     79  S   UNL A   1      42.206  23.027  26.292  1.00  0.00     0.124 S 
ATOM     80  O   UNL A   1      40.764  22.889  26.456  1.00  0.00    -0.237 OA
ATOM     81  O   UNL A   1      42.744  22.656  24.987  1.00  0.00    -0.237 OA
ATOM     82  O   UNL A   1      43.010  22.603  27.438  1.00  0.00    -0.744 OA
ENDBRANCH  75  79
ENDBRANCH  48  72
BRANCH  60  83
ATOM     83  C   UNL A   1      44.600  27.698  33.925  1.00  0.00     0.023 A 
ATOM     84  C   UNL A   1      44.422  26.536  34.697  1.00  0.00     0.031 A 
ATOM     85  C   UNL A   1      45.890  28.259  33.873  1.00  0.00     0.131 A 
ATOM     86  C   UNL A   1      45.490  26.021  35.447  1.00  0.00     0.055 A 
ATOM     87  C   UNL A   1      46.966  27.699  34.561  1.00  0.00     0.041 A 
ATOM     88  F   UNL A   1      46.123  29.370  33.155  1.00  0.00    -0.206 F 
ATOM     89  C   UNL A   1      46.766  26.584  35.369  1.00  0.00     0.022 A 
BRANCH  86  90
ATOM     90  S   UNL A   1      45.161  24.685  36.628  1.00  0.00     0.124 S 
ATOM     91  O   UNL A   1      44.001  24.030  36.031  1.00  0.00    -0.237 OA
ATOM     92  O   UNL A   1      46.407  23.927  36.596  1.00  0.00    -0.237 OA
ATOM     93  O   UNL A   1      44.898  25.391  37.881  1.00  0.00    -0.744 OA
ENDBRANCH  86  90
ENDBRANCH  60  83
ENDBRANCH  34  35
ENDBRANCH  26  29
ENDBRANCH  24  25
ENDBRANCH   1  24
TORSDOF 17
ENDMDL
MODEL 2
REMARK VINA RESULT:     -12.1      4.967      9.915
REMARK SMILES COc1ccc([C@@H](CC(=O)NCCCNC(=O)c2ccc(-c3c4nc(c(-c5cc(S(=O)(=O)[O-])ccc5F)c5ccc([nH]5)c(-c5cc(S(=O)(=O)[O-])ccc5F)c5nc(c(-c6cc(S(=O)(=O)[O-])ccc6F)c6ccc3[nH]6)C=C5)C=C4)cc2)C2CCCCC2)cc1Cl
REMARK SMILES IDX 13 1 12 2 11 3 9 4 10 5 8 7 7 8 6 9 3 10 4 11 88 12 5 13
REMARK SMILES IDX 87 14 89 15 2 16 1 17 81 18 82 19 86 20 83 21 85 22 84 23
REMARK SMILES IDX 14 24 15 25 16 26 17 28 18 29 19 30 80 31 20 32 79 33 21 34
REMARK SMILES IDX 22 35 23 36 73 37 24 38 78 39 72 40 74 41 25 42 77 43 71 44
REMARK SMILES IDX 70 45 26 47 58 48 38 49 57 50 39 51 42 52 56 53 75 54 40 55
REMARK SMILES IDX 41 56 55 58 76 59 43 60 27 61 28 62 36 63 29 64 35 65 37 66
REMARK SMILES IDX 34 67 30 68 31 69 32 70 33 71 59 72 60 73 68 74 61 75 67 76
REMARK SMILES IDX 69 77 66 78 62 79 63 80 64 81 65 82 44 83 45 84 53 85 46 86
REMARK SMILES IDX 52 87 54 88 51 89 47 90 48 91 49 92 50 93
REMARK H PARENT 11 6 15 27 74 46 42 57
REMARK Flexibility Score: inf
ROOT
ATOM      1  C   UNL A   1      35.795  22.444  25.207  1.00  0.00     0.042 C 
ENDROOT
BRANCH   1   2
ATOM      2  C   UNL A   1      34.843  23.528  24.727  1.00  0.00     0.117 C 
BRANCH   2   3
ATOM      3  N   UNL A   1      33.637  22.956  24.150  1.00  0.00    -0.356 N 
ATOM      4  C   UNL A   1      32.533  23.556  23.632  1.00  0.00     0.220 C 
ATOM      5  O   UNL A   1      31.678  22.820  23.127  1.00  0.00    -0.275 OA
ATOM      6  H   UNL A   1      33.617  21.972  24.132  1.00  0.00     0.163 HD
BRANCH   4   7
ATOM      7  C   UNL A   1      32.365  25.067  23.578  1.00  0.00     0.108 C 
BRANCH   7   8
ATOM      8  C   UNL A   1      31.512  25.842  24.630  1.00  0.00     0.032 C 
BRANCH   8   9
ATOM      9  C   UNL A   1      30.387  26.658  23.980  1.00  0.00    -0.042 A 
ATOM     10  C   UNL A   1      28.401  28.391  22.903  1.00  0.00     0.137 A 
ATOM     11  C   UNL A   1      28.038  27.271  23.648  1.00  0.00     0.048 A 
ATOM     12  C   UNL A   1      29.757  28.598  22.627  1.00  0.00     0.083 A 
ATOM     13  C   UNL A   1      29.021  26.406  24.155  1.00  0.00     0.008 A 
ATOM     14  C   UNL A   1      30.732  27.739  23.149  1.00  0.00     0.028 A 
ATOM     15  Cl  UNL A   1      30.287  29.928  21.657  1.00  0.00    -0.080 Cl
BRANCH  10  16
ATOM     16  O   UNL A   1      27.527  29.380  22.553  1.00  0.00    -0.495 OA
ATOM     17  C   UNL A   1      27.463  30.540  23.373  1.00  0.00     0.278 C 
ENDBRANCH  10  16
ENDBRANCH   8   9
BRANCH   8  18
ATOM     18  C   UNL A   1      32.296  26.466  25.847  1.00  0.00    -0.003 C 
ATOM     19  C   UNL A   1      33.606  27.193  25.481  1.00  0.00     0.004 C 
ATOM     20  C   UNL A   1      31.335  27.281  26.756  1.00  0.00     0.004 C 
ATOM     21  C   UNL A   1      34.168  28.110  26.561  1.00  0.00     0.000 C 
ATOM     22  C   UNL A   1      32.012  28.188  27.775  1.00  0.00     0.000 C 
ATOM     23  C   UNL A   1      33.103  29.025  27.131  1.00  0.00     0.000 C 
ENDBRANCH   8  18
ENDBRANCH   7   8
ENDBRANCH   4   7
ENDBRANCH   2   3
ENDBRANCH   1   2
BRANCH   1  24
ATOM     24  C   UNL A   1      37.206  22.483  24.643  1.00  0.00     0.118 C 
BRANCH  24  25
ATOM     25  N   UNL A   1      38.067  21.515  25.293  1.00  0.00    -0.352 N 
ATOM     26  C   UNL A   1      39.186  21.630  26.081  1.00  0.00     0.251 C 
ATOM     27  H   UNL A   1      37.793  20.582  25.139  1.00  0.00     0.163 HD
ATOM     28  O   UNL A   1      39.857  20.605  26.221  1.00  0.00    -0.269 OA
BRANCH  26  29
ATOM     29  C   UNL A   1      39.628  22.879  26.776  1.00  0.00     0.039 A 
ATOM     30  C   UNL A   1      38.962  24.070  26.435  1.00  0.00     0.014 A 
ATOM     31  C   UNL A   1      40.741  22.976  27.613  1.00  0.00     0.014 A 
ATOM     32  C   UNL A   1      39.421  25.316  26.889  1.00  0.00     0.010 A 
ATOM     33  C   UNL A   1      41.136  24.212  28.152  1.00  0.00     0.010 A 
ATOM     34  C   UNL A   1      40.518  25.406  27.755  1.00  0.00    -0.014 A 
BRANCH  34  35
ATOM     35  C   UNL A   1      41.080  26.734  28.157  1.00  0.00     0.031 A 
ATOM     36  C   UNL A   1      42.517  27.086  27.834  1.00  0.00     0.074 A 
ATOM     37  C   UNL A   1      40.311  27.636  28.800  1.00  0.00     0.049 A 
ATOM     38  N   UNL A   1      43.192  28.174  28.117  1.00  0.00    -0.248 NA
ATOM     39  C   UNL A   1      43.305  26.069  27.123  1.00  0.00     0.031 C 
ATOM     40  C   UNL A   1      38.915  27.430  29.188  1.00  0.00     0.029 A 
ATOM     41  N   UNL A   1      40.589  28.910  29.238  1.00  0.00    -0.354 N 
ATOM     42  C   UNL A   1      44.482  27.965  27.632  1.00  0.00     0.074 A 
ATOM     43  C   UNL A   1      44.510  26.618  27.103  1.00  0.00     0.031 C 
ATOM     44  C   UNL A   1      38.449  28.548  29.770  1.00  0.00     0.029 A 
ATOM     45  C   UNL A   1      39.522  29.535  29.844  1.00  0.00     0.049 A 
ATOM     46  H   UNL A   1      41.469  29.336  29.127  1.00  0.00     0.167 HD
ATOM     47  C   UNL A   1      45.538  28.818  27.601  1.00  0.00     0.034 A 
ATOM     48  C   UNL A   1      39.416  30.759  30.401  1.00  0.00     0.034 A 
ATOM     49  C   UNL A   1      45.499  30.168  28.112  1.00  0.00     0.049 A 
ATOM     50  C   UNL A   1      40.611  31.682  30.381  1.00  0.00     0.074 A 
ATOM     51  C   UNL A   1      46.501  31.124  28.100  1.00  0.00     0.029 A 
ATOM     52  N   UNL A   1      44.402  30.757  28.729  1.00  0.00    -0.354 N 
ATOM     53  N   UNL A   1      41.812  31.473  29.894  1.00  0.00    -0.248 NA
ATOM     54  C   UNL A   1      40.427  33.014  30.972  1.00  0.00     0.031 C 
ATOM     55  C   UNL A   1      46.036  32.260  28.772  1.00  0.00     0.029 A 
ATOM     56  C   UNL A   1      44.712  32.051  29.121  1.00  0.00     0.049 A 
ATOM     57  H   UNL A   1      43.531  30.319  28.866  1.00  0.00     0.167 HD
ATOM     58  C   UNL A   1      42.510  32.666  30.078  1.00  0.00     0.074 A 
ATOM     59  C   UNL A   1      41.590  33.590  30.708  1.00  0.00     0.031 C 
ATOM     60  C   UNL A   1      43.792  32.970  29.750  1.00  0.00     0.034 A 
BRANCH  47  61
ATOM     61  C   UNL A   1      46.836  28.304  27.013  1.00  0.00     0.023 A 
ATOM     62  C   UNL A   1      47.058  28.263  25.625  1.00  0.00     0.031 A 
ATOM     63  C   UNL A   1      47.861  27.829  27.853  1.00  0.00     0.131 A 
ATOM     64  C   UNL A   1      48.232  27.685  25.118  1.00  0.00     0.055 A 
ATOM     65  C   UNL A   1      49.066  27.340  27.344  1.00  0.00     0.041 A 
ATOM     66  F   UNL A   1      47.706  27.821  29.186  1.00  0.00    -0.206 F 
ATOM     67  C   UNL A   1      49.250  27.249  25.967  1.00  0.00     0.022 A 
BRANCH  64  68
ATOM     68  S   UNL A   1      48.339  27.367  23.334  1.00  0.00     0.124 S 
ATOM     69  O   UNL A   1      47.221  28.161  22.828  1.00  0.00    -0.237 OA
ATOM     70  O   UNL A   1      49.670  27.855  23.005  1.00  0.00    -0.237 OA
ATOM     71  O   UNL A   1      48.159  25.919  23.234  1.00  0.00    -0.744 OA
ENDBRANCH  64  68
ENDBRANCH  47  61
BRANCH  48  72
ATOM     72  C   UNL A   1      38.136  31.197  31.034  1.00  0.00     0.023 A 
ATOM     73  C   UNL A   1      37.115  31.791  30.274  1.00  0.00     0.031 A 
ATOM     74  C   UNL A   1      37.937  31.082  32.422  1.00  0.00     0.131 A 
ATOM     75  C   UNL A   1      35.971  32.299  30.909  1.00  0.00     0.055 A 
ATOM     76  C   UNL A   1      36.770  31.531  33.041  1.00  0.00     0.041 A 
ATOM     77  F   UNL A   1      38.878  30.520  33.198  1.00  0.00    -0.206 F 
ATOM     78  C   UNL A   1      35.786  32.159  32.286  1.00  0.00     0.022 A 
BRANCH  75  79
ATOM     79  S   UNL A   1      34.775  33.242  29.923  1.00  0.00     0.124 S 
ATOM     80  O   UNL A   1      34.181  32.197  29.100  1.00  0.00    -0.237 OA
ATOM     81  O   UNL A   1      33.917  33.815  30.956  1.00  0.00    -0.237 OA
ATOM     82  O   UNL A   1      35.611  34.205  29.205  1.00  0.00    -0.744 OA
ENDBRANCH  75  79
ENDBRANCH  48  72
BRANCH  60  83
ATOM     83  C   UNL A   1      44.251  34.390  30.003  1.00  0.00     0.023 A 
ATOM     84  C   UNL A   1      44.172  35.389  29.017  1.00  0.00     0.031 A 
ATOM     85  C   UNL A   1      44.808  34.738  31.247  1.00  0.00     0.131 A 
ATOM     86  C   UNL A   1      44.712  36.661  29.263  1.00  0.00     0.055 A 
ATOM     87  C   UNL A   1      45.276  36.025  31.512  1.00  0.00     0.041 A 
ATOM     88  F   UNL A   1      44.913  33.827  32.228  1.00  0.00    -0.206 F 
ATOM     89  C   UNL A   1      45.247  36.991  30.510  1.00  0.00     0.022 A 
BRANCH  86  90
ATOM     90  S   UNL A   1      44.828  37.838  27.888  1.00  0.00     0.124 S 
ATOM     91  O   UNL A   1      45.785  38.813  28.401  1.00  0.00    -0.237 OA
ATOM     92  O   UNL A   1      45.301  36.994  26.795  1.00  0.00    -0.237 OA
ATOM     93  O   UNL A   1      43.459  38.330  27.740  1.00  0.00    -0.744 OA
ENDBRANCH  86  90
ENDBRANCH  60  83
ENDBRANCH  34  35
ENDBRANCH  26  29
ENDBRANCH  24  25
ENDBRANCH   1  24
TORSDOF 17
ENDMDL
MODEL 3
REMARK VINA RESULT:     -12.1      2.182      3.064
REMARK SMILES COc1ccc([C@@H](CC(=O)NCCCNC(=O)c2ccc(-c3c4nc(c(-c5cc(S(=O)(=O)[O-])ccc5F)c5ccc([nH]5)c(-c5cc(S(=O)(=O)[O-])ccc5F)c5nc(c(-c6cc(S(=O)(=O)[O-])ccc6F)c6ccc3[nH]6)C=C5)C=C4)cc2)C2CCCCC2)cc1Cl
REMARK SMILES IDX 13 1 12 2 11 3 9 4 10 5 8 7 7 8 6 9 3 10 4 11 88 12 5 13
REMARK SMILES IDX 87 14 89 15 2 16 1 17 81 18 82 19 86 20 83 21 85 22 84 23
REMARK SMILES IDX 14 24 15 25 16 26 17 28 18 29 19 30 80 31 20 32 79 33 21 34
REMARK SMILES IDX 22 35 23 36 73 37 24 38 78 39 72 40 74 41 25 42 77 43 71 44
REMARK SMILES IDX 70 45 26 47 58 48 38 49 57 50 39 51 42 52 56 53 75 54 40 55
REMARK SMILES IDX 41 56 55 58 76 59 43 60 27 61 28 62 36 63 29 64 35 65 37 66
REMARK SMILES IDX 34 67 30 68 31 69 32 70 33 71 59 72 60 73 68 74 61 75 67 76
REMARK SMILES IDX 69 77 66 78 62 79 63 80 64 81 65 82 44 83 45 84 53 85 46 86
REMARK SMILES IDX 52 87 54 88 51 89 47 90 48 91 49 92 50 93
REMARK H PARENT 11 6 15 27 74 46 42 57
REMARK Flexibility Score: inf
ROOT
ATOM      1  C   UNL A   1      31.696  29.124  26.731  1.00  0.00     0.042 C 
ENDROOT
BRANCH   1   2
ATOM      2  C   UNL A   1      32.300  27.754  26.999  1.00  0.00     0.117 C 
BRANCH   2   3
ATOM      3  N   UNL A   1      31.294  26.707  26.920  1.00  0.00    -0.356 N 
ATOM      4  C   UNL A   1      31.399  25.405  26.545  1.00  0.00     0.220 C 
ATOM      5  O   UNL A   1      30.385  24.706  26.652  1.00  0.00    -0.275 OA
ATOM      6  H   UNL A   1      30.388  26.988  27.182  1.00  0.00     0.163 HD
BRANCH   4   7
ATOM      7  C   UNL A   1      32.711  24.780  26.095  1.00  0.00     0.108 C 
BRANCH   7   8
ATOM      8  C   UNL A   1      32.925  24.271  24.635  1.00  0.00     0.032 C 
BRANCH   8   9
ATOM      9  C   UNL A   1      34.015  23.193  24.549  1.00  0.00    -0.042 A 
ATOM     10  C   UNL A   1      35.951  21.107  24.634  1.00  0.00     0.137 A 
ATOM     11  C   UNL A   1      36.343  22.435  24.478  1.00  0.00     0.048 A 
ATOM     12  C   UNL A   1      34.583  20.816  24.664  1.00  0.00     0.083 A 
ATOM     13  C   UNL A   1      35.383  23.457  24.411  1.00  0.00     0.008 A 
ATOM     14  C   UNL A   1      33.631  21.841  24.611  1.00  0.00     0.028 A 
ATOM     15  Cl  UNL A   1      34.011  19.188  24.791  1.00  0.00    -0.080 Cl
BRANCH  10  16
ATOM     16  O   UNL A   1      36.821  20.092  24.910  1.00  0.00    -0.495 OA
ATOM     17  C   UNL A   1      38.160  20.428  25.250  1.00  0.00     0.278 C 
ENDBRANCH  10  16
ENDBRANCH   8   9
BRANCH   8  18
ATOM     18  C   UNL A   1      32.839  25.355  23.494  1.00  0.00    -0.003 C 
ATOM     19  C   UNL A   1      31.418  25.651  22.974  1.00  0.00     0.004 C 
ATOM     20  C   UNL A   1      33.665  26.615  23.877  1.00  0.00     0.004 C 
ATOM     21  C   UNL A   1      31.272  26.935  22.166  1.00  0.00     0.000 C 
ATOM     22  C   UNL A   1      33.410  27.848  23.019  1.00  0.00     0.000 C 
ATOM     23  C   UNL A   1      31.922  28.114  22.862  1.00  0.00     0.000 C 
ENDBRANCH   8  18
ENDBRANCH   7   8
ENDBRANCH   4   7
ENDBRANCH   2   3
ENDBRANCH   1   2
BRANCH   1  24
ATOM     24  C   UNL A   1      32.534  30.083  25.901  1.00  0.00     0.118 C 
BRANCH  24  25
ATOM     25  N   UNL A   1      32.539  31.415  26.472  1.00  0.00    -0.352 N 
ATOM     26  C   UNL A   1      33.357  32.050  27.374  1.00  0.00     0.251 C 
ATOM     27  H   UNL A   1      31.804  31.983  26.145  1.00  0.00     0.163 HD
ATOM     28  O   UNL A   1      32.909  33.082  27.879  1.00  0.00    -0.269 OA
BRANCH  26  29
ATOM     29  C   UNL A   1      34.727  31.594  27.767  1.00  0.00     0.039 A 
ATOM     30  C   UNL A   1      34.871  30.244  28.132  1.00  0.00     0.014 A 
ATOM     31  C   UNL A   1      35.828  32.434  27.943  1.00  0.00     0.014 A 
ATOM     32  C   UNL A   1      36.066  29.764  28.689  1.00  0.00     0.010 A 
ATOM     33  C   UNL A   1      37.057  31.930  28.403  1.00  0.00     0.010 A 
ATOM     34  C   UNL A   1      37.179  30.602  28.835  1.00  0.00    -0.014 A 
BRANCH  34  35
ATOM     35  C   UNL A   1      38.419  30.128  29.526  1.00  0.00     0.031 A 
ATOM     36  C   UNL A   1      38.742  30.602  30.928  1.00  0.00     0.074 A 
ATOM     37  C   UNL A   1      39.257  29.266  28.914  1.00  0.00     0.049 A 
ATOM     38  N   UNL A   1      39.777  30.323  31.684  1.00  0.00    -0.248 NA
ATOM     39  C   UNL A   1      37.789  31.532  31.550  1.00  0.00     0.031 C 
ATOM     40  C   UNL A   1      39.081  28.736  27.561  1.00  0.00     0.029 A 
ATOM     41  N   UNL A   1      40.422  28.677  29.349  1.00  0.00    -0.354 N 
ATOM     42  C   UNL A   1      39.604  31.053  32.859  1.00  0.00     0.074 A 
ATOM     43  C   UNL A   1      38.402  31.841  32.681  1.00  0.00     0.031 C 
ATOM     44  C   UNL A   1      40.077  27.875  27.292  1.00  0.00     0.029 A 
ATOM     45  C   UNL A   1      40.991  27.825  28.430  1.00  0.00     0.049 A 
ATOM     46  H   UNL A   1      40.811  28.849  30.236  1.00  0.00     0.167 HD
ATOM     47  C   UNL A   1      40.354  31.050  33.991  1.00  0.00     0.034 A 
ATOM     48  C   UNL A   1      42.121  27.091  28.488  1.00  0.00     0.034 A 
ATOM     49  C   UNL A   1      41.540  30.248  34.170  1.00  0.00     0.049 A 
ATOM     50  C   UNL A   1      42.956  27.124  29.746  1.00  0.00     0.074 A 
ATOM     51  C   UNL A   1      42.353  30.147  35.288  1.00  0.00     0.029 A 
ATOM     52  N   UNL A   1      42.089  29.408  33.209  1.00  0.00    -0.354 N 
ATOM     53  N   UNL A   1      42.759  27.801  30.854  1.00  0.00    -0.248 NA
ATOM     54  C   UNL A   1      44.157  26.278  29.766  1.00  0.00     0.031 C 
ATOM     55  C   UNL A   1      43.428  29.307  34.977  1.00  0.00     0.029 A 
ATOM     56  C   UNL A   1      43.239  28.807  33.699  1.00  0.00     0.049 A 
ATOM     57  H   UNL A   1      41.714  29.260  32.311  1.00  0.00     0.167 HD
ATOM     58  C   UNL A   1      43.787  27.424  31.717  1.00  0.00     0.074 A 
ATOM     59  C   UNL A   1      44.589  26.452  31.005  1.00  0.00     0.031 C 
ATOM     60  C   UNL A   1      44.038  27.838  32.986  1.00  0.00     0.034 A 
BRANCH  47  61
ATOM     61  C   UNL A   1      39.922  31.966  35.118  1.00  0.00     0.023 A 
ATOM     62  C   UNL A   1      39.169  31.497  36.210  1.00  0.00     0.031 A 
ATOM     63  C   UNL A   1      40.251  33.334  35.092  1.00  0.00     0.131 A 
ATOM     64  C   UNL A   1      38.702  32.396  37.180  1.00  0.00     0.055 A 
ATOM     65  C   UNL A   1      39.862  34.208  36.110  1.00  0.00     0.041 A 
ATOM     66  F   UNL A   1      40.950  33.851  34.069  1.00  0.00    -0.206 F 
ATOM     67  C   UNL A   1      39.067  33.743  37.154  1.00  0.00     0.022 A 
BRANCH  64  68
ATOM     68  S   UNL A   1      37.482  31.809  38.388  1.00  0.00     0.124 S 
ATOM     69  O   UNL A   1      36.418  32.799  38.234  1.00  0.00    -0.237 OA
ATOM     70  O   UNL A   1      37.182  30.468  37.909  1.00  0.00    -0.237 OA
ATOM     71  O   UNL A   1      38.201  31.874  39.660  1.00  0.00    -0.744 OA
ENDBRANCH  64  68
ENDBRANCH  47  61
BRANCH  48  72
ATOM     72  C   UNL A   1      42.545  26.257  27.324  1.00  0.00     0.023 A 
ATOM     73  C   UNL A   1      42.171  24.907  27.221  1.00  0.00     0.031 A 
ATOM     74  C   UNL A   1      43.385  26.783  26.324  1.00  0.00     0.131 A 
ATOM     75  C   UNL A   1      42.678  24.115  26.179  1.00  0.00     0.055 A 
ATOM     76  C   UNL A   1      43.835  26.008  25.254  1.00  0.00     0.041 A 
ATOM     77  F   UNL A   1      43.773  28.067  26.370  1.00  0.00    -0.206 F 
ATOM     78  C   UNL A   1      43.495  24.661  25.187  1.00  0.00     0.022 A 
BRANCH  75  79
ATOM     79  S   UNL A   1      42.339  22.333  26.197  1.00  0.00     0.124 S 
ATOM     80  O   UNL A   1      40.894  22.305  26.016  1.00  0.00    -0.237 OA
ATOM     81  O   UNL A   1      43.139  21.862  25.071  1.00  0.00    -0.237 OA
ATOM     82  O   UNL A   1      42.814  21.911  27.515  1.00  0.00    -0.744 OA
ENDBRANCH  75  79
ENDBRANCH  48  72
BRANCH  60  83
ATOM     83  C   UNL A   1      45.194  27.183  33.710  1.00  0.00     0.023 A 
ATOM     84  C   UNL A   1      45.048  25.976  34.416  1.00  0.00     0.031 A 
ATOM     85  C   UNL A   1      46.459  27.799  33.718  1.00  0.00     0.131 A 
ATOM     86  C   UNL A   1      46.121  25.467  35.163  1.00  0.00     0.055 A 
ATOM     87  C   UNL A   1      47.543  27.248  34.401  1.00  0.00     0.041 A 
ATOM     88  F   UNL A   1      46.661  28.955  33.064  1.00  0.00    -0.206 F 
ATOM     89  C   UNL A   1      47.373  26.085  35.145  1.00  0.00     0.022 A 
BRANCH  86  90
ATOM     90  S   UNL A   1      45.822  24.057  36.265  1.00  0.00     0.124 S 
ATOM     91  O   UNL A   1      46.120  24.628  37.575  1.00  0.00    -0.237 OA
ATOM     92  O   UNL A   1      44.419  23.752  36.007  1.00  0.00    -0.237 OA
ATOM     93  O   UNL A   1      46.771  23.048  35.798  1.00  0.00    -0.744 OA
ENDBRANCH  86  90
ENDBRANCH  60  83
ENDBRANCH  34  35
ENDBRANCH  26  29
ENDBRANCH  24  25
ENDBRANCH   1  24
TORSDOF 17
ENDMDL
