MODEL 1
REMARK VINA RESULT:     -13.0      0.000      0.000
REMARK SMILES NS(=O)(=O)c1ccc(-n2nc(C(=O)NCCCNC(=O)c3ccc(-c4c5nc(c(-c6cc(S(=O)(=O)[O-])ccc6F)c6ccc([nH]6)c(-c6cc(S(=O)(=O)[O-])ccc6F)c6nc(c(-c7cc(S(=O)(=O)[O-])ccc7F)c7ccc4[nH]7)C=C6)C=C5)cc3)cc2-c2cc3ccccc3s2)cc1
REMARK SMILES IDX 16 1 15 2 14 3 12 4 13 5 11 7 9 8 10 9 85 10 84 11 8 12 5 13
REMARK SMILES IDX 6 14 96 15 7 16 95 17 2 18 3 19 4 20 1 21 86 24 87 25 94 26
REMARK SMILES IDX 88 27 93 28 89 29 92 30 90 31 91 32 17 33 18 34 19 35 20 37
REMARK SMILES IDX 21 38 22 39 83 40 23 41 82 42 24 43 25 44 26 45 76 46 27 47
REMARK SMILES IDX 81 48 75 49 77 50 28 51 80 52 74 53 73 54 29 56 61 57 41 58
REMARK SMILES IDX 60 59 42 60 45 61 59 62 78 63 43 64 44 65 58 67 79 68 46 69
REMARK SMILES IDX 30 70 31 71 39 72 32 73 38 74 40 75 37 76 33 77 34 78 35 79
REMARK SMILES IDX 36 80 62 81 63 82 71 83 64 84 70 85 72 86 69 87 65 88 66 89
REMARK SMILES IDX 67 90 68 91 47 92 48 93 56 94 49 95 55 96 57 97 54 98 50 99
REMARK SMILES IDX 51 100 52 101 53 102
REMARK H PARENT 14 6 1 22 1 23 18 36 77 55 45 66
REMARK Flexibility Score: inf
ROOT
ATOM      1  C   UNL A   1      45.302  31.599  27.346  1.00  0.00     0.042 C 
ENDROOT
BRANCH   1   2
ATOM      2  C   UNL A   1      45.124  30.159  26.845  1.00  0.00     0.118 C 
BRANCH   2   3
ATOM      3  N   UNL A   1      45.916  29.876  25.651  1.00  0.00    -0.351 N 
ATOM      4  C   UNL A   1      46.291  28.677  25.062  1.00  0.00     0.271 C 
ATOM      5  O   UNL A   1      46.830  28.733  23.957  1.00  0.00    -0.267 OA
ATOM      6  H   UNL A   1      46.240  30.679  25.181  1.00  0.00     0.163 HD
BRANCH   4   7
ATOM      7  C   UNL A   1      45.989  27.399  25.734  1.00  0.00     0.151 A 
ATOM      8  N   UNL A   1      45.158  25.424  25.986  1.00  0.00    -0.231 N 
ATOM      9  N   UNL A   1      45.728  26.258  25.066  1.00  0.00    -0.162 NA
ATOM     10  C   UNL A   1      45.075  26.041  27.215  1.00  0.00     0.085 A 
ATOM     11  C   UNL A   1      45.897  27.143  27.108  1.00  0.00     0.066 A 
BRANCH   8  12
ATOM     12  C   UNL A   1      44.849  24.091  25.622  1.00  0.00     0.065 A 
ATOM     13  C   UNL A   1      44.308  21.419  25.042  1.00  0.00     0.082 A 
ATOM     14  C   UNL A   1      43.372  22.406  24.716  1.00  0.00     0.024 A 
ATOM     15  C   UNL A   1      45.519  21.759  25.650  1.00  0.00     0.024 A 
ATOM     16  C   UNL A   1      43.631  23.745  25.032  1.00  0.00     0.030 A 
ATOM     17  C   UNL A   1      45.802  23.098  25.909  1.00  0.00     0.030 A 
BRANCH  13  18
ATOM     18  S   UNL A   1      43.994  19.707  24.739  1.00  0.00     0.238 S 
ATOM     19  O   UNL A   1      44.474  19.375  23.420  1.00  0.00    -0.207 OA
ATOM     20  O   UNL A   1      42.656  19.396  25.190  1.00  0.00    -0.207 OA
BRANCH  18  21
ATOM     21  N   UNL A   1      45.022  18.891  25.792  1.00  0.00    -0.225 NA
ATOM     22  H   UNL A   1      45.390  19.545  26.483  1.00  0.00     0.137 HD
ATOM     23  H   UNL A   1      45.794  18.483  25.264  1.00  0.00     0.137 HD
ENDBRANCH  18  21
ENDBRANCH  13  18
ENDBRANCH   8  12
BRANCH  10  24
ATOM     24  C   UNL A   1      44.274  25.808  28.383  1.00  0.00     0.054 A 
ATOM     25  C   UNL A   1      42.906  26.037  28.450  1.00  0.00     0.031 A 
ATOM     26  S   UNL A   1      44.596  24.370  29.295  1.00  0.00    -0.134 S 
ATOM     27  C   UNL A   1      42.240  24.747  28.353  1.00  0.00    -0.007 A 
ATOM     28  C   UNL A   1      43.107  23.705  28.706  1.00  0.00     0.035 A 
ATOM     29  C   UNL A   1      40.962  24.405  27.849  1.00  0.00     0.009 A 
ATOM     30  C   UNL A   1      42.760  22.352  28.546  1.00  0.00     0.019 A 
ATOM     31  C   UNL A   1      40.629  23.061  27.637  1.00  0.00     0.001 A 
ATOM     32  C   UNL A   1      41.523  22.050  27.971  1.00  0.00     0.001 A 
ENDBRANCH  10  24
ENDBRANCH   4   7
ENDBRANCH   2   3
ENDBRANCH   1   2
BRANCH   1  33
ATOM     33  C   UNL A   1      44.652  32.643  26.457  1.00  0.00     0.118 C 
BRANCH  33  34
ATOM     34  N   UNL A   1      45.395  33.904  26.425  1.00  0.00    -0.352 N 
ATOM     35  C   UNL A   1      45.059  35.103  27.032  1.00  0.00     0.251 C 
ATOM     36  H   UNL A   1      46.233  33.900  25.910  1.00  0.00     0.163 HD
ATOM     37  O   UNL A   1      45.551  36.154  26.639  1.00  0.00    -0.269 OA
BRANCH  35  38
ATOM     38  C   UNL A   1      44.071  35.077  28.126  1.00  0.00     0.039 A 
ATOM     39  C   UNL A   1      42.771  35.549  27.937  1.00  0.00     0.014 A 
ATOM     40  C   UNL A   1      44.431  34.443  29.310  1.00  0.00     0.014 A 
ATOM     41  C   UNL A   1      41.802  35.254  28.899  1.00  0.00     0.010 A 
ATOM     42  C   UNL A   1      43.444  34.021  30.171  1.00  0.00     0.010 A 
ATOM     43  C   UNL A   1      42.126  34.440  29.998  1.00  0.00    -0.014 A 
BRANCH  43  44
ATOM     44  C   UNL A   1      41.077  33.945  30.898  1.00  0.00     0.031 A 
ATOM     45  C   UNL A   1      41.393  33.927  32.355  1.00  0.00     0.074 A 
ATOM     46  C   UNL A   1      39.800  33.703  30.528  1.00  0.00     0.049 A 
ATOM     47  N   UNL A   1      41.559  32.894  33.114  1.00  0.00    -0.248 NA
ATOM     48  C   UNL A   1      41.634  35.204  33.041  1.00  0.00     0.031 C 
ATOM     49  C   UNL A   1      39.164  33.926  29.225  1.00  0.00     0.029 A 
ATOM     50  N   UNL A   1      38.755  33.298  31.305  1.00  0.00    -0.354 N 
ATOM     51  C   UNL A   1      41.703  33.371  34.415  1.00  0.00     0.074 A 
ATOM     52  C   UNL A   1      41.913  34.791  34.280  1.00  0.00     0.031 C 
ATOM     53  C   UNL A   1      37.823  33.898  29.363  1.00  0.00     0.029 A 
ATOM     54  C   UNL A   1      37.512  33.452  30.708  1.00  0.00     0.049 A 
ATOM     55  H   UNL A   1      38.872  32.930  32.211  1.00  0.00     0.167 HD
ATOM     56  C   UNL A   1      41.440  32.582  35.497  1.00  0.00     0.034 A 
ATOM     57  C   UNL A   1      36.296  33.217  31.254  1.00  0.00     0.034 A 
ATOM     58  C   UNL A   1      41.355  31.188  35.112  1.00  0.00     0.049 A 
ATOM     59  C   UNL A   1      36.494  32.229  32.338  1.00  0.00     0.074 A 
ATOM     60  C   UNL A   1      42.200  30.304  34.467  1.00  0.00     0.029 A 
ATOM     61  N   UNL A   1      40.110  30.601  35.049  1.00  0.00    -0.354 N 
ATOM     62  N   UNL A   1      36.910  31.010  32.127  1.00  0.00    -0.248 NA
ATOM     63  C   UNL A   1      36.656  32.707  33.702  1.00  0.00     0.031 C 
ATOM     64  C   UNL A   1      41.348  29.546  33.608  1.00  0.00     0.029 A 
ATOM     65  C   UNL A   1      40.033  29.957  33.838  1.00  0.00     0.049 A 
ATOM     66  H   UNL A   1      39.410  30.635  35.741  1.00  0.00     0.167 HD
ATOM     67  C   UNL A   1      37.772  30.739  33.177  1.00  0.00     0.074 A 
ATOM     68  C   UNL A   1      37.473  31.763  34.175  1.00  0.00     0.031 C 
ATOM     69  C   UNL A   1      38.833  29.890  33.025  1.00  0.00     0.034 A 
BRANCH  56  70
ATOM     70  C   UNL A   1      40.939  33.056  36.850  1.00  0.00     0.023 A 
ATOM     71  C   UNL A   1      41.745  32.775  37.976  1.00  0.00     0.031 A 
ATOM     72  C   UNL A   1      39.634  33.508  37.140  1.00  0.00     0.131 A 
ATOM     73  C   UNL A   1      41.223  32.831  39.280  1.00  0.00     0.055 A 
ATOM     74  C   UNL A   1      39.143  33.635  38.445  1.00  0.00     0.041 A 
ATOM     75  F   UNL A   1      38.730  33.766  36.190  1.00  0.00    -0.206 F 
ATOM     76  C   UNL A   1      39.925  33.262  39.524  1.00  0.00     0.022 A 
BRANCH  73  77
ATOM     77  S   UNL A   1      42.211  32.136  40.633  1.00  0.00     0.124 S 
ATOM     78  O   UNL A   1      42.648  33.343  41.326  1.00  0.00    -0.237 OA
ATOM     79  O   UNL A   1      41.228  31.313  41.330  1.00  0.00    -0.237 OA
ATOM     80  O   UNL A   1      43.264  31.398  39.941  1.00  0.00    -0.744 OA
ENDBRANCH  73  77
ENDBRANCH  56  70
BRANCH  57  81
ATOM     81  C   UNL A   1      35.046  33.977  31.015  1.00  0.00     0.023 A 
ATOM     82  C   UNL A   1      34.576  34.953  31.911  1.00  0.00     0.031 A 
ATOM     83  C   UNL A   1      34.411  33.905  29.754  1.00  0.00     0.131 A 
ATOM     84  C   UNL A   1      33.517  35.808  31.534  1.00  0.00     0.055 A 
ATOM     85  C   UNL A   1      33.358  34.745  29.389  1.00  0.00     0.041 A 
ATOM     86  F   UNL A   1      34.853  33.068  28.800  1.00  0.00    -0.206 F 
ATOM     87  C   UNL A   1      32.913  35.711  30.277  1.00  0.00     0.022 A 
BRANCH  84  88
ATOM     88  S   UNL A   1      32.993  37.151  32.644  1.00  0.00     0.124 S 
ATOM     89  O   UNL A   1      33.909  36.997  33.768  1.00  0.00    -0.237 OA
ATOM     90  O   UNL A   1      33.178  38.336  31.815  1.00  0.00    -0.237 OA
ATOM     91  O   UNL A   1      31.597  36.823  32.937  1.00  0.00    -0.744 OA
ENDBRANCH  84  88
ENDBRANCH  57  81
BRANCH  69  92
ATOM     92  C   UNL A   1      38.882  28.995  31.800  1.00  0.00     0.023 A 
ATOM     93  C   UNL A   1      39.358  29.392  30.530  1.00  0.00     0.031 A 
ATOM     94  C   UNL A   1      38.538  27.642  31.970  1.00  0.00     0.131 A 
ATOM     95  C   UNL A   1      39.462  28.450  29.486  1.00  0.00     0.055 A 
ATOM     96  C   UNL A   1      38.662  26.707  30.941  1.00  0.00     0.041 A 
ATOM     97  F   UNL A   1      38.107  27.192  33.161  1.00  0.00    -0.206 F 
ATOM     98  C   UNL A   1      39.118  27.109  29.692  1.00  0.00     0.022 A 
BRANCH  95  99
ATOM     99  S   UNL A   1      40.035  28.954  27.832  1.00  0.00     0.124 S 
ATOM    100  O   UNL A   1      40.132  27.696  27.101  1.00  0.00    -0.237 OA
ATOM    101  O   UNL A   1      38.981  29.867  27.396  1.00  0.00    -0.237 OA
ATOM    102  O   UNL A   1      41.321  29.601  28.102  1.00  0.00    -0.744 OA
ENDBRANCH  95  99
ENDBRANCH  69  92
ENDBRANCH  43  44
ENDBRANCH  35  38
ENDBRANCH  33  34
ENDBRANCH   1  33
TORSDOF 17
ENDMDL
MODEL 2
REMARK VINA RESULT:     -12.3      5.893     11.027
REMARK SMILES NS(=O)(=O)c1ccc(-n2nc(C(=O)NCCCNC(=O)c3ccc(-c4c5nc(c(-c6cc(S(=O)(=O)[O-])ccc6F)c6ccc([nH]6)c(-c6cc(S(=O)(=O)[O-])ccc6F)c6nc(c(-c7cc(S(=O)(=O)[O-])ccc7F)c7ccc4[nH]7)C=C6)C=C5)cc3)cc2-c2cc3ccccc3s2)cc1
REMARK SMILES IDX 16 1 15 2 14 3 12 4 13 5 11 7 9 8 10 9 85 10 84 11 8 12 5 13
REMARK SMILES IDX 6 14 96 15 7 16 95 17 2 18 3 19 4 20 1 21 86 24 87 25 94 26
REMARK SMILES IDX 88 27 93 28 89 29 92 30 90 31 91 32 17 33 18 34 19 35 20 37
REMARK SMILES IDX 21 38 22 39 83 40 23 41 82 42 24 43 25 44 26 45 76 46 27 47
REMARK SMILES IDX 81 48 75 49 77 50 28 51 80 52 74 53 73 54 29 56 61 57 41 58
REMARK SMILES IDX 60 59 42 60 45 61 59 62 78 63 43 64 44 65 58 67 79 68 46 69
REMARK SMILES IDX 30 70 31 71 39 72 32 73 38 74 40 75 37 76 33 77 34 78 35 79
REMARK SMILES IDX 36 80 62 81 63 82 71 83 64 84 70 85 72 86 69 87 65 88 66 89
REMARK SMILES IDX 67 90 68 91 47 92 48 93 56 94 49 95 55 96 57 97 54 98 50 99
REMARK SMILES IDX 51 100 52 101 53 102
REMARK H PARENT 14 6 1 22 1 23 18 36 77 55 45 66
REMARK Flexibility Score: inf
ROOT
ATOM      1  C   UNL A   1      44.762  38.983  26.523  1.00  0.00     0.042 C 
ENDROOT
BRANCH   1   2
ATOM      2  C   UNL A   1      44.109  39.987  27.483  1.00  0.00     0.118 C 
BRANCH   2   3
ATOM      3  N   UNL A   1      42.701  40.226  27.176  1.00  0.00    -0.351 N 
ATOM      4  C   UNL A   1      42.095  40.934  26.148  1.00  0.00     0.271 C 
ATOM      5  O   UNL A   1      40.873  40.836  26.036  1.00  0.00    -0.267 OA
ATOM      6  H   UNL A   1      42.072  39.810  27.809  1.00  0.00     0.163 HD
BRANCH   4   7
ATOM      7  C   UNL A   1      42.918  41.717  25.206  1.00  0.00     0.151 A 
ATOM      8  N   UNL A   1      43.631  42.439  23.302  1.00  0.00    -0.231 N 
ATOM      9  N   UNL A   1      42.502  42.058  23.970  1.00  0.00    -0.162 NA
ATOM     10  C   UNL A   1      44.735  42.344  24.121  1.00  0.00     0.085 A 
ATOM     11  C   UNL A   1      44.216  42.208  25.392  1.00  0.00     0.066 A 
BRANCH   8  12
ATOM     12  C   UNL A   1      43.523  42.953  21.988  1.00  0.00     0.065 A 
ATOM     13  C   UNL A   1      43.159  43.919  19.398  1.00  0.00     0.082 A 
ATOM     14  C   UNL A   1      43.949  44.636  20.304  1.00  0.00     0.024 A 
ATOM     15  C   UNL A   1      42.555  42.718  19.775  1.00  0.00     0.024 A 
ATOM     16  C   UNL A   1      44.110  44.165  21.613  1.00  0.00     0.030 A 
ATOM     17  C   UNL A   1      42.764  42.220  21.059  1.00  0.00     0.030 A 
BRANCH  13  18
ATOM     18  S   UNL A   1      42.858  44.512  17.762  1.00  0.00     0.238 S 
ATOM     19  O   UNL A   1      43.589  45.742  17.573  1.00  0.00    -0.207 OA
ATOM     20  O   UNL A   1      41.447  44.385  17.476  1.00  0.00    -0.207 OA
BRANCH  18  21
ATOM     21  N   UNL A   1      43.619  43.398  16.757  1.00  0.00    -0.225 NA
ATOM     22  H   UNL A   1      43.108  42.516  16.778  1.00  0.00     0.137 HD
ATOM     23  H   UNL A   1      44.575  43.246  17.080  1.00  0.00     0.137 HD
ENDBRANCH  18  21
ENDBRANCH  13  18
ENDBRANCH   8  12
BRANCH  10  24
ATOM     24  C   UNL A   1      46.145  42.251  23.868  1.00  0.00     0.054 A 
ATOM     25  C   UNL A   1      46.701  41.592  22.779  1.00  0.00     0.031 A 
ATOM     26  S   UNL A   1      47.099  43.670  24.148  1.00  0.00    -0.134 S 
ATOM     27  C   UNL A   1      47.106  42.604  21.815  1.00  0.00    -0.007 A 
ATOM     28  C   UNL A   1      47.271  43.850  22.433  1.00  0.00     0.035 A 
ATOM     29  C   UNL A   1      47.214  42.542  20.405  1.00  0.00     0.009 A 
ATOM     30  C   UNL A   1      47.505  45.026  21.699  1.00  0.00     0.019 A 
ATOM     31  C   UNL A   1      47.394  43.717  19.664  1.00  0.00     0.001 A 
ATOM     32  C   UNL A   1      47.526  44.944  20.304  1.00  0.00     0.001 A 
ENDBRANCH  10  24
ENDBRANCH   4   7
ENDBRANCH   2   3
ENDBRANCH   1   2
BRANCH   1  33
ATOM     33  C   UNL A   1      45.327  37.754  27.211  1.00  0.00     0.118 C 
BRANCH  33  34
ATOM     34  N   UNL A   1      45.285  36.560  26.366  1.00  0.00    -0.352 N 
ATOM     35  C   UNL A   1      44.822  35.298  26.701  1.00  0.00     0.251 C 
ATOM     36  H   UNL A   1      45.627  36.665  25.449  1.00  0.00     0.163 HD
ATOM     37  O   UNL A   1      45.171  34.319  26.052  1.00  0.00    -0.269 OA
BRANCH  35  38
ATOM     38  C   UNL A   1      43.941  35.168  27.876  1.00  0.00     0.039 A 
ATOM     39  C   UNL A   1      42.707  35.819  27.930  1.00  0.00     0.014 A 
ATOM     40  C   UNL A   1      44.314  34.270  28.869  1.00  0.00     0.014 A 
ATOM     41  C   UNL A   1      41.796  35.452  28.923  1.00  0.00     0.010 A 
ATOM     42  C   UNL A   1      43.359  33.801  29.742  1.00  0.00     0.010 A 
ATOM     43  C   UNL A   1      42.101  34.399  29.804  1.00  0.00    -0.014 A 
BRANCH  43  44
ATOM     44  C   UNL A   1      41.078  33.859  30.707  1.00  0.00     0.031 A 
ATOM     45  C   UNL A   1      41.424  33.800  32.157  1.00  0.00     0.074 A 
ATOM     46  C   UNL A   1      39.797  33.610  30.355  1.00  0.00     0.049 A 
ATOM     47  N   UNL A   1      41.620  32.746  32.878  1.00  0.00    -0.248 NA
ATOM     48  C   UNL A   1      41.660  35.058  32.879  1.00  0.00     0.031 C 
ATOM     49  C   UNL A   1      39.132  33.865  29.073  1.00  0.00     0.029 A 
ATOM     50  N   UNL A   1      38.774  33.165  31.140  1.00  0.00    -0.354 N 
ATOM     51  C   UNL A   1      41.784  33.183  34.191  1.00  0.00     0.074 A 
ATOM     52  C   UNL A   1      41.970  34.609  34.098  1.00  0.00     0.031 C 
ATOM     53  C   UNL A   1      37.794  33.812  29.237  1.00  0.00     0.029 A 
ATOM     54  C   UNL A   1      37.517  33.318  30.572  1.00  0.00     0.049 A 
ATOM     55  H   UNL A   1      38.915  32.769  32.031  1.00  0.00     0.167 HD
ATOM     56  C   UNL A   1      41.554  32.355  35.252  1.00  0.00     0.034 A 
ATOM     57  C   UNL A   1      36.316  33.047  31.134  1.00  0.00     0.034 A 
ATOM     58  C   UNL A   1      41.481  30.974  34.824  1.00  0.00     0.049 A 
ATOM     59  C   UNL A   1      36.551  32.028  32.182  1.00  0.00     0.074 A 
ATOM     60  C   UNL A   1      42.327  30.124  34.134  1.00  0.00     0.029 A 
ATOM     61  N   UNL A   1      40.244  30.370  34.767  1.00  0.00    -0.354 N 
ATOM     62  N   UNL A   1      36.981  30.823  31.923  1.00  0.00    -0.248 NA
ATOM     63  C   UNL A   1      36.733  32.465  33.557  1.00  0.00     0.031 C 
ATOM     64  C   UNL A   1      41.468  29.381  33.268  1.00  0.00     0.029 A 
ATOM     65  C   UNL A   1      40.153  29.764  33.537  1.00  0.00     0.049 A 
ATOM     66  H   UNL A   1      39.558  30.371  35.473  1.00  0.00     0.167 HD
ATOM     67  C   UNL A   1      37.867  30.532  32.947  1.00  0.00     0.074 A 
ATOM     68  C   UNL A   1      37.574  31.519  33.983  1.00  0.00     0.031 C 
ATOM     69  C   UNL A   1      38.937  29.705  32.746  1.00  0.00     0.034 A 
BRANCH  56  70
ATOM     70  C   UNL A   1      41.074  32.779  36.630  1.00  0.00     0.023 A 
ATOM     71  C   UNL A   1      39.782  32.364  37.023  1.00  0.00     0.031 A 
ATOM     72  C   UNL A   1      41.667  33.764  37.449  1.00  0.00     0.131 A 
ATOM     73  C   UNL A   1      39.106  32.989  38.086  1.00  0.00     0.055 A 
ATOM     74  C   UNL A   1      41.018  34.330  38.553  1.00  0.00     0.041 A 
ATOM     75  F   UNL A   1      42.862  34.301  37.183  1.00  0.00    -0.206 F 
ATOM     76  C   UNL A   1      39.717  33.970  38.857  1.00  0.00     0.022 A 
BRANCH  73  77
ATOM     77  S   UNL A   1      37.341  32.635  38.310  1.00  0.00     0.124 S 
ATOM     78  O   UNL A   1      36.744  33.440  37.251  1.00  0.00    -0.237 OA
ATOM     79  O   UNL A   1      37.300  31.189  38.123  1.00  0.00    -0.237 OA
ATOM     80  O   UNL A   1      37.074  33.095  39.671  1.00  0.00    -0.744 OA
ENDBRANCH  73  77
ENDBRANCH  56  70
BRANCH  57  81
ATOM     81  C   UNL A   1      35.051  33.795  30.945  1.00  0.00     0.023 A 
ATOM     82  C   UNL A   1      34.606  34.766  31.860  1.00  0.00     0.031 A 
ATOM     83  C   UNL A   1      34.368  33.718  29.709  1.00  0.00     0.131 A 
ATOM     84  C   UNL A   1      33.525  35.611  31.525  1.00  0.00     0.055 A 
ATOM     85  C   UNL A   1      33.294  34.549  29.386  1.00  0.00     0.041 A 
ATOM     86  F   UNL A   1      34.781  32.887  28.738  1.00  0.00    -0.206 F 
ATOM     87  C   UNL A   1      32.874  35.509  30.292  1.00  0.00     0.022 A 
BRANCH  84  88
ATOM     88  S   UNL A   1      33.031  36.948  32.656  1.00  0.00     0.124 S 
ATOM     89  O   UNL A   1      31.671  36.562  33.014  1.00  0.00    -0.237 OA
ATOM     90  O   UNL A   1      34.032  36.852  33.713  1.00  0.00    -0.237 OA
ATOM     91  O   UNL A   1      33.133  38.149  31.826  1.00  0.00    -0.744 OA
ENDBRANCH  84  88
ENDBRANCH  57  81
BRANCH  69  92
ATOM     92  C   UNL A   1      38.975  28.851  31.492  1.00  0.00     0.023 A 
ATOM     93  C   UNL A   1      39.532  29.253  30.258  1.00  0.00     0.031 A 
ATOM     94  C   UNL A   1      38.527  27.521  31.598  1.00  0.00     0.131 A 
ATOM     95  C   UNL A   1      39.613  28.342  29.186  1.00  0.00     0.055 A 
ATOM     96  C   UNL A   1      38.628  26.615  30.542  1.00  0.00     0.041 A 
ATOM     97  F   UNL A   1      38.015  27.064  32.754  1.00  0.00    -0.206 F 
ATOM     98  C   UNL A   1      39.165  27.024  29.328  1.00  0.00     0.022 A 
BRANCH  95  99
ATOM     99  S   UNL A   1      40.292  28.859  27.575  1.00  0.00     0.124 S 
ATOM    100  O   UNL A   1      39.233  29.679  27.001  1.00  0.00    -0.237 OA
ATOM    101  O   UNL A   1      41.512  29.565  27.958  1.00  0.00    -0.237 OA
ATOM    102  O   UNL A   1      40.521  27.589  26.882  1.00  0.00    -0.744 OA
ENDBRANCH  95  99
ENDBRANCH  69  92
ENDBRANCH  43  44
ENDBRANCH  35  38
ENDBRANCH  33  34
ENDBRANCH   1  33
TORSDOF 17
ENDMDL
MODEL 3
REMARK VINA RESULT:     -11.8      5.808     10.986
REMARK SMILES NS(=O)(=O)c1ccc(-n2nc(C(=O)NCCCNC(=O)c3ccc(-c4c5nc(c(-c6cc(S(=O)(=O)[O-])ccc6F)c6ccc([nH]6)c(-c6cc(S(=O)(=O)[O-])ccc6F)c6nc(c(-c7cc(S(=O)(=O)[O-])ccc7F)c7ccc4[nH]7)C=C6)C=C5)cc3)cc2-c2cc3ccccc3s2)cc1
REMARK SMILES IDX 16 1 15 2 14 3 12 4 13 5 11 7 9 8 10 9 85 10 84 11 8 12 5 13
REMARK SMILES IDX 6 14 96 15 7 16 95 17 2 18 3 19 4 20 1 21 86 24 87 25 94 26
REMARK SMILES IDX 88 27 93 28 89 29 92 30 90 31 91 32 17 33 18 34 19 35 20 37
REMARK SMILES IDX 21 38 22 39 83 40 23 41 82 42 24 43 25 44 26 45 76 46 27 47
REMARK SMILES IDX 81 48 75 49 77 50 28 51 80 52 74 53 73 54 29 56 61 57 41 58
REMARK SMILES IDX 60 59 42 60 45 61 59 62 78 63 43 64 44 65 58 67 79 68 46 69
REMARK SMILES IDX 30 70 31 71 39 72 32 73 38 74 40 75 37 76 33 77 34 78 35 79
REMARK SMILES IDX 36 80 62 81 63 82 71 83 64 84 70 85 72 86 69 87 65 88 66 89
REMARK SMILES IDX 67 90 68 91 47 92 48 93 56 94 49 95 55 96 57 97 54 98 50 99
REMARK SMILES IDX 51 100 52 101 53 102
REMARK H PARENT 14 6 1 22 1 23 18 36 77 55 45 66
REMARK Flexibility Score: inf
ROOT
ATOM      1  C   UNL A   1      44.941  39.351  26.470  1.00  0.00     0.042 C 
ENDROOT
BRANCH   1   2
ATOM      2  C   UNL A   1      44.074  40.329  27.275  1.00  0.00     0.118 C 
BRANCH   2   3
ATOM      3  N   UNL A   1      42.667  40.287  26.883  1.00  0.00    -0.351 N 
ATOM      4  C   UNL A   1      41.990  40.887  25.831  1.00  0.00     0.271 C 
ATOM      5  O   UNL A   1      40.823  40.547  25.641  1.00  0.00    -0.267 OA
ATOM      6  H   UNL A   1      42.100  39.735  27.469  1.00  0.00     0.163 HD
BRANCH   4   7
ATOM      7  C   UNL A   1      42.689  41.848  24.956  1.00  0.00     0.151 A 
ATOM      8  N   UNL A   1      43.455  42.684  23.121  1.00  0.00    -0.231 N 
ATOM      9  N   UNL A   1      42.394  42.006  23.650  1.00  0.00    -0.162 NA
ATOM     10  C   UNL A   1      44.396  42.951  24.092  1.00  0.00     0.085 A 
ATOM     11  C   UNL A   1      43.743  42.710  25.283  1.00  0.00     0.066 A 
BRANCH   8  12
ATOM     12  C   UNL A   1      43.413  43.097  21.767  1.00  0.00     0.065 A 
ATOM     13  C   UNL A   1      43.171  43.908  19.111  1.00  0.00     0.082 A 
ATOM     14  C   UNL A   1      44.175  44.455  19.918  1.00  0.00     0.024 A 
ATOM     15  C   UNL A   1      42.290  42.952  19.621  1.00  0.00     0.024 A 
ATOM     16  C   UNL A   1      44.280  44.069  21.259  1.00  0.00     0.030 A 
ATOM     17  C   UNL A   1      42.433  42.524  20.939  1.00  0.00     0.030 A 
BRANCH  13  18
ATOM     18  S   UNL A   1      42.946  44.423  17.437  1.00  0.00     0.238 S 
ATOM     19  O   UNL A   1      43.514  43.423  16.565  1.00  0.00    -0.207 OA
ATOM     20  O   UNL A   1      43.269  45.828  17.337  1.00  0.00    -0.207 OA
BRANCH  18  21
ATOM     21  N   UNL A   1      41.286  44.327  17.180  1.00  0.00    -0.225 NA
ATOM     22  H   UNL A   1      40.947  45.215  16.809  1.00  0.00     0.137 HD
ATOM     23  H   UNL A   1      40.816  44.125  18.062  1.00  0.00     0.137 HD
ENDBRANCH  18  21
ENDBRANCH  13  18
ENDBRANCH   8  12
BRANCH  10  24
ATOM     24  C   UNL A   1      45.793  43.274  24.050  1.00  0.00     0.054 A 
ATOM     25  C   UNL A   1      46.315  44.523  24.361  1.00  0.00     0.031 A 
ATOM     26  S   UNL A   1      46.902  42.091  24.660  1.00  0.00    -0.134 S 
ATOM     27  C   UNL A   1      46.891  44.438  25.694  1.00  0.00    -0.007 A 
ATOM     28  C   UNL A   1      47.180  43.111  26.033  1.00  0.00     0.035 A 
ATOM     29  C   UNL A   1      47.060  45.430  26.689  1.00  0.00     0.009 A 
ATOM     30  C   UNL A   1      47.596  42.740  27.324  1.00  0.00     0.019 A 
ATOM     31  C   UNL A   1      47.422  45.062  27.991  1.00  0.00     0.001 A 
ATOM     32  C   UNL A   1      47.675  43.732  28.306  1.00  0.00     0.001 A 
ENDBRANCH  10  24
ENDBRANCH   4   7
ENDBRANCH   2   3
ENDBRANCH   1   2
BRANCH   1  33
ATOM     33  C   UNL A   1      45.373  38.125  27.254  1.00  0.00     0.118 C 
BRANCH  33  34
ATOM     34  N   UNL A   1      45.403  36.911  26.438  1.00  0.00    -0.352 N 
ATOM     35  C   UNL A   1      44.963  35.644  26.785  1.00  0.00     0.251 C 
ATOM     36  H   UNL A   1      45.781  37.004  25.534  1.00  0.00     0.163 HD
ATOM     37  O   UNL A   1      45.368  34.661  26.176  1.00  0.00    -0.269 OA
BRANCH  35  38
ATOM     38  C   UNL A   1      44.035  35.516  27.924  1.00  0.00     0.039 A 
ATOM     39  C   UNL A   1      42.720  35.976  27.841  1.00  0.00     0.014 A 
ATOM     40  C   UNL A   1      44.469  34.799  29.034  1.00  0.00     0.014 A 
ATOM     41  C   UNL A   1      41.810  35.590  28.827  1.00  0.00     0.010 A 
ATOM     42  C   UNL A   1      43.536  34.293  29.911  1.00  0.00     0.010 A 
ATOM     43  C   UNL A   1      42.205  34.700  29.841  1.00  0.00    -0.014 A 
BRANCH  43  44
ATOM     44  C   UNL A   1      41.213  34.117  30.753  1.00  0.00     0.031 A 
ATOM     45  C   UNL A   1      41.581  34.057  32.197  1.00  0.00     0.074 A 
ATOM     46  C   UNL A   1      39.937  33.826  30.416  1.00  0.00     0.049 A 
ATOM     47  N   UNL A   1      41.823  33.004  32.906  1.00  0.00    -0.248 NA
ATOM     48  C   UNL A   1      41.783  35.316  32.927  1.00  0.00     0.031 C 
ATOM     49  C   UNL A   1      39.246  34.069  29.145  1.00  0.00     0.029 A 
ATOM     50  N   UNL A   1      38.941  33.339  31.210  1.00  0.00    -0.354 N 
ATOM     51  C   UNL A   1      41.990  33.436  34.220  1.00  0.00     0.074 A 
ATOM     52  C   UNL A   1      42.125  34.868  34.139  1.00  0.00     0.031 C 
ATOM     53  C   UNL A   1      37.913  33.968  29.326  1.00  0.00     0.029 A 
ATOM     54  C   UNL A   1      37.672  33.453  30.661  1.00  0.00     0.049 A 
ATOM     55  H   UNL A   1      39.107  32.941  32.095  1.00  0.00     0.167 HD
ATOM     56  C   UNL A   1      41.803  32.591  35.277  1.00  0.00     0.034 A 
ATOM     57  C   UNL A   1      36.488  33.136  31.236  1.00  0.00     0.034 A 
ATOM     58  C   UNL A   1      41.772  31.211  34.837  1.00  0.00     0.049 A 
ATOM     59  C   UNL A   1      36.773  32.117  32.272  1.00  0.00     0.074 A 
ATOM     60  C   UNL A   1      42.637  30.397  34.128  1.00  0.00     0.029 A 
ATOM     61  N   UNL A   1      40.556  30.565  34.792  1.00  0.00    -0.354 N 
ATOM     62  N   UNL A   1      37.240  30.930  31.996  1.00  0.00    -0.248 NA
ATOM     63  C   UNL A   1      36.959  32.548  33.647  1.00  0.00     0.031 C 
ATOM     64  C   UNL A   1      41.793  29.632  33.267  1.00  0.00     0.029 A 
ATOM     65  C   UNL A   1      40.469  29.968  33.558  1.00  0.00     0.049 A 
ATOM     66  H   UNL A   1      39.880  30.537  35.506  1.00  0.00     0.167 HD
ATOM     67  C   UNL A   1      38.150  30.661  33.005  1.00  0.00     0.074 A 
ATOM     68  C   UNL A   1      37.837  31.628  34.054  1.00  0.00     0.031 C 
ATOM     69  C   UNL A   1      39.245  29.873  32.782  1.00  0.00     0.034 A 
BRANCH  56  70
ATOM     70  C   UNL A   1      41.328  32.986  36.665  1.00  0.00     0.023 A 
ATOM     71  C   UNL A   1      40.105  32.438  37.112  1.00  0.00     0.031 A 
ATOM     72  C   UNL A   1      41.836  34.046  37.445  1.00  0.00     0.131 A 
ATOM     73  C   UNL A   1      39.401  33.004  38.190  1.00  0.00     0.055 A 
ATOM     74  C   UNL A   1      41.167  34.558  38.564  1.00  0.00     0.041 A 
ATOM     75  F   UNL A   1      42.953  34.708  37.128  1.00  0.00    -0.206 F 
ATOM     76  C   UNL A   1      39.926  34.063  38.922  1.00  0.00     0.022 A 
BRANCH  73  77
ATOM     77  S   UNL A   1      37.696  32.461  38.486  1.00  0.00     0.124 S 
ATOM     78  O   UNL A   1      37.647  31.221  37.718  1.00  0.00    -0.237 OA
ATOM     79  O   UNL A   1      37.675  32.322  39.938  1.00  0.00    -0.237 OA
ATOM     80  O   UNL A   1      36.893  33.558  37.952  1.00  0.00    -0.744 OA
ENDBRANCH  73  77
ENDBRANCH  56  70
BRANCH  57  81
ATOM     81  C   UNL A   1      35.196  33.842  31.071  1.00  0.00     0.023 A 
ATOM     82  C   UNL A   1      34.752  34.822  31.976  1.00  0.00     0.031 A 
ATOM     83  C   UNL A   1      34.476  33.713  29.861  1.00  0.00     0.131 A 
ATOM     84  C   UNL A   1      33.635  35.626  31.656  1.00  0.00     0.055 A 
ATOM     85  C   UNL A   1      33.367  34.503  29.553  1.00  0.00     0.041 A 
ATOM     86  F   UNL A   1      34.882  32.870  28.897  1.00  0.00    -0.206 F 
ATOM     87  C   UNL A   1      32.948  35.473  30.449  1.00  0.00     0.022 A 
BRANCH  84  88
ATOM     88  S   UNL A   1      33.138  36.976  32.770  1.00  0.00     0.124 S 
ATOM     89  O   UNL A   1      34.040  36.790  33.901  1.00  0.00    -0.237 OA
ATOM     90  O   UNL A   1      33.363  38.160  31.950  1.00  0.00    -0.237 OA
ATOM     91  O   UNL A   1      31.732  36.685  33.049  1.00  0.00    -0.744 OA
ENDBRANCH  84  88
ENDBRANCH  57  81
BRANCH  69  92
ATOM     92  C   UNL A   1      39.295  29.031  31.520  1.00  0.00     0.023 A 
ATOM     93  C   UNL A   1      40.050  29.348  30.369  1.00  0.00     0.031 A 
ATOM     94  C   UNL A   1      38.634  27.789  31.541  1.00  0.00     0.131 A 
ATOM     95  C   UNL A   1      40.112  28.442  29.291  1.00  0.00     0.055 A 
ATOM     96  C   UNL A   1      38.715  26.885  30.482  1.00  0.00     0.041 A 
ATOM     97  F   UNL A   1      37.924  27.413  32.618  1.00  0.00    -0.206 F 
ATOM     98  C   UNL A   1      39.449  27.211  29.348  1.00  0.00     0.022 A 
BRANCH  95  99
ATOM     99  S   UNL A   1      41.049  28.854  27.783  1.00  0.00     0.124 S 
ATOM    100  O   UNL A   1      41.953  29.911  28.216  1.00  0.00    -0.237 OA
ATOM    101  O   UNL A   1      41.674  27.578  27.441  1.00  0.00    -0.237 OA
ATOM    102  O   UNL A   1      40.009  29.287  26.847  1.00  0.00    -0.744 OA
ENDBRANCH  95  99
ENDBRANCH  69  92
ENDBRANCH  43  44
ENDBRANCH  35  38
ENDBRANCH  33  34
ENDBRANCH   1  33
TORSDOF 17
ENDMDL
