MODEL 1
REMARK VINA RESULT:     -12.8      0.000      0.000
REMARK SMILES N#Cc1cccnc1N1CC[NH+]([C@@H](C(=O)NCCCNC(=O)c2ccc(-c3c4nc(c(-c5cc(S(=O)(=O)[O-])ccc5F)c5ccc([nH]5)c(-c5cc(S(=O)(=O)[O-])ccc5F)c5nc(c(-c6cc(S(=O)(=O)[O-])ccc6F)c6ccc3[nH]6)C=C5)C=C4)cc2)c2c[nH]c3cc(CO)ccc23)CC1
REMARK SMILES IDX 18 1 17 2 16 3 14 4 15 5 13 7 12 8 9 9 10 10 98 11 11 12
REMARK SMILES IDX 97 13 8 15 3 16 4 17 5 18 7 19 6 20 2 21 1 22 86 23 87 24
REMARK SMILES IDX 96 25 88 26 89 27 95 28 90 30 94 31 91 32 92 33 93 34 19 36
REMARK SMILES IDX 20 37 21 38 22 40 23 41 24 42 85 43 25 44 84 45 26 46 27 47
REMARK SMILES IDX 28 48 78 49 29 50 83 51 77 52 79 53 30 54 82 55 76 56 75 57
REMARK SMILES IDX 31 59 63 60 43 61 62 62 44 63 47 64 61 65 80 66 45 67 46 68
REMARK SMILES IDX 60 70 81 71 48 72 32 73 33 74 41 75 34 76 40 77 42 78 39 79
REMARK SMILES IDX 35 80 36 81 37 82 38 83 64 84 65 85 73 86 66 87 72 88 74 89
REMARK SMILES IDX 71 90 67 91 68 92 69 93 70 94 49 95 50 96 58 97 51 98 57 99
REMARK SMILES IDX 59 100 56 101 52 102 53 103 54 104 55 105
REMARK H PARENT 16 6 12 14 88 29 93 35 20 39 79 58 47 69
REMARK Flexibility Score: inf
ROOT
ATOM      1  C   UNL A   1      31.752  29.107  26.640  1.00  0.00     0.042 C 
ENDROOT
BRANCH   1   2
ATOM      2  C   UNL A   1      32.056  27.593  26.850  1.00  0.00     0.118 C 
BRANCH   2   3
ATOM      3  N   UNL A   1      30.926  26.665  26.758  1.00  0.00    -0.351 N 
ATOM      4  C   UNL A   1      30.556  25.576  26.002  1.00  0.00     0.283 C 
ATOM      5  O   UNL A   1      29.548  25.015  26.452  1.00  0.00    -0.268 OA
ATOM      6  H   UNL A   1      30.236  26.883  27.426  1.00  0.00     0.163 HD
BRANCH   4   7
ATOM      7  C   UNL A   1      31.337  25.020  24.763  1.00  0.00     0.307 C 
BRANCH   7   8
ATOM      8  N   UNL A   1      32.854  24.921  24.864  1.00  0.00    -0.318 N 
ATOM      9  N   UNL A   1      33.882  22.140  24.769  1.00  0.00    -0.344 N 
ATOM     10  C   UNL A   1      33.227  22.671  25.965  1.00  0.00     0.179 C 
ATOM     11  C   UNL A   1      33.586  22.861  23.526  1.00  0.00     0.179 C 
ATOM     12  C   UNL A   1      33.461  24.186  25.998  1.00  0.00     0.284 C 
ATOM     13  C   UNL A   1      33.574  24.410  23.695  1.00  0.00     0.284 C 
ATOM     14  H   UNL A   1      32.975  25.926  24.992  1.00  0.00     0.349 HD
BRANCH   9  15
ATOM     15  C   UNL A   1      33.841  20.746  24.650  1.00  0.00     0.146 A 
ATOM     16  C   UNL A   1      35.001  19.973  24.784  1.00  0.00     0.095 A 
ATOM     17  C   UNL A   1      34.907  18.584  24.668  1.00  0.00     0.025 A 
ATOM     18  C   UNL A   1      33.682  17.998  24.373  1.00  0.00     0.022 A 
ATOM     19  N   UNL A   1      32.640  20.169  24.387  1.00  0.00    -0.238 NA
ATOM     20  C   UNL A   1      32.586  18.827  24.240  1.00  0.00     0.113 A 
BRANCH  16  21
ATOM     21  C   UNL A   1      36.278  20.588  25.025  1.00  0.00     0.103 C 
ATOM     22  N   UNL A   1      37.327  21.009  25.244  1.00  0.00    -0.192 NA
ENDBRANCH  16  21
ENDBRANCH   9  15
ENDBRANCH   7   8
BRANCH   7  23
ATOM     23  C   UNL A   1      30.995  25.705  23.392  1.00  0.00     0.044 A 
ATOM     24  C   UNL A   1      31.810  25.705  22.264  1.00  0.00     0.094 A 
ATOM     25  C   UNL A   1      30.082  26.785  23.100  1.00  0.00     0.009 A 
ATOM     26  N   UNL A   1      31.959  27.050  21.973  1.00  0.00    -0.361 N 
ATOM     27  C   UNL A   1      30.897  27.749  22.497  1.00  0.00     0.046 A 
ATOM     28  C   UNL A   1      28.791  27.181  23.486  1.00  0.00     0.011 A 
ATOM     29  H   UNL A   1      32.708  27.443  21.470  1.00  0.00     0.166 HD
ATOM     30  C   UNL A   1      30.652  29.127  22.631  1.00  0.00     0.032 A 
ATOM     31  C   UNL A   1      28.460  28.540  23.483  1.00  0.00     0.007 A 
ATOM     32  C   UNL A   1      29.435  29.509  23.221  1.00  0.00    -0.021 A 
BRANCH  32  33
ATOM     33  C   UNL A   1      29.189  30.939  23.632  1.00  0.00     0.191 C 
BRANCH  33  34
ATOM     34  O   UNL A   1      30.136  31.371  24.607  1.00  0.00    -0.392 OA
ATOM     35  H   UNL A   1      29.691  31.488  25.461  1.00  0.00     0.211 HD
ENDBRANCH  33  34
ENDBRANCH  32  33
ENDBRANCH   7  23
ENDBRANCH   4   7
ENDBRANCH   2   3
ENDBRANCH   1   2
BRANCH   1  36
ATOM     36  C   UNL A   1      32.812  29.990  25.947  1.00  0.00     0.118 C 
BRANCH  36  37
ATOM     37  N   UNL A   1      32.747  31.369  26.390  1.00  0.00    -0.352 N 
ATOM     38  C   UNL A   1      33.511  32.058  27.304  1.00  0.00     0.251 C 
ATOM     39  H   UNL A   1      32.035  31.902  25.966  1.00  0.00     0.163 HD
ATOM     40  O   UNL A   1      33.101  33.155  27.682  1.00  0.00    -0.269 OA
BRANCH  38  41
ATOM     41  C   UNL A   1      34.800  31.542  27.843  1.00  0.00     0.039 A 
ATOM     42  C   UNL A   1      34.822  30.250  28.389  1.00  0.00     0.014 A 
ATOM     43  C   UNL A   1      35.934  32.346  27.974  1.00  0.00     0.014 A 
ATOM     44  C   UNL A   1      35.971  29.758  29.030  1.00  0.00     0.010 A 
ATOM     45  C   UNL A   1      37.085  31.843  28.608  1.00  0.00     0.010 A 
ATOM     46  C   UNL A   1      37.129  30.541  29.137  1.00  0.00    -0.014 A 
BRANCH  46  47
ATOM     47  C   UNL A   1      38.364  30.012  29.805  1.00  0.00     0.031 A 
ATOM     48  C   UNL A   1      38.770  30.484  31.183  1.00  0.00     0.074 A 
ATOM     49  C   UNL A   1      39.153  29.117  29.171  1.00  0.00     0.049 A 
ATOM     50  N   UNL A   1      39.831  30.175  31.891  1.00  0.00    -0.248 NA
ATOM     51  C   UNL A   1      37.878  31.449  31.838  1.00  0.00     0.031 C 
ATOM     52  C   UNL A   1      38.910  28.584  27.831  1.00  0.00     0.029 A 
ATOM     53  N   UNL A   1      40.318  28.496  29.565  1.00  0.00    -0.354 N 
ATOM     54  C   UNL A   1      39.739  30.910  33.069  1.00  0.00     0.074 A 
ATOM     55  C   UNL A   1      38.548  31.728  32.948  1.00  0.00     0.031 C 
ATOM     56  C   UNL A   1      39.873  27.700  27.526  1.00  0.00     0.029 A 
ATOM     57  C   UNL A   1      40.835  27.632  28.623  1.00  0.00     0.049 A 
ATOM     58  H   UNL A   1      40.743  28.655  30.439  1.00  0.00     0.167 HD
ATOM     59  C   UNL A   1      40.552  30.896  34.158  1.00  0.00     0.034 A 
ATOM     60  C   UNL A   1      41.957  26.881  28.626  1.00  0.00     0.034 A 
ATOM     61  C   UNL A   1      41.732  30.069  34.286  1.00  0.00     0.049 A 
ATOM     62  C   UNL A   1      42.870  26.914  29.829  1.00  0.00     0.074 A 
ATOM     63  C   UNL A   1      42.590  29.952  35.368  1.00  0.00     0.029 A 
ATOM     64  N   UNL A   1      42.229  29.225  33.301  1.00  0.00    -0.354 N 
ATOM     65  N   UNL A   1      42.745  27.594  30.945  1.00  0.00    -0.248 NA
ATOM     66  C   UNL A   1      44.073  26.072  29.773  1.00  0.00     0.031 C 
ATOM     67  C   UNL A   1      43.642  29.100  35.012  1.00  0.00     0.029 A 
ATOM     68  C   UNL A   1      43.399  28.615  33.739  1.00  0.00     0.049 A 
ATOM     69  H   UNL A   1      41.814  29.079  32.421  1.00  0.00     0.167 HD
ATOM     70  C   UNL A   1      43.835  27.231  31.733  1.00  0.00     0.074 A 
ATOM     71  C   UNL A   1      44.599  26.266  30.973  1.00  0.00     0.031 C 
ATOM     72  C   UNL A   1      44.169  27.658  32.979  1.00  0.00     0.034 A 
BRANCH  59  73
ATOM     73  C   UNL A   1      40.209  31.831  35.298  1.00  0.00     0.023 A 
ATOM     74  C   UNL A   1      39.306  31.461  36.311  1.00  0.00     0.031 A 
ATOM     75  C   UNL A   1      40.779  33.115  35.367  1.00  0.00     0.131 A 
ATOM     76  C   UNL A   1      38.938  32.391  37.296  1.00  0.00     0.055 A 
ATOM     77  C   UNL A   1      40.478  34.003  36.401  1.00  0.00     0.041 A 
ATOM     78  F   UNL A   1      41.636  33.534  34.422  1.00  0.00    -0.206 F 
ATOM     79  C   UNL A   1      39.538  33.650  37.365  1.00  0.00     0.022 A 
BRANCH  76  80
ATOM     80  S   UNL A   1      37.547  31.986  38.388  1.00  0.00     0.124 S 
ATOM     81  O   UNL A   1      37.254  30.610  37.992  1.00  0.00    -0.237 OA
ATOM     82  O   UNL A   1      38.126  32.161  39.714  1.00  0.00    -0.237 OA
ATOM     83  O   UNL A   1      36.525  32.963  38.017  1.00  0.00    -0.744 OA
ENDBRANCH  76  80
ENDBRANCH  59  73
BRANCH  60  84
ATOM     84  C   UNL A   1      42.310  26.042  27.441  1.00  0.00     0.023 A 
ATOM     85  C   UNL A   1      41.911  24.698  27.356  1.00  0.00     0.031 A 
ATOM     86  C   UNL A   1      43.105  26.559  26.403  1.00  0.00     0.131 A 
ATOM     87  C   UNL A   1      42.343  23.905  26.281  1.00  0.00     0.055 A 
ATOM     88  C   UNL A   1      43.481  25.783  25.304  1.00  0.00     0.041 A 
ATOM     89  F   UNL A   1      43.524  27.833  26.438  1.00  0.00    -0.206 F 
ATOM     90  C   UNL A   1      43.111  24.444  25.246  1.00  0.00     0.022 A 
BRANCH  87  91
ATOM     91  S   UNL A   1      41.965  22.130  26.300  1.00  0.00     0.124 S 
ATOM     92  O   UNL A   1      42.819  21.634  25.227  1.00  0.00    -0.237 OA
ATOM     93  O   UNL A   1      42.349  21.752  27.655  1.00  0.00    -0.237 OA
ATOM     94  O   UNL A   1      40.529  22.085  26.026  1.00  0.00    -0.744 OA
ENDBRANCH  87  91
ENDBRANCH  60  84
BRANCH  72  95
ATOM     95  C   UNL A   1      45.390  27.039  33.622  1.00  0.00     0.023 A 
ATOM     96  C   UNL A   1      45.317  25.860  34.383  1.00  0.00     0.031 A 
ATOM     97  C   UNL A   1      46.649  27.650  33.475  1.00  0.00     0.131 A 
ATOM     98  C   UNL A   1      46.468  25.359  35.014  1.00  0.00     0.055 A 
ATOM     99  C   UNL A   1      47.801  27.114  34.053  1.00  0.00     0.041 A 
ATOM    100  F   UNL A   1      46.781  28.781  32.763  1.00  0.00    -0.206 F 
ATOM    101  C   UNL A   1      47.713  25.969  34.838  1.00  0.00     0.022 A 
BRANCH  98 102
ATOM    102  S   UNL A   1      46.304  23.947  36.142  1.00  0.00     0.124 S 
ATOM    103  O   UNL A   1      47.498  23.167  35.826  1.00  0.00    -0.237 OA
ATOM    104  O   UNL A   1      46.292  24.592  37.450  1.00  0.00    -0.237 OA
ATOM    105  O   UNL A   1      45.039  23.332  35.742  1.00  0.00    -0.744 OA
ENDBRANCH  98 102
ENDBRANCH  72  95
ENDBRANCH  46  47
ENDBRANCH  38  41
ENDBRANCH  36  37
ENDBRANCH   1  36
TORSDOF 19
ENDMDL
MODEL 2
REMARK VINA RESULT:     -12.7      4.826      8.445
REMARK SMILES N#Cc1cccnc1N1CC[NH+]([C@@H](C(=O)NCCCNC(=O)c2ccc(-c3c4nc(c(-c5cc(S(=O)(=O)[O-])ccc5F)c5ccc([nH]5)c(-c5cc(S(=O)(=O)[O-])ccc5F)c5nc(c(-c6cc(S(=O)(=O)[O-])ccc6F)c6ccc3[nH]6)C=C5)C=C4)cc2)c2c[nH]c3cc(CO)ccc23)CC1
REMARK SMILES IDX 18 1 17 2 16 3 14 4 15 5 13 7 12 8 9 9 10 10 98 11 11 12
REMARK SMILES IDX 97 13 8 15 3 16 4 17 5 18 7 19 6 20 2 21 1 22 86 23 87 24
REMARK SMILES IDX 96 25 88 26 89 27 95 28 90 30 94 31 91 32 92 33 93 34 19 36
REMARK SMILES IDX 20 37 21 38 22 40 23 41 24 42 85 43 25 44 84 45 26 46 27 47
REMARK SMILES IDX 28 48 78 49 29 50 83 51 77 52 79 53 30 54 82 55 76 56 75 57
REMARK SMILES IDX 31 59 63 60 43 61 62 62 44 63 47 64 61 65 80 66 45 67 46 68
REMARK SMILES IDX 60 70 81 71 48 72 32 73 33 74 41 75 34 76 40 77 42 78 39 79
REMARK SMILES IDX 35 80 36 81 37 82 38 83 64 84 65 85 73 86 66 87 72 88 74 89
REMARK SMILES IDX 71 90 67 91 68 92 69 93 70 94 49 95 50 96 58 97 51 98 57 99
REMARK SMILES IDX 59 100 56 101 52 102 53 103 54 104 55 105
REMARK H PARENT 16 6 12 14 88 29 93 35 20 39 79 58 47 69
REMARK Flexibility Score: inf
ROOT
ATOM      1  C   UNL A   1      37.013  21.859  23.862  1.00  0.00     0.042 C 
ENDROOT
BRANCH   1   2
ATOM      2  C   UNL A   1      36.556  23.299  23.483  1.00  0.00     0.118 C 
BRANCH   2   3
ATOM      3  N   UNL A   1      35.505  23.906  24.304  1.00  0.00    -0.351 N 
ATOM      4  C   UNL A   1      34.134  23.853  24.415  1.00  0.00     0.283 C 
ATOM      5  O   UNL A   1      33.723  24.443  25.423  1.00  0.00    -0.268 OA
ATOM      6  H   UNL A   1      35.889  24.529  24.964  1.00  0.00     0.163 HD
BRANCH   4   7
ATOM      7  C   UNL A   1      33.174  23.075  23.453  1.00  0.00     0.307 C 
BRANCH   7   8
ATOM      8  N   UNL A   1      32.276  23.890  22.531  1.00  0.00    -0.318 N 
ATOM      9  N   UNL A   1      31.790  26.661  23.471  1.00  0.00    -0.344 N 
ATOM     10  C   UNL A   1      31.133  25.515  24.101  1.00  0.00     0.179 C 
ATOM     11  C   UNL A   1      33.003  26.341  22.709  1.00  0.00     0.179 C 
ATOM     12  C   UNL A   1      30.989  24.414  23.044  1.00  0.00     0.284 C 
ATOM     13  C   UNL A   1      32.875  25.044  21.855  1.00  0.00     0.284 C 
ATOM     14  H   UNL A   1      32.109  23.107  21.897  1.00  0.00     0.349 HD
BRANCH   9  15
ATOM     15  C   UNL A   1      31.904  27.791  24.289  1.00  0.00     0.146 A 
ATOM     16  C   UNL A   1      31.065  28.898  24.115  1.00  0.00     0.095 A 
ATOM     17  C   UNL A   1      31.211  29.999  24.962  1.00  0.00     0.025 A 
ATOM     18  C   UNL A   1      32.213  29.999  25.926  1.00  0.00     0.022 A 
ATOM     19  N   UNL A   1      32.866  27.784  25.247  1.00  0.00    -0.238 NA
ATOM     20  C   UNL A   1      33.011  28.878  26.027  1.00  0.00     0.113 A 
BRANCH  16  21
ATOM     21  C   UNL A   1      30.073  28.920  23.075  1.00  0.00     0.103 C 
ATOM     22  N   UNL A   1      29.299  28.861  22.223  1.00  0.00    -0.192 NA
ENDBRANCH  16  21
ENDBRANCH   9  15
ENDBRANCH   7   8
BRANCH   7  23
ATOM     23  C   UNL A   1      32.283  21.977  24.137  1.00  0.00     0.044 A 
ATOM     24  C   UNL A   1      31.724  22.067  25.408  1.00  0.00     0.094 A 
ATOM     25  C   UNL A   1      32.200  20.559  23.875  1.00  0.00     0.009 A 
ATOM     26  N   UNL A   1      32.190  20.932  26.048  1.00  0.00    -0.361 N 
ATOM     27  C   UNL A   1      32.507  19.978  25.110  1.00  0.00     0.046 A 
ATOM     28  C   UNL A   1      32.173  19.715  22.753  1.00  0.00     0.011 A 
ATOM     29  H   UNL A   1      32.280  20.825  27.022  1.00  0.00     0.166 HD
ATOM     30  C   UNL A   1      33.165  18.740  25.212  1.00  0.00     0.032 A 
ATOM     31  C   UNL A   1      32.680  18.416  22.859  1.00  0.00     0.007 A 
ATOM     32  C   UNL A   1      33.323  17.997  24.029  1.00  0.00    -0.021 A 
BRANCH  32  33
ATOM     33  C   UNL A   1      34.223  16.787  23.990  1.00  0.00     0.191 C 
BRANCH  33  34
ATOM     34  O   UNL A   1      34.194  16.158  22.711  1.00  0.00    -0.392 OA
ATOM     35  H   UNL A   1      33.581  15.406  22.733  1.00  0.00     0.211 HD
ENDBRANCH  33  34
ENDBRANCH  32  33
ENDBRANCH   7  23
ENDBRANCH   4   7
ENDBRANCH   2   3
ENDBRANCH   1   2
BRANCH   1  36
ATOM     36  C   UNL A   1      36.935  21.417  25.339  1.00  0.00     0.118 C 
BRANCH  36  37
ATOM     37  N   UNL A   1      37.941  20.425  25.666  1.00  0.00    -0.352 N 
ATOM     38  C   UNL A   1      39.247  20.568  26.074  1.00  0.00     0.251 C 
ATOM     39  H   UNL A   1      37.639  19.491  25.580  1.00  0.00     0.163 HD
ATOM     40  O   UNL A   1      39.967  19.570  26.053  1.00  0.00    -0.269 OA
BRANCH  38  41
ATOM     41  C   UNL A   1      39.819  21.862  26.539  1.00  0.00     0.039 A 
ATOM     42  C   UNL A   1      39.262  23.050  26.046  1.00  0.00     0.014 A 
ATOM     43  C   UNL A   1      40.981  21.935  27.311  1.00  0.00     0.014 A 
ATOM     44  C   UNL A   1      39.840  24.296  26.344  1.00  0.00     0.010 A 
ATOM     45  C   UNL A   1      41.548  23.186  27.615  1.00  0.00     0.010 A 
ATOM     46  C   UNL A   1      40.985  24.387  27.147  1.00  0.00    -0.014 A 
BRANCH  46  47
ATOM     47  C   UNL A   1      41.594  25.716  27.484  1.00  0.00     0.031 A 
ATOM     48  C   UNL A   1      40.821  26.754  28.266  1.00  0.00     0.074 A 
ATOM     49  C   UNL A   1      42.844  26.019  27.070  1.00  0.00     0.049 A 
ATOM     50  N   UNL A   1      41.169  27.974  28.601  1.00  0.00    -0.248 NA
ATOM     51  C   UNL A   1      39.471  26.378  28.703  1.00  0.00     0.031 C 
ATOM     52  C   UNL A   1      43.707  25.134  26.287  1.00  0.00     0.029 A 
ATOM     53  N   UNL A   1      43.608  27.151  27.246  1.00  0.00    -0.354 N 
ATOM     54  C   UNL A   1      40.081  28.513  29.283  1.00  0.00     0.074 A 
ATOM     55  C   UNL A   1      39.040  27.505  29.254  1.00  0.00     0.031 C 
ATOM     56  C   UNL A   1      44.886  25.741  26.076  1.00  0.00     0.029 A 
ATOM     57  C   UNL A   1      44.856  27.078  26.663  1.00  0.00     0.049 A 
ATOM     58  H   UNL A   1      43.293  27.940  27.743  1.00  0.00     0.167 HD
ATOM     59  C   UNL A   1      39.962  29.722  29.893  1.00  0.00     0.034 A 
ATOM     60  C   UNL A   1      45.857  27.981  26.590  1.00  0.00     0.034 A 
ATOM     61  C   UNL A   1      41.005  30.722  29.935  1.00  0.00     0.049 A 
ATOM     62  C   UNL A   1      45.686  29.335  27.238  1.00  0.00     0.074 A 
ATOM     63  C   UNL A   1      40.993  31.955  30.569  1.00  0.00     0.029 A 
ATOM     64  N   UNL A   1      42.243  30.615  29.315  1.00  0.00    -0.354 N 
ATOM     65  N   UNL A   1      44.660  29.810  27.904  1.00  0.00    -0.248 NA
ATOM     66  C   UNL A   1      46.814  30.271  27.127  1.00  0.00     0.031 C 
ATOM     67  C   UNL A   1      42.187  32.621  30.270  1.00  0.00     0.029 A 
ATOM     68  C   UNL A   1      42.984  31.773  29.521  1.00  0.00     0.049 A 
ATOM     69  H   UNL A   1      42.552  29.833  28.804  1.00  0.00     0.167 HD
ATOM     70  C   UNL A   1      45.036  31.086  28.319  1.00  0.00     0.074 A 
ATOM     71  C   UNL A   1      46.384  31.301  27.840  1.00  0.00     0.031 C 
ATOM     72  C   UNL A   1      44.327  31.995  29.038  1.00  0.00     0.034 A 
BRANCH  59  73
ATOM     73  C   UNL A   1      38.635  30.046  30.546  1.00  0.00     0.023 A 
ATOM     74  C   UNL A   1      37.612  30.713  29.851  1.00  0.00     0.031 A 
ATOM     75  C   UNL A   1      38.394  29.696  31.888  1.00  0.00     0.131 A 
ATOM     76  C   UNL A   1      36.435  31.083  30.519  1.00  0.00     0.055 A 
ATOM     77  C   UNL A   1      37.184  29.988  32.521  1.00  0.00     0.041 A 
ATOM     78  F   UNL A   1      39.337  29.072  32.612  1.00  0.00    -0.206 F 
ATOM     79  C   UNL A   1      36.202  30.701  31.842  1.00  0.00     0.022 A 
BRANCH  76  80
ATOM     80  S   UNL A   1      35.284  32.209  29.682  1.00  0.00     0.124 S 
ATOM     81  O   UNL A   1      34.653  31.315  28.713  1.00  0.00    -0.237 OA
ATOM     82  O   UNL A   1      34.438  32.666  30.777  1.00  0.00    -0.237 OA
ATOM     83  O   UNL A   1      36.160  33.224  29.101  1.00  0.00    -0.744 OA
ENDBRANCH  76  80
ENDBRANCH  59  73
BRANCH  60  84
ATOM     84  C   UNL A   1      47.117  27.657  25.855  1.00  0.00     0.023 A 
ATOM     85  C   UNL A   1      47.242  27.910  24.479  1.00  0.00     0.031 A 
ATOM     86  C   UNL A   1      48.193  27.032  26.509  1.00  0.00     0.131 A 
ATOM     87  C   UNL A   1      48.398  27.502  23.793  1.00  0.00     0.055 A 
ATOM     88  C   UNL A   1      49.365  26.683  25.836  1.00  0.00     0.041 A 
ATOM     89  F   UNL A   1      48.122  26.756  27.821  1.00  0.00    -0.206 F 
ATOM     90  C   UNL A   1      49.467  26.905  24.466  1.00  0.00     0.022 A 
BRANCH  87  91
ATOM     91  S   UNL A   1      48.448  27.676  21.988  1.00  0.00     0.124 S 
ATOM     92  O   UNL A   1      47.129  28.232  21.707  1.00  0.00    -0.237 OA
ATOM     93  O   UNL A   1      49.579  28.578  21.800  1.00  0.00    -0.237 OA
ATOM     94  O   UNL A   1      48.661  26.308  21.519  1.00  0.00    -0.744 OA
ENDBRANCH  87  91
ENDBRANCH  60  84
BRANCH  72  95
ATOM     95  C   UNL A   1      45.021  33.289  29.398  1.00  0.00     0.023 A 
ATOM     96  C   UNL A   1      45.010  34.406  28.543  1.00  0.00     0.031 A 
ATOM     97  C   UNL A   1      45.714  33.402  30.617  1.00  0.00     0.131 A 
ATOM     98  C   UNL A   1      45.722  35.565  28.893  1.00  0.00     0.055 A 
ATOM     99  C   UNL A   1      46.369  34.578  30.988  1.00  0.00     0.041 A 
ATOM    100  F   UNL A   1      45.764  32.368  31.473  1.00  0.00    -0.206 F 
ATOM    101  C   UNL A   1      46.387  35.663  30.119  1.00  0.00     0.022 A 
BRANCH  98 102
ATOM    102  S   UNL A   1      45.846  36.915  27.687  1.00  0.00     0.124 S 
ATOM    103  O   UNL A   1      44.624  37.670  27.951  1.00  0.00    -0.237 OA
ATOM    104  O   UNL A   1      47.093  37.565  28.073  1.00  0.00    -0.237 OA
ATOM    105  O   UNL A   1      45.880  36.223  26.399  1.00  0.00    -0.744 OA
ENDBRANCH  98 102
ENDBRANCH  72  95
ENDBRANCH  46  47
ENDBRANCH  38  41
ENDBRANCH  36  37
ENDBRANCH   1  36
TORSDOF 19
ENDMDL
MODEL 3
REMARK VINA RESULT:     -12.6      4.652     10.299
REMARK SMILES N#Cc1cccnc1N1CC[NH+]([C@@H](C(=O)NCCCNC(=O)c2ccc(-c3c4nc(c(-c5cc(S(=O)(=O)[O-])ccc5F)c5ccc([nH]5)c(-c5cc(S(=O)(=O)[O-])ccc5F)c5nc(c(-c6cc(S(=O)(=O)[O-])ccc6F)c6ccc3[nH]6)C=C5)C=C4)cc2)c2c[nH]c3cc(CO)ccc23)CC1
REMARK SMILES IDX 18 1 17 2 16 3 14 4 15 5 13 7 12 8 9 9 10 10 98 11 11 12
REMARK SMILES IDX 97 13 8 15 3 16 4 17 5 18 7 19 6 20 2 21 1 22 86 23 87 24
REMARK SMILES IDX 96 25 88 26 89 27 95 28 90 30 94 31 91 32 92 33 93 34 19 36
REMARK SMILES IDX 20 37 21 38 22 40 23 41 24 42 85 43 25 44 84 45 26 46 27 47
REMARK SMILES IDX 28 48 78 49 29 50 83 51 77 52 79 53 30 54 82 55 76 56 75 57
REMARK SMILES IDX 31 59 63 60 43 61 62 62 44 63 47 64 61 65 80 66 45 67 46 68
REMARK SMILES IDX 60 70 81 71 48 72 32 73 33 74 41 75 34 76 40 77 42 78 39 79
REMARK SMILES IDX 35 80 36 81 37 82 38 83 64 84 65 85 73 86 66 87 72 88 74 89
REMARK SMILES IDX 71 90 67 91 68 92 69 93 70 94 49 95 50 96 58 97 51 98 57 99
REMARK SMILES IDX 59 100 56 101 52 102 53 103 54 104 55 105
REMARK H PARENT 16 6 12 14 88 29 93 35 20 39 79 58 47 69
REMARK Flexibility Score: inf
ROOT
ATOM      1  C   UNL A   1      37.160  21.998  24.151  1.00  0.00     0.042 C 
ENDROOT
BRANCH   1   2
ATOM      2  C   UNL A   1      36.578  23.354  23.652  1.00  0.00     0.118 C 
BRANCH   2   3
ATOM      3  N   UNL A   1      35.495  23.948  24.439  1.00  0.00    -0.351 N 
ATOM      4  C   UNL A   1      34.123  23.865  24.518  1.00  0.00     0.283 C 
ATOM      5  O   UNL A   1      33.675  24.460  25.507  1.00  0.00    -0.268 OA
ATOM      6  H   UNL A   1      35.849  24.590  25.098  1.00  0.00     0.163 HD
BRANCH   4   7
ATOM      7  C   UNL A   1      33.204  23.050  23.546  1.00  0.00     0.307 C 
BRANCH   7   8
ATOM      8  N   UNL A   1      32.297  23.830  22.603  1.00  0.00    -0.318 N 
ATOM      9  N   UNL A   1      31.677  26.578  23.534  1.00  0.00    -0.344 N 
ATOM     10  C   UNL A   1      31.052  25.405  24.147  1.00  0.00     0.179 C 
ATOM     11  C   UNL A   1      32.920  26.309  22.801  1.00  0.00     0.179 C 
ATOM     12  C   UNL A   1      30.977  24.301  23.086  1.00  0.00     0.284 C 
ATOM     13  C   UNL A   1      32.866  25.009  21.944  1.00  0.00     0.284 C 
ATOM     14  H   UNL A   1      32.177  23.043  21.965  1.00  0.00     0.349 HD
BRANCH   9  15
ATOM     15  C   UNL A   1      31.726  27.710  24.355  1.00  0.00     0.146 A 
ATOM     16  C   UNL A   1      31.027  28.877  24.022  1.00  0.00     0.095 A 
ATOM     17  C   UNL A   1      31.099  29.978  24.878  1.00  0.00     0.025 A 
ATOM     18  C   UNL A   1      31.897  29.916  26.015  1.00  0.00     0.022 A 
ATOM     19  N   UNL A   1      32.485  27.644  25.479  1.00  0.00    -0.238 NA
ATOM     20  C   UNL A   1      32.568  28.737  26.269  1.00  0.00     0.113 A 
BRANCH  16  21
ATOM     21  C   UNL A   1      30.255  28.958  22.812  1.00  0.00     0.103 C 
ATOM     22  N   UNL A   1      29.684  29.086  21.820  1.00  0.00    -0.192 NA
ENDBRANCH  16  21
ENDBRANCH   9  15
ENDBRANCH   7   8
BRANCH   7  23
ATOM     23  C   UNL A   1      32.337  21.929  24.223  1.00  0.00     0.044 A 
ATOM     24  C   UNL A   1      31.859  21.956  25.530  1.00  0.00     0.094 A 
ATOM     25  C   UNL A   1      32.211  20.529  23.889  1.00  0.00     0.009 A 
ATOM     26  N   UNL A   1      32.343  20.781  26.076  1.00  0.00    -0.361 N 
ATOM     27  C   UNL A   1      32.584  19.876  25.068  1.00  0.00     0.046 A 
ATOM     28  C   UNL A   1      32.100  19.750  22.727  1.00  0.00     0.011 A 
ATOM     29  H   UNL A   1      32.490  20.618  27.035  1.00  0.00     0.166 HD
ATOM     30  C   UNL A   1      33.224  18.624  25.061  1.00  0.00     0.032 A 
ATOM     31  C   UNL A   1      32.589  18.439  22.730  1.00  0.00     0.007 A 
ATOM     32  C   UNL A   1      33.295  17.946  23.832  1.00  0.00    -0.021 A 
BRANCH  32  33
ATOM     33  C   UNL A   1      34.168  16.727  23.671  1.00  0.00     0.191 C 
BRANCH  33  34
ATOM     34  O   UNL A   1      33.581  15.581  24.284  1.00  0.00    -0.392 OA
ATOM     35  H   UNL A   1      33.395  15.772  25.217  1.00  0.00     0.211 HD
ENDBRANCH  33  34
ENDBRANCH  32  33
ENDBRANCH   7  23
ENDBRANCH   4   7
ENDBRANCH   2   3
ENDBRANCH   1   2
BRANCH   1  36
ATOM     36  C   UNL A   1      37.297  21.760  25.670  1.00  0.00     0.118 C 
BRANCH  36  37
ATOM     37  N   UNL A   1      38.416  20.893  25.987  1.00  0.00    -0.352 N 
ATOM     38  C   UNL A   1      39.694  21.188  26.404  1.00  0.00     0.251 C 
ATOM     39  H   UNL A   1      38.231  19.931  25.886  1.00  0.00     0.163 HD
ATOM     40  O   UNL A   1      40.530  20.286  26.372  1.00  0.00    -0.269 OA
BRANCH  38  41
ATOM     41  C   UNL A   1      40.102  22.535  26.892  1.00  0.00     0.039 A 
ATOM     42  C   UNL A   1      39.699  23.659  26.155  1.00  0.00     0.014 A 
ATOM     43  C   UNL A   1      40.997  22.712  27.949  1.00  0.00     0.014 A 
ATOM     44  C   UNL A   1      40.160  24.943  26.489  1.00  0.00     0.010 A 
ATOM     45  C   UNL A   1      41.447  24.002  28.285  1.00  0.00     0.010 A 
ATOM     46  C   UNL A   1      41.031  25.139  27.570  1.00  0.00    -0.014 A 
BRANCH  46  47
ATOM     47  C   UNL A   1      41.511  26.512  27.941  1.00  0.00     0.031 A 
ATOM     48  C   UNL A   1      42.936  26.939  27.674  1.00  0.00     0.074 A 
ATOM     49  C   UNL A   1      40.678  27.386  28.546  1.00  0.00     0.049 A 
ATOM     50  N   UNL A   1      43.538  28.066  27.974  1.00  0.00    -0.248 NA
ATOM     51  C   UNL A   1      43.803  25.960  27.006  1.00  0.00     0.031 C 
ATOM     52  C   UNL A   1      39.282  27.114  28.893  1.00  0.00     0.029 A 
ATOM     53  N   UNL A   1      40.877  28.678  28.979  1.00  0.00    -0.354 N 
ATOM     54  C   UNL A   1      44.853  27.930  27.539  1.00  0.00     0.074 A 
ATOM     55  C   UNL A   1      44.972  26.585  27.012  1.00  0.00     0.031 C 
ATOM     56  C   UNL A   1      38.746  28.210  29.455  1.00  0.00     0.029 A 
ATOM     57  C   UNL A   1      39.765  29.251  29.558  1.00  0.00     0.049 A 
ATOM     58  H   UNL A   1      41.737  29.150  28.883  1.00  0.00     0.167 HD
ATOM     59  C   UNL A   1      45.863  28.841  27.554  1.00  0.00     0.034 A 
ATOM     60  C   UNL A   1      39.581  30.464  30.123  1.00  0.00     0.034 A 
ATOM     61  C   UNL A   1      45.741  30.187  28.066  1.00  0.00     0.049 A 
ATOM     62  C   UNL A   1      40.729  31.444  30.169  1.00  0.00     0.074 A 
ATOM     63  C   UNL A   1      46.693  31.194  28.081  1.00  0.00     0.029 A 
ATOM     64  N   UNL A   1      44.603  30.718  28.661  1.00  0.00    -0.354 N 
ATOM     65  N   UNL A   1      41.956  31.304  29.722  1.00  0.00    -0.248 NA
ATOM     66  C   UNL A   1      40.464  32.748  30.793  1.00  0.00     0.031 C 
ATOM     67  C   UNL A   1      46.160  32.302  28.749  1.00  0.00     0.029 A 
ATOM     68  C   UNL A   1      44.845  32.022  29.077  1.00  0.00     0.049 A 
ATOM     69  H   UNL A   1      43.750  30.241  28.772  1.00  0.00     0.167 HD
ATOM     70  C   UNL A   1      42.593  32.516  29.980  1.00  0.00     0.074 A 
ATOM     71  C   UNL A   1      41.616  33.377  30.609  1.00  0.00     0.031 C 
ATOM     72  C   UNL A   1      43.874  32.882  29.714  1.00  0.00     0.034 A 
BRANCH  59  73
ATOM     73  C   UNL A   1      47.210  28.398  27.024  1.00  0.00     0.023 A 
ATOM     74  C   UNL A   1      47.438  28.205  25.650  1.00  0.00     0.031 A 
ATOM     75  C   UNL A   1      48.279  28.150  27.905  1.00  0.00     0.131 A 
ATOM     76  C   UNL A   1      48.669  27.700  25.207  1.00  0.00     0.055 A 
ATOM     77  C   UNL A   1      49.532  27.734  27.449  1.00  0.00     0.041 A 
ATOM     78  F   UNL A   1      48.122  28.300  29.230  1.00  0.00    -0.206 F 
ATOM     79  C   UNL A   1      49.727  27.489  26.093  1.00  0.00     0.022 A 
BRANCH  76  80
ATOM     80  S   UNL A   1      48.814  27.172  23.477  1.00  0.00     0.124 S 
ATOM     81  O   UNL A   1      48.114  28.250  22.782  1.00  0.00    -0.237 OA
ATOM     82  O   UNL A   1      50.257  27.115  23.284  1.00  0.00    -0.237 OA
ATOM     83  O   UNL A   1      48.128  25.881  23.456  1.00  0.00    -0.744 OA
ENDBRANCH  76  80
ENDBRANCH  59  73
BRANCH  60  84
ATOM     84  C   UNL A   1      38.261  30.829  30.720  1.00  0.00     0.023 A 
ATOM     85  C   UNL A   1      37.286  31.508  29.970  1.00  0.00     0.031 A 
ATOM     86  C   UNL A   1      37.979  30.555  32.070  1.00  0.00     0.131 A 
ATOM     87  C   UNL A   1      36.096  31.929  30.586  1.00  0.00     0.055 A 
ATOM     88  C   UNL A   1      36.769  30.920  32.661  1.00  0.00     0.041 A 
ATOM     89  F   UNL A   1      38.879  29.918  32.835  1.00  0.00    -0.206 F 
ATOM     90  C   UNL A   1      35.824  31.624  31.922  1.00  0.00     0.022 A 
BRANCH  87  91
ATOM     91  S   UNL A   1      34.945  32.965  29.640  1.00  0.00     0.124 S 
ATOM     92  O   UNL A   1      34.270  31.975  28.808  1.00  0.00    -0.237 OA
ATOM     93  O   UNL A   1      34.142  33.570  30.696  1.00  0.00    -0.237 OA
ATOM     94  O   UNL A   1      35.824  33.886  28.923  1.00  0.00    -0.744 OA
ENDBRANCH  87  91
ENDBRANCH  60  84
BRANCH  72  95
ATOM     95  C   UNL A   1      44.277  34.299  30.054  1.00  0.00     0.023 A 
ATOM     96  C   UNL A   1      44.072  35.369  29.165  1.00  0.00     0.031 A 
ATOM     97  C   UNL A   1      44.887  34.580  31.291  1.00  0.00     0.131 A 
ATOM     98  C   UNL A   1      44.522  36.656  29.500  1.00  0.00     0.055 A 
ATOM     99  C   UNL A   1      45.276  35.874  31.645  1.00  0.00     0.041 A 
ATOM    100  F   UNL A   1      45.113  33.600  32.180  1.00  0.00    -0.206 F 
ATOM    101  C   UNL A   1      45.106  36.918  30.743  1.00  0.00     0.022 A 
BRANCH  98 102
ATOM    102  S   UNL A   1      44.415  37.973  28.256  1.00  0.00     0.124 S 
ATOM    103  O   UNL A   1      44.421  39.175  29.085  1.00  0.00    -0.237 OA
ATOM    104  O   UNL A   1      45.612  37.744  27.455  1.00  0.00    -0.237 OA
ATOM    105  O   UNL A   1      43.151  37.699  27.573  1.00  0.00    -0.744 OA
ENDBRANCH  98 102
ENDBRANCH  72  95
ENDBRANCH  46  47
ENDBRANCH  38  41
ENDBRANCH  36  37
ENDBRANCH   1  36
TORSDOF 19
ENDMDL
