MODEL 1
REMARK VINA RESULT:     -11.3      0.000      0.000
REMARK SMILES CCCc1cc(OC(F)(F)F)cc2c1O[C@@H](C(F)(F)F)C(C(=O)NCCCNC(=O)c1ccc(-c3c4nc(c(-c5cc(S(=O)(=O)[O-])ccc5F)c5ccc([nH]5)c(-c5cc(S(=O)(=O)[O-])ccc5F)c5nc(c(-c6cc(S(=O)(=O)[O-])ccc6F)c6ccc3[nH]6)C=C5)C=C4)cc1)=C2
REMARK SMILES IDX 26 1 25 2 24 3 22 4 23 5 21 7 4 8 5 9 14 10 6 11 13 12 15 13
REMARK SMILES IDX 12 14 94 15 16 16 3 17 2 18 1 19 7 20 8 21 9 22 10 23 11 24
REMARK SMILES IDX 17 25 18 26 19 27 20 28 27 29 28 30 29 31 30 33 31 34 32 35
REMARK SMILES IDX 93 36 33 37 92 38 34 39 35 40 36 41 86 42 37 43 91 44 85 45
REMARK SMILES IDX 87 46 38 47 90 48 84 49 83 50 39 52 71 53 51 54 70 55 52 56
REMARK SMILES IDX 55 57 69 58 88 59 53 60 54 61 68 63 89 64 56 65 40 66 41 67
REMARK SMILES IDX 49 68 42 69 48 70 50 71 47 72 43 73 44 74 45 75 46 76 72 77
REMARK SMILES IDX 73 78 81 79 74 80 80 81 82 82 79 83 75 84 76 85 77 86 78 87
REMARK SMILES IDX 57 88 58 89 66 90 59 91 65 92 67 93 64 94 60 95 61 96 62 97
REMARK SMILES IDX 63 98
REMARK H PARENT 24 6 28 32 87 51 55 62
REMARK Flexibility Score: inf
ROOT
ATOM      1  C   UNL A   1      35.372  22.436  26.658  1.00  0.00     0.042 C 
ENDROOT
BRANCH   1   2
ATOM      2  C   UNL A   1      34.962  21.506  25.513  1.00  0.00     0.118 C 
BRANCH   2   3
ATOM      3  N   UNL A   1      35.487  21.981  24.241  1.00  0.00    -0.352 N 
ATOM      4  C   UNL A   1      35.138  23.005  23.420  1.00  0.00     0.251 C 
ATOM      5  O   UNL A   1      35.723  23.108  22.344  1.00  0.00    -0.270 OA
ATOM      6  H   UNL A   1      36.248  21.452  23.907  1.00  0.00     0.163 HD
BRANCH   4   7
ATOM      7  C   UNL A   1      34.133  24.035  23.791  1.00  0.00     0.067 C 
ATOM      8  C   UNL A   1      31.087  26.818  24.663  1.00  0.00    -0.002 A 
ATOM      9  C   UNL A   1      31.466  28.084  25.144  1.00  0.00     0.054 A 
ATOM     10  C   UNL A   1      32.102  25.889  24.364  1.00  0.00     0.131 A 
ATOM     11  C   UNL A   1      32.810  28.440  25.277  1.00  0.00     0.130 A 
ATOM     12  C   UNL A   1      33.445  26.221  24.542  1.00  0.00     0.021 A 
ATOM     13  O   UNL A   1      31.727  24.687  23.832  1.00  0.00    -0.475 OA
ATOM     14  C   UNL A   1      33.794  27.496  24.993  1.00  0.00     0.058 A 
ATOM     15  C   UNL A   1      34.483  25.267  24.185  1.00  0.00     0.025 C 
ATOM     16  C   UNL A   1      32.681  23.583  23.892  1.00  0.00     0.314 C 
BRANCH   8  17
ATOM     17  C   UNL A   1      29.637  26.421  24.447  1.00  0.00     0.039 C 
BRANCH  17  18
ATOM     18  C   UNL A   1      28.732  27.356  23.633  1.00  0.00     0.001 C 
ATOM     19  C   UNL A   1      29.488  28.211  22.622  1.00  0.00     0.004 C 
ENDBRANCH  17  18
ENDBRANCH   8  17
BRANCH  11  20
ATOM     20  O   UNL A   1      33.289  29.659  25.664  1.00  0.00    -0.406 OA
BRANCH  20  21
ATOM     21  C   UNL A   1      33.437  29.895  27.055  1.00  0.00     0.573 C 
ATOM     22  F   UNL A   1      34.027  28.850  27.675  1.00  0.00    -0.132 F 
ATOM     23  F   UNL A   1      34.161  31.013  27.277  1.00  0.00    -0.132 F 
ATOM     24  F   UNL A   1      32.214  30.068  27.602  1.00  0.00    -0.132 F 
ENDBRANCH  20  21
ENDBRANCH  11  20
BRANCH  16  25
ATOM     25  C   UNL A   1      32.210  22.529  22.863  1.00  0.00     0.429 C 
ATOM     26  F   UNL A   1      32.391  21.258  23.286  1.00  0.00    -0.167 F 
ATOM     27  F   UNL A   1      30.870  22.641  22.637  1.00  0.00    -0.167 F 
ATOM     28  F   UNL A   1      32.816  22.669  21.662  1.00  0.00    -0.167 F 
ENDBRANCH  16  25
ENDBRANCH   4   7
ENDBRANCH   2   3
ENDBRANCH   1   2
BRANCH   1  29
ATOM     29  C   UNL A   1      36.635  23.244  26.369  1.00  0.00     0.118 C 
BRANCH  29  30
ATOM     30  N   UNL A   1      37.814  22.395  26.315  1.00  0.00    -0.352 N 
ATOM     31  C   UNL A   1      39.143  22.724  26.429  1.00  0.00     0.251 C 
ATOM     32  H   UNL A   1      37.633  21.438  26.175  1.00  0.00     0.163 HD
ATOM     33  O   UNL A   1      39.987  21.897  26.099  1.00  0.00    -0.269 OA
BRANCH  31  34
ATOM     34  C   UNL A   1      39.560  24.055  26.930  1.00  0.00     0.039 A 
ATOM     35  C   UNL A   1      40.035  24.998  26.012  1.00  0.00     0.014 A 
ATOM     36  C   UNL A   1      39.549  24.360  28.295  1.00  0.00     0.014 A 
ATOM     37  C   UNL A   1      40.457  26.254  26.456  1.00  0.00     0.010 A 
ATOM     38  C   UNL A   1      39.910  25.635  28.730  1.00  0.00     0.010 A 
ATOM     39  C   UNL A   1      40.378  26.593  27.816  1.00  0.00    -0.014 A 
BRANCH  39  40
ATOM     40  C   UNL A   1      40.795  27.935  28.302  1.00  0.00     0.031 A 
ATOM     41  C   UNL A   1      42.257  28.262  28.455  1.00  0.00     0.074 A 
ATOM     42  C   UNL A   1      39.859  28.836  28.660  1.00  0.00     0.049 A 
ATOM     43  N   UNL A   1      42.820  29.339  28.941  1.00  0.00    -0.248 NA
ATOM     44  C   UNL A   1      43.210  27.225  28.032  1.00  0.00     0.031 C 
ATOM     45  C   UNL A   1      38.411  28.621  28.589  1.00  0.00     0.029 A 
ATOM     46  N   UNL A   1      39.980  30.106  29.165  1.00  0.00    -0.354 N 
ATOM     47  C   UNL A   1      44.190  29.103  28.900  1.00  0.00     0.074 A 
ATOM     48  C   UNL A   1      44.368  27.759  28.391  1.00  0.00     0.031 C 
ATOM     49  C   UNL A   1      37.782  29.725  29.021  1.00  0.00     0.029 A 
ATOM     50  C   UNL A   1      38.775  30.709  29.439  1.00  0.00     0.049 A 
ATOM     51  H   UNL A   1      40.849  30.544  29.318  1.00  0.00     0.167 HD
ATOM     52  C   UNL A   1      45.206  29.938  29.239  1.00  0.00     0.034 A 
ATOM     53  C   UNL A   1      38.499  31.912  29.981  1.00  0.00     0.034 A 
ATOM     54  C   UNL A   1      45.009  31.281  29.729  1.00  0.00     0.049 A 
ATOM     55  C   UNL A   1      39.643  32.821  30.354  1.00  0.00     0.074 A 
ATOM     56  C   UNL A   1      45.964  32.233  30.047  1.00  0.00     0.029 A 
ATOM     57  N   UNL A   1      43.773  31.865  29.979  1.00  0.00    -0.354 N 
ATOM     58  N   UNL A   1      40.935  32.601  30.267  1.00  0.00    -0.248 NA
ATOM     59  C   UNL A   1      39.291  34.142  30.887  1.00  0.00     0.031 C 
ATOM     60  C   UNL A   1      45.309  33.363  30.548  1.00  0.00     0.029 A 
ATOM     61  C   UNL A   1      43.942  33.150  30.473  1.00  0.00     0.049 A 
ATOM     62  H   UNL A   1      42.904  31.429  29.828  1.00  0.00     0.167 HD
ATOM     63  C   UNL A   1      41.549  33.771  30.706  1.00  0.00     0.074 A 
ATOM     64  C   UNL A   1      40.485  34.695  31.044  1.00  0.00     0.031 C 
ATOM     65  C   UNL A   1      42.871  34.057  30.817  1.00  0.00     0.034 A 
BRANCH  52  66
ATOM     66  C   UNL A   1      46.615  29.405  29.117  1.00  0.00     0.023 A 
ATOM     67  C   UNL A   1      47.265  29.307  27.874  1.00  0.00     0.031 A 
ATOM     68  C   UNL A   1      47.310  28.965  30.257  1.00  0.00     0.131 A 
ATOM     69  C   UNL A   1      48.532  28.711  27.789  1.00  0.00     0.055 A 
ATOM     70  C   UNL A   1      48.606  28.449  30.177  1.00  0.00     0.041 A 
ATOM     71  F   UNL A   1      46.737  29.016  31.470  1.00  0.00    -0.206 F 
ATOM     72  C   UNL A   1      49.218  28.305  28.936  1.00  0.00     0.022 A 
BRANCH  69  73
ATOM     73  S   UNL A   1      49.209  28.343  26.147  1.00  0.00     0.124 S 
ATOM     74  O   UNL A   1      49.770  27.009  26.352  1.00  0.00    -0.237 OA
ATOM     75  O   UNL A   1      48.028  28.415  25.295  1.00  0.00    -0.237 OA
ATOM     76  O   UNL A   1      50.195  29.400  25.938  1.00  0.00    -0.744 OA
ENDBRANCH  69  73
ENDBRANCH  52  66
BRANCH  53  77
ATOM     77  C   UNL A   1      37.088  32.328  30.212  1.00  0.00     0.023 A 
ATOM     78  C   UNL A   1      36.372  33.040  29.238  1.00  0.00     0.031 A 
ATOM     79  C   UNL A   1      36.442  32.046  31.430  1.00  0.00     0.131 A 
ATOM     80  C   UNL A   1      35.069  33.484  29.511  1.00  0.00     0.055 A 
ATOM     81  C   UNL A   1      35.128  32.446  31.679  1.00  0.00     0.041 A 
ATOM     82  F   UNL A   1      37.079  31.361  32.393  1.00  0.00    -0.206 F 
ATOM     83  C   UNL A   1      34.437  33.181  30.720  1.00  0.00     0.022 A 
BRANCH  80  84
ATOM     84  S   UNL A   1      34.233  34.532  28.288  1.00  0.00     0.124 S 
ATOM     85  O   UNL A   1      35.016  34.267  27.086  1.00  0.00    -0.237 OA
ATOM     86  O   UNL A   1      32.878  33.992  28.303  1.00  0.00    -0.237 OA
ATOM     87  O   UNL A   1      34.373  35.877  28.842  1.00  0.00    -0.744 OA
ENDBRANCH  80  84
ENDBRANCH  53  77
BRANCH  65  88
ATOM     88  C   UNL A   1      43.234  35.445  31.282  1.00  0.00     0.023 A 
ATOM     89  C   UNL A   1      43.484  36.489  30.375  1.00  0.00     0.031 A 
ATOM     90  C   UNL A   1      43.347  35.721  32.657  1.00  0.00     0.131 A 
ATOM     91  C   UNL A   1      43.888  37.746  30.850  1.00  0.00     0.055 A 
ATOM     92  C   UNL A   1      43.690  36.989  33.125  1.00  0.00     0.041 A 
ATOM     93  F   UNL A   1      43.120  34.761  33.567  1.00  0.00    -0.206 F 
ATOM     94  C   UNL A   1      43.976  38.007  32.221  1.00  0.00     0.022 A 
BRANCH  91  95
ATOM     95  S   UNL A   1      44.386  39.012  29.652  1.00  0.00     0.124 S 
ATOM     96  O   UNL A   1      43.137  39.736  29.437  1.00  0.00    -0.237 OA
ATOM     97  O   UNL A   1      45.425  39.736  30.376  1.00  0.00    -0.237 OA
ATOM     98  O   UNL A   1      44.857  38.236  28.506  1.00  0.00    -0.744 OA
ENDBRANCH  91  95
ENDBRANCH  65  88
ENDBRANCH  39  40
ENDBRANCH  31  34
ENDBRANCH  29  30
ENDBRANCH   1  29
TORSDOF 18
ENDMDL
MODEL 2
REMARK VINA RESULT:     -11.2      2.111      2.740
REMARK SMILES CCCc1cc(OC(F)(F)F)cc2c1O[C@@H](C(F)(F)F)C(C(=O)NCCCNC(=O)c1ccc(-c3c4nc(c(-c5cc(S(=O)(=O)[O-])ccc5F)c5ccc([nH]5)c(-c5cc(S(=O)(=O)[O-])ccc5F)c5nc(c(-c6cc(S(=O)(=O)[O-])ccc6F)c6ccc3[nH]6)C=C5)C=C4)cc1)=C2
REMARK SMILES IDX 26 1 25 2 24 3 22 4 23 5 21 7 4 8 5 9 14 10 6 11 13 12 15 13
REMARK SMILES IDX 12 14 94 15 16 16 3 17 2 18 1 19 7 20 8 21 9 22 10 23 11 24
REMARK SMILES IDX 17 25 18 26 19 27 20 28 27 29 28 30 29 31 30 33 31 34 32 35
REMARK SMILES IDX 93 36 33 37 92 38 34 39 35 40 36 41 86 42 37 43 91 44 85 45
REMARK SMILES IDX 87 46 38 47 90 48 84 49 83 50 39 52 71 53 51 54 70 55 52 56
REMARK SMILES IDX 55 57 69 58 88 59 53 60 54 61 68 63 89 64 56 65 40 66 41 67
REMARK SMILES IDX 49 68 42 69 48 70 50 71 47 72 43 73 44 74 45 75 46 76 72 77
REMARK SMILES IDX 73 78 81 79 74 80 80 81 82 82 79 83 75 84 76 85 77 86 78 87
REMARK SMILES IDX 57 88 58 89 66 90 59 91 65 92 67 93 64 94 60 95 61 96 62 97
REMARK SMILES IDX 63 98
REMARK H PARENT 24 6 28 32 87 51 55 62
REMARK Flexibility Score: inf
ROOT
ATOM      1  C   UNL A   1      36.702  22.336  24.187  1.00  0.00     0.042 C 
ENDROOT
BRANCH   1   2
ATOM      2  C   UNL A   1      35.719  23.314  23.536  1.00  0.00     0.118 C 
BRANCH   2   3
ATOM      3  N   UNL A   1      34.501  22.633  23.124  1.00  0.00    -0.352 N 
ATOM      4  C   UNL A   1      33.186  22.967  23.190  1.00  0.00     0.251 C 
ATOM      5  O   UNL A   1      32.359  22.130  22.833  1.00  0.00    -0.270 OA
ATOM      6  H   UNL A   1      34.662  21.752  22.715  1.00  0.00     0.163 HD
BRANCH   4   7
ATOM      7  C   UNL A   1      32.711  24.310  23.612  1.00  0.00     0.067 C 
ATOM      8  C   UNL A   1      31.328  28.011  25.086  1.00  0.00    -0.002 A 
ATOM      9  C   UNL A   1      30.790  28.930  24.167  1.00  0.00     0.054 A 
ATOM     10  C   UNL A   1      31.784  26.771  24.598  1.00  0.00     0.131 A 
ATOM     11  C   UNL A   1      30.658  28.613  22.814  1.00  0.00     0.130 A 
ATOM     12  C   UNL A   1      31.702  26.468  23.239  1.00  0.00     0.021 A 
ATOM     13  O   UNL A   1      32.241  25.859  25.509  1.00  0.00    -0.475 OA
ATOM     14  C   UNL A   1      31.135  27.387  22.353  1.00  0.00     0.058 A 
ATOM     15  C   UNL A   1      32.134  25.166  22.758  1.00  0.00     0.025 C 
ATOM     16  C   UNL A   1      33.074  24.763  25.021  1.00  0.00     0.314 C 
BRANCH   8  17
ATOM     17  C   UNL A   1      31.427  28.299  26.574  1.00  0.00     0.039 C 
BRANCH  17  18
ATOM     18  C   UNL A   1      32.820  28.446  27.203  1.00  0.00     0.001 C 
ATOM     19  C   UNL A   1      33.820  29.173  26.311  1.00  0.00     0.004 C 
ENDBRANCH  17  18
ENDBRANCH   8  17
BRANCH  11  20
ATOM     20  O   UNL A   1      30.089  29.396  21.851  1.00  0.00    -0.406 OA
BRANCH  20  21
ATOM     21  C   UNL A   1      28.743  29.800  22.043  1.00  0.00     0.573 C 
ATOM     22  F   UNL A   1      28.009  28.820  22.615  1.00  0.00    -0.132 F 
ATOM     23  F   UNL A   1      28.680  30.911  22.808  1.00  0.00    -0.132 F 
ATOM     24  F   UNL A   1      28.195  30.082  20.841  1.00  0.00    -0.132 F 
ENDBRANCH  20  21
ENDBRANCH  11  20
BRANCH  16  25
ATOM     25  C   UNL A   1      33.072  23.677  26.122  1.00  0.00     0.429 C 
ATOM     26  F   UNL A   1      32.504  22.518  25.721  1.00  0.00    -0.167 F 
ATOM     27  F   UNL A   1      34.346  23.345  26.476  1.00  0.00    -0.167 F 
ATOM     28  F   UNL A   1      32.453  24.086  27.253  1.00  0.00    -0.167 F 
ENDBRANCH  16  25
ENDBRANCH   4   7
ENDBRANCH   2   3
ENDBRANCH   1   2
BRANCH   1  29
ATOM     29  C   UNL A   1      37.424  22.912  25.403  1.00  0.00     0.118 C 
BRANCH  29  30
ATOM     30  N   UNL A   1      38.402  21.979  25.938  1.00  0.00    -0.352 N 
ATOM     31  C   UNL A   1      39.623  22.219  26.519  1.00  0.00     0.251 C 
ATOM     32  H   UNL A   1      38.150  21.030  25.875  1.00  0.00     0.163 HD
ATOM     33  O   UNL A   1      40.400  21.282  26.669  1.00  0.00    -0.269 OA
BRANCH  31  34
ATOM     34  C   UNL A   1      40.009  23.583  26.951  1.00  0.00     0.039 A 
ATOM     35  C   UNL A   1      39.969  24.619  26.011  1.00  0.00     0.014 A 
ATOM     36  C   UNL A   1      40.467  23.839  28.247  1.00  0.00     0.014 A 
ATOM     37  C   UNL A   1      40.349  25.913  26.381  1.00  0.00     0.010 A 
ATOM     38  C   UNL A   1      40.784  25.142  28.632  1.00  0.00     0.010 A 
ATOM     39  C   UNL A   1      40.738  26.191  27.700  1.00  0.00    -0.014 A 
BRANCH  39  40
ATOM     40  C   UNL A   1      41.116  27.567  28.119  1.00  0.00     0.031 A 
ATOM     41  C   UNL A   1      42.564  27.983  28.126  1.00  0.00     0.074 A 
ATOM     42  C   UNL A   1      40.164  28.420  28.547  1.00  0.00     0.049 A 
ATOM     43  N   UNL A   1      43.103  29.103  28.535  1.00  0.00    -0.248 NA
ATOM     44  C   UNL A   1      43.534  26.994  27.634  1.00  0.00     0.031 C 
ATOM     45  C   UNL A   1      38.733  28.118  28.618  1.00  0.00     0.029 A 
ATOM     46  N   UNL A   1      40.256  29.707  29.014  1.00  0.00    -0.354 N 
ATOM     47  C   UNL A   1      44.475  28.948  28.369  1.00  0.00     0.074 A 
ATOM     48  C   UNL A   1      44.686  27.604  27.872  1.00  0.00     0.031 C 
ATOM     49  C   UNL A   1      38.081  29.194  29.087  1.00  0.00     0.029 A 
ATOM     50  C   UNL A   1      39.046  30.245  29.389  1.00  0.00     0.049 A 
ATOM     51  H   UNL A   1      41.107  30.199  29.075  1.00  0.00     0.167 HD
ATOM     52  C   UNL A   1      45.465  29.849  28.594  1.00  0.00     0.034 A 
ATOM     53  C   UNL A   1      38.750  31.443  29.932  1.00  0.00     0.034 A 
ATOM     54  C   UNL A   1      45.234  31.190  29.074  1.00  0.00     0.049 A 
ATOM     55  C   UNL A   1      39.866  32.426  30.177  1.00  0.00     0.074 A 
ATOM     56  C   UNL A   1      46.154  32.204  29.282  1.00  0.00     0.029 A 
ATOM     57  N   UNL A   1      43.994  31.706  29.430  1.00  0.00    -0.354 N 
ATOM     58  N   UNL A   1      41.156  32.281  29.972  1.00  0.00    -0.248 NA
ATOM     59  C   UNL A   1      39.486  33.737  30.717  1.00  0.00     0.031 C 
ATOM     60  C   UNL A   1      45.482  33.306  29.821  1.00  0.00     0.029 A 
ATOM     61  C   UNL A   1      44.130  33.010  29.881  1.00  0.00     0.049 A 
ATOM     62  H   UNL A   1      43.142  31.215  29.370  1.00  0.00     0.167 HD
ATOM     63  C   UNL A   1      41.736  33.495  30.329  1.00  0.00     0.074 A 
ATOM     64  C   UNL A   1      40.654  34.363  30.748  1.00  0.00     0.031 C 
ATOM     65  C   UNL A   1      43.042  33.861  30.307  1.00  0.00     0.034 A 
BRANCH  52  66
ATOM     66  C   UNL A   1      46.886  29.397  28.349  1.00  0.00     0.023 A 
ATOM     67  C   UNL A   1      47.638  28.744  29.341  1.00  0.00     0.031 A 
ATOM     68  C   UNL A   1      47.509  29.645  27.112  1.00  0.00     0.131 A 
ATOM     69  C   UNL A   1      48.987  28.434  29.111  1.00  0.00     0.055 A 
ATOM     70  C   UNL A   1      48.828  29.258  26.860  1.00  0.00     0.041 A 
ATOM     71  F   UNL A   1      46.851  30.281  26.130  1.00  0.00    -0.206 F 
ATOM     72  C   UNL A   1      49.579  28.663  27.867  1.00  0.00     0.022 A 
BRANCH  69  73
ATOM     73  S   UNL A   1      49.994  27.859  30.506  1.00  0.00     0.124 S 
ATOM     74  O   UNL A   1      50.945  26.975  29.836  1.00  0.00    -0.237 OA
ATOM     75  O   UNL A   1      50.541  29.102  31.035  1.00  0.00    -0.237 OA
ATOM     76  O   UNL A   1      49.029  27.183  31.370  1.00  0.00    -0.744 OA
ENDBRANCH  69  73
ENDBRANCH  52  66
BRANCH  53  77
ATOM     77  C   UNL A   1      37.344  31.781  30.289  1.00  0.00     0.023 A 
ATOM     78  C   UNL A   1      36.446  32.264  29.325  1.00  0.00     0.031 A 
ATOM     79  C   UNL A   1      36.884  31.653  31.613  1.00  0.00     0.131 A 
ATOM     80  C   UNL A   1      35.150  32.645  29.703  1.00  0.00     0.055 A 
ATOM     81  C   UNL A   1      35.578  31.987  31.976  1.00  0.00     0.041 A 
ATOM     82  F   UNL A   1      37.699  31.188  32.572  1.00  0.00    -0.206 F 
ATOM     83  C   UNL A   1      34.705  32.498  31.020  1.00  0.00     0.022 A 
BRANCH  80  84
ATOM     84  S   UNL A   1      34.071  33.409  28.461  1.00  0.00     0.124 S 
ATOM     85  O   UNL A   1      35.037  34.095  27.610  1.00  0.00    -0.237 OA
ATOM     86  O   UNL A   1      33.413  32.246  27.876  1.00  0.00    -0.237 OA
ATOM     87  O   UNL A   1      33.205  34.280  29.253  1.00  0.00    -0.744 OA
ENDBRANCH  80  84
ENDBRANCH  53  77
BRANCH  65  88
ATOM     88  C   UNL A   1      43.362  35.279  30.710  1.00  0.00     0.023 A 
ATOM     89  C   UNL A   1      43.360  36.332  29.778  1.00  0.00     0.031 A 
ATOM     90  C   UNL A   1      43.690  35.577  32.045  1.00  0.00     0.131 A 
ATOM     91  C   UNL A   1      43.732  37.622  30.183  1.00  0.00     0.055 A 
ATOM     92  C   UNL A   1      44.001  36.874  32.453  1.00  0.00     0.041 A 
ATOM     93  F   UNL A   1      43.709  34.609  32.975  1.00  0.00    -0.206 F 
ATOM     94  C   UNL A   1      44.037  37.904  31.518  1.00  0.00     0.022 A 
BRANCH  91  95
ATOM     95  S   UNL A   1      43.904  38.915  28.922  1.00  0.00     0.124 S 
ATOM     96  O   UNL A   1      43.978  38.133  27.693  1.00  0.00    -0.237 OA
ATOM     97  O   UNL A   1      42.686  39.696  29.108  1.00  0.00    -0.237 OA
ATOM     98  O   UNL A   1      45.140  39.599  29.297  1.00  0.00    -0.744 OA
ENDBRANCH  91  95
ENDBRANCH  65  88
ENDBRANCH  39  40
ENDBRANCH  31  34
ENDBRANCH  29  30
ENDBRANCH   1  29
TORSDOF 18
ENDMDL
MODEL 3
REMARK VINA RESULT:     -10.5      6.183      9.718
REMARK SMILES CCCc1cc(OC(F)(F)F)cc2c1O[C@@H](C(F)(F)F)C(C(=O)NCCCNC(=O)c1ccc(-c3c4nc(c(-c5cc(S(=O)(=O)[O-])ccc5F)c5ccc([nH]5)c(-c5cc(S(=O)(=O)[O-])ccc5F)c5nc(c(-c6cc(S(=O)(=O)[O-])ccc6F)c6ccc3[nH]6)C=C5)C=C4)cc1)=C2
REMARK SMILES IDX 26 1 25 2 24 3 22 4 23 5 21 7 4 8 5 9 14 10 6 11 13 12 15 13
REMARK SMILES IDX 12 14 94 15 16 16 3 17 2 18 1 19 7 20 8 21 9 22 10 23 11 24
REMARK SMILES IDX 17 25 18 26 19 27 20 28 27 29 28 30 29 31 30 33 31 34 32 35
REMARK SMILES IDX 93 36 33 37 92 38 34 39 35 40 36 41 86 42 37 43 91 44 85 45
REMARK SMILES IDX 87 46 38 47 90 48 84 49 83 50 39 52 71 53 51 54 70 55 52 56
REMARK SMILES IDX 55 57 69 58 88 59 53 60 54 61 68 63 89 64 56 65 40 66 41 67
REMARK SMILES IDX 49 68 42 69 48 70 50 71 47 72 43 73 44 74 45 75 46 76 72 77
REMARK SMILES IDX 73 78 81 79 74 80 80 81 82 82 79 83 75 84 76 85 77 86 78 87
REMARK SMILES IDX 57 88 58 89 66 90 59 91 65 92 67 93 64 94 60 95 61 96 62 97
REMARK SMILES IDX 63 98
REMARK H PARENT 24 6 28 32 87 51 55 62
REMARK Flexibility Score: inf
ROOT
ATOM      1  C   UNL A   1      46.441  29.901  26.437  1.00  0.00     0.042 C 
ENDROOT
BRANCH   1   2
ATOM      2  C   UNL A   1      45.900  29.131  27.646  1.00  0.00     0.118 C 
BRANCH   2   3
ATOM      3  N   UNL A   1      45.210  27.920  27.227  1.00  0.00    -0.352 N 
ATOM      4  C   UNL A   1      44.095  27.288  27.676  1.00  0.00     0.251 C 
ATOM      5  O   UNL A   1      43.798  26.209  27.167  1.00  0.00    -0.270 OA
ATOM      6  H   UNL A   1      45.639  27.467  26.465  1.00  0.00     0.163 HD
BRANCH   4   7
ATOM      7  C   UNL A   1      43.191  27.870  28.702  1.00  0.00     0.067 C 
ATOM      8  C   UNL A   1      40.478  29.658  31.389  1.00  0.00    -0.002 A 
ATOM      9  C   UNL A   1      40.874  29.802  32.731  1.00  0.00     0.054 A 
ATOM     10  C   UNL A   1      41.384  29.068  30.488  1.00  0.00     0.131 A 
ATOM     11  C   UNL A   1      42.147  29.421  33.159  1.00  0.00     0.130 A 
ATOM     12  C   UNL A   1      42.640  28.639  30.919  1.00  0.00     0.021 A 
ATOM     13  O   UNL A   1      41.017  28.996  29.173  1.00  0.00    -0.475 OA
ATOM     14  C   UNL A   1      43.018  28.821  32.251  1.00  0.00     0.058 A 
ATOM     15  C   UNL A   1      43.581  28.074  29.966  1.00  0.00     0.025 C 
ATOM     16  C   UNL A   1      41.729  28.054  28.312  1.00  0.00     0.314 C 
BRANCH   8  17
ATOM     17  C   UNL A   1      39.124  30.119  30.878  1.00  0.00     0.039 C 
BRANCH  17  18
ATOM     18  C   UNL A   1      37.965  29.112  30.855  1.00  0.00     0.001 C 
ATOM     19  C   UNL A   1      38.191  27.900  31.750  1.00  0.00     0.004 C 
ENDBRANCH  17  18
ENDBRANCH   8  17
BRANCH  11  20
ATOM     20  O   UNL A   1      42.660  29.579  34.415  1.00  0.00    -0.406 OA
BRANCH  20  21
ATOM     21  C   UNL A   1      41.943  29.004  35.495  1.00  0.00     0.573 C 
ATOM     22  F   UNL A   1      42.724  28.859  36.587  1.00  0.00    -0.132 F 
ATOM     23  F   UNL A   1      40.868  29.758  35.811  1.00  0.00    -0.132 F 
ATOM     24  F   UNL A   1      41.507  27.779  35.129  1.00  0.00    -0.132 F 
ENDBRANCH  20  21
ENDBRANCH  11  20
BRANCH  16  25
ATOM     25  C   UNL A   1      41.447  28.482  26.853  1.00  0.00     0.429 C 
ATOM     26  F   UNL A   1      42.450  29.207  26.311  1.00  0.00    -0.167 F 
ATOM     27  F   UNL A   1      41.320  27.390  26.047  1.00  0.00    -0.167 F 
ATOM     28  F   UNL A   1      40.299  29.186  26.732  1.00  0.00    -0.167 F 
ENDBRANCH  16  25
ENDBRANCH   4   7
ENDBRANCH   2   3
ENDBRANCH   1   2
BRANCH   1  29
ATOM     29  C   UNL A   1      46.600  31.400  26.687  1.00  0.00     0.118 C 
BRANCH  29  30
ATOM     30  N   UNL A   1      45.795  32.186  25.766  1.00  0.00    -0.352 N 
ATOM     31  C   UNL A   1      44.546  32.732  25.933  1.00  0.00     0.251 C 
ATOM     32  H   UNL A   1      46.208  32.351  24.888  1.00  0.00     0.163 HD
ATOM     33  O   UNL A   1      43.942  33.139  24.945  1.00  0.00    -0.269 OA
BRANCH  31  34
ATOM     34  C   UNL A   1      43.926  32.825  27.276  1.00  0.00     0.039 A 
ATOM     35  C   UNL A   1      43.774  34.089  27.857  1.00  0.00     0.014 A 
ATOM     36  C   UNL A   1      43.554  31.683  27.992  1.00  0.00     0.014 A 
ATOM     37  C   UNL A   1      43.213  34.208  29.132  1.00  0.00     0.010 A 
ATOM     38  C   UNL A   1      42.937  31.808  29.236  1.00  0.00     0.010 A 
ATOM     39  C   UNL A   1      42.768  33.071  29.824  1.00  0.00    -0.014 A 
BRANCH  39  40
ATOM     40  C   UNL A   1      42.143  33.182  31.169  1.00  0.00     0.031 A 
ATOM     41  C   UNL A   1      42.968  32.951  32.407  1.00  0.00     0.074 A 
ATOM     42  C   UNL A   1      40.823  33.432  31.272  1.00  0.00     0.049 A 
ATOM     43  N   UNL A   1      42.592  32.919  33.660  1.00  0.00    -0.248 NA
ATOM     44  C   UNL A   1      44.402  32.695  32.203  1.00  0.00     0.031 C 
ATOM     45  C   UNL A   1      39.913  33.639  30.142  1.00  0.00     0.029 A 
ATOM     46  N   UNL A   1      40.013  33.543  32.374  1.00  0.00    -0.354 N 
ATOM     47  C   UNL A   1      43.737  32.619  34.393  1.00  0.00     0.074 A 
ATOM     48  C   UNL A   1      44.807  32.428  33.436  1.00  0.00     0.031 C 
ATOM     49  C   UNL A   1      38.676  33.864  30.611  1.00  0.00     0.029 A 
ATOM     50  C   UNL A   1      38.692  33.778  32.067  1.00  0.00     0.049 A 
ATOM     51  H   UNL A   1      40.346  33.463  33.298  1.00  0.00     0.167 HD
ATOM     52  C   UNL A   1      43.884  32.531  35.740  1.00  0.00     0.034 A 
ATOM     53  C   UNL A   1      37.614  33.893  32.868  1.00  0.00     0.034 A 
ATOM     54  C   UNL A   1      42.808  32.741  36.678  1.00  0.00     0.049 A 
ATOM     55  C   UNL A   1      37.800  33.786  34.359  1.00  0.00     0.074 A 
ATOM     56  C   UNL A   1      42.857  32.733  38.063  1.00  0.00     0.029 A 
ATOM     57  N   UNL A   1      41.486  32.992  36.333  1.00  0.00    -0.354 N 
ATOM     58  N   UNL A   1      38.898  33.547  35.040  1.00  0.00    -0.248 NA
ATOM     59  C   UNL A   1      36.605  33.974  35.191  1.00  0.00     0.031 C 
ATOM     60  C   UNL A   1      41.557  32.915  38.549  1.00  0.00     0.029 A 
ATOM     61  C   UNL A   1      40.708  33.112  37.474  1.00  0.00     0.049 A 
ATOM     62  H   UNL A   1      41.152  33.073  35.410  1.00  0.00     0.167 HD
ATOM     63  C   UNL A   1      38.529  33.588  36.382  1.00  0.00     0.074 A 
ATOM     64  C   UNL A   1      37.111  33.888  36.412  1.00  0.00     0.031 C 
ATOM     65  C   UNL A   1      39.291  33.400  37.488  1.00  0.00     0.034 A 
BRANCH  52  66
ATOM     66  C   UNL A   1      45.251  32.161  36.267  1.00  0.00     0.023 A 
ATOM     67  C   UNL A   1      45.609  30.827  36.528  1.00  0.00     0.031 A 
ATOM     68  C   UNL A   1      46.203  33.160  36.538  1.00  0.00     0.131 A 
ATOM     69  C   UNL A   1      46.849  30.534  37.115  1.00  0.00     0.055 A 
ATOM     70  C   UNL A   1      47.469  32.854  37.045  1.00  0.00     0.041 A 
ATOM     71  F   UNL A   1      45.916  34.454  36.328  1.00  0.00    -0.206 F 
ATOM     72  C   UNL A   1      47.792  31.537  37.351  1.00  0.00     0.022 A 
BRANCH  69  73
ATOM     73  S   UNL A   1      47.155  28.843  37.697  1.00  0.00     0.124 S 
ATOM     74  O   UNL A   1      45.798  28.304  37.758  1.00  0.00    -0.237 OA
ATOM     75  O   UNL A   1      48.013  28.299  36.652  1.00  0.00    -0.237 OA
ATOM     76  O   UNL A   1      47.798  29.038  38.995  1.00  0.00    -0.744 OA
ENDBRANCH  69  73
ENDBRANCH  52  66
BRANCH  53  77
ATOM     77  C   UNL A   1      36.262  34.114  32.282  1.00  0.00     0.023 A 
ATOM     78  C   UNL A   1      35.569  35.317  32.487  1.00  0.00     0.031 A 
ATOM     79  C   UNL A   1      35.627  33.108  31.530  1.00  0.00     0.131 A 
ATOM     80  C   UNL A   1      34.267  35.470  31.986  1.00  0.00     0.055 A 
ATOM     81  C   UNL A   1      34.351  33.282  30.992  1.00  0.00     0.041 A 
ATOM     82  F   UNL A   1      36.248  31.940  31.298  1.00  0.00    -0.206 F 
ATOM     83  C   UNL A   1      33.658  34.466  31.229  1.00  0.00     0.022 A 
BRANCH  80  84
ATOM     84  S   UNL A   1      33.348  36.977  32.403  1.00  0.00     0.124 S 
ATOM     85  O   UNL A   1      33.531  37.779  31.198  1.00  0.00    -0.237 OA
ATOM     86  O   UNL A   1      32.004  36.458  32.630  1.00  0.00    -0.237 OA
ATOM     87  O   UNL A   1      34.032  37.474  33.594  1.00  0.00    -0.744 OA
ENDBRANCH  80  84
ENDBRANCH  53  77
BRANCH  65  88
ATOM     88  C   UNL A   1      38.610  33.559  38.825  1.00  0.00     0.023 A 
ATOM     89  C   UNL A   1      37.679  32.619  39.298  1.00  0.00     0.031 A 
ATOM     90  C   UNL A   1      38.888  34.679  39.628  1.00  0.00     0.131 A 
ATOM     91  C   UNL A   1      37.018  32.843  40.515  1.00  0.00     0.055 A 
ATOM     92  C   UNL A   1      38.271  34.866  40.866  1.00  0.00     0.041 A 
ATOM     93  F   UNL A   1      39.767  35.609  39.224  1.00  0.00    -0.206 F 
ATOM     94  C   UNL A   1      37.319  33.953  41.310  1.00  0.00     0.022 A 
BRANCH  91  95
ATOM     95  S   UNL A   1      35.687  31.712  41.005  1.00  0.00     0.124 S 
ATOM     96  O   UNL A   1      35.421  30.999  39.760  1.00  0.00    -0.237 OA
ATOM     97  O   UNL A   1      36.315  30.932  42.065  1.00  0.00    -0.237 OA
ATOM     98  O   UNL A   1      34.619  32.608  41.445  1.00  0.00    -0.744 OA
ENDBRANCH  91  95
ENDBRANCH  65  88
ENDBRANCH  39  40
ENDBRANCH  31  34
ENDBRANCH  29  30
ENDBRANCH   1  29
TORSDOF 18
ENDMDL
