MODEL 1
REMARK VINA RESULT:     -11.0      0.000      0.000
REMARK SMILES C[NH2+][C@@]1(C(=O)NCCCNC(=O)c2ccc(-c3c4nc(c(-c5cc(S(=O)(=O)[O-])ccc5F)c5ccc([nH]5)c(-c5cc(S(=O)(=O)[O-])ccc5F)c5nc(c(-c6cc(S(=O)(=O)[O-])ccc6F)c6ccc3[nH]6)C=C5)C=C4)cc2)CC[C@H](SC(C)C)C1
REMARK SMILES IDX 8 1 7 2 6 3 4 4 5 5 3 7 76 8 83 9 77 10 78 11 2 12 1 13
REMARK SMILES IDX 79 16 80 17 81 18 82 19 9 20 10 21 11 22 12 24 13 25 14 26
REMARK SMILES IDX 75 27 15 28 74 29 16 30 17 31 18 32 68 33 19 34 73 35 67 36
REMARK SMILES IDX 69 37 20 38 72 39 66 40 65 41 21 43 53 44 33 45 52 46 34 47
REMARK SMILES IDX 37 48 51 49 70 50 35 51 36 52 50 54 71 55 38 56 22 57 23 58
REMARK SMILES IDX 31 59 24 60 30 61 32 62 29 63 25 64 26 65 27 66 28 67 54 68
REMARK SMILES IDX 55 69 63 70 56 71 62 72 64 73 61 74 57 75 58 76 59 77 60 78
REMARK SMILES IDX 39 79 40 80 48 81 41 82 47 83 49 84 46 85 42 86 43 87 44 88
REMARK SMILES IDX 45 89
REMARK H PARENT 6 6 2 14 2 15 10 23 69 42 37 53
REMARK Flexibility Score: inf
ROOT
ATOM      1  C   UNL A   1      31.934  27.947  26.464  1.00  0.00     0.042 C 
ENDROOT
BRANCH   1   2
ATOM      2  C   UNL A   1      31.560  26.694  25.694  1.00  0.00     0.118 C 
BRANCH   2   3
ATOM      3  N   UNL A   1      30.999  25.637  26.499  1.00  0.00    -0.351 N 
ATOM      4  C   UNL A   1      31.114  24.288  26.414  1.00  0.00     0.281 C 
ATOM      5  O   UNL A   1      30.833  23.688  27.465  1.00  0.00    -0.268 OA
ATOM      6  H   UNL A   1      30.431  25.950  27.240  1.00  0.00     0.163 HD
BRANCH   4   7
ATOM      7  C   UNL A   1      31.605  23.465  25.143  1.00  0.00     0.176 C 
ATOM      8  C   UNL A   1      31.510  21.950  25.382  1.00  0.00     0.080 C 
ATOM      9  C   UNL A   1      33.049  23.677  24.664  1.00  0.00     0.093 C 
ATOM     10  C   UNL A   1      32.923  21.453  25.693  1.00  0.00     0.022 C 
ATOM     11  C   UNL A   1      33.880  22.399  24.966  1.00  0.00     0.054 C 
BRANCH   7  12
ATOM     12  N   UNL A   1      30.638  23.786  24.035  1.00  0.00    -0.336 N 
ATOM     13  C   UNL A   1      31.254  24.428  22.870  1.00  0.00     0.331 C 
ATOM     14  H   UNL A   1      30.201  22.916  23.729  1.00  0.00     0.346 HD
ATOM     15  H   UNL A   1      29.966  24.452  24.416  1.00  0.00     0.346 HD
ENDBRANCH   7  12
BRANCH  11  16
ATOM     16  S   UNL A   1      35.480  23.025  25.636  1.00  0.00    -0.155 SA
BRANCH  16  17
ATOM     17  C   UNL A   1      36.886  22.521  24.575  1.00  0.00     0.040 C 
ATOM     18  C   UNL A   1      37.414  21.102  24.663  1.00  0.00     0.019 C 
ATOM     19  C   UNL A   1      36.632  22.940  23.134  1.00  0.00     0.019 C 
ENDBRANCH  16  17
ENDBRANCH  11  16
ENDBRANCH   4   7
ENDBRANCH   2   3
ENDBRANCH   1   2
BRANCH   1  20
ATOM     20  C   UNL A   1      32.849  28.872  25.681  1.00  0.00     0.118 C 
BRANCH  20  21
ATOM     21  N   UNL A   1      32.567  30.279  25.951  1.00  0.00    -0.352 N 
ATOM     22  C   UNL A   1      33.076  31.169  26.868  1.00  0.00     0.251 C 
ATOM     23  H   UNL A   1      31.878  30.665  25.362  1.00  0.00     0.163 HD
ATOM     24  O   UNL A   1      32.456  32.215  27.058  1.00  0.00    -0.269 OA
BRANCH  22  25
ATOM     25  C   UNL A   1      34.317  30.901  27.637  1.00  0.00     0.039 A 
ATOM     26  C   UNL A   1      35.196  31.960  27.901  1.00  0.00     0.014 A 
ATOM     27  C   UNL A   1      34.677  29.616  28.036  1.00  0.00     0.014 A 
ATOM     28  C   UNL A   1      36.388  31.734  28.602  1.00  0.00     0.010 A 
ATOM     29  C   UNL A   1      35.793  29.412  28.844  1.00  0.00     0.010 A 
ATOM     30  C   UNL A   1      36.682  30.461  29.115  1.00  0.00    -0.014 A 
BRANCH  30  31
ATOM     31  C   UNL A   1      37.926  30.175  29.882  1.00  0.00     0.031 A 
ATOM     32  C   UNL A   1      38.963  29.238  29.309  1.00  0.00     0.074 A 
ATOM     33  C   UNL A   1      38.089  30.679  31.122  1.00  0.00     0.049 A 
ATOM     34  N   UNL A   1      40.029  28.729  29.872  1.00  0.00    -0.248 NA
ATOM     35  C   UNL A   1      38.740  28.774  27.930  1.00  0.00     0.031 C 
ATOM     36  C   UNL A   1      37.144  31.562  31.808  1.00  0.00     0.029 A 
ATOM     37  N   UNL A   1      39.101  30.510  32.034  1.00  0.00    -0.354 N 
ATOM     38  C   UNL A   1      40.575  27.856  28.935  1.00  0.00     0.074 A 
ATOM     39  C   UNL A   1      39.683  27.855  27.797  1.00  0.00     0.031 C 
ATOM     40  C   UNL A   1      37.634  31.880  33.016  1.00  0.00     0.029 A 
ATOM     41  C   UNL A   1      38.899  31.182  33.217  1.00  0.00     0.049 A 
ATOM     42  H   UNL A   1      39.898  29.959  31.857  1.00  0.00     0.167 HD
ATOM     43  C   UNL A   1      41.727  27.142  29.005  1.00  0.00     0.034 A 
ATOM     44  C   UNL A   1      39.639  31.218  34.343  1.00  0.00     0.034 A 
ATOM     45  C   UNL A   1      42.629  27.191  30.130  1.00  0.00     0.049 A 
ATOM     46  C   UNL A   1      40.919  30.422  34.398  1.00  0.00     0.074 A 
ATOM     47  C   UNL A   1      43.857  26.572  30.279  1.00  0.00     0.029 A 
ATOM     48  N   UNL A   1      42.400  27.905  31.300  1.00  0.00    -0.354 N 
ATOM     49  N   UNL A   1      41.442  29.633  33.487  1.00  0.00    -0.248 NA
ATOM     50  C   UNL A   1      41.712  30.529  35.630  1.00  0.00     0.031 C 
ATOM     51  C   UNL A   1      44.340  26.858  31.561  1.00  0.00     0.029 A 
ATOM     52  C   UNL A   1      43.451  27.718  32.185  1.00  0.00     0.049 A 
ATOM     53  H   UNL A   1      41.606  28.460  31.476  1.00  0.00     0.167 HD
ATOM     54  C   UNL A   1      42.643  29.177  34.025  1.00  0.00     0.074 A 
ATOM     55  C   UNL A   1      42.770  29.790  35.332  1.00  0.00     0.031 C 
ATOM     56  C   UNL A   1      43.559  28.332  33.488  1.00  0.00     0.034 A 
BRANCH  43  57
ATOM     57  C   UNL A   1      42.060  26.237  27.839  1.00  0.00     0.023 A 
ATOM     58  C   UNL A   1      41.551  24.928  27.749  1.00  0.00     0.031 A 
ATOM     59  C   UNL A   1      42.929  26.671  26.823  1.00  0.00     0.131 A 
ATOM     60  C   UNL A   1      41.987  24.074  26.724  1.00  0.00     0.055 A 
ATOM     61  C   UNL A   1      43.287  25.846  25.754  1.00  0.00     0.041 A 
ATOM     62  F   UNL A   1      43.465  27.902  26.860  1.00  0.00    -0.206 F 
ATOM     63  C   UNL A   1      42.830  24.532  25.711  1.00  0.00     0.022 A 
BRANCH  60  64
ATOM     64  S   UNL A   1      41.567  22.313  26.832  1.00  0.00     0.124 S 
ATOM     65  O   UNL A   1      40.140  22.370  27.140  1.00  0.00    -0.237 OA
ATOM     66  O   UNL A   1      41.915  21.823  25.505  1.00  0.00    -0.237 OA
ATOM     67  O   UNL A   1      42.411  21.825  27.922  1.00  0.00    -0.744 OA
ENDBRANCH  60  64
ENDBRANCH  43  57
BRANCH  44  68
ATOM     68  C   UNL A   1      39.197  32.029  35.513  1.00  0.00     0.023 A 
ATOM     69  C   UNL A   1      38.519  31.432  36.588  1.00  0.00     0.031 A 
ATOM     70  C   UNL A   1      39.415  33.417  35.561  1.00  0.00     0.131 A 
ATOM     71  C   UNL A   1      38.043  32.225  37.643  1.00  0.00     0.055 A 
ATOM     72  C   UNL A   1      38.986  34.194  36.639  1.00  0.00     0.041 A 
ATOM     73  F   UNL A   1      40.064  34.038  34.564  1.00  0.00    -0.206 F 
ATOM     74  C   UNL A   1      38.283  33.600  37.683  1.00  0.00     0.022 A 
BRANCH  71  75
ATOM     75  S   UNL A   1      37.031  31.441  38.928  1.00  0.00     0.124 S 
ATOM     76  O   UNL A   1      36.919  30.076  38.427  1.00  0.00    -0.237 OA
ATOM     77  O   UNL A   1      37.858  31.623  40.117  1.00  0.00    -0.237 OA
ATOM     78  O   UNL A   1      35.793  32.218  38.908  1.00  0.00    -0.744 OA
ENDBRANCH  71  75
ENDBRANCH  44  68
BRANCH  56  79
ATOM     79  C   UNL A   1      44.804  28.067  34.299  1.00  0.00     0.023 A 
ATOM     80  C   UNL A   1      44.892  26.984  35.190  1.00  0.00     0.031 A 
ATOM     81  C   UNL A   1      45.917  28.921  34.181  1.00  0.00     0.131 A 
ATOM     82  C   UNL A   1      46.046  26.815  35.971  1.00  0.00     0.055 A 
ATOM     83  C   UNL A   1      47.084  28.711  34.915  1.00  0.00     0.041 A 
ATOM     84  F   UNL A   1      45.886  29.971  33.346  1.00  0.00    -0.206 F 
ATOM     85  C   UNL A   1      47.148  27.661  35.827  1.00  0.00     0.022 A 
BRANCH  82  86
ATOM     86  S   UNL A   1      46.050  25.527  37.249  1.00  0.00     0.124 S 
ATOM     87  O   UNL A   1      46.084  26.316  38.476  1.00  0.00    -0.237 OA
ATOM     88  O   UNL A   1      44.803  24.818  36.981  1.00  0.00    -0.237 OA
ATOM     89  O   UNL A   1      47.266  24.768  36.964  1.00  0.00    -0.744 OA
ENDBRANCH  82  86
ENDBRANCH  56  79
ENDBRANCH  30  31
ENDBRANCH  22  25
ENDBRANCH  20  21
ENDBRANCH   1  20
TORSDOF 16
ENDMDL
MODEL 2
REMARK VINA RESULT:     -10.6      1.608      7.918
REMARK SMILES C[NH2+][C@@]1(C(=O)NCCCNC(=O)c2ccc(-c3c4nc(c(-c5cc(S(=O)(=O)[O-])ccc5F)c5ccc([nH]5)c(-c5cc(S(=O)(=O)[O-])ccc5F)c5nc(c(-c6cc(S(=O)(=O)[O-])ccc6F)c6ccc3[nH]6)C=C5)C=C4)cc2)CC[C@H](SC(C)C)C1
REMARK SMILES IDX 8 1 7 2 6 3 4 4 5 5 3 7 76 8 83 9 77 10 78 11 2 12 1 13
REMARK SMILES IDX 79 16 80 17 81 18 82 19 9 20 10 21 11 22 12 24 13 25 14 26
REMARK SMILES IDX 75 27 15 28 74 29 16 30 17 31 18 32 68 33 19 34 73 35 67 36
REMARK SMILES IDX 69 37 20 38 72 39 66 40 65 41 21 43 53 44 33 45 52 46 34 47
REMARK SMILES IDX 37 48 51 49 70 50 35 51 36 52 50 54 71 55 38 56 22 57 23 58
REMARK SMILES IDX 31 59 24 60 30 61 32 62 29 63 25 64 26 65 27 66 28 67 54 68
REMARK SMILES IDX 55 69 63 70 56 71 62 72 64 73 61 74 57 75 58 76 59 77 60 78
REMARK SMILES IDX 39 79 40 80 48 81 41 82 47 83 49 84 46 85 42 86 43 87 44 88
REMARK SMILES IDX 45 89
REMARK H PARENT 6 6 2 14 2 15 10 23 69 42 37 53
REMARK Flexibility Score: inf
ROOT
ATOM      1  C   UNL A   1      31.691  28.807  26.521  1.00  0.00     0.042 C 
ENDROOT
BRANCH   1   2
ATOM      2  C   UNL A   1      32.179  27.401  26.811  1.00  0.00     0.118 C 
BRANCH   2   3
ATOM      3  N   UNL A   1      31.138  26.405  26.887  1.00  0.00    -0.351 N 
ATOM      4  C   UNL A   1      30.888  25.311  26.124  1.00  0.00     0.281 C 
ATOM      5  O   UNL A   1      30.163  24.465  26.674  1.00  0.00    -0.268 OA
ATOM      6  H   UNL A   1      30.496  26.544  27.620  1.00  0.00     0.163 HD
BRANCH   4   7
ATOM      7  C   UNL A   1      31.466  25.028  24.668  1.00  0.00     0.176 C 
ATOM      8  C   UNL A   1      30.815  23.787  24.036  1.00  0.00     0.080 C 
ATOM      9  C   UNL A   1      32.974  24.768  24.532  1.00  0.00     0.093 C 
ATOM     10  C   UNL A   1      31.814  22.636  24.171  1.00  0.00     0.022 C 
ATOM     11  C   UNL A   1      33.204  23.273  24.176  1.00  0.00     0.054 C 
BRANCH   7  12
ATOM     12  N   UNL A   1      31.062  26.203  23.819  1.00  0.00    -0.336 N 
ATOM     13  C   UNL A   1      31.438  26.079  22.408  1.00  0.00     0.331 C 
ATOM     14  H   UNL A   1      30.048  26.304  23.873  1.00  0.00     0.346 HD
ATOM     15  H   UNL A   1      31.559  27.015  24.185  1.00  0.00     0.346 HD
ENDBRANCH   7  12
BRANCH  11  16
ATOM     16  S   UNL A   1      34.618  22.749  25.238  1.00  0.00    -0.155 SA
BRANCH  16  17
ATOM     17  C   UNL A   1      36.177  23.556  24.714  1.00  0.00     0.040 C 
ATOM     18  C   UNL A   1      37.313  23.698  25.709  1.00  0.00     0.019 C 
ATOM     19  C   UNL A   1      36.653  22.967  23.394  1.00  0.00     0.019 C 
ENDBRANCH  16  17
ENDBRANCH  11  16
ENDBRANCH   4   7
ENDBRANCH   2   3
ENDBRANCH   1   2
BRANCH   1  20
ATOM     20  C   UNL A   1      32.697  29.635  25.741  1.00  0.00     0.118 C 
BRANCH  20  21
ATOM     21  N   UNL A   1      32.640  31.049  26.101  1.00  0.00    -0.352 N 
ATOM     22  C   UNL A   1      33.282  31.788  27.068  1.00  0.00     0.251 C 
ATOM     23  H   UNL A   1      32.021  31.575  25.544  1.00  0.00     0.163 HD
ATOM     24  O   UNL A   1      32.834  32.905  27.329  1.00  0.00    -0.269 OA
BRANCH  22  25
ATOM     25  C   UNL A   1      34.465  31.280  27.808  1.00  0.00     0.039 A 
ATOM     26  C   UNL A   1      35.562  32.129  28.002  1.00  0.00     0.014 A 
ATOM     27  C   UNL A   1      34.553  29.960  28.245  1.00  0.00     0.014 A 
ATOM     28  C   UNL A   1      36.704  31.671  28.673  1.00  0.00     0.010 A 
ATOM     29  C   UNL A   1      35.628  29.544  29.025  1.00  0.00     0.010 A 
ATOM     30  C   UNL A   1      36.734  30.382  29.226  1.00  0.00    -0.014 A 
BRANCH  30  31
ATOM     31  C   UNL A   1      37.916  29.855  29.965  1.00  0.00     0.031 A 
ATOM     32  C   UNL A   1      38.200  30.337  31.368  1.00  0.00     0.074 A 
ATOM     33  C   UNL A   1      38.779  29.018  29.354  1.00  0.00     0.049 A 
ATOM     34  N   UNL A   1      39.251  30.135  32.121  1.00  0.00    -0.248 NA
ATOM     35  C   UNL A   1      37.184  31.205  31.984  1.00  0.00     0.031 C 
ATOM     36  C   UNL A   1      38.642  28.510  27.987  1.00  0.00     0.029 A 
ATOM     37  N   UNL A   1      39.951  28.458  29.797  1.00  0.00    -0.354 N 
ATOM     38  C   UNL A   1      39.041  30.884  33.277  1.00  0.00     0.074 A 
ATOM     39  C   UNL A   1      37.795  31.595  33.090  1.00  0.00     0.031 C 
ATOM     40  C   UNL A   1      39.670  27.691  27.717  1.00  0.00     0.029 A 
ATOM     41  C   UNL A   1      40.570  27.659  28.864  1.00  0.00     0.049 A 
ATOM     42  H   UNL A   1      40.314  28.614  30.699  1.00  0.00     0.167 HD
ATOM     43  C   UNL A   1      39.800  30.950  34.399  1.00  0.00     0.034 A 
ATOM     44  C   UNL A   1      41.739  26.989  28.920  1.00  0.00     0.034 A 
ATOM     45  C   UNL A   1      41.017  30.197  34.585  1.00  0.00     0.049 A 
ATOM     46  C   UNL A   1      42.565  27.071  30.179  1.00  0.00     0.074 A 
ATOM     47  C   UNL A   1      41.826  30.128  35.705  1.00  0.00     0.029 A 
ATOM     48  N   UNL A   1      41.598  29.379  33.624  1.00  0.00    -0.354 N 
ATOM     49  N   UNL A   1      42.331  27.752  31.279  1.00  0.00    -0.248 NA
ATOM     50  C   UNL A   1      43.808  26.289  30.207  1.00  0.00     0.031 C 
ATOM     51  C   UNL A   1      42.928  29.320  35.401  1.00  0.00     0.029 A 
ATOM     52  C   UNL A   1      42.768  28.822  34.117  1.00  0.00     0.049 A 
ATOM     53  H   UNL A   1      41.232  29.218  32.724  1.00  0.00     0.167 HD
ATOM     54  C   UNL A   1      43.383  27.451  32.141  1.00  0.00     0.074 A 
ATOM     55  C   UNL A   1      44.241  26.519  31.437  1.00  0.00     0.031 C 
ATOM     56  C   UNL A   1      43.617  27.900  33.400  1.00  0.00     0.034 A 
BRANCH  43  57
ATOM     57  C   UNL A   1      39.343  31.885  35.498  1.00  0.00     0.023 A 
ATOM     58  C   UNL A   1      39.779  33.221  35.564  1.00  0.00     0.031 A 
ATOM     59  C   UNL A   1      38.490  31.425  36.516  1.00  0.00     0.131 A 
ATOM     60  C   UNL A   1      39.440  34.016  36.669  1.00  0.00     0.055 A 
ATOM     61  C   UNL A   1      38.080  32.251  37.566  1.00  0.00     0.041 A 
ATOM     62  F   UNL A   1      38.053  30.155  36.522  1.00  0.00    -0.206 F 
ATOM     63  C   UNL A   1      38.572  33.550  37.657  1.00  0.00     0.022 A 
BRANCH  60  64
ATOM     64  S   UNL A   1      40.285  35.608  36.878  1.00  0.00     0.124 S 
ATOM     65  O   UNL A   1      39.953  35.938  38.261  1.00  0.00    -0.237 OA
ATOM     66  O   UNL A   1      41.676  35.263  36.619  1.00  0.00    -0.237 OA
ATOM     67  O   UNL A   1      39.654  36.465  35.874  1.00  0.00    -0.744 OA
ENDBRANCH  60  64
ENDBRANCH  43  57
BRANCH  44  68
ATOM     68  C   UNL A   1      42.205  26.184  27.756  1.00  0.00     0.023 A 
ATOM     69  C   UNL A   1      41.821  24.841  27.609  1.00  0.00     0.031 A 
ATOM     70  C   UNL A   1      43.066  26.732  26.788  1.00  0.00     0.131 A 
ATOM     71  C   UNL A   1      42.332  24.078  26.548  1.00  0.00     0.055 A 
ATOM     72  C   UNL A   1      43.530  25.984  25.705  1.00  0.00     0.041 A 
ATOM     73  F   UNL A   1      43.459  28.012  26.876  1.00  0.00    -0.206 F 
ATOM     74  C   UNL A   1      43.173  24.643  25.588  1.00  0.00     0.022 A 
BRANCH  71  75
ATOM     75  S   UNL A   1      41.943  22.308  26.487  1.00  0.00     0.124 S 
ATOM     76  O   UNL A   1      42.748  21.865  25.354  1.00  0.00    -0.237 OA
ATOM     77  O   UNL A   1      42.384  21.856  27.803  1.00  0.00    -0.237 OA
ATOM     78  O   UNL A   1      40.497  22.283  26.275  1.00  0.00    -0.744 OA
ENDBRANCH  71  75
ENDBRANCH  44  68
BRANCH  56  79
ATOM     79  C   UNL A   1      44.825  27.344  34.112  1.00  0.00     0.023 A 
ATOM     80  C   UNL A   1      44.757  26.172  34.885  1.00  0.00     0.031 A 
ATOM     81  C   UNL A   1      46.064  28.005  34.019  1.00  0.00     0.131 A 
ATOM     82  C   UNL A   1      45.891  25.728  35.582  1.00  0.00     0.055 A 
ATOM     83  C   UNL A   1      47.203  27.524  34.664  1.00  0.00     0.041 A 
ATOM     84  F   UNL A   1      46.186  29.129  33.295  1.00  0.00    -0.206 F 
ATOM     85  C   UNL A   1      47.118  26.386  35.462  1.00  0.00     0.022 A 
BRANCH  82  86
ATOM     86  S   UNL A   1      45.718  24.329  36.723  1.00  0.00     0.124 S 
ATOM     87  O   UNL A   1      46.994  24.355  37.431  1.00  0.00    -0.237 OA
ATOM     88  O   UNL A   1      44.546  24.706  37.505  1.00  0.00    -0.237 OA
ATOM     89  O   UNL A   1      45.526  23.184  35.833  1.00  0.00    -0.744 OA
ENDBRANCH  82  86
ENDBRANCH  56  79
ENDBRANCH  30  31
ENDBRANCH  22  25
ENDBRANCH  20  21
ENDBRANCH   1  20
TORSDOF 16
ENDMDL
MODEL 3
REMARK VINA RESULT:     -10.5      3.913     10.346
REMARK SMILES C[NH2+][C@@]1(C(=O)NCCCNC(=O)c2ccc(-c3c4nc(c(-c5cc(S(=O)(=O)[O-])ccc5F)c5ccc([nH]5)c(-c5cc(S(=O)(=O)[O-])ccc5F)c5nc(c(-c6cc(S(=O)(=O)[O-])ccc6F)c6ccc3[nH]6)C=C5)C=C4)cc2)CC[C@H](SC(C)C)C1
REMARK SMILES IDX 8 1 7 2 6 3 4 4 5 5 3 7 76 8 83 9 77 10 78 11 2 12 1 13
REMARK SMILES IDX 79 16 80 17 81 18 82 19 9 20 10 21 11 22 12 24 13 25 14 26
REMARK SMILES IDX 75 27 15 28 74 29 16 30 17 31 18 32 68 33 19 34 73 35 67 36
REMARK SMILES IDX 69 37 20 38 72 39 66 40 65 41 21 43 53 44 33 45 52 46 34 47
REMARK SMILES IDX 37 48 51 49 70 50 35 51 36 52 50 54 71 55 38 56 22 57 23 58
REMARK SMILES IDX 31 59 24 60 30 61 32 62 29 63 25 64 26 65 27 66 28 67 54 68
REMARK SMILES IDX 55 69 63 70 56 71 62 72 64 73 61 74 57 75 58 76 59 77 60 78
REMARK SMILES IDX 39 79 40 80 48 81 41 82 47 83 49 84 46 85 42 86 43 87 44 88
REMARK SMILES IDX 45 89
REMARK H PARENT 6 6 2 14 2 15 10 23 69 42 37 53
REMARK Flexibility Score: inf
ROOT
ATOM      1  C   UNL A   1      35.678  33.630  28.588  1.00  0.00     0.042 C 
ENDROOT
BRANCH   1   2
ATOM      2  C   UNL A   1      36.671  33.793  29.723  1.00  0.00     0.118 C 
BRANCH   2   3
ATOM      3  N   UNL A   1      36.630  32.747  30.714  1.00  0.00    -0.351 N 
ATOM      4  C   UNL A   1      36.540  32.798  32.067  1.00  0.00     0.281 C 
ATOM      5  O   UNL A   1      36.144  31.742  32.589  1.00  0.00    -0.268 OA
ATOM      6  H   UNL A   1      36.677  31.836  30.345  1.00  0.00     0.163 HD
BRANCH   4   7
ATOM      7  C   UNL A   1      36.843  34.064  32.983  1.00  0.00     0.176 C 
ATOM      8  C   UNL A   1      38.298  34.536  32.828  1.00  0.00     0.080 C 
ATOM      9  C   UNL A   1      36.658  33.914  34.500  1.00  0.00     0.093 C 
ATOM     10  C   UNL A   1      39.067  34.028  34.048  1.00  0.00     0.022 C 
ATOM     11  C   UNL A   1      38.052  33.934  35.188  1.00  0.00     0.054 C 
BRANCH   7  12
ATOM     12  N   UNL A   1      35.973  35.177  32.461  1.00  0.00    -0.336 N 
ATOM     13  C   UNL A   1      34.626  35.204  33.037  1.00  0.00     0.331 C 
ATOM     14  H   UNL A   1      36.429  36.066  32.671  1.00  0.00     0.346 HD
ATOM     15  H   UNL A   1      35.862  35.018  31.460  1.00  0.00     0.346 HD
ENDBRANCH   7  12
BRANCH  11  16
ATOM     16  S   UNL A   1      37.975  32.585  36.444  1.00  0.00    -0.155 SA
BRANCH  16  17
ATOM     17  C   UNL A   1      38.408  33.207  38.112  1.00  0.00     0.040 C 
ATOM     18  C   UNL A   1      38.907  34.631  38.270  1.00  0.00     0.019 C 
ATOM     19  C   UNL A   1      37.293  32.888  39.097  1.00  0.00     0.019 C 
ENDBRANCH  16  17
ENDBRANCH  11  16
ENDBRANCH   4   7
ENDBRANCH   2   3
ENDBRANCH   1   2
BRANCH   1  20
ATOM     20  C   UNL A   1      34.347  33.059  29.042  1.00  0.00     0.118 C 
BRANCH  20  21
ATOM     21  N   UNL A   1      33.850  32.033  28.129  1.00  0.00    -0.352 N 
ATOM     22  C   UNL A   1      34.426  30.898  27.606  1.00  0.00     0.251 C 
ATOM     23  H   UNL A   1      32.924  32.182  27.830  1.00  0.00     0.163 HD
ATOM     24  O   UNL A   1      33.875  30.367  26.642  1.00  0.00    -0.269 OA
BRANCH  22  25
ATOM     25  C   UNL A   1      35.682  30.318  28.146  1.00  0.00     0.039 A 
ATOM     26  C   UNL A   1      36.854  30.403  27.383  1.00  0.00     0.014 A 
ATOM     27  C   UNL A   1      35.715  29.618  29.351  1.00  0.00     0.014 A 
ATOM     28  C   UNL A   1      38.048  29.841  27.854  1.00  0.00     0.010 A 
ATOM     29  C   UNL A   1      36.925  29.176  29.878  1.00  0.00     0.010 A 
ATOM     30  C   UNL A   1      38.105  29.254  29.127  1.00  0.00    -0.014 A 
BRANCH  30  31
ATOM     31  C   UNL A   1      39.355  28.660  29.679  1.00  0.00     0.031 A 
ATOM     32  C   UNL A   1      39.981  29.249  30.921  1.00  0.00     0.074 A 
ATOM     33  C   UNL A   1      39.976  27.657  29.026  1.00  0.00     0.049 A 
ATOM     34  N   UNL A   1      41.141  28.995  31.471  1.00  0.00    -0.248 NA
ATOM     35  C   UNL A   1      39.217  30.304  31.606  1.00  0.00     0.031 C 
ATOM     36  C   UNL A   1      39.498  27.026  27.794  1.00  0.00     0.029 A 
ATOM     37  N   UNL A   1      41.149  27.000  29.298  1.00  0.00    -0.354 N 
ATOM     38  C   UNL A   1      41.262  29.885  32.536  1.00  0.00     0.074 A 
ATOM     39  C   UNL A   1      40.087  30.728  32.507  1.00  0.00     0.031 C 
ATOM     40  C   UNL A   1      40.354  26.056  27.435  1.00  0.00     0.029 A 
ATOM     41  C   UNL A   1      41.469  26.030  28.375  1.00  0.00     0.049 A 
ATOM     42  H   UNL A   1      41.711  27.203  30.082  1.00  0.00     0.167 HD
ATOM     43  C   UNL A   1      42.245  29.973  33.466  1.00  0.00     0.034 A 
ATOM     44  C   UNL A   1      42.545  25.224  28.286  1.00  0.00     0.034 A 
ATOM     45  C   UNL A   1      43.387  29.092  33.505  1.00  0.00     0.049 A 
ATOM     46  C   UNL A   1      43.624  25.334  29.334  1.00  0.00     0.074 A 
ATOM     47  C   UNL A   1      44.405  29.039  34.441  1.00  0.00     0.029 A 
ATOM     48  N   UNL A   1      43.661  28.105  32.565  1.00  0.00    -0.354 N 
ATOM     49  N   UNL A   1      43.703  26.153  30.358  1.00  0.00    -0.248 NA
ATOM     50  C   UNL A   1      44.755  24.403  29.218  1.00  0.00     0.031 C 
ATOM     51  C   UNL A   1      45.325  28.066  34.034  1.00  0.00     0.029 A 
ATOM     52  C   UNL A   1      44.845  27.458  32.886  1.00  0.00     0.049 A 
ATOM     53  H   UNL A   1      43.098  27.897  31.785  1.00  0.00     0.167 HD
ATOM     54  C   UNL A   1      44.876  25.813  31.026  1.00  0.00     0.074 A 
ATOM     55  C   UNL A   1      45.463  24.707  30.296  1.00  0.00     0.031 C 
ATOM     56  C   UNL A   1      45.419  26.361  32.143  1.00  0.00     0.034 A 
BRANCH  43  57
ATOM     57  C   UNL A   1      42.133  31.072  34.500  1.00  0.00     0.023 A 
ATOM     58  C   UNL A   1      42.530  32.393  34.223  1.00  0.00     0.031 A 
ATOM     59  C   UNL A   1      41.660  30.789  35.794  1.00  0.00     0.131 A 
ATOM     60  C   UNL A   1      42.536  33.353  35.246  1.00  0.00     0.055 A 
ATOM     61  C   UNL A   1      41.581  31.773  36.783  1.00  0.00     0.041 A 
ATOM     62  F   UNL A   1      41.284  29.544  36.128  1.00  0.00    -0.206 F 
ATOM     63  C   UNL A   1      42.039  33.061  36.516  1.00  0.00     0.022 A 
BRANCH  60  64
ATOM     64  S   UNL A   1      43.357  34.941  34.934  1.00  0.00     0.124 S 
ATOM     65  O   UNL A   1      43.513  35.462  36.290  1.00  0.00    -0.237 OA
ATOM     66  O   UNL A   1      44.583  34.535  34.259  1.00  0.00    -0.237 OA
ATOM     67  O   UNL A   1      42.396  35.667  34.104  1.00  0.00    -0.744 OA
ENDBRANCH  60  64
ENDBRANCH  43  57
BRANCH  44  68
ATOM     68  C   UNL A   1      42.665  24.244  27.170  1.00  0.00     0.023 A 
ATOM     69  C   UNL A   1      42.054  22.982  27.250  1.00  0.00     0.031 A 
ATOM     70  C   UNL A   1      43.418  24.538  26.019  1.00  0.00     0.131 A 
ATOM     71  C   UNL A   1      42.243  22.045  26.223  1.00  0.00     0.055 A 
ATOM     72  C   UNL A   1      43.559  23.622  24.976  1.00  0.00     0.041 A 
ATOM     73  F   UNL A   1      44.017  25.732  25.887  1.00  0.00    -0.206 F 
ATOM     74  C   UNL A   1      42.980  22.361  25.081  1.00  0.00     0.022 A 
BRANCH  71  75
ATOM     75  S   UNL A   1      41.574  20.373  26.441  1.00  0.00     0.124 S 
ATOM     76  O   UNL A   1      42.250  19.641  25.375  1.00  0.00    -0.237 OA
ATOM     77  O   UNL A   1      41.992  20.056  27.803  1.00  0.00    -0.237 OA
ATOM     78  O   UNL A   1      40.136  20.555  26.260  1.00  0.00    -0.744 OA
ENDBRANCH  71  75
ENDBRANCH  44  68
BRANCH  56  79
ATOM     79  C   UNL A   1      46.686  25.732  32.668  1.00  0.00     0.023 A 
ATOM     80  C   UNL A   1      46.663  24.717  33.640  1.00  0.00     0.031 A 
ATOM     81  C   UNL A   1      47.938  26.164  32.192  1.00  0.00     0.131 A 
ATOM     82  C   UNL A   1      47.868  24.207  34.146  1.00  0.00     0.055 A 
ATOM     83  C   UNL A   1      49.131  25.609  32.654  1.00  0.00     0.041 A 
ATOM     84  F   UNL A   1      48.018  27.132  31.264  1.00  0.00    -0.206 F 
ATOM     85  C   UNL A   1      49.101  24.634  33.647  1.00  0.00     0.022 A 
BRANCH  82  86
ATOM     86  S   UNL A   1      47.805  23.042  35.535  1.00  0.00     0.124 S 
ATOM     87  O   UNL A   1      48.331  23.848  36.632  1.00  0.00    -0.237 OA
ATOM     88  O   UNL A   1      46.384  22.718  35.606  1.00  0.00    -0.237 OA
ATOM     89  O   UNL A   1      48.668  21.945  35.101  1.00  0.00    -0.744 OA
ENDBRANCH  82  86
ENDBRANCH  56  79
ENDBRANCH  30  31
ENDBRANCH  22  25
ENDBRANCH  20  21
ENDBRANCH   1  20
TORSDOF 16
ENDMDL
