MODEL 1
REMARK VINA RESULT:     -12.3      0.000      0.000
REMARK SMILES CC(C)(C)CS(=O)(=O)N1Cc2nc[nH]c2C[C@H]1C(=O)NCCCNC(=O)c1ccc(-c2c3nc(c(-c4cc(S(=O)(=O)[O-])ccc4F)c4ccc([nH]4)c(-c4cc(S(=O)(=O)[O-])ccc4F)c4nc(c(-c5cc(S(=O)(=O)[O-])ccc5F)c5ccc2[nH]5)C=C4)C=C3)cc1
REMARK SMILES IDX 22 1 21 2 20 3 18 4 19 5 17 7 9 8 10 9 11 10 16 11 12 12
REMARK SMILES IDX 15 13 13 14 14 15 6 17 7 18 8 19 5 20 2 21 1 22 3 23 4 24
REMARK SMILES IDX 23 25 24 26 25 27 26 29 27 30 28 31 89 32 29 33 88 34 30 35
REMARK SMILES IDX 31 36 32 37 82 38 33 39 87 40 81 41 83 42 34 43 86 44 80 45
REMARK SMILES IDX 79 46 35 48 67 49 47 50 66 51 48 52 51 53 65 54 84 55 49 56
REMARK SMILES IDX 50 57 64 59 85 60 52 61 36 62 37 63 45 64 38 65 44 66 46 67
REMARK SMILES IDX 43 68 39 69 40 70 41 71 42 72 68 73 69 74 77 75 70 76 76 77
REMARK SMILES IDX 78 78 75 79 71 80 72 81 73 82 74 83 53 84 54 85 62 86 55 87
REMARK SMILES IDX 61 88 63 89 60 90 56 91 57 92 58 93 59 94
REMARK H PARENT 20 6 14 16 24 28 83 47 51 58
REMARK Flexibility Score: inf
ROOT
ATOM      1  C   UNL A   1      31.597  31.319  26.414  1.00  0.00     0.042 C 
ENDROOT
BRANCH   1   2
ATOM      2  C   UNL A   1      31.911  29.844  26.139  1.00  0.00     0.117 C 
BRANCH   2   3
ATOM      3  N   UNL A   1      33.143  29.530  25.432  1.00  0.00    -0.355 N 
ATOM      4  C   UNL A   1      33.445  28.741  24.361  1.00  0.00     0.238 C 
ATOM      5  O   UNL A   1      34.573  28.911  23.877  1.00  0.00    -0.273 OA
ATOM      6  H   UNL A   1      33.930  29.986  25.810  1.00  0.00     0.163 HD
BRANCH   4   7
ATOM      7  C   UNL A   1      32.505  27.705  23.727  1.00  0.00     0.168 C 
ATOM      8  N   UNL A   1      31.360  27.229  24.632  1.00  0.00    -0.183 NA
ATOM      9  C   UNL A   1      29.931  27.468  24.184  1.00  0.00     0.161 C 
ATOM     10  C   UNL A   1      29.843  28.557  23.168  1.00  0.00     0.077 A 
ATOM     11  C   UNL A   1      32.140  28.138  22.283  1.00  0.00     0.086 C 
ATOM     12  N   UNL A   1      28.866  29.516  23.088  1.00  0.00    -0.240 NA
ATOM     13  C   UNL A   1      30.847  28.836  22.279  1.00  0.00     0.041 A 
ATOM     14  C   UNL A   1      29.297  30.379  22.189  1.00  0.00     0.197 A 
ATOM     15  N   UNL A   1      30.479  29.973  21.620  1.00  0.00    -0.348 N 
ATOM     16  H   UNL A   1      30.964  30.413  20.885  1.00  0.00     0.167 HD
BRANCH   8  17
ATOM     17  S   UNL A   1      31.570  25.757  25.475  1.00  0.00     0.215 S 
ATOM     18  O   UNL A   1      31.020  24.681  24.687  1.00  0.00    -0.212 OA
ATOM     19  O   UNL A   1      31.034  25.977  26.811  1.00  0.00    -0.212 OA
BRANCH  17  20
ATOM     20  C   UNL A   1      33.348  25.481  25.737  1.00  0.00     0.160 C 
BRANCH  20  21
ATOM     21  C   UNL A   1      34.105  24.331  25.030  1.00  0.00    -0.023 C 
ATOM     22  C   UNL A   1      34.100  24.450  23.500  1.00  0.00     0.012 C 
ATOM     23  C   UNL A   1      33.454  22.976  25.393  1.00  0.00     0.012 C 
ATOM     24  C   UNL A   1      35.524  24.239  25.570  1.00  0.00     0.012 C 
ENDBRANCH  20  21
ENDBRANCH  17  20
ENDBRANCH   8  17
ENDBRANCH   4   7
ENDBRANCH   2   3
ENDBRANCH   1   2
BRANCH   1  25
ATOM     25  C   UNL A   1      32.722  32.000  27.155  1.00  0.00     0.118 C 
BRANCH  25  26
ATOM     26  N   UNL A   1      32.447  33.417  27.447  1.00  0.00    -0.352 N 
ATOM     27  C   UNL A   1      33.044  34.247  28.398  1.00  0.00     0.251 C 
ATOM     28  H   UNL A   1      31.747  33.838  26.897  1.00  0.00     0.163 HD
ATOM     29  O   UNL A   1      32.527  35.297  28.721  1.00  0.00    -0.269 OA
BRANCH  27  30
ATOM     30  C   UNL A   1      34.315  33.789  29.001  1.00  0.00     0.039 A 
ATOM     31  C   UNL A   1      34.403  32.931  30.097  1.00  0.00     0.014 A 
ATOM     32  C   UNL A   1      35.458  34.157  28.320  1.00  0.00     0.014 A 
ATOM     33  C   UNL A   1      35.666  32.437  30.433  1.00  0.00     0.010 A 
ATOM     34  C   UNL A   1      36.519  33.320  28.359  1.00  0.00     0.010 A 
ATOM     35  C   UNL A   1      36.727  32.646  29.538  1.00  0.00    -0.014 A 
BRANCH  35  36
ATOM     36  C   UNL A   1      38.075  32.130  29.701  1.00  0.00     0.031 A 
ATOM     37  C   UNL A   1      38.212  30.735  29.241  1.00  0.00     0.074 A 
ATOM     38  C   UNL A   1      39.142  32.921  29.976  1.00  0.00     0.049 A 
ATOM     39  N   UNL A   1      38.233  29.676  29.974  1.00  0.00    -0.248 NA
ATOM     40  C   UNL A   1      38.069  30.460  27.802  1.00  0.00     0.031 C 
ATOM     41  C   UNL A   1      39.211  34.384  30.116  1.00  0.00     0.029 A 
ATOM     42  N   UNL A   1      40.448  32.567  30.107  1.00  0.00    -0.354 N 
ATOM     43  C   UNL A   1      38.412  28.622  29.092  1.00  0.00     0.074 A 
ATOM     44  C   UNL A   1      38.023  29.126  27.804  1.00  0.00     0.031 C 
ATOM     45  C   UNL A   1      40.502  34.794  30.094  1.00  0.00     0.029 A 
ATOM     46  C   UNL A   1      41.359  33.624  30.121  1.00  0.00     0.049 A 
ATOM     47  H   UNL A   1      40.733  31.628  30.187  1.00  0.00     0.167 HD
ATOM     48  C   UNL A   1      39.142  27.532  29.459  1.00  0.00     0.034 A 
ATOM     49  C   UNL A   1      42.719  33.538  30.158  1.00  0.00     0.034 A 
ATOM     50  C   UNL A   1      39.381  27.542  30.891  1.00  0.00     0.049 A 
ATOM     51  C   UNL A   1      43.030  32.182  30.686  1.00  0.00     0.074 A 
ATOM     52  C   UNL A   1      38.560  27.559  32.004  1.00  0.00     0.029 A 
ATOM     53  N   UNL A   1      40.607  27.991  31.334  1.00  0.00    -0.354 N 
ATOM     54  N   UNL A   1      42.716  31.805  31.898  1.00  0.00    -0.248 NA
ATOM     55  C   UNL A   1      43.174  31.097  29.724  1.00  0.00     0.031 C 
ATOM     56  C   UNL A   1      39.173  28.493  32.893  1.00  0.00     0.029 A 
ATOM     57  C   UNL A   1      40.385  28.908  32.335  1.00  0.00     0.049 A 
ATOM     58  H   UNL A   1      41.486  27.706  30.994  1.00  0.00     0.167 HD
ATOM     59  C   UNL A   1      42.199  30.525  31.760  1.00  0.00     0.074 A 
ATOM     60  C   UNL A   1      42.584  30.110  30.409  1.00  0.00     0.031 C 
ATOM     61  C   UNL A   1      41.256  30.038  32.623  1.00  0.00     0.034 A 
BRANCH  48  62
ATOM     62  C   UNL A   1      39.967  26.681  28.519  1.00  0.00     0.023 A 
ATOM     63  C   UNL A   1      41.091  27.294  27.935  1.00  0.00     0.031 A 
ATOM     64  C   UNL A   1      39.591  25.438  27.960  1.00  0.00     0.131 A 
ATOM     65  C   UNL A   1      41.706  26.747  26.797  1.00  0.00     0.055 A 
ATOM     66  C   UNL A   1      40.248  24.864  26.868  1.00  0.00     0.041 A 
ATOM     67  F   UNL A   1      38.523  24.746  28.367  1.00  0.00    -0.206 F 
ATOM     68  C   UNL A   1      41.290  25.535  26.256  1.00  0.00     0.022 A 
BRANCH  65  69
ATOM     69  S   UNL A   1      42.941  27.746  25.931  1.00  0.00     0.124 S 
ATOM     70  O   UNL A   1      42.294  27.956  24.639  1.00  0.00    -0.237 OA
ATOM     71  O   UNL A   1      43.043  28.914  26.799  1.00  0.00    -0.237 OA
ATOM     72  O   UNL A   1      44.118  26.880  25.905  1.00  0.00    -0.744 OA
ENDBRANCH  65  69
ENDBRANCH  48  62
BRANCH  49  73
ATOM     73  C   UNL A   1      43.704  34.385  29.417  1.00  0.00     0.023 A 
ATOM     74  C   UNL A   1      44.283  34.027  28.176  1.00  0.00     0.031 A 
ATOM     75  C   UNL A   1      43.901  35.720  29.838  1.00  0.00     0.131 A 
ATOM     76  C   UNL A   1      45.018  34.983  27.424  1.00  0.00     0.055 A 
ATOM     77  C   UNL A   1      44.619  36.659  29.090  1.00  0.00     0.041 A 
ATOM     78  F   UNL A   1      43.324  36.183  30.959  1.00  0.00    -0.206 F 
ATOM     79  C   UNL A   1      45.175  36.295  27.876  1.00  0.00     0.022 A 
BRANCH  76  80
ATOM     80  S   UNL A   1      45.738  34.555  25.799  1.00  0.00     0.124 S 
ATOM     81  O   UNL A   1      46.644  35.671  25.554  1.00  0.00    -0.237 OA
ATOM     82  O   UNL A   1      46.358  33.261  26.062  1.00  0.00    -0.237 OA
ATOM     83  O   UNL A   1      44.576  34.506  24.910  1.00  0.00    -0.744 OA
ENDBRANCH  76  80
ENDBRANCH  49  73
BRANCH  61  84
ATOM     84  C   UNL A   1      40.965  30.822  33.895  1.00  0.00     0.023 A 
ATOM     85  C   UNL A   1      39.868  31.697  34.091  1.00  0.00     0.031 A 
ATOM     86  C   UNL A   1      41.789  30.563  35.004  1.00  0.00     0.131 A 
ATOM     87  C   UNL A   1      39.640  32.275  35.359  1.00  0.00     0.055 A 
ATOM     88  C   UNL A   1      41.547  31.115  36.260  1.00  0.00     0.041 A 
ATOM     89  F   UNL A   1      42.833  29.725  34.893  1.00  0.00    -0.206 F 
ATOM     90  C   UNL A   1      40.474  31.978  36.443  1.00  0.00     0.022 A 
BRANCH  87  91
ATOM     91  S   UNL A   1      38.265  33.445  35.631  1.00  0.00     0.124 S 
ATOM     92  O   UNL A   1      37.924  33.889  34.285  1.00  0.00    -0.237 OA
ATOM     93  O   UNL A   1      37.269  32.616  36.303  1.00  0.00    -0.237 OA
ATOM     94  O   UNL A   1      38.862  34.480  36.479  1.00  0.00    -0.744 OA
ENDBRANCH  87  91
ENDBRANCH  61  84
ENDBRANCH  35  36
ENDBRANCH  27  30
ENDBRANCH  25  26
ENDBRANCH   1  25
TORSDOF 16
ENDMDL
MODEL 2
REMARK VINA RESULT:     -12.2      4.506      6.339
REMARK SMILES CC(C)(C)CS(=O)(=O)N1Cc2nc[nH]c2C[C@H]1C(=O)NCCCNC(=O)c1ccc(-c2c3nc(c(-c4cc(S(=O)(=O)[O-])ccc4F)c4ccc([nH]4)c(-c4cc(S(=O)(=O)[O-])ccc4F)c4nc(c(-c5cc(S(=O)(=O)[O-])ccc5F)c5ccc2[nH]5)C=C4)C=C3)cc1
REMARK SMILES IDX 22 1 21 2 20 3 18 4 19 5 17 7 9 8 10 9 11 10 16 11 12 12
REMARK SMILES IDX 15 13 13 14 14 15 6 17 7 18 8 19 5 20 2 21 1 22 3 23 4 24
REMARK SMILES IDX 23 25 24 26 25 27 26 29 27 30 28 31 89 32 29 33 88 34 30 35
REMARK SMILES IDX 31 36 32 37 82 38 33 39 87 40 81 41 83 42 34 43 86 44 80 45
REMARK SMILES IDX 79 46 35 48 67 49 47 50 66 51 48 52 51 53 65 54 84 55 49 56
REMARK SMILES IDX 50 57 64 59 85 60 52 61 36 62 37 63 45 64 38 65 44 66 46 67
REMARK SMILES IDX 43 68 39 69 40 70 41 71 42 72 68 73 69 74 77 75 70 76 76 77
REMARK SMILES IDX 78 78 75 79 71 80 72 81 73 82 74 83 53 84 54 85 62 86 55 87
REMARK SMILES IDX 61 88 63 89 60 90 56 91 57 92 58 93 59 94
REMARK H PARENT 20 6 14 16 24 28 83 47 51 58
REMARK Flexibility Score: inf
ROOT
ATOM      1  C   UNL A   1      34.429  30.515  27.435  1.00  0.00     0.042 C 
ENDROOT
BRANCH   1   2
ATOM      2  C   UNL A   1      33.448  29.342  27.319  1.00  0.00     0.117 C 
BRANCH   2   3
ATOM      3  N   UNL A   1      33.891  28.152  26.610  1.00  0.00    -0.355 N 
ATOM      4  C   UNL A   1      33.299  27.307  25.718  1.00  0.00     0.238 C 
ATOM      5  O   UNL A   1      34.067  26.535  25.127  1.00  0.00    -0.273 OA
ATOM      6  H   UNL A   1      34.820  27.901  26.821  1.00  0.00     0.163 HD
BRANCH   4   7
ATOM      7  C   UNL A   1      31.799  27.265  25.394  1.00  0.00     0.168 C 
ATOM      8  N   UNL A   1      31.459  26.932  23.934  1.00  0.00    -0.183 NA
ATOM      9  C   UNL A   1      30.638  25.691  23.644  1.00  0.00     0.161 C 
ATOM     10  C   UNL A   1      30.689  24.715  24.770  1.00  0.00     0.077 A 
ATOM     11  C   UNL A   1      31.042  26.482  26.499  1.00  0.00     0.086 C 
ATOM     12  N   UNL A   1      30.767  23.350  24.660  1.00  0.00    -0.240 NA
ATOM     13  C   UNL A   1      30.841  25.088  26.079  1.00  0.00     0.041 A 
ATOM     14  C   UNL A   1      31.001  22.914  25.882  1.00  0.00     0.197 A 
ATOM     15  N   UNL A   1      30.995  23.937  26.797  1.00  0.00    -0.348 N 
ATOM     16  H   UNL A   1      31.083  23.858  27.775  1.00  0.00     0.167 HD
BRANCH   8  17
ATOM     17  S   UNL A   1      31.122  28.233  22.878  1.00  0.00     0.215 S 
ATOM     18  O   UNL A   1      30.431  27.727  21.715  1.00  0.00    -0.212 OA
ATOM     19  O   UNL A   1      32.385  28.929  22.680  1.00  0.00    -0.212 OA
BRANCH  17  20
ATOM     20  C   UNL A   1      30.069  29.434  23.746  1.00  0.00     0.160 C 
BRANCH  20  21
ATOM     21  C   UNL A   1      28.981  30.247  23.003  1.00  0.00    -0.023 C 
ATOM     22  C   UNL A   1      28.610  31.556  23.712  1.00  0.00     0.012 C 
ATOM     23  C   UNL A   1      27.691  29.403  22.878  1.00  0.00     0.012 C 
ATOM     24  C   UNL A   1      29.419  30.504  21.569  1.00  0.00     0.012 C 
ENDBRANCH  20  21
ENDBRANCH  17  20
ENDBRANCH   8  17
ENDBRANCH   4   7
ENDBRANCH   2   3
ENDBRANCH   1   2
BRANCH   1  25
ATOM     25  C   UNL A   1      35.788  30.062  27.910  1.00  0.00     0.118 C 
BRANCH  25  26
ATOM     26  N   UNL A   1      35.884  29.965  29.376  1.00  0.00    -0.352 N 
ATOM     27  C   UNL A   1      36.846  29.311  30.148  1.00  0.00     0.251 C 
ATOM     28  H   UNL A   1      35.174  30.423  29.881  1.00  0.00     0.163 HD
ATOM     29  O   UNL A   1      36.646  29.071  31.321  1.00  0.00    -0.269 OA
BRANCH  27  30
ATOM     30  C   UNL A   1      38.103  28.912  29.477  1.00  0.00     0.039 A 
ATOM     31  C   UNL A   1      38.674  29.594  28.403  1.00  0.00     0.014 A 
ATOM     32  C   UNL A   1      38.783  27.868  30.071  1.00  0.00     0.014 A 
ATOM     33  C   UNL A   1      39.955  29.212  27.999  1.00  0.00     0.010 A 
ATOM     34  C   UNL A   1      40.133  27.860  29.987  1.00  0.00     0.010 A 
ATOM     35  C   UNL A   1      40.679  28.329  28.817  1.00  0.00    -0.014 A 
BRANCH  35  36
ATOM     36  C   UNL A   1      42.046  27.899  28.581  1.00  0.00     0.031 A 
ATOM     37  C   UNL A   1      42.125  26.645  27.809  1.00  0.00     0.074 A 
ATOM     38  C   UNL A   1      43.121  28.698  28.796  1.00  0.00     0.049 A 
ATOM     39  N   UNL A   1      42.341  25.463  28.272  1.00  0.00    -0.248 NA
ATOM     40  C   UNL A   1      41.680  26.662  26.406  1.00  0.00     0.031 C 
ATOM     41  C   UNL A   1      43.171  30.102  29.235  1.00  0.00     0.029 A 
ATOM     42  N   UNL A   1      44.435  28.430  28.573  1.00  0.00    -0.354 N 
ATOM     43  C   UNL A   1      42.357  24.630  27.163  1.00  0.00     0.074 A 
ATOM     44  C   UNL A   1      41.680  25.357  26.126  1.00  0.00     0.031 C 
ATOM     45  C   UNL A   1      44.412  30.608  29.038  1.00  0.00     0.029 A 
ATOM     46  C   UNL A   1      45.291  29.529  28.630  1.00  0.00     0.049 A 
ATOM     47  H   UNL A   1      44.761  27.520  28.385  1.00  0.00     0.167 HD
ATOM     48  C   UNL A   1      43.185  23.550  27.124  1.00  0.00     0.034 A 
ATOM     49  C   UNL A   1      46.629  29.545  28.366  1.00  0.00     0.034 A 
ATOM     50  C   UNL A   1      43.731  23.282  28.442  1.00  0.00     0.049 A 
ATOM     51  C   UNL A   1      47.092  28.139  28.508  1.00  0.00     0.074 A 
ATOM     52  C   UNL A   1      43.174  23.004  29.678  1.00  0.00     0.029 A 
ATOM     53  N   UNL A   1      45.010  23.726  28.710  1.00  0.00    -0.354 N 
ATOM     54  N   UNL A   1      47.064  27.496  29.647  1.00  0.00    -0.248 NA
ATOM     55  C   UNL A   1      47.058  27.291  27.324  1.00  0.00     0.031 C 
ATOM     56  C   UNL A   1      43.936  23.780  30.603  1.00  0.00     0.029 A 
ATOM     57  C   UNL A   1      44.981  24.396  29.911  1.00  0.00     0.049 A 
ATOM     58  H   UNL A   1      45.802  23.588  28.142  1.00  0.00     0.167 HD
ATOM     59  C   UNL A   1      46.571  26.235  29.341  1.00  0.00     0.074 A 
ATOM     60  C   UNL A   1      46.665  26.141  27.883  1.00  0.00     0.031 C 
ATOM     61  C   UNL A   1      45.857  25.507  30.253  1.00  0.00     0.034 A 
BRANCH  48  62
ATOM     62  C   UNL A   1      43.813  22.979  25.871  1.00  0.00     0.023 A 
ATOM     63  C   UNL A   1      43.816  21.577  25.750  1.00  0.00     0.031 A 
ATOM     64  C   UNL A   1      44.624  23.674  24.945  1.00  0.00     0.131 A 
ATOM     65  C   UNL A   1      44.671  20.930  24.841  1.00  0.00     0.055 A 
ATOM     66  C   UNL A   1      45.423  23.028  23.997  1.00  0.00     0.041 A 
ATOM     67  F   UNL A   1      44.769  25.003  24.951  1.00  0.00    -0.206 F 
ATOM     68  C   UNL A   1      45.477  21.647  23.964  1.00  0.00     0.022 A 
BRANCH  65  69
ATOM     69  S   UNL A   1      44.838  19.133  24.960  1.00  0.00     0.124 S 
ATOM     70  O   UNL A   1      44.826  18.744  23.553  1.00  0.00    -0.237 OA
ATOM     71  O   UNL A   1      46.113  18.997  25.656  1.00  0.00    -0.237 OA
ATOM     72  O   UNL A   1      43.661  18.734  25.727  1.00  0.00    -0.744 OA
ENDBRANCH  65  69
ENDBRANCH  48  62
BRANCH  49  73
ATOM     73  C   UNL A   1      47.400  30.603  27.641  1.00  0.00     0.023 A 
ATOM     74  C   UNL A   1      46.814  31.757  27.065  1.00  0.00     0.031 A 
ATOM     75  C   UNL A   1      48.810  30.594  27.729  1.00  0.00     0.131 A 
ATOM     76  C   UNL A   1      47.633  32.825  26.609  1.00  0.00     0.055 A 
ATOM     77  C   UNL A   1      49.610  31.651  27.284  1.00  0.00     0.041 A 
ATOM     78  F   UNL A   1      49.458  29.584  28.332  1.00  0.00    -0.206 F 
ATOM     79  C   UNL A   1      49.023  32.775  26.728  1.00  0.00     0.022 A 
BRANCH  76  80
ATOM     80  S   UNL A   1      46.897  34.342  25.901  1.00  0.00     0.124 S 
ATOM     81  O   UNL A   1      46.766  35.202  27.071  1.00  0.00    -0.237 OA
ATOM     82  O   UNL A   1      47.892  34.740  24.912  1.00  0.00    -0.237 OA
ATOM     83  O   UNL A   1      45.628  33.879  25.339  1.00  0.00    -0.744 OA
ENDBRANCH  76  80
ENDBRANCH  49  73
BRANCH  61  84
ATOM     84  C   UNL A   1      45.825  25.986  31.698  1.00  0.00     0.023 A 
ATOM     85  C   UNL A   1      44.729  26.622  32.332  1.00  0.00     0.031 A 
ATOM     86  C   UNL A   1      46.935  25.664  32.498  1.00  0.00     0.131 A 
ATOM     87  C   UNL A   1      44.780  26.911  33.713  1.00  0.00     0.055 A 
ATOM     88  C   UNL A   1      46.973  25.930  33.866  1.00  0.00     0.041 A 
ATOM     89  F   UNL A   1      47.999  25.041  31.964  1.00  0.00    -0.206 F 
ATOM     90  C   UNL A   1      45.897  26.559  34.479  1.00  0.00     0.022 A 
BRANCH  87  91
ATOM     91  S   UNL A   1      43.405  27.774  34.549  1.00  0.00     0.124 S 
ATOM     92  O   UNL A   1      42.813  28.580  33.488  1.00  0.00    -0.237 OA
ATOM     93  O   UNL A   1      42.589  26.669  35.043  1.00  0.00    -0.237 OA
ATOM     94  O   UNL A   1      44.075  28.547  35.598  1.00  0.00    -0.744 OA
ENDBRANCH  87  91
ENDBRANCH  61  84
ENDBRANCH  35  36
ENDBRANCH  27  30
ENDBRANCH  25  26
ENDBRANCH   1  25
TORSDOF 16
ENDMDL
MODEL 3
REMARK VINA RESULT:     -12.0      3.694      7.542
REMARK SMILES CC(C)(C)CS(=O)(=O)N1Cc2nc[nH]c2C[C@H]1C(=O)NCCCNC(=O)c1ccc(-c2c3nc(c(-c4cc(S(=O)(=O)[O-])ccc4F)c4ccc([nH]4)c(-c4cc(S(=O)(=O)[O-])ccc4F)c4nc(c(-c5cc(S(=O)(=O)[O-])ccc5F)c5ccc2[nH]5)C=C4)C=C3)cc1
REMARK SMILES IDX 22 1 21 2 20 3 18 4 19 5 17 7 9 8 10 9 11 10 16 11 12 12
REMARK SMILES IDX 15 13 13 14 14 15 6 17 7 18 8 19 5 20 2 21 1 22 3 23 4 24
REMARK SMILES IDX 23 25 24 26 25 27 26 29 27 30 28 31 89 32 29 33 88 34 30 35
REMARK SMILES IDX 31 36 32 37 82 38 33 39 87 40 81 41 83 42 34 43 86 44 80 45
REMARK SMILES IDX 79 46 35 48 67 49 47 50 66 51 48 52 51 53 65 54 84 55 49 56
REMARK SMILES IDX 50 57 64 59 85 60 52 61 36 62 37 63 45 64 38 65 44 66 46 67
REMARK SMILES IDX 43 68 39 69 40 70 41 71 42 72 68 73 69 74 77 75 70 76 76 77
REMARK SMILES IDX 78 78 75 79 71 80 72 81 73 82 74 83 53 84 54 85 62 86 55 87
REMARK SMILES IDX 61 88 63 89 60 90 56 91 57 92 58 93 59 94
REMARK H PARENT 20 6 14 16 24 28 83 47 51 58
REMARK Flexibility Score: inf
ROOT
ATOM      1  C   UNL A   1      33.884  31.590  27.567  1.00  0.00     0.042 C 
ENDROOT
BRANCH   1   2
ATOM      2  C   UNL A   1      33.799  30.087  27.277  1.00  0.00     0.117 C 
BRANCH   2   3
ATOM      3  N   UNL A   1      32.579  29.390  27.649  1.00  0.00    -0.355 N 
ATOM      4  C   UNL A   1      31.959  28.260  27.198  1.00  0.00     0.238 C 
ATOM      5  O   UNL A   1      31.054  27.825  27.925  1.00  0.00    -0.273 OA
ATOM      6  H   UNL A   1      32.093  29.829  28.385  1.00  0.00     0.163 HD
BRANCH   4   7
ATOM      7  C   UNL A   1      32.310  27.509  25.906  1.00  0.00     0.168 C 
ATOM      8  N   UNL A   1      31.467  26.255  25.635  1.00  0.00    -0.183 NA
ATOM      9  C   UNL A   1      30.629  26.201  24.373  1.00  0.00     0.161 C 
ATOM     10  C   UNL A   1      30.368  27.562  23.821  1.00  0.00     0.077 A 
ATOM     11  C   UNL A   1      32.484  28.518  24.740  1.00  0.00     0.086 C 
ATOM     12  N   UNL A   1      29.193  28.001  23.265  1.00  0.00    -0.240 NA
ATOM     13  C   UNL A   1      31.238  28.609  23.965  1.00  0.00     0.041 A 
ATOM     14  C   UNL A   1      29.345  29.302  23.114  1.00  0.00     0.197 A 
ATOM     15  N   UNL A   1      30.605  29.713  23.472  1.00  0.00    -0.348 N 
ATOM     16  H   UNL A   1      30.978  30.621  23.390  1.00  0.00     0.167 HD
BRANCH   8  17
ATOM     17  S   UNL A   1      32.124  24.742  26.080  1.00  0.00     0.215 S 
ATOM     18  O   UNL A   1      31.394  24.227  27.214  1.00  0.00    -0.212 OA
ATOM     19  O   UNL A   1      33.558  24.950  26.221  1.00  0.00    -0.212 OA
BRANCH  17  20
ATOM     20  C   UNL A   1      31.965  23.598  24.676  1.00  0.00     0.160 C 
BRANCH  20  21
ATOM     21  C   UNL A   1      32.868  22.348  24.539  1.00  0.00    -0.023 C 
ATOM     22  C   UNL A   1      32.286  21.278  23.607  1.00  0.00     0.012 C 
ATOM     23  C   UNL A   1      33.073  21.696  25.926  1.00  0.00     0.012 C 
ATOM     24  C   UNL A   1      34.261  22.765  24.095  1.00  0.00     0.012 C 
ENDBRANCH  20  21
ENDBRANCH  17  20
ENDBRANCH   8  17
ENDBRANCH   4   7
ENDBRANCH   2   3
ENDBRANCH   1   2
BRANCH   1  25
ATOM     25  C   UNL A   1      34.694  31.874  28.809  1.00  0.00     0.118 C 
BRANCH  25  26
ATOM     26  N   UNL A   1      35.580  33.042  28.665  1.00  0.00    -0.352 N 
ATOM     27  C   UNL A   1      36.933  33.159  28.993  1.00  0.00     0.251 C 
ATOM     28  H   UNL A   1      35.164  33.849  28.286  1.00  0.00     0.163 HD
ATOM     29  O   UNL A   1      37.458  34.249  29.090  1.00  0.00    -0.269 OA
BRANCH  27  30
ATOM     30  C   UNL A   1      37.688  31.910  29.231  1.00  0.00     0.039 A 
ATOM     31  C   UNL A   1      37.506  30.730  28.509  1.00  0.00     0.014 A 
ATOM     32  C   UNL A   1      38.715  32.006  30.147  1.00  0.00     0.014 A 
ATOM     33  C   UNL A   1      38.420  29.694  28.718  1.00  0.00     0.010 A 
ATOM     34  C   UNL A   1      39.803  31.224  29.966  1.00  0.00     0.010 A 
ATOM     35  C   UNL A   1      39.580  29.966  29.462  1.00  0.00    -0.014 A 
BRANCH  35  36
ATOM     36  C   UNL A   1      40.661  29.026  29.701  1.00  0.00     0.031 A 
ATOM     37  C   UNL A   1      40.891  28.772  31.135  1.00  0.00     0.074 A 
ATOM     38  C   UNL A   1      41.205  28.258  28.723  1.00  0.00     0.049 A 
ATOM     39  N   UNL A   1      41.814  29.282  31.874  1.00  0.00    -0.248 NA
ATOM     40  C   UNL A   1      39.845  28.065  31.893  1.00  0.00     0.031 C 
ATOM     41  C   UNL A   1      40.835  28.152  27.302  1.00  0.00     0.029 A 
ATOM     42  N   UNL A   1      42.181  27.318  28.827  1.00  0.00    -0.354 N 
ATOM     43  C   UNL A   1      41.638  28.715  33.128  1.00  0.00     0.074 A 
ATOM     44  C   UNL A   1      40.288  28.224  33.142  1.00  0.00     0.031 C 
ATOM     45  C   UNL A   1      41.422  27.065  26.748  1.00  0.00     0.029 A 
ATOM     46  C   UNL A   1      42.348  26.499  27.710  1.00  0.00     0.049 A 
ATOM     47  H   UNL A   1      42.734  27.222  29.636  1.00  0.00     0.167 HD
ATOM     48  C   UNL A   1      42.712  28.444  33.919  1.00  0.00     0.034 A 
ATOM     49  C   UNL A   1      43.194  25.436  27.589  1.00  0.00     0.034 A 
ATOM     50  C   UNL A   1      43.901  29.094  33.398  1.00  0.00     0.049 A 
ATOM     51  C   UNL A   1      44.237  25.621  28.633  1.00  0.00     0.074 A 
ATOM     52  C   UNL A   1      44.240  30.407  33.124  1.00  0.00     0.029 A 
ATOM     53  N   UNL A   1      44.780  28.329  32.660  1.00  0.00    -0.354 N 
ATOM     54  N   UNL A   1      45.080  26.620  28.622  1.00  0.00    -0.248 NA
ATOM     55  C   UNL A   1      43.992  25.037  29.945  1.00  0.00     0.031 C 
ATOM     56  C   UNL A   1      44.922  30.353  31.871  1.00  0.00     0.029 A 
ATOM     57  C   UNL A   1      45.067  29.013  31.502  1.00  0.00     0.049 A 
ATOM     58  H   UNL A   1      45.139  27.448  32.917  1.00  0.00     0.167 HD
ATOM     59  C   UNL A   1      45.127  27.070  29.934  1.00  0.00     0.074 A 
ATOM     60  C   UNL A   1      44.501  26.003  30.718  1.00  0.00     0.031 C 
ATOM     61  C   UNL A   1      45.388  28.380  30.231  1.00  0.00     0.034 A 
BRANCH  48  62
ATOM     62  C   UNL A   1      42.797  27.305  34.911  1.00  0.00     0.023 A 
ATOM     63  C   UNL A   1      43.566  26.190  34.529  1.00  0.00     0.031 A 
ATOM     64  C   UNL A   1      41.983  27.122  36.053  1.00  0.00     0.131 A 
ATOM     65  C   UNL A   1      43.425  24.954  35.181  1.00  0.00     0.055 A 
ATOM     66  C   UNL A   1      41.896  25.908  36.740  1.00  0.00     0.041 A 
ATOM     67  F   UNL A   1      41.159  28.064  36.523  1.00  0.00    -0.206 F 
ATOM     68  C   UNL A   1      42.592  24.804  36.284  1.00  0.00     0.022 A 
BRANCH  65  69
ATOM     69  S   UNL A   1      44.214  23.505  34.440  1.00  0.00     0.124 S 
ATOM     70  O   UNL A   1      43.251  23.144  33.404  1.00  0.00    -0.237 OA
ATOM     71  O   UNL A   1      45.483  24.058  33.978  1.00  0.00    -0.237 OA
ATOM     72  O   UNL A   1      44.311  22.566  35.556  1.00  0.00    -0.744 OA
ENDBRANCH  65  69
ENDBRANCH  48  62
BRANCH  49  73
ATOM     73  C   UNL A   1      42.921  24.132  26.909  1.00  0.00     0.023 A 
ATOM     74  C   UNL A   1      43.835  23.481  26.045  1.00  0.00     0.031 A 
ATOM     75  C   UNL A   1      41.802  23.374  27.321  1.00  0.00     0.131 A 
ATOM     76  C   UNL A   1      43.604  22.141  25.633  1.00  0.00     0.055 A 
ATOM     77  C   UNL A   1      41.582  22.053  26.917  1.00  0.00     0.041 A 
ATOM     78  F   UNL A   1      40.919  23.869  28.204  1.00  0.00    -0.206 F 
ATOM     79  C   UNL A   1      42.488  21.428  26.076  1.00  0.00     0.022 A 
BRANCH  76  80
ATOM     80  S   UNL A   1      44.792  21.267  24.552  1.00  0.00     0.124 S 
ATOM     81  O   UNL A   1      46.059  21.482  25.241  1.00  0.00    -0.237 OA
ATOM     82  O   UNL A   1      44.274  19.904  24.555  1.00  0.00    -0.237 OA
ATOM     83  O   UNL A   1      44.668  21.964  23.270  1.00  0.00    -0.744 OA
ENDBRANCH  76  80
ENDBRANCH  49  73
BRANCH  61  84
ATOM     84  C   UNL A   1      45.880  29.291  29.115  1.00  0.00     0.023 A 
ATOM     85  C   UNL A   1      45.101  30.262  28.439  1.00  0.00     0.031 A 
ATOM     86  C   UNL A   1      47.253  29.244  28.816  1.00  0.00     0.131 A 
ATOM     87  C   UNL A   1      45.706  31.130  27.503  1.00  0.00     0.055 A 
ATOM     88  C   UNL A   1      47.851  30.117  27.910  1.00  0.00     0.041 A 
ATOM     89  F   UNL A   1      48.053  28.362  29.438  1.00  0.00    -0.206 F 
ATOM     90  C   UNL A   1      47.079  31.062  27.245  1.00  0.00     0.022 A 
BRANCH  87  91
ATOM     91  S   UNL A   1      44.720  32.357  26.579  1.00  0.00     0.124 S 
ATOM     92  O   UNL A   1      43.766  31.541  25.838  1.00  0.00    -0.237 OA
ATOM     93  O   UNL A   1      44.160  33.185  27.644  1.00  0.00    -0.237 OA
ATOM     94  O   UNL A   1      45.715  33.036  25.745  1.00  0.00    -0.744 OA
ENDBRANCH  87  91
ENDBRANCH  61  84
ENDBRANCH  35  36
ENDBRANCH  27  30
ENDBRANCH  25  26
ENDBRANCH   1  25
TORSDOF 16
ENDMDL
