MODEL 1
REMARK VINA RESULT:     -12.7      0.000      0.000
REMARK SMILES O=C(NCCCNC(=O)[C@H]1CCCCN1S(=O)(=O)c1cc[nH]c1)c1ccc(-c2c3nc(c(-c4cc(S(=O)(=O)[O-])ccc4F)c4ccc([nH]4)c(-c4cc(S(=O)(=O)[O-])ccc4F)c4nc(c(-c5cc(S(=O)(=O)[O-])ccc5F)c5ccc2[nH]5)C=C4)C=C3)cc1
REMARK SMILES IDX 4 1 3 2 1 3 2 4 24 6 25 7 86 8 26 9 85 10 27 11 28 12 29 13
REMARK SMILES IDX 79 14 30 15 84 16 78 17 80 18 31 19 83 20 77 21 76 22 32 24
REMARK SMILES IDX 64 25 44 26 63 27 45 28 48 29 62 30 81 31 46 32 47 33 61 35
REMARK SMILES IDX 82 36 49 37 33 38 34 39 42 40 35 41 41 42 43 43 40 44 36 45
REMARK SMILES IDX 37 46 38 47 39 48 65 49 66 50 74 51 67 52 73 53 75 54 72 55
REMARK SMILES IDX 68 56 69 57 70 58 71 59 50 60 51 61 59 62 52 63 58 64 60 65
REMARK SMILES IDX 57 66 53 67 54 68 55 69 56 70 5 71 6 72 7 73 8 74 9 76 10 77
REMARK SMILES IDX 11 78 15 79 12 80 14 81 13 82 16 83 17 84 18 85 19 86 20 87
REMARK SMILES IDX 23 88 21 89 22 90
REMARK H PARENT 3 5 80 23 48 34 7 75 22 91
REMARK Flexibility Score: inf
ROOT
ATOM      1  C   UNL A   1      38.076  23.387  26.239  1.00  0.00     0.118 C 
ENDROOT
BRANCH   1   2
ATOM      2  N   UNL A   1      39.526  23.342  26.323  1.00  0.00    -0.352 N 
ATOM      3  O   UNL A   1      41.638  23.717  26.878  1.00  0.00    -0.269 OA
ATOM      4  C   UNL A   1      40.485  24.149  26.883  1.00  0.00     0.251 C 
ATOM      5  H   UNL A   1      39.907  22.554  25.874  1.00  0.00     0.163 HD
BRANCH   4   6
ATOM      6  C   UNL A   1      40.230  25.514  27.424  1.00  0.00     0.039 A 
ATOM      7  C   UNL A   1      39.869  25.789  28.743  1.00  0.00     0.014 A 
ATOM      8  C   UNL A   1      40.439  26.598  26.547  1.00  0.00     0.014 A 
ATOM      9  C   UNL A   1      39.659  27.108  29.158  1.00  0.00     0.010 A 
ATOM     10  C   UNL A   1      40.263  27.926  26.965  1.00  0.00     0.010 A 
ATOM     11  C   UNL A   1      39.886  28.188  28.284  1.00  0.00    -0.014 A 
BRANCH  11  12
ATOM     12  C   UNL A   1      40.139  29.520  28.926  1.00  0.00     0.031 A 
ATOM     13  C   UNL A   1      38.752  30.193  29.211  1.00  0.00     0.074 A 
ATOM     14  C   UNL A   1      41.435  29.970  29.064  1.00  0.00     0.049 A 
ATOM     15  N   UNL A   1      38.389  31.438  29.190  1.00  0.00    -0.248 NA
ATOM     16  C   UNL A   1      37.562  29.322  29.485  1.00  0.00     0.031 C 
ATOM     17  C   UNL A   1      42.640  29.127  28.963  1.00  0.00     0.029 A 
ATOM     18  N   UNL A   1      42.041  31.185  29.343  1.00  0.00    -0.354 N 
ATOM     19  C   UNL A   1      37.081  31.506  29.744  1.00  0.00     0.074 A 
ATOM     20  C   UNL A   1      36.566  30.178  29.722  1.00  0.00     0.031 C 
ATOM     21  C   UNL A   1      43.793  29.839  28.956  1.00  0.00     0.029 A 
ATOM     22  C   UNL A   1      43.481  31.231  29.199  1.00  0.00     0.049 A 
ATOM     23  H   UNL A   1      41.522  31.973  29.622  1.00  0.00     0.167 HD
ATOM     24  C   UNL A   1      36.604  32.615  30.391  1.00  0.00     0.034 A 
ATOM     25  C   UNL A   1      44.342  32.307  29.302  1.00  0.00     0.034 A 
ATOM     26  C   UNL A   1      37.584  33.643  30.306  1.00  0.00     0.049 A 
ATOM     27  C   UNL A   1      43.480  33.316  29.928  1.00  0.00     0.074 A 
ATOM     28  C   UNL A   1      38.065  34.388  29.265  1.00  0.00     0.029 A 
ATOM     29  N   UNL A   1      38.442  33.750  31.379  1.00  0.00    -0.354 N 
ATOM     30  N   UNL A   1      43.105  33.284  31.170  1.00  0.00    -0.248 NA
ATOM     31  C   UNL A   1      42.931  34.391  29.096  1.00  0.00     0.031 C 
ATOM     32  C   UNL A   1      39.442  34.437  29.550  1.00  0.00     0.029 A 
ATOM     33  C   UNL A   1      39.679  34.010  30.866  1.00  0.00     0.049 A 
ATOM     34  H   UNL A   1      38.208  33.656  32.331  1.00  0.00     0.167 HD
ATOM     35  C   UNL A   1      42.020  34.117  31.162  1.00  0.00     0.074 A 
ATOM     36  C   UNL A   1      42.186  34.994  30.019  1.00  0.00     0.031 C 
ATOM     37  C   UNL A   1      40.837  33.673  31.661  1.00  0.00     0.034 A 
BRANCH  24  38
ATOM     38  C   UNL A   1      35.503  32.842  31.407  1.00  0.00     0.023 A 
ATOM     39  C   UNL A   1      34.572  33.853  31.050  1.00  0.00     0.031 A 
ATOM     40  C   UNL A   1      35.552  32.503  32.763  1.00  0.00     0.131 A 
ATOM     41  C   UNL A   1      33.980  34.666  32.020  1.00  0.00     0.055 A 
ATOM     42  C   UNL A   1      34.846  33.239  33.730  1.00  0.00     0.041 A 
ATOM     43  F   UNL A   1      36.339  31.520  33.217  1.00  0.00    -0.206 F 
ATOM     44  C   UNL A   1      34.110  34.367  33.368  1.00  0.00     0.022 A 
BRANCH  41  45
ATOM     45  S   UNL A   1      33.302  36.260  31.467  1.00  0.00     0.124 S 
ATOM     46  O   UNL A   1      34.168  37.202  32.169  1.00  0.00    -0.237 OA
ATOM     47  O   UNL A   1      33.480  36.185  30.021  1.00  0.00    -0.237 OA
ATOM     48  O   UNL A   1      31.917  36.214  31.927  1.00  0.00    -0.744 OA
ENDBRANCH  41  45
ENDBRANCH  24  38
BRANCH  25  49
ATOM     49  C   UNL A   1      45.787  32.800  29.042  1.00  0.00     0.023 A 
ATOM     50  C   UNL A   1      46.396  33.171  27.826  1.00  0.00     0.031 A 
ATOM     51  C   UNL A   1      46.630  33.029  30.189  1.00  0.00     0.131 A 
ATOM     52  C   UNL A   1      47.686  33.812  27.827  1.00  0.00     0.055 A 
ATOM     53  C   UNL A   1      47.820  33.756  30.192  1.00  0.00     0.041 A 
ATOM     54  F   UNL A   1      46.345  32.538  31.401  1.00  0.00    -0.206 F 
ATOM     55  C   UNL A   1      48.348  34.175  29.003  1.00  0.00     0.022 A 
BRANCH  52  56
ATOM     56  S   UNL A   1      48.591  34.208  26.292  1.00  0.00     0.124 S 
ATOM     57  O   UNL A   1      49.367  35.376  26.693  1.00  0.00    -0.237 OA
ATOM     58  O   UNL A   1      49.346  32.989  26.033  1.00  0.00    -0.237 OA
ATOM     59  O   UNL A   1      47.520  34.481  25.331  1.00  0.00    -0.744 OA
ENDBRANCH  52  56
ENDBRANCH  25  49
BRANCH  37  60
ATOM     60  C   UNL A   1      40.934  32.575  32.724  1.00  0.00     0.023 A 
ATOM     61  C   UNL A   1      40.691  31.230  32.379  1.00  0.00     0.031 A 
ATOM     62  C   UNL A   1      41.173  32.819  34.089  1.00  0.00     0.131 A 
ATOM     63  C   UNL A   1      40.669  30.216  33.362  1.00  0.00     0.055 A 
ATOM     64  C   UNL A   1      41.149  31.815  35.071  1.00  0.00     0.041 A 
ATOM     65  F   UNL A   1      41.431  34.049  34.529  1.00  0.00    -0.206 F 
ATOM     66  C   UNL A   1      40.893  30.503  34.708  1.00  0.00     0.022 A 
BRANCH  63  67
ATOM     67  S   UNL A   1      40.356  28.499  32.864  1.00  0.00     0.124 S 
ATOM     68  O   UNL A   1      39.015  28.570  32.291  1.00  0.00    -0.237 OA
ATOM     69  O   UNL A   1      41.440  28.237  31.924  1.00  0.00    -0.237 OA
ATOM     70  O   UNL A   1      40.446  27.754  34.121  1.00  0.00    -0.744 OA
ENDBRANCH  63  67
ENDBRANCH  37  60
ENDBRANCH  11  12
ENDBRANCH   4   6
ENDBRANCH   1   2
BRANCH   1  71
ATOM     71  C   UNL A   1      37.468  22.781  24.981  1.00  0.00     0.042 C 
BRANCH  71  72
ATOM     72  C   UNL A   1      36.445  21.684  25.253  1.00  0.00     0.117 C 
BRANCH  72  73
ATOM     73  N   UNL A   1      35.731  21.895  26.497  1.00  0.00    -0.355 N 
ATOM     74  C   UNL A   1      34.469  22.302  26.794  1.00  0.00     0.238 C 
ATOM     75  H   UNL A   1      36.276  21.706  27.295  1.00  0.00     0.163 HD
ATOM     76  O   UNL A   1      34.188  22.263  28.002  1.00  0.00    -0.273 OA
BRANCH  74  77
ATOM     77  C   UNL A   1      33.407  22.770  25.785  1.00  0.00     0.162 C 
ATOM     78  C   UNL A   1      33.344  24.306  25.759  1.00  0.00     0.030 C 
ATOM     79  N   UNL A   1      33.449  22.246  24.411  1.00  0.00    -0.185 NA
ATOM     80  C   UNL A   1      34.510  24.882  24.970  1.00  0.00     0.004 C 
ATOM     81  C   UNL A   1      34.271  22.914  23.390  1.00  0.00     0.103 C 
ATOM     82  C   UNL A   1      34.405  24.421  23.530  1.00  0.00     0.017 C 
BRANCH  79  83
ATOM     83  S   UNL A   1      32.276  21.091  24.029  1.00  0.00     0.245 S 
ATOM     84  O   UNL A   1      31.396  20.983  25.173  1.00  0.00    -0.207 OA
ATOM     85  O   UNL A   1      31.760  21.388  22.709  1.00  0.00    -0.207 OA
BRANCH  83  86
ATOM     86  C   UNL A   1      32.956  19.513  23.902  1.00  0.00     0.100 A 
ATOM     87  C   UNL A   1      34.066  19.033  24.623  1.00  0.00     0.041 A 
ATOM     88  C   UNL A   1      32.490  18.468  23.123  1.00  0.00     0.104 A 
ATOM     89  C   UNL A   1      34.248  17.730  24.261  1.00  0.00     0.083 A 
ATOM     90  N   UNL A   1      33.324  17.395  23.315  1.00  0.00    -0.366 N 
ATOM     91  H   UNL A   1      33.266  16.531  22.847  1.00  0.00     0.165 HD
ENDBRANCH  83  86
ENDBRANCH  79  83
ENDBRANCH  74  77
ENDBRANCH  72  73
ENDBRANCH  71  72
ENDBRANCH   1  71
TORSDOF 15
ENDMDL
MODEL 2
REMARK VINA RESULT:     -12.3      5.074     10.417
REMARK SMILES O=C(NCCCNC(=O)[C@H]1CCCCN1S(=O)(=O)c1cc[nH]c1)c1ccc(-c2c3nc(c(-c4cc(S(=O)(=O)[O-])ccc4F)c4ccc([nH]4)c(-c4cc(S(=O)(=O)[O-])ccc4F)c4nc(c(-c5cc(S(=O)(=O)[O-])ccc5F)c5ccc2[nH]5)C=C4)C=C3)cc1
REMARK SMILES IDX 4 1 3 2 1 3 2 4 24 6 25 7 86 8 26 9 85 10 27 11 28 12 29 13
REMARK SMILES IDX 79 14 30 15 84 16 78 17 80 18 31 19 83 20 77 21 76 22 32 24
REMARK SMILES IDX 64 25 44 26 63 27 45 28 48 29 62 30 81 31 46 32 47 33 61 35
REMARK SMILES IDX 82 36 49 37 33 38 34 39 42 40 35 41 41 42 43 43 40 44 36 45
REMARK SMILES IDX 37 46 38 47 39 48 65 49 66 50 74 51 67 52 73 53 75 54 72 55
REMARK SMILES IDX 68 56 69 57 70 58 71 59 50 60 51 61 59 62 52 63 58 64 60 65
REMARK SMILES IDX 57 66 53 67 54 68 55 69 56 70 5 71 6 72 7 73 8 74 9 76 10 77
REMARK SMILES IDX 11 78 15 79 12 80 14 81 13 82 16 83 17 84 18 85 19 86 20 87
REMARK SMILES IDX 23 88 21 89 22 90
REMARK H PARENT 3 5 80 23 48 34 7 75 22 91
REMARK Flexibility Score: inf
ROOT
ATOM      1  C   UNL A   1      34.841  30.207  27.276  1.00  0.00     0.118 C 
ENDROOT
BRANCH   1   2
ATOM      2  N   UNL A   1      35.179  30.909  28.502  1.00  0.00    -0.352 N 
ATOM      3  O   UNL A   1      36.268  31.783  30.224  1.00  0.00    -0.269 OA
ATOM      4  C   UNL A   1      36.282  30.946  29.319  1.00  0.00     0.251 C 
ATOM      5  H   UNL A   1      34.452  31.491  28.820  1.00  0.00     0.163 HD
BRANCH   4   6
ATOM      6  C   UNL A   1      37.438  30.011  29.222  1.00  0.00     0.039 A 
ATOM      7  C   UNL A   1      38.541  30.200  28.391  1.00  0.00     0.014 A 
ATOM      8  C   UNL A   1      37.432  28.896  30.086  1.00  0.00     0.014 A 
ATOM      9  C   UNL A   1      39.583  29.266  28.376  1.00  0.00     0.010 A 
ATOM     10  C   UNL A   1      38.489  27.974  30.101  1.00  0.00     0.010 A 
ATOM     11  C   UNL A   1      39.582  28.165  29.253  1.00  0.00    -0.014 A 
BRANCH  11  12
ATOM     12  C   UNL A   1      40.915  27.537  29.533  1.00  0.00     0.031 A 
ATOM     13  C   UNL A   1      41.116  26.353  28.525  1.00  0.00     0.074 A 
ATOM     14  C   UNL A   1      41.661  27.979  30.606  1.00  0.00     0.049 A 
ATOM     15  N   UNL A   1      41.714  25.210  28.662  1.00  0.00    -0.248 NA
ATOM     16  C   UNL A   1      40.473  26.430  27.173  1.00  0.00     0.031 C 
ATOM     17  C   UNL A   1      41.448  29.253  31.318  1.00  0.00     0.029 A 
ATOM     18  N   UNL A   1      42.753  27.511  31.319  1.00  0.00    -0.354 N 
ATOM     19  C   UNL A   1      41.793  24.617  27.372  1.00  0.00     0.074 A 
ATOM     20  C   UNL A   1      40.857  25.312  26.554  1.00  0.00     0.031 C 
ATOM     21  C   UNL A   1      42.192  29.368  32.445  1.00  0.00     0.029 A 
ATOM     22  C   UNL A   1      43.092  28.237  32.524  1.00  0.00     0.049 A 
ATOM     23  H   UNL A   1      43.269  26.727  31.022  1.00  0.00     0.167 HD
ATOM     24  C   UNL A   1      42.787  23.748  27.013  1.00  0.00     0.034 A 
ATOM     25  C   UNL A   1      44.044  27.954  33.484  1.00  0.00     0.034 A 
ATOM     26  C   UNL A   1      43.605  23.501  28.151  1.00  0.00     0.049 A 
ATOM     27  C   UNL A   1      44.853  26.934  32.806  1.00  0.00     0.074 A 
ATOM     28  C   UNL A   1      43.384  22.849  29.332  1.00  0.00     0.029 A 
ATOM     29  N   UNL A   1      44.734  24.282  28.265  1.00  0.00    -0.354 N 
ATOM     30  N   UNL A   1      45.670  27.184  31.829  1.00  0.00    -0.248 NA
ATOM     31  C   UNL A   1      44.681  25.529  33.186  1.00  0.00     0.031 C 
ATOM     32  C   UNL A   1      44.032  23.688  30.257  1.00  0.00     0.029 A 
ATOM     33  C   UNL A   1      44.856  24.604  29.585  1.00  0.00     0.049 A 
ATOM     34  H   UNL A   1      45.336  24.556  27.535  1.00  0.00     0.167 HD
ATOM     35  C   UNL A   1      45.828  25.947  31.267  1.00  0.00     0.074 A 
ATOM     36  C   UNL A   1      45.515  24.983  32.304  1.00  0.00     0.031 C 
ATOM     37  C   UNL A   1      45.605  25.788  29.936  1.00  0.00     0.034 A 
BRANCH  24  38
ATOM     38  C   UNL A   1      43.371  23.315  25.682  1.00  0.00     0.023 A 
ATOM     39  C   UNL A   1      43.334  21.915  25.451  1.00  0.00     0.031 A 
ATOM     40  C   UNL A   1      44.279  24.043  24.907  1.00  0.00     0.131 A 
ATOM     41  C   UNL A   1      44.347  21.273  24.734  1.00  0.00     0.055 A 
ATOM     42  C   UNL A   1      45.214  23.401  24.076  1.00  0.00     0.041 A 
ATOM     43  F   UNL A   1      44.362  25.376  24.982  1.00  0.00    -0.206 F 
ATOM     44  C   UNL A   1      45.296  22.009  24.040  1.00  0.00     0.022 A 
BRANCH  41  45
ATOM     45  S   UNL A   1      44.542  19.484  24.990  1.00  0.00     0.124 S 
ATOM     46  O   UNL A   1      45.886  19.417  25.556  1.00  0.00    -0.237 OA
ATOM     47  O   UNL A   1      43.447  19.183  25.907  1.00  0.00    -0.237 OA
ATOM     48  O   UNL A   1      44.396  18.933  23.645  1.00  0.00    -0.744 OA
ENDBRANCH  41  45
ENDBRANCH  24  38
BRANCH  25  49
ATOM     49  C   UNL A   1      44.555  28.308  34.903  1.00  0.00     0.023 A 
ATOM     50  C   UNL A   1      44.590  27.506  36.062  1.00  0.00     0.031 A 
ATOM     51  C   UNL A   1      45.190  29.589  35.083  1.00  0.00     0.131 A 
ATOM     52  C   UNL A   1      45.307  27.951  37.230  1.00  0.00     0.055 A 
ATOM     53  C   UNL A   1      45.981  29.960  36.170  1.00  0.00     0.041 A 
ATOM     54  F   UNL A   1      45.067  30.584  34.196  1.00  0.00    -0.206 F 
ATOM     55  C   UNL A   1      46.063  29.125  37.250  1.00  0.00     0.022 A 
BRANCH  52  56
ATOM     56  S   UNL A   1      45.293  27.028  38.805  1.00  0.00     0.124 S 
ATOM     57  O   UNL A   1      44.879  28.057  39.753  1.00  0.00    -0.237 OA
ATOM     58  O   UNL A   1      44.335  25.960  38.551  1.00  0.00    -0.237 OA
ATOM     59  O   UNL A   1      46.682  26.585  38.947  1.00  0.00    -0.744 OA
ENDBRANCH  52  56
ENDBRANCH  25  49
BRANCH  37  60
ATOM     60  C   UNL A   1      45.807  27.038  29.075  1.00  0.00     0.023 A 
ATOM     61  C   UNL A   1      44.698  27.690  28.499  1.00  0.00     0.031 A 
ATOM     62  C   UNL A   1      47.067  27.559  28.727  1.00  0.00     0.131 A 
ATOM     63  C   UNL A   1      44.868  28.777  27.614  1.00  0.00     0.055 A 
ATOM     64  C   UNL A   1      47.241  28.639  27.845  1.00  0.00     0.041 A 
ATOM     65  F   UNL A   1      48.186  27.034  29.223  1.00  0.00    -0.206 F 
ATOM     66  C   UNL A   1      46.135  29.253  27.281  1.00  0.00     0.022 A 
BRANCH  63  67
ATOM     67  S   UNL A   1      43.405  29.586  26.904  1.00  0.00     0.124 S 
ATOM     68  O   UNL A   1      42.606  29.896  28.085  1.00  0.00    -0.237 OA
ATOM     69  O   UNL A   1      43.982  30.728  26.203  1.00  0.00    -0.237 OA
ATOM     70  O   UNL A   1      42.835  28.558  26.031  1.00  0.00    -0.744 OA
ENDBRANCH  63  67
ENDBRANCH  37  60
ENDBRANCH  11  12
ENDBRANCH   4   6
ENDBRANCH   1   2
BRANCH   1  71
ATOM     71  C   UNL A   1      33.475  29.533  27.257  1.00  0.00     0.042 C 
BRANCH  71  72
ATOM     72  C   UNL A   1      32.708  29.725  25.952  1.00  0.00     0.117 C 
BRANCH  72  73
ATOM     73  N   UNL A   1      33.547  29.526  24.788  1.00  0.00    -0.355 N 
ATOM     74  C   UNL A   1      33.569  28.594  23.799  1.00  0.00     0.238 C 
ATOM     75  H   UNL A   1      34.251  30.208  24.695  1.00  0.00     0.163 HD
ATOM     76  O   UNL A   1      34.394  28.821  22.898  1.00  0.00    -0.273 OA
BRANCH  74  77
ATOM     77  C   UNL A   1      32.677  27.346  23.710  1.00  0.00     0.162 C 
ATOM     78  C   UNL A   1      33.436  26.115  24.233  1.00  0.00     0.030 C 
ATOM     79  N   UNL A   1      31.328  27.391  24.296  1.00  0.00    -0.185 NA
ATOM     80  C   UNL A   1      33.480  26.113  25.753  1.00  0.00     0.004 C 
ATOM     81  C   UNL A   1      31.128  27.057  25.715  1.00  0.00     0.103 C 
ATOM     82  C   UNL A   1      32.065  26.007  26.287  1.00  0.00     0.017 C 
BRANCH  79  83
ATOM     83  S   UNL A   1      30.052  27.508  23.195  1.00  0.00     0.245 S 
ATOM     84  O   UNL A   1      30.606  27.290  21.875  1.00  0.00    -0.207 OA
ATOM     85  O   UNL A   1      28.950  26.710  23.690  1.00  0.00    -0.207 OA
BRANCH  83  86
ATOM     86  C   UNL A   1      29.437  29.115  23.105  1.00  0.00     0.100 A 
ATOM     87  C   UNL A   1      28.289  29.520  22.396  1.00  0.00     0.041 A 
ATOM     88  C   UNL A   1      29.936  30.233  23.749  1.00  0.00     0.104 A 
ATOM     89  C   UNL A   1      28.129  30.857  22.619  1.00  0.00     0.083 A 
ATOM     90  N   UNL A   1      29.153  31.305  23.401  1.00  0.00    -0.366 N 
ATOM     91  H   UNL A   1      29.305  32.241  23.669  1.00  0.00     0.165 HD
ENDBRANCH  83  86
ENDBRANCH  79  83
ENDBRANCH  74  77
ENDBRANCH  72  73
ENDBRANCH  71  72
ENDBRANCH   1  71
TORSDOF 15
ENDMDL
MODEL 3
REMARK VINA RESULT:     -12.3      4.492      9.995
REMARK SMILES O=C(NCCCNC(=O)[C@H]1CCCCN1S(=O)(=O)c1cc[nH]c1)c1ccc(-c2c3nc(c(-c4cc(S(=O)(=O)[O-])ccc4F)c4ccc([nH]4)c(-c4cc(S(=O)(=O)[O-])ccc4F)c4nc(c(-c5cc(S(=O)(=O)[O-])ccc5F)c5ccc2[nH]5)C=C4)C=C3)cc1
REMARK SMILES IDX 4 1 3 2 1 3 2 4 24 6 25 7 86 8 26 9 85 10 27 11 28 12 29 13
REMARK SMILES IDX 79 14 30 15 84 16 78 17 80 18 31 19 83 20 77 21 76 22 32 24
REMARK SMILES IDX 64 25 44 26 63 27 45 28 48 29 62 30 81 31 46 32 47 33 61 35
REMARK SMILES IDX 82 36 49 37 33 38 34 39 42 40 35 41 41 42 43 43 40 44 36 45
REMARK SMILES IDX 37 46 38 47 39 48 65 49 66 50 74 51 67 52 73 53 75 54 72 55
REMARK SMILES IDX 68 56 69 57 70 58 71 59 50 60 51 61 59 62 52 63 58 64 60 65
REMARK SMILES IDX 57 66 53 67 54 68 55 69 56 70 5 71 6 72 7 73 8 74 9 76 10 77
REMARK SMILES IDX 11 78 15 79 12 80 14 81 13 82 16 83 17 84 18 85 19 86 20 87
REMARK SMILES IDX 23 88 21 89 22 90
REMARK H PARENT 3 5 80 23 48 34 7 75 22 91
REMARK Flexibility Score: inf
ROOT
ATOM      1  C   UNL A   1      34.552  29.695  27.268  1.00  0.00     0.118 C 
ENDROOT
BRANCH   1   2
ATOM      2  N   UNL A   1      35.252  30.825  27.854  1.00  0.00    -0.352 N 
ATOM      3  O   UNL A   1      36.819  32.214  28.581  1.00  0.00    -0.269 OA
ATOM      4  C   UNL A   1      36.547  31.060  28.246  1.00  0.00     0.251 C 
ATOM      5  H   UNL A   1      34.664  31.600  28.004  1.00  0.00     0.163 HD
BRANCH   4   6
ATOM      6  C   UNL A   1      37.602  30.012  28.351  1.00  0.00     0.039 A 
ATOM      7  C   UNL A   1      38.673  29.876  27.469  1.00  0.00     0.014 A 
ATOM      8  C   UNL A   1      37.534  29.147  29.462  1.00  0.00     0.014 A 
ATOM      9  C   UNL A   1      39.618  28.861  27.656  1.00  0.00     0.010 A 
ATOM     10  C   UNL A   1      38.496  28.149  29.676  1.00  0.00     0.010 A 
ATOM     11  C   UNL A   1      39.557  28.013  28.777  1.00  0.00    -0.014 A 
BRANCH  11  12
ATOM     12  C   UNL A   1      40.837  27.334  29.168  1.00  0.00     0.031 A 
ATOM     13  C   UNL A   1      41.067  26.131  28.189  1.00  0.00     0.074 A 
ATOM     14  C   UNL A   1      41.514  27.758  30.292  1.00  0.00     0.049 A 
ATOM     15  N   UNL A   1      41.604  24.966  28.383  1.00  0.00    -0.248 NA
ATOM     16  C   UNL A   1      40.535  26.218  26.790  1.00  0.00     0.031 C 
ATOM     17  C   UNL A   1      41.300  29.049  30.973  1.00  0.00     0.029 A 
ATOM     18  N   UNL A   1      42.526  27.255  31.092  1.00  0.00    -0.354 N 
ATOM     19  C   UNL A   1      41.759  24.355  27.108  1.00  0.00     0.074 A 
ATOM     20  C   UNL A   1      40.920  25.078  26.213  1.00  0.00     0.031 C 
ATOM     21  C   UNL A   1      41.957  29.147  32.154  1.00  0.00     0.029 A 
ATOM     22  C   UNL A   1      42.799  27.980  32.315  1.00  0.00     0.049 A 
ATOM     23  H   UNL A   1      43.031  26.446  30.845  1.00  0.00     0.167 HD
ATOM     24  C   UNL A   1      42.741  23.441  26.836  1.00  0.00     0.034 A 
ATOM     25  C   UNL A   1      43.661  27.670  33.349  1.00  0.00     0.034 A 
ATOM     26  C   UNL A   1      43.456  23.175  28.038  1.00  0.00     0.049 A 
ATOM     27  C   UNL A   1      44.477  26.610  32.746  1.00  0.00     0.074 A 
ATOM     28  C   UNL A   1      43.116  22.547  29.204  1.00  0.00     0.029 A 
ATOM     29  N   UNL A   1      44.604  23.910  28.233  1.00  0.00    -0.354 N 
ATOM     30  N   UNL A   1      45.378  26.814  31.835  1.00  0.00    -0.248 NA
ATOM     31  C   UNL A   1      44.217  25.217  33.124  1.00  0.00     0.031 C 
ATOM     32  C   UNL A   1      43.724  23.370  30.169  1.00  0.00     0.029 A 
ATOM     33  C   UNL A   1      44.635  24.243  29.556  1.00  0.00     0.049 A 
ATOM     34  H   UNL A   1      45.273  24.150  27.551  1.00  0.00     0.167 HD
ATOM     35  C   UNL A   1      45.528  25.565  31.297  1.00  0.00     0.074 A 
ATOM     36  C   UNL A   1      45.094  24.627  32.315  1.00  0.00     0.031 C 
ATOM     37  C   UNL A   1      45.403  25.399  29.955  1.00  0.00     0.034 A 
BRANCH  24  38
ATOM     38  C   UNL A   1      43.408  22.968  25.560  1.00  0.00     0.023 A 
ATOM     39  C   UNL A   1      43.455  21.558  25.407  1.00  0.00     0.031 A 
ATOM     40  C   UNL A   1      44.314  23.701  24.786  1.00  0.00     0.131 A 
ATOM     41  C   UNL A   1      44.532  20.933  24.773  1.00  0.00     0.055 A 
ATOM     42  C   UNL A   1      45.319  23.066  24.035  1.00  0.00     0.041 A 
ATOM     43  F   UNL A   1      44.326  25.039  24.789  1.00  0.00    -0.206 F 
ATOM     44  C   UNL A   1      45.474  21.680  24.082  1.00  0.00     0.022 A 
BRANCH  41  45
ATOM     45  S   UNL A   1      44.806  19.174  25.139  1.00  0.00     0.124 S 
ATOM     46  O   UNL A   1      44.788  18.593  23.801  1.00  0.00    -0.237 OA
ATOM     47  O   UNL A   1      46.102  19.197  25.808  1.00  0.00    -0.237 OA
ATOM     48  O   UNL A   1      43.672  18.827  25.992  1.00  0.00    -0.744 OA
ENDBRANCH  41  45
ENDBRANCH  24  38
BRANCH  25  49
ATOM     49  C   UNL A   1      44.073  28.020  34.801  1.00  0.00     0.023 A 
ATOM     50  C   UNL A   1      44.294  27.159  35.895  1.00  0.00     0.031 A 
ATOM     51  C   UNL A   1      44.390  29.396  35.091  1.00  0.00     0.131 A 
ATOM     52  C   UNL A   1      44.885  27.665  37.107  1.00  0.00     0.055 A 
ATOM     53  C   UNL A   1      45.071  29.854  36.218  1.00  0.00     0.041 A 
ATOM     54  F   UNL A   1      44.038  30.402  34.281  1.00  0.00    -0.206 F 
ATOM     55  C   UNL A   1      45.345  28.979  37.232  1.00  0.00     0.022 A 
BRANCH  52  56
ATOM     56  S   UNL A   1      45.087  26.643  38.607  1.00  0.00     0.124 S 
ATOM     57  O   UNL A   1      43.711  26.529  39.080  1.00  0.00    -0.237 OA
ATOM     58  O   UNL A   1      45.696  25.424  38.093  1.00  0.00    -0.237 OA
ATOM     59  O   UNL A   1      45.962  27.457  39.453  1.00  0.00    -0.744 OA
ENDBRANCH  52  56
ENDBRANCH  25  49
BRANCH  37  60
ATOM     60  C   UNL A   1      45.725  26.629  29.101  1.00  0.00     0.023 A 
ATOM     61  C   UNL A   1      44.683  27.412  28.565  1.00  0.00     0.031 A 
ATOM     62  C   UNL A   1      47.027  27.007  28.722  1.00  0.00     0.131 A 
ATOM     63  C   UNL A   1      44.953  28.485  27.687  1.00  0.00     0.055 A 
ATOM     64  C   UNL A   1      47.300  28.071  27.847  1.00  0.00     0.041 A 
ATOM     65  F   UNL A   1      48.090  26.349  29.180  1.00  0.00    -0.206 F 
ATOM     66  C   UNL A   1      46.257  28.817  27.322  1.00  0.00     0.022 A 
BRANCH  63  67
ATOM     67  S   UNL A   1      43.574  29.466  27.028  1.00  0.00     0.124 S 
ATOM     68  O   UNL A   1      42.899  29.923  28.239  1.00  0.00    -0.237 OA
ATOM     69  O   UNL A   1      44.258  30.494  26.251  1.00  0.00    -0.237 OA
ATOM     70  O   UNL A   1      42.815  28.501  26.231  1.00  0.00    -0.744 OA
ENDBRANCH  63  67
ENDBRANCH  37  60
ENDBRANCH  11  12
ENDBRANCH   4   6
ENDBRANCH   1   2
BRANCH   1  71
ATOM     71  C   UNL A   1      33.038  29.696  27.439  1.00  0.00     0.042 C 
BRANCH  71  72
ATOM     72  C   UNL A   1      32.391  28.329  27.240  1.00  0.00     0.117 C 
BRANCH  72  73
ATOM     73  N   UNL A   1      33.179  27.469  26.380  1.00  0.00    -0.355 N 
ATOM     74  C   UNL A   1      32.919  26.303  25.731  1.00  0.00     0.238 C 
ATOM     75  H   UNL A   1      34.096  27.797  26.236  1.00  0.00     0.163 HD
ATOM     76  O   UNL A   1      33.836  25.912  24.991  1.00  0.00    -0.273 OA
BRANCH  74  77
ATOM     77  C   UNL A   1      31.624  25.480  25.832  1.00  0.00     0.162 C 
ATOM     78  C   UNL A   1      30.423  26.327  25.380  1.00  0.00     0.030 C 
ATOM     79  N   UNL A   1      31.572  24.155  25.196  1.00  0.00    -0.185 NA
ATOM     80  C   UNL A   1      30.373  26.429  23.864  1.00  0.00     0.004 C 
ATOM     81  C   UNL A   1      31.179  24.028  23.784  1.00  0.00     0.103 C 
ATOM     82  C   UNL A   1      30.168  25.044  23.283  1.00  0.00     0.017 C 
BRANCH  79  83
ATOM     83  S   UNL A   1      31.652  22.833  26.246  1.00  0.00     0.245 S 
ATOM     84  O   UNL A   1      31.498  23.346  27.590  1.00  0.00    -0.207 OA
ATOM     85  O   UNL A   1      30.783  21.793  25.734  1.00  0.00    -0.207 OA
BRANCH  83  86
ATOM     86  C   UNL A   1      33.225  22.133  26.266  1.00  0.00     0.100 A 
ATOM     87  C   UNL A   1      33.851  21.478  25.187  1.00  0.00     0.041 A 
ATOM     88  C   UNL A   1      34.130  22.152  27.314  1.00  0.00     0.104 A 
ATOM     89  C   UNL A   1      35.098  21.114  25.606  1.00  0.00     0.083 A 
ATOM     90  N   UNL A   1      35.255  21.477  26.911  1.00  0.00    -0.366 N 
ATOM     91  H   UNL A   1      36.043  21.287  27.471  1.00  0.00     0.165 HD
ENDBRANCH  83  86
ENDBRANCH  79  83
ENDBRANCH  74  77
ENDBRANCH  72  73
ENDBRANCH  71  72
ENDBRANCH   1  71
TORSDOF 15
ENDMDL
