MODEL 1
REMARK VINA RESULT:     -11.6      0.000      0.000
REMARK SMILES Cn1cncc1COc1c(F)cc(C(=O)NCCCNC(=O)c2ccc(-c3c4nc(c(-c5cc(S(=O)(=O)[O-])ccc5F)c5ccc([nH]5)c(-c5cc(S(=O)(=O)[O-])ccc5F)c5nc(c(-c6cc(S(=O)(=O)[O-])ccc6F)c6ccc3[nH]6)C=C5)C=C4)cc2)cc1F
REMARK SMILES IDX 18 1 17 2 16 3 14 4 15 5 13 7 9 8 10 9 87 10 11 11 12 12
REMARK SMILES IDX 86 13 88 14 8 15 7 16 6 17 1 18 2 19 3 20 4 21 5 22 19 23
REMARK SMILES IDX 20 24 21 25 22 27 23 28 24 29 85 30 25 31 84 32 26 33 27 34
REMARK SMILES IDX 28 35 78 36 29 37 83 38 77 39 79 40 30 41 82 42 76 43 75 44
REMARK SMILES IDX 31 46 63 47 43 48 62 49 44 50 47 51 61 52 80 53 45 54 46 55
REMARK SMILES IDX 60 57 81 58 48 59 32 60 33 61 41 62 34 63 40 64 42 65 39 66
REMARK SMILES IDX 35 67 36 68 37 69 38 70 64 71 65 72 73 73 66 74 72 75 74 76
REMARK SMILES IDX 71 77 67 78 68 79 69 80 70 81 49 82 50 83 58 84 51 85 57 86
REMARK SMILES IDX 59 87 56 88 52 89 53 90 54 91 55 92
REMARK H PARENT 16 6 20 26 79 45 47 56
REMARK Flexibility Score: inf
ROOT
ATOM      1  C   UNL A   1      31.471  31.951  26.518  1.00  0.00     0.042 C 
ENDROOT
BRANCH   1   2
ATOM      2  C   UNL A   1      31.442  30.437  26.316  1.00  0.00     0.118 C 
BRANCH   2   3
ATOM      3  N   UNL A   1      31.719  30.051  24.941  1.00  0.00    -0.352 N 
ATOM      4  C   UNL A   1      31.764  28.821  24.330  1.00  0.00     0.251 C 
ATOM      5  O   UNL A   1      31.823  28.776  23.103  1.00  0.00    -0.269 OA
ATOM      6  H   UNL A   1      31.911  30.807  24.340  1.00  0.00     0.163 HD
BRANCH   4   7
ATOM      7  C   UNL A   1      31.717  27.540  25.087  1.00  0.00     0.045 A 
ATOM      8  C   UNL A   1      31.521  25.092  26.473  1.00  0.00     0.191 A 
ATOM      9  C   UNL A   1      32.756  25.613  26.105  1.00  0.00     0.168 A 
ATOM     10  C   UNL A   1      30.375  25.771  26.072  1.00  0.00     0.168 A 
ATOM     11  F   UNL A   1      33.890  24.956  26.367  1.00  0.00    -0.203 F 
ATOM     12  C   UNL A   1      32.857  26.820  25.427  1.00  0.00     0.057 A 
ATOM     13  C   UNL A   1      30.462  26.985  25.384  1.00  0.00     0.057 A 
ATOM     14  F   UNL A   1      29.163  25.263  26.340  1.00  0.00    -0.203 F 
BRANCH   8  15
ATOM     15  O   UNL A   1      31.433  23.882  27.107  1.00  0.00    -0.481 OA
BRANCH  15  16
ATOM     16  C   UNL A   1      31.080  22.814  26.211  1.00  0.00     0.285 C 
BRANCH  16  17
ATOM     17  C   UNL A   1      32.320  22.185  25.678  1.00  0.00     0.075 A 
ATOM     18  C   UNL A   1      32.122  22.944  23.277  1.00  0.00     0.151 C 
ATOM     19  N   UNL A   1      32.733  22.225  24.367  1.00  0.00    -0.335 N 
ATOM     20  C   UNL A   1      33.855  21.453  24.257  1.00  0.00     0.199 A 
ATOM     21  N   UNL A   1      34.228  20.979  25.422  1.00  0.00    -0.245 NA
ATOM     22  C   UNL A   1      33.280  21.417  26.308  1.00  0.00     0.138 A 
ENDBRANCH  16  17
ENDBRANCH  15  16
ENDBRANCH   8  15
ENDBRANCH   4   7
ENDBRANCH   2   3
ENDBRANCH   1   2
BRANCH   1  23
ATOM     23  C   UNL A   1      32.776  32.484  27.096  1.00  0.00     0.118 C 
BRANCH  23  24
ATOM     24  N   UNL A   1      32.640  33.842  27.596  1.00  0.00    -0.352 N 
ATOM     25  C   UNL A   1      33.256  34.464  28.654  1.00  0.00     0.251 C 
ATOM     26  H   UNL A   1      32.006  34.406  27.096  1.00  0.00     0.163 HD
ATOM     27  O   UNL A   1      32.816  35.544  29.038  1.00  0.00    -0.269 OA
BRANCH  25  28
ATOM     28  C   UNL A   1      34.419  33.848  29.339  1.00  0.00     0.039 A 
ATOM     29  C   UNL A   1      35.705  34.270  28.984  1.00  0.00     0.014 A 
ATOM     30  C   UNL A   1      34.261  32.828  30.280  1.00  0.00     0.014 A 
ATOM     31  C   UNL A   1      36.823  33.706  29.608  1.00  0.00     0.010 A 
ATOM     32  C   UNL A   1      35.371  32.321  30.955  1.00  0.00     0.010 A 
ATOM     33  C   UNL A   1      36.665  32.748  30.621  1.00  0.00    -0.014 A 
BRANCH  33  34
ATOM     34  C   UNL A   1      37.839  32.175  31.331  1.00  0.00     0.031 A 
ATOM     35  C   UNL A   1      38.634  31.060  30.703  1.00  0.00     0.074 A 
ATOM     36  C   UNL A   1      38.151  32.615  32.565  1.00  0.00     0.049 A 
ATOM     37  N   UNL A   1      39.636  30.376  31.194  1.00  0.00    -0.248 NA
ATOM     38  C   UNL A   1      38.223  30.639  29.356  1.00  0.00     0.031 C 
ATOM     39  C   UNL A   1      37.431  33.663  33.292  1.00  0.00     0.029 A 
ATOM     40  N   UNL A   1      39.143  32.233  33.432  1.00  0.00    -0.354 N 
ATOM     41  C   UNL A   1      39.966  29.436  30.224  1.00  0.00     0.074 A 
ATOM     42  C   UNL A   1      39.014  29.598  29.145  1.00  0.00     0.031 C 
ATOM     43  C   UNL A   1      38.019  33.855  34.483  1.00  0.00     0.029 A 
ATOM     44  C   UNL A   1      39.126  32.915  34.627  1.00  0.00     0.049 A 
ATOM     45  H   UNL A   1      39.806  31.538  33.219  1.00  0.00     0.167 HD
ATOM     46  C   UNL A   1      40.982  28.536  30.224  1.00  0.00     0.034 A 
ATOM     47  C   UNL A   1      39.902  32.786  35.722  1.00  0.00     0.034 A 
ATOM     48  C   UNL A   1      41.927  28.395  31.308  1.00  0.00     0.049 A 
ATOM     49  C   UNL A   1      41.009  31.764  35.711  1.00  0.00     0.074 A 
ATOM     50  C   UNL A   1      43.026  27.558  31.392  1.00  0.00     0.029 A 
ATOM     51  N   UNL A   1      41.878  29.103  32.503  1.00  0.00    -0.354 N 
ATOM     52  N   UNL A   1      41.341  30.915  34.765  1.00  0.00    -0.248 NA
ATOM     53  C   UNL A   1      41.852  31.690  36.910  1.00  0.00     0.031 C 
ATOM     54  C   UNL A   1      43.597  27.708  32.662  1.00  0.00     0.029 A 
ATOM     55  C   UNL A   1      42.905  28.698  33.341  1.00  0.00     0.049 A 
ATOM     56  H   UNL A   1      41.210  29.793  32.723  1.00  0.00     0.167 HD
ATOM     57  C   UNL A   1      42.452  30.226  35.246  1.00  0.00     0.074 A 
ATOM     58  C   UNL A   1      42.739  30.772  36.558  1.00  0.00     0.031 C 
ATOM     59  C   UNL A   1      43.171  29.238  34.656  1.00  0.00     0.034 A 
BRANCH  46  60
ATOM     60  C   UNL A   1      41.096  27.618  29.027  1.00  0.00     0.023 A 
ATOM     61  C   UNL A   1      42.091  27.797  28.049  1.00  0.00     0.031 A 
ATOM     62  C   UNL A   1      40.177  26.570  28.840  1.00  0.00     0.131 A 
ATOM     63  C   UNL A   1      42.087  27.007  26.890  1.00  0.00     0.055 A 
ATOM     64  C   UNL A   1      40.234  25.728  27.726  1.00  0.00     0.041 A 
ATOM     65  F   UNL A   1      39.192  26.357  29.727  1.00  0.00    -0.206 F 
ATOM     66  C   UNL A   1      41.182  25.957  26.734  1.00  0.00     0.022 A 
BRANCH  63  67
ATOM     67  S   UNL A   1      43.176  27.480  25.518  1.00  0.00     0.124 S 
ATOM     68  O   UNL A   1      44.188  28.278  26.207  1.00  0.00    -0.237 OA
ATOM     69  O   UNL A   1      43.619  26.189  25.006  1.00  0.00    -0.237 OA
ATOM     70  O   UNL A   1      42.298  28.237  24.628  1.00  0.00    -0.744 OA
ENDBRANCH  63  67
ENDBRANCH  46  60
BRANCH  47  71
ATOM     71  C   UNL A   1      39.658  33.638  36.920  1.00  0.00     0.023 A 
ATOM     72  C   UNL A   1      38.960  33.140  38.031  1.00  0.00     0.031 A 
ATOM     73  C   UNL A   1      40.099  34.973  36.962  1.00  0.00     0.131 A 
ATOM     74  C   UNL A   1      38.687  33.981  39.121  1.00  0.00     0.055 A 
ATOM     75  C   UNL A   1      39.871  35.790  38.071  1.00  0.00     0.041 A 
ATOM     76  F   UNL A   1      40.776  35.497  35.929  1.00  0.00    -0.206 F 
ATOM     77  C   UNL A   1      39.150  35.298  39.154  1.00  0.00     0.022 A 
BRANCH  74  78
ATOM     78  S   UNL A   1      37.652  33.347  40.469  1.00  0.00     0.124 S 
ATOM     79  O   UNL A   1      36.464  32.903  39.747  1.00  0.00    -0.237 OA
ATOM     80  O   UNL A   1      38.493  32.295  41.029  1.00  0.00    -0.237 OA
ATOM     81  O   UNL A   1      37.460  34.514  41.328  1.00  0.00    -0.744 OA
ENDBRANCH  74  78
ENDBRANCH  47  71
BRANCH  59  82
ATOM     82  C   UNL A   1      44.367  28.715  35.415  1.00  0.00     0.023 A 
ATOM     83  C   UNL A   1      44.269  27.615  36.286  1.00  0.00     0.031 A 
ATOM     84  C   UNL A   1      45.620  29.338  35.275  1.00  0.00     0.131 A 
ATOM     85  C   UNL A   1      45.390  27.209  37.025  1.00  0.00     0.055 A 
ATOM     86  C   UNL A   1      46.746  28.889  35.965  1.00  0.00     0.041 A 
ATOM     87  F   UNL A   1      45.770  30.395  34.460  1.00  0.00    -0.206 F 
ATOM     88  C   UNL A   1      46.632  27.827  36.858  1.00  0.00     0.022 A 
BRANCH  85  89
ATOM     89  S   UNL A   1      45.182  25.919  38.284  1.00  0.00     0.124 S 
ATOM     90  O   UNL A   1      44.135  26.486  39.129  1.00  0.00    -0.237 OA
ATOM     91  O   UNL A   1      44.798  24.760  37.484  1.00  0.00    -0.237 OA
ATOM     92  O   UNL A   1      46.502  25.831  38.907  1.00  0.00    -0.744 OA
ENDBRANCH  85  89
ENDBRANCH  59  82
ENDBRANCH  33  34
ENDBRANCH  25  28
ENDBRANCH  23  24
ENDBRANCH   1  23
TORSDOF 16
ENDMDL
MODEL 2
REMARK VINA RESULT:     -11.6      5.877      8.617
REMARK SMILES Cn1cncc1COc1c(F)cc(C(=O)NCCCNC(=O)c2ccc(-c3c4nc(c(-c5cc(S(=O)(=O)[O-])ccc5F)c5ccc([nH]5)c(-c5cc(S(=O)(=O)[O-])ccc5F)c5nc(c(-c6cc(S(=O)(=O)[O-])ccc6F)c6ccc3[nH]6)C=C5)C=C4)cc2)cc1F
REMARK SMILES IDX 18 1 17 2 16 3 14 4 15 5 13 7 9 8 10 9 87 10 11 11 12 12
REMARK SMILES IDX 86 13 88 14 8 15 7 16 6 17 1 18 2 19 3 20 4 21 5 22 19 23
REMARK SMILES IDX 20 24 21 25 22 27 23 28 24 29 85 30 25 31 84 32 26 33 27 34
REMARK SMILES IDX 28 35 78 36 29 37 83 38 77 39 79 40 30 41 82 42 76 43 75 44
REMARK SMILES IDX 31 46 63 47 43 48 62 49 44 50 47 51 61 52 80 53 45 54 46 55
REMARK SMILES IDX 60 57 81 58 48 59 32 60 33 61 41 62 34 63 40 64 42 65 39 66
REMARK SMILES IDX 35 67 36 68 37 69 38 70 64 71 65 72 73 73 66 74 72 75 74 76
REMARK SMILES IDX 71 77 67 78 68 79 69 80 70 81 49 82 50 83 58 84 51 85 57 86
REMARK SMILES IDX 59 87 56 88 52 89 53 90 54 91 55 92
REMARK H PARENT 16 6 20 26 79 45 47 56
REMARK Flexibility Score: inf
ROOT
ATOM      1  C   UNL A   1      36.735  22.054  24.288  1.00  0.00     0.042 C 
ENDROOT
BRANCH   1   2
ATOM      2  C   UNL A   1      36.329  23.371  23.627  1.00  0.00     0.118 C 
BRANCH   2   3
ATOM      3  N   UNL A   1      35.286  24.068  24.363  1.00  0.00    -0.352 N 
ATOM      4  C   UNL A   1      34.088  23.634  24.878  1.00  0.00     0.251 C 
ATOM      5  O   UNL A   1      33.473  24.378  25.640  1.00  0.00    -0.269 OA
ATOM      6  H   UNL A   1      35.470  25.023  24.519  1.00  0.00     0.163 HD
BRANCH   4   7
ATOM      7  C   UNL A   1      33.516  22.294  24.576  1.00  0.00     0.045 A 
ATOM      8  C   UNL A   1      32.407  19.741  24.119  1.00  0.00     0.191 A 
ATOM      9  C   UNL A   1      32.380  20.723  23.136  1.00  0.00     0.168 A 
ATOM     10  C   UNL A   1      32.928  20.073  25.366  1.00  0.00     0.168 A 
ATOM     11  F   UNL A   1      31.800  20.502  21.953  1.00  0.00    -0.203 F 
ATOM     12  C   UNL A   1      32.929  21.979  23.355  1.00  0.00     0.057 A 
ATOM     13  C   UNL A   1      33.479  21.336  25.602  1.00  0.00     0.057 A 
ATOM     14  F   UNL A   1      32.903  19.179  26.365  1.00  0.00    -0.203 F 
BRANCH   8  15
ATOM     15  O   UNL A   1      31.828  18.519  23.904  1.00  0.00    -0.481 OA
BRANCH  15  16
ATOM     16  C   UNL A   1      32.681  17.625  23.169  1.00  0.00     0.285 C 
BRANCH  16  17
ATOM     17  C   UNL A   1      33.385  16.719  24.118  1.00  0.00     0.075 A 
ATOM     18  C   UNL A   1      35.499  18.067  24.425  1.00  0.00     0.151 C 
ATOM     19  N   UNL A   1      34.648  16.921  24.624  1.00  0.00    -0.335 N 
ATOM     20  C   UNL A   1      34.978  15.828  25.375  1.00  0.00     0.199 A 
ATOM     21  N   UNL A   1      33.985  14.973  25.441  1.00  0.00    -0.245 NA
ATOM     22  C   UNL A   1      32.997  15.508  24.659  1.00  0.00     0.138 A 
ENDBRANCH  16  17
ENDBRANCH  15  16
ENDBRANCH   8  15
ENDBRANCH   4   7
ENDBRANCH   2   3
ENDBRANCH   1   2
BRANCH   1  23
ATOM     23  C   UNL A   1      37.127  22.182  25.754  1.00  0.00     0.118 C 
BRANCH  23  24
ATOM     24  N   UNL A   1      38.184  21.253  26.121  1.00  0.00    -0.352 N 
ATOM     25  C   UNL A   1      39.482  21.492  26.502  1.00  0.00     0.251 C 
ATOM     26  H   UNL A   1      37.928  20.303  26.093  1.00  0.00     0.163 HD
ATOM     27  O   UNL A   1      40.266  20.547  26.539  1.00  0.00    -0.269 OA
BRANCH  25  28
ATOM     28  C   UNL A   1      39.944  22.858  26.848  1.00  0.00     0.039 A 
ATOM     29  C   UNL A   1      40.838  23.013  27.913  1.00  0.00     0.014 A 
ATOM     30  C   UNL A   1      39.470  23.986  26.174  1.00  0.00     0.014 A 
ATOM     31  C   UNL A   1      41.290  24.288  28.267  1.00  0.00     0.010 A 
ATOM     32  C   UNL A   1      39.979  25.248  26.478  1.00  0.00     0.010 A 
ATOM     33  C   UNL A   1      40.888  25.415  27.533  1.00  0.00    -0.014 A 
BRANCH  33  34
ATOM     34  C   UNL A   1      41.397  26.773  27.862  1.00  0.00     0.031 A 
ATOM     35  C   UNL A   1      42.811  27.156  27.512  1.00  0.00     0.074 A 
ATOM     36  C   UNL A   1      40.609  27.636  28.530  1.00  0.00     0.049 A 
ATOM     37  N   UNL A   1      43.464  28.257  27.785  1.00  0.00    -0.248 NA
ATOM     38  C   UNL A   1      43.603  26.154  26.786  1.00  0.00     0.031 C 
ATOM     39  C   UNL A   1      39.234  27.364  28.958  1.00  0.00     0.029 A 
ATOM     40  N   UNL A   1      40.847  28.911  28.977  1.00  0.00    -0.354 N 
ATOM     41  C   UNL A   1      44.747  28.074  27.278  1.00  0.00     0.074 A 
ATOM     42  C   UNL A   1      44.794  26.731  26.739  1.00  0.00     0.031 C 
ATOM     43  C   UNL A   1      38.746  28.445  29.584  1.00  0.00     0.029 A 
ATOM     44  C   UNL A   1      39.783  29.470  29.646  1.00  0.00     0.049 A 
ATOM     45  H   UNL A   1      41.699  29.382  28.832  1.00  0.00     0.167 HD
ATOM     46  C   UNL A   1      45.781  28.952  27.246  1.00  0.00     0.034 A 
ATOM     47  C   UNL A   1      39.661  30.667  30.256  1.00  0.00     0.034 A 
ATOM     48  C   UNL A   1      45.711  30.292  27.782  1.00  0.00     0.049 A 
ATOM     49  C   UNL A   1      40.830  31.618  30.230  1.00  0.00     0.074 A 
ATOM     50  C   UNL A   1      46.675  31.284  27.755  1.00  0.00     0.029 A 
ATOM     51  N   UNL A   1      44.616  30.824  28.453  1.00  0.00    -0.354 N 
ATOM     52  N   UNL A   1      42.020  31.450  29.702  1.00  0.00    -0.248 NA
ATOM     53  C   UNL A   1      40.633  32.923  30.872  1.00  0.00     0.031 C 
ATOM     54  C   UNL A   1      46.192  32.387  28.470  1.00  0.00     0.029 A 
ATOM     55  C   UNL A   1      44.894  32.116  28.873  1.00  0.00     0.049 A 
ATOM     56  H   UNL A   1      43.766  30.352  28.608  1.00  0.00     0.167 HD
ATOM     57  C   UNL A   1      42.706  32.641  29.925  1.00  0.00     0.074 A 
ATOM     58  C   UNL A   1      41.788  33.521  30.619  1.00  0.00     0.031 C 
ATOM     59  C   UNL A   1      43.975  32.979  29.581  1.00  0.00     0.034 A 
BRANCH  46  60
ATOM     60  C   UNL A   1      47.080  28.473  26.638  1.00  0.00     0.023 A 
ATOM     61  C   UNL A   1      47.261  28.397  25.245  1.00  0.00     0.031 A 
ATOM     62  C   UNL A   1      48.140  28.050  27.458  1.00  0.00     0.131 A 
ATOM     63  C   UNL A   1      48.430  27.827  24.718  1.00  0.00     0.055 A 
ATOM     64  C   UNL A   1      49.339  27.567  26.927  1.00  0.00     0.041 A 
ATOM     65  F   UNL A   1      48.025  28.079  28.796  1.00  0.00    -0.206 F 
ATOM     66  C   UNL A   1      49.482  27.436  25.549  1.00  0.00     0.022 A 
BRANCH  63  67
ATOM     67  S   UNL A   1      48.487  27.453  22.944  1.00  0.00     0.124 S 
ATOM     68  O   UNL A   1      47.312  28.170  22.454  1.00  0.00    -0.237 OA
ATOM     69  O   UNL A   1      49.780  27.998  22.547  1.00  0.00    -0.237 OA
ATOM     70  O   UNL A   1      48.382  25.996  22.897  1.00  0.00    -0.744 OA
ENDBRANCH  63  67
ENDBRANCH  46  60
BRANCH  47  71
ATOM     71  C   UNL A   1      38.392  31.031  30.948  1.00  0.00     0.023 A 
ATOM     72  C   UNL A   1      37.346  31.660  30.257  1.00  0.00     0.031 A 
ATOM     73  C   UNL A   1      38.218  30.777  32.321  1.00  0.00     0.131 A 
ATOM     74  C   UNL A   1      36.186  32.051  30.946  1.00  0.00     0.055 A 
ATOM     75  C   UNL A   1      37.042  31.121  32.990  1.00  0.00     0.041 A 
ATOM     76  F   UNL A   1      39.185  30.173  33.028  1.00  0.00    -0.206 F 
ATOM     77  C   UNL A   1      36.023  31.773  32.305  1.00  0.00     0.022 A 
BRANCH  74  78
ATOM     78  S   UNL A   1      34.923  32.997  30.052  1.00  0.00     0.124 S 
ATOM     79  O   UNL A   1      34.402  31.997  29.127  1.00  0.00    -0.237 OA
ATOM     80  O   UNL A   1      34.028  33.403  31.130  1.00  0.00    -0.237 OA
ATOM     81  O   UNL A   1      35.685  34.082  29.435  1.00  0.00    -0.744 OA
ENDBRANCH  74  78
ENDBRANCH  47  71
BRANCH  59  82
ATOM     82  C   UNL A   1      44.426  34.380  29.919  1.00  0.00     0.023 A 
ATOM     83  C   UNL A   1      44.181  35.466  29.061  1.00  0.00     0.031 A 
ATOM     84  C   UNL A   1      45.126  34.625  31.114  1.00  0.00     0.131 A 
ATOM     85  C   UNL A   1      44.682  36.736  29.382  1.00  0.00     0.055 A 
ATOM     86  C   UNL A   1      45.567  35.904  31.459  1.00  0.00     0.041 A 
ATOM     87  F   UNL A   1      45.392  33.624  31.969  1.00  0.00    -0.206 F 
ATOM     88  C   UNL A   1      45.358  36.966  30.584  1.00  0.00     0.022 A 
BRANCH  85  89
ATOM     89  S   UNL A   1      44.521  38.070  28.164  1.00  0.00     0.124 S 
ATOM     90  O   UNL A   1      45.915  38.330  27.814  1.00  0.00    -0.237 OA
ATOM     91  O   UNL A   1      43.708  37.448  27.124  1.00  0.00    -0.237 OA
ATOM     92  O   UNL A   1      43.860  39.139  28.910  1.00  0.00    -0.744 OA
ENDBRANCH  85  89
ENDBRANCH  59  82
ENDBRANCH  33  34
ENDBRANCH  25  28
ENDBRANCH  23  24
ENDBRANCH   1  23
TORSDOF 16
ENDMDL
MODEL 3
REMARK VINA RESULT:     -11.5      6.183     11.424
REMARK SMILES Cn1cncc1COc1c(F)cc(C(=O)NCCCNC(=O)c2ccc(-c3c4nc(c(-c5cc(S(=O)(=O)[O-])ccc5F)c5ccc([nH]5)c(-c5cc(S(=O)(=O)[O-])ccc5F)c5nc(c(-c6cc(S(=O)(=O)[O-])ccc6F)c6ccc3[nH]6)C=C5)C=C4)cc2)cc1F
REMARK SMILES IDX 18 1 17 2 16 3 14 4 15 5 13 7 9 8 10 9 87 10 11 11 12 12
REMARK SMILES IDX 86 13 88 14 8 15 7 16 6 17 1 18 2 19 3 20 4 21 5 22 19 23
REMARK SMILES IDX 20 24 21 25 22 27 23 28 24 29 85 30 25 31 84 32 26 33 27 34
REMARK SMILES IDX 28 35 78 36 29 37 83 38 77 39 79 40 30 41 82 42 76 43 75 44
REMARK SMILES IDX 31 46 63 47 43 48 62 49 44 50 47 51 61 52 80 53 45 54 46 55
REMARK SMILES IDX 60 57 81 58 48 59 32 60 33 61 41 62 34 63 40 64 42 65 39 66
REMARK SMILES IDX 35 67 36 68 37 69 38 70 64 71 65 72 73 73 66 74 72 75 74 76
REMARK SMILES IDX 71 77 67 78 68 79 69 80 70 81 49 82 50 83 58 84 51 85 57 86
REMARK SMILES IDX 59 87 56 88 52 89 53 90 54 91 55 92
REMARK H PARENT 16 6 20 26 79 45 47 56
REMARK Flexibility Score: inf
ROOT
ATOM      1  C   UNL A   1      38.147  19.913  24.873  1.00  0.00     0.042 C 
ENDROOT
BRANCH   1   2
ATOM      2  C   UNL A   1      37.257  21.117  24.566  1.00  0.00     0.118 C 
BRANCH   2   3
ATOM      3  N   UNL A   1      37.762  22.349  25.151  1.00  0.00    -0.352 N 
ATOM      4  C   UNL A   1      37.117  23.417  25.725  1.00  0.00     0.251 C 
ATOM      5  O   UNL A   1      37.787  24.252  26.332  1.00  0.00    -0.269 OA
ATOM      6  H   UNL A   1      38.743  22.433  25.131  1.00  0.00     0.163 HD
BRANCH   4   7
ATOM      7  C   UNL A   1      35.640  23.595  25.670  1.00  0.00     0.045 A 
ATOM      8  C   UNL A   1      32.848  23.922  25.448  1.00  0.00     0.191 A 
ATOM      9  C   UNL A   1      33.417  23.353  26.581  1.00  0.00     0.168 A 
ATOM     10  C   UNL A   1      33.686  24.256  24.388  1.00  0.00     0.168 A 
ATOM     11  F   UNL A   1      32.659  22.913  27.589  1.00  0.00    -0.203 F 
ATOM     12  C   UNL A   1      34.791  23.195  26.696  1.00  0.00     0.057 A 
ATOM     13  C   UNL A   1      35.071  24.098  24.489  1.00  0.00     0.057 A 
ATOM     14  F   UNL A   1      33.169  24.736  23.248  1.00  0.00    -0.203 F 
BRANCH   8  15
ATOM     15  O   UNL A   1      31.489  24.036  25.329  1.00  0.00    -0.481 OA
BRANCH  15  16
ATOM     16  C   UNL A   1      30.960  25.143  26.081  1.00  0.00     0.285 C 
BRANCH  16  17
ATOM     17  C   UNL A   1      30.815  26.324  25.187  1.00  0.00     0.075 A 
ATOM     18  C   UNL A   1      32.885  27.586  25.895  1.00  0.00     0.151 C 
ATOM     19  N   UNL A   1      31.660  27.409  25.157  1.00  0.00    -0.335 N 
ATOM     20  C   UNL A   1      31.139  28.323  24.284  1.00  0.00     0.199 A 
ATOM     21  N   UNL A   1      30.056  27.865  23.701  1.00  0.00    -0.245 NA
ATOM     22  C   UNL A   1      29.839  26.634  24.258  1.00  0.00     0.138 A 
ENDBRANCH  16  17
ENDBRANCH  15  16
ENDBRANCH   8  15
ENDBRANCH   4   7
ENDBRANCH   2   3
ENDBRANCH   1   2
BRANCH   1  23
ATOM     23  C   UNL A   1      38.992  20.060  26.132  1.00  0.00     0.118 C 
BRANCH  23  24
ATOM     24  N   UNL A   1      40.166  19.203  26.107  1.00  0.00    -0.352 N 
ATOM     25  C   UNL A   1      41.501  19.527  26.125  1.00  0.00     0.251 C 
ATOM     26  H   UNL A   1      39.974  18.238  26.072  1.00  0.00     0.163 HD
ATOM     27  O   UNL A   1      42.320  18.651  25.861  1.00  0.00    -0.269 OA
BRANCH  25  28
ATOM     28  C   UNL A   1      41.956  20.903  26.440  1.00  0.00     0.039 A 
ATOM     29  C   UNL A   1      42.101  21.817  25.391  1.00  0.00     0.014 A 
ATOM     30  C   UNL A   1      42.291  21.285  27.741  1.00  0.00     0.014 A 
ATOM     31  C   UNL A   1      42.532  23.121  25.654  1.00  0.00     0.010 A 
ATOM     32  C   UNL A   1      42.647  22.606  28.012  1.00  0.00     0.010 A 
ATOM     33  C   UNL A   1      42.780  23.536  26.972  1.00  0.00    -0.014 A 
BRANCH  33  34
ATOM     34  C   UNL A   1      43.190  24.933  27.276  1.00  0.00     0.031 A 
ATOM     35  C   UNL A   1      42.222  25.879  27.937  1.00  0.00     0.074 A 
ATOM     36  C   UNL A   1      44.410  25.365  26.903  1.00  0.00     0.049 A 
ATOM     37  N   UNL A   1      42.361  27.152  28.210  1.00  0.00    -0.248 NA
ATOM     38  C   UNL A   1      40.912  25.325  28.308  1.00  0.00     0.031 C 
ATOM     39  C   UNL A   1      45.420  24.552  26.222  1.00  0.00     0.029 A 
ATOM     40  N   UNL A   1      45.006  26.594  27.032  1.00  0.00    -0.354 N 
ATOM     41  C   UNL A   1      41.153  27.554  28.772  1.00  0.00     0.074 A 
ATOM     42  C   UNL A   1      40.275  26.403  28.738  1.00  0.00     0.031 C 
ATOM     43  C   UNL A   1      46.516  25.297  26.014  1.00  0.00     0.029 A 
ATOM     44  C   UNL A   1      46.274  26.651  26.501  1.00  0.00     0.049 A 
ATOM     45  H   UNL A   1      44.569  27.363  27.464  1.00  0.00     0.167 HD
ATOM     46  C   UNL A   1      40.817  28.764  29.287  1.00  0.00     0.034 A 
ATOM     47  C   UNL A   1      47.139  27.681  26.402  1.00  0.00     0.034 A 
ATOM     48  C   UNL A   1      41.711  29.897  29.317  1.00  0.00     0.049 A 
ATOM     49  C   UNL A   1      46.736  29.023  26.957  1.00  0.00     0.074 A 
ATOM     50  C   UNL A   1      41.498  31.151  29.863  1.00  0.00     0.029 A 
ATOM     51  N   UNL A   1      42.989  29.918  28.770  1.00  0.00    -0.354 N 
ATOM     52  N   UNL A   1      45.608  29.375  27.531  1.00  0.00    -0.248 NA
ATOM     53  C   UNL A   1      47.726  30.101  26.862  1.00  0.00     0.031 C 
ATOM     54  C   UNL A   1      42.614  31.948  29.583  1.00  0.00     0.029 A 
ATOM     55  C   UNL A   1      43.560  31.171  28.935  1.00  0.00     0.049 A 
ATOM     56  H   UNL A   1      43.426  29.153  28.329  1.00  0.00     0.167 HD
ATOM     57  C   UNL A   1      45.767  30.711  27.891  1.00  0.00     0.074 A 
ATOM     58  C   UNL A   1      47.104  31.092  27.483  1.00  0.00     0.031 C 
ATOM     59  C   UNL A   1      44.890  31.544  28.508  1.00  0.00     0.034 A 
BRANCH  46  60
ATOM     60  C   UNL A   1      39.412  28.923  29.825  1.00  0.00     0.023 A 
ATOM     61  C   UNL A   1      38.360  29.393  29.020  1.00  0.00     0.031 A 
ATOM     62  C   UNL A   1      39.127  28.636  31.172  1.00  0.00     0.131 A 
ATOM     63  C   UNL A   1      37.102  29.650  29.586  1.00  0.00     0.055 A 
ATOM     64  C   UNL A   1      37.848  28.807  31.709  1.00  0.00     0.041 A 
ATOM     65  F   UNL A   1      40.091  28.201  31.999  1.00  0.00    -0.206 F 
ATOM     66  C   UNL A   1      36.831  29.335  30.919  1.00  0.00     0.022 A 
BRANCH  63  67
ATOM     67  S   UNL A   1      35.877  30.553  28.598  1.00  0.00     0.124 S 
ATOM     68  O   UNL A   1      36.732  31.283  27.665  1.00  0.00    -0.237 OA
ATOM     69  O   UNL A   1      35.077  29.477  28.025  1.00  0.00    -0.237 OA
ATOM     70  O   UNL A   1      35.190  31.386  29.583  1.00  0.00    -0.744 OA
ENDBRANCH  63  67
ENDBRANCH  46  60
BRANCH  47  71
ATOM     71  C   UNL A   1      48.463  27.491  25.745  1.00  0.00     0.023 A 
ATOM     72  C   UNL A   1      48.600  27.592  24.352  1.00  0.00     0.031 A 
ATOM     73  C   UNL A   1      49.608  27.180  26.501  1.00  0.00     0.131 A 
ATOM     74  C   UNL A   1      49.845  27.345  23.752  1.00  0.00     0.055 A 
ATOM     75  C   UNL A   1      50.855  26.987  25.903  1.00  0.00     0.041 A 
ATOM     76  F   UNL A   1      49.532  27.077  27.836  1.00  0.00    -0.206 F 
ATOM     77  C   UNL A   1      50.976  27.057  24.520  1.00  0.00     0.022 A 
BRANCH  74  78
ATOM     78  S   UNL A   1      49.948  27.335  21.941  1.00  0.00     0.124 S 
ATOM     79  O   UNL A   1      49.811  28.753  21.627  1.00  0.00    -0.237 OA
ATOM     80  O   UNL A   1      51.267  26.752  21.716  1.00  0.00    -0.237 OA
ATOM     81  O   UNL A   1      48.820  26.494  21.541  1.00  0.00    -0.744 OA
ENDBRANCH  74  78
ENDBRANCH  47  71
BRANCH  59  82
ATOM     82  C   UNL A   1      45.373  32.942  28.814  1.00  0.00     0.023 A 
ATOM     83  C   UNL A   1      45.203  34.001  27.905  1.00  0.00     0.031 A 
ATOM     84  C   UNL A   1      46.028  33.212  30.029  1.00  0.00     0.131 A 
ATOM     85  C   UNL A   1      45.731  35.266  28.200  1.00  0.00     0.055 A 
ATOM     86  C   UNL A   1      46.495  34.488  30.344  1.00  0.00     0.041 A 
ATOM     87  F   UNL A   1      46.222  32.237  30.932  1.00  0.00    -0.206 F 
ATOM     88  C   UNL A   1      46.361  35.521  29.421  1.00  0.00     0.022 A 
BRANCH  85  89
ATOM     89  S   UNL A   1      45.669  36.555  26.926  1.00  0.00     0.124 S 
ATOM     90  O   UNL A   1      46.184  35.849  25.756  1.00  0.00    -0.237 OA
ATOM     91  O   UNL A   1      44.251  36.895  26.893  1.00  0.00    -0.237 OA
ATOM     92  O   UNL A   1      46.544  37.601  27.453  1.00  0.00    -0.744 OA
ENDBRANCH  85  89
ENDBRANCH  59  82
ENDBRANCH  33  34
ENDBRANCH  25  28
ENDBRANCH  23  24
ENDBRANCH   1  23
TORSDOF 16
ENDMDL
