MODEL 1
REMARK VINA RESULT:     -10.4      0.000      0.000
REMARK SMILES CCN(CC(C)(C)O)C(=O)[C@H]1CC=CC[C@H]1C(=O)NCCCNC(=O)c1ccc(-c2c3nc(c(-c4cc(S(=O)(=O)[O-])ccc4F)c4ccc([nH]4)c(-c4cc(S(=O)(=O)[O-])ccc4F)c4nc(c(-c5cc(S(=O)(=O)[O-])ccc5F)c5ccc2[nH]5)C=C4)C=C3)cc1
REMARK SMILES IDX 20 1 19 2 17 3 18 4 16 6 11 7 12 8 13 9 15 10 14 11 9 12
REMARK SMILES IDX 10 13 3 14 2 15 1 16 4 17 5 18 6 19 7 20 8 21 21 23 22 24
REMARK SMILES IDX 23 25 24 26 25 28 26 29 27 30 88 31 28 32 87 33 29 34 30 35
REMARK SMILES IDX 31 36 81 37 32 38 86 39 80 40 82 41 33 42 85 43 79 44 78 45
REMARK SMILES IDX 34 47 66 48 46 49 65 50 47 51 50 52 64 53 83 54 48 55 49 56
REMARK SMILES IDX 63 58 84 59 51 60 35 61 36 62 44 63 37 64 43 65 45 66 42 67
REMARK SMILES IDX 38 68 39 69 40 70 41 71 67 72 68 73 76 74 69 75 75 76 77 77
REMARK SMILES IDX 74 78 70 79 71 80 72 81 73 82 52 83 53 84 61 85 54 86 60 87
REMARK SMILES IDX 62 88 59 89 55 90 56 91 57 92 58 93
REMARK H PARENT 19 5 8 22 23 27 82 46 50 57
REMARK Flexibility Score: inf
ROOT
ATOM      1  C   UNL A   1      31.641  28.270  27.317  1.00  0.00     0.117 C 
ENDROOT
BRANCH   1   2
ATOM      2  N   UNL A   1      30.985  27.054  26.891  1.00  0.00    -0.356 N 
ATOM      3  C   UNL A   1      30.977  26.291  25.784  1.00  0.00     0.224 C 
ATOM      4  O   UNL A   1      30.210  25.314  25.887  1.00  0.00    -0.275 OA
ATOM      5  H   UNL A   1      30.393  26.691  27.589  1.00  0.00     0.163 HD
BRANCH   3   6
ATOM      6  C   UNL A   1      31.826  26.370  24.496  1.00  0.00     0.095 C 
ATOM      7  C   UNL A   1      33.207  25.727  24.186  1.00  0.00     0.095 C 
ATOM      8  C   UNL A   1      33.720  25.910  22.744  1.00  0.00     0.041 C 
ATOM      9  C   UNL A   1      32.671  26.005  21.685  1.00  0.00    -0.030 C 
ATOM     10  C   UNL A   1      30.827  26.465  23.313  1.00  0.00     0.041 C 
ATOM     11  C   UNL A   1      31.383  26.255  21.939  1.00  0.00    -0.030 C 
BRANCH   7  12
ATOM     12  C   UNL A   1      33.758  24.485  24.899  1.00  0.00     0.226 C 
ATOM     13  O   UNL A   1      33.814  24.585  26.134  1.00  0.00    -0.275 OA
BRANCH  12  14
ATOM     14  N   UNL A   1      34.202  23.320  24.285  1.00  0.00    -0.340 N 
BRANCH  14  15
ATOM     15  C   UNL A   1      33.207  22.252  24.008  1.00  0.00     0.116 C 
ATOM     16  C   UNL A   1      32.046  22.620  23.087  1.00  0.00     0.027 C 
ENDBRANCH  14  15
BRANCH  14  17
ATOM     17  C   UNL A   1      35.558  23.011  23.795  1.00  0.00     0.154 C 
BRANCH  17  18
ATOM     18  C   UNL A   1      36.613  22.539  24.850  1.00  0.00     0.077 C 
ATOM     19  C   UNL A   1      37.142  23.698  25.681  1.00  0.00     0.043 C 
ATOM     20  C   UNL A   1      35.951  21.529  25.797  1.00  0.00     0.043 C 
BRANCH  18  21
ATOM     21  O   UNL A   1      37.717  21.879  24.229  1.00  0.00    -0.389 OA
ATOM     22  H   UNL A   1      38.534  22.368  24.419  1.00  0.00     0.211 HD
ENDBRANCH  18  21
ENDBRANCH  17  18
ENDBRANCH  14  17
ENDBRANCH  12  14
ENDBRANCH   7  12
ENDBRANCH   3   6
ENDBRANCH   1   2
BRANCH   1  23
ATOM     23  C   UNL A   1      33.157  28.186  27.167  1.00  0.00     0.042 C 
BRANCH  23  24
ATOM     24  C   UNL A   1      33.751  29.233  26.241  1.00  0.00     0.118 C 
BRANCH  24  25
ATOM     25  N   UNL A   1      33.691  30.578  26.805  1.00  0.00    -0.352 N 
ATOM     26  C   UNL A   1      34.455  31.233  27.741  1.00  0.00     0.251 C 
ATOM     27  H   UNL A   1      32.957  31.124  26.443  1.00  0.00     0.163 HD
ATOM     28  O   UNL A   1      34.033  32.307  28.172  1.00  0.00    -0.269 OA
BRANCH  26  29
ATOM     29  C   UNL A   1      35.740  30.694  28.259  1.00  0.00     0.039 A 
ATOM     30  C   UNL A   1      35.710  29.825  29.359  1.00  0.00     0.014 A 
ATOM     31  C   UNL A   1      36.977  31.071  27.740  1.00  0.00     0.014 A 
ATOM     32  C   UNL A   1      36.899  29.298  29.882  1.00  0.00     0.010 A 
ATOM     33  C   UNL A   1      38.148  30.451  28.177  1.00  0.00     0.010 A 
ATOM     34  C   UNL A   1      38.130  29.572  29.268  1.00  0.00    -0.014 A 
BRANCH  34  35
ATOM     35  C   UNL A   1      39.412  28.990  29.762  1.00  0.00     0.031 A 
ATOM     36  C   UNL A   1      40.143  29.643  30.910  1.00  0.00     0.074 A 
ATOM     37  C   UNL A   1      39.960  27.933  29.131  1.00  0.00     0.049 A 
ATOM     38  N   UNL A   1      41.333  29.388  31.392  1.00  0.00    -0.248 NA
ATOM     39  C   UNL A   1      39.460  30.765  31.573  1.00  0.00     0.031 C 
ATOM     40  C   UNL A   1      39.380  27.239  27.979  1.00  0.00     0.029 A 
ATOM     41  N   UNL A   1      41.137  27.263  29.359  1.00  0.00    -0.354 N 
ATOM     42  C   UNL A   1      41.555  30.339  32.384  1.00  0.00     0.074 A 
ATOM     43  C   UNL A   1      40.402  31.214  32.387  1.00  0.00     0.031 C 
ATOM     44  C   UNL A   1      40.186  26.228  27.620  1.00  0.00     0.029 A 
ATOM     45  C   UNL A   1      41.367  26.231  28.477  1.00  0.00     0.049 A 
ATOM     46  H   UNL A   1      41.759  27.498  30.084  1.00  0.00     0.167 HD
ATOM     47  C   UNL A   1      42.610  30.459  33.231  1.00  0.00     0.034 A 
ATOM     48  C   UNL A   1      42.417  25.392  28.360  1.00  0.00     0.034 A 
ATOM     49  C   UNL A   1      43.732  29.552  33.241  1.00  0.00     0.049 A 
ATOM     50  C   UNL A   1      43.570  25.533  29.320  1.00  0.00     0.074 A 
ATOM     51  C   UNL A   1      44.819  29.535  34.098  1.00  0.00     0.029 A 
ATOM     52  N   UNL A   1      43.912  28.501  32.352  1.00  0.00    -0.354 N 
ATOM     53  N   UNL A   1      43.744  26.412  30.280  1.00  0.00    -0.248 NA
ATOM     54  C   UNL A   1      44.664  24.563  29.186  1.00  0.00     0.031 C 
ATOM     55  C   UNL A   1      45.682  28.512  33.691  1.00  0.00     0.029 A 
ATOM     56  C   UNL A   1      45.102  27.842  32.625  1.00  0.00     0.049 A 
ATOM     57  H   UNL A   1      43.286  28.257  31.632  1.00  0.00     0.167 HD
ATOM     58  C   UNL A   1      44.954  26.081  30.882  1.00  0.00     0.074 A 
ATOM     59  C   UNL A   1      45.456  24.912  30.189  1.00  0.00     0.031 C 
ATOM     60  C   UNL A   1      45.592  26.683  31.918  1.00  0.00     0.034 A 
BRANCH  47  61
ATOM     61  C   UNL A   1      42.599  31.622  34.197  1.00  0.00     0.023 A 
ATOM     62  C   UNL A   1      41.997  31.528  35.465  1.00  0.00     0.031 A 
ATOM     63  C   UNL A   1      43.172  32.855  33.835  1.00  0.00     0.131 A 
ATOM     64  C   UNL A   1      41.901  32.664  36.284  1.00  0.00     0.055 A 
ATOM     65  C   UNL A   1      43.152  33.958  34.692  1.00  0.00     0.041 A 
ATOM     66  F   UNL A   1      43.747  33.016  32.632  1.00  0.00    -0.206 F 
ATOM     67  C   UNL A   1      42.498  33.872  35.917  1.00  0.00     0.022 A 
BRANCH  64  68
ATOM     68  S   UNL A   1      40.854  32.578  37.762  1.00  0.00     0.124 S 
ATOM     69  O   UNL A   1      40.670  33.994  38.075  1.00  0.00    -0.237 OA
ATOM     70  O   UNL A   1      39.675  31.874  37.273  1.00  0.00    -0.237 OA
ATOM     71  O   UNL A   1      41.674  31.838  38.719  1.00  0.00    -0.744 OA
ENDBRANCH  64  68
ENDBRANCH  47  61
BRANCH  48  72
ATOM     72  C   UNL A   1      42.435  24.349  27.294  1.00  0.00     0.023 A 
ATOM     73  C   UNL A   1      41.671  23.177  27.417  1.00  0.00     0.031 A 
ATOM     74  C   UNL A   1      43.245  24.489  26.153  1.00  0.00     0.131 A 
ATOM     75  C   UNL A   1      41.765  22.173  26.442  1.00  0.00     0.055 A 
ATOM     76  C   UNL A   1      43.296  23.510  25.160  1.00  0.00     0.041 A 
ATOM     77  F   UNL A   1      43.993  25.592  25.983  1.00  0.00    -0.206 F 
ATOM     78  C   UNL A   1      42.563  22.336  25.308  1.00  0.00     0.022 A 
BRANCH  75  79
ATOM     79  S   UNL A   1      40.894  20.606  26.716  1.00  0.00     0.124 S 
ATOM     80  O   UNL A   1      39.613  20.861  26.059  1.00  0.00    -0.237 OA
ATOM     81  O   UNL A   1      41.774  19.651  26.045  1.00  0.00    -0.237 OA
ATOM     82  O   UNL A   1      40.841  20.490  28.165  1.00  0.00    -0.744 OA
ENDBRANCH  75  79
ENDBRANCH  48  72
BRANCH  60  83
ATOM     83  C   UNL A   1      46.880  26.053  32.388  1.00  0.00     0.023 A 
ATOM     84  C   UNL A   1      46.901  25.072  33.394  1.00  0.00     0.031 A 
ATOM     85  C   UNL A   1      48.106  26.455  31.827  1.00  0.00     0.131 A 
ATOM     86  C   UNL A   1      48.127  24.565  33.850  1.00  0.00     0.055 A 
ATOM     87  C   UNL A   1      49.319  25.903  32.243  1.00  0.00     0.041 A 
ATOM     88  F   UNL A   1      48.144  27.390  30.865  1.00  0.00    -0.206 F 
ATOM     89  C   UNL A   1      49.334  24.962  33.269  1.00  0.00     0.022 A 
BRANCH  86  90
ATOM     90  S   UNL A   1      48.131  23.446  35.277  1.00  0.00     0.124 S 
ATOM     91  O   UNL A   1      46.764  23.579  35.771  1.00  0.00    -0.237 OA
ATOM     92  O   UNL A   1      48.467  22.164  34.667  1.00  0.00    -0.237 OA
ATOM     93  O   UNL A   1      49.163  24.005  36.148  1.00  0.00    -0.744 OA
ENDBRANCH  86  90
ENDBRANCH  60  83
ENDBRANCH  34  35
ENDBRANCH  26  29
ENDBRANCH  24  25
ENDBRANCH  23  24
ENDBRANCH   1  23
TORSDOF 19
ENDMDL
MODEL 2
REMARK VINA RESULT:     -10.3      2.471      8.055
REMARK SMILES CCN(CC(C)(C)O)C(=O)[C@H]1CC=CC[C@H]1C(=O)NCCCNC(=O)c1ccc(-c2c3nc(c(-c4cc(S(=O)(=O)[O-])ccc4F)c4ccc([nH]4)c(-c4cc(S(=O)(=O)[O-])ccc4F)c4nc(c(-c5cc(S(=O)(=O)[O-])ccc5F)c5ccc2[nH]5)C=C4)C=C3)cc1
REMARK SMILES IDX 20 1 19 2 17 3 18 4 16 6 11 7 12 8 13 9 15 10 14 11 9 12
REMARK SMILES IDX 10 13 3 14 2 15 1 16 4 17 5 18 6 19 7 20 8 21 21 23 22 24
REMARK SMILES IDX 23 25 24 26 25 28 26 29 27 30 88 31 28 32 87 33 29 34 30 35
REMARK SMILES IDX 31 36 81 37 32 38 86 39 80 40 82 41 33 42 85 43 79 44 78 45
REMARK SMILES IDX 34 47 66 48 46 49 65 50 47 51 50 52 64 53 83 54 48 55 49 56
REMARK SMILES IDX 63 58 84 59 51 60 35 61 36 62 44 63 37 64 43 65 45 66 42 67
REMARK SMILES IDX 38 68 39 69 40 70 41 71 67 72 68 73 76 74 69 75 75 76 77 77
REMARK SMILES IDX 74 78 70 79 71 80 72 81 73 82 52 83 53 84 61 85 54 86 60 87
REMARK SMILES IDX 62 88 59 89 55 90 56 91 57 92 58 93
REMARK H PARENT 19 5 8 22 23 27 82 46 50 57
REMARK Flexibility Score: inf
ROOT
ATOM      1  C   UNL A   1      33.100  27.623  24.817  1.00  0.00     0.117 C 
ENDROOT
BRANCH   1   2
ATOM      2  N   UNL A   1      32.595  26.401  24.232  1.00  0.00    -0.356 N 
ATOM      3  C   UNL A   1      33.025  25.133  24.108  1.00  0.00     0.224 C 
ATOM      4  O   UNL A   1      32.217  24.417  23.485  1.00  0.00    -0.275 OA
ATOM      5  H   UNL A   1      31.710  26.529  23.821  1.00  0.00     0.163 HD
BRANCH   3   6
ATOM      6  C   UNL A   1      34.265  24.424  24.696  1.00  0.00     0.095 C 
ATOM      7  C   UNL A   1      34.368  23.474  25.922  1.00  0.00     0.095 C 
ATOM      8  C   UNL A   1      35.752  22.841  26.161  1.00  0.00     0.041 C 
ATOM      9  C   UNL A   1      36.581  22.600  24.941  1.00  0.00    -0.030 C 
ATOM     10  C   UNL A   1      35.206  24.115  23.501  1.00  0.00     0.041 C 
ATOM     11  C   UNL A   1      36.337  23.170  23.758  1.00  0.00    -0.030 C 
BRANCH   7  12
ATOM     12  C   UNL A   1      33.194  22.654  26.477  1.00  0.00     0.226 C 
ATOM     13  O   UNL A   1      33.204  22.515  27.708  1.00  0.00    -0.275 OA
BRANCH  12  14
ATOM     14  N   UNL A   1      32.184  22.063  25.728  1.00  0.00    -0.340 N 
BRANCH  14  15
ATOM     15  C   UNL A   1      30.776  22.317  26.128  1.00  0.00     0.116 C 
ATOM     16  C   UNL A   1      30.406  23.763  26.452  1.00  0.00     0.027 C 
ENDBRANCH  14  15
BRANCH  14  17
ATOM     17  C   UNL A   1      32.317  21.242  24.510  1.00  0.00     0.154 C 
BRANCH  17  18
ATOM     18  C   UNL A   1      32.776  19.757  24.692  1.00  0.00     0.077 C 
ATOM     19  C   UNL A   1      32.337  18.882  23.527  1.00  0.00     0.043 C 
ATOM     20  C   UNL A   1      34.308  19.716  24.775  1.00  0.00     0.043 C 
BRANCH  18  21
ATOM     21  O   UNL A   1      32.268  19.196  25.903  1.00  0.00    -0.389 OA
ATOM     22  H   UNL A   1      31.313  19.358  25.959  1.00  0.00     0.211 HD
ENDBRANCH  18  21
ENDBRANCH  17  18
ENDBRANCH  14  17
ENDBRANCH  12  14
ENDBRANCH   7  12
ENDBRANCH   3   6
ENDBRANCH   1   2
BRANCH   1  23
ATOM     23  C   UNL A   1      32.000  28.660  25.019  1.00  0.00     0.042 C 
BRANCH  23  24
ATOM     24  C   UNL A   1      31.947  29.249  26.418  1.00  0.00     0.118 C 
BRANCH  24  25
ATOM     25  N   UNL A   1      31.909  30.707  26.409  1.00  0.00    -0.352 N 
ATOM     26  C   UNL A   1      32.686  31.665  27.018  1.00  0.00     0.251 C 
ATOM     27  H   UNL A   1      31.184  31.080  25.858  1.00  0.00     0.163 HD
ATOM     28  O   UNL A   1      32.283  32.828  26.991  1.00  0.00    -0.269 OA
BRANCH  26  29
ATOM     29  C   UNL A   1      33.962  31.351  27.713  1.00  0.00     0.039 A 
ATOM     30  C   UNL A   1      34.813  32.408  28.066  1.00  0.00     0.014 A 
ATOM     31  C   UNL A   1      34.380  30.046  27.965  1.00  0.00     0.014 A 
ATOM     32  C   UNL A   1      36.028  32.157  28.718  1.00  0.00     0.010 A 
ATOM     33  C   UNL A   1      35.525  29.802  28.722  1.00  0.00     0.010 A 
ATOM     34  C   UNL A   1      36.377  30.850  29.092  1.00  0.00    -0.014 A 
BRANCH  34  35
ATOM     35  C   UNL A   1      37.637  30.545  29.831  1.00  0.00     0.031 A 
ATOM     36  C   UNL A   1      38.694  29.677  29.194  1.00  0.00     0.074 A 
ATOM     37  C   UNL A   1      37.795  30.975  31.099  1.00  0.00     0.049 A 
ATOM     38  N   UNL A   1      39.784  29.174  29.715  1.00  0.00    -0.248 NA
ATOM     39  C   UNL A   1      38.467  29.284  27.793  1.00  0.00     0.031 C 
ATOM     40  C   UNL A   1      36.829  31.781  31.849  1.00  0.00     0.029 A 
ATOM     41  N   UNL A   1      38.823  30.782  31.991  1.00  0.00    -0.354 N 
ATOM     42  C   UNL A   1      40.350  28.378  28.722  1.00  0.00     0.074 A 
ATOM     43  C   UNL A   1      39.446  28.416  27.593  1.00  0.00     0.031 C 
ATOM     44  C   UNL A   1      37.320  32.035  33.071  1.00  0.00     0.029 A 
ATOM     45  C   UNL A   1      38.610  31.368  33.217  1.00  0.00     0.049 A 
ATOM     46  H   UNL A   1      39.636  30.271  31.773  1.00  0.00     0.167 HD
ATOM     47  C   UNL A   1      41.525  27.698  28.740  1.00  0.00     0.034 A 
ATOM     48  C   UNL A   1      39.358  31.358  34.339  1.00  0.00     0.034 A 
ATOM     49  C   UNL A   1      42.434  27.705  29.860  1.00  0.00     0.049 A 
ATOM     50  C   UNL A   1      40.667  30.609  34.332  1.00  0.00     0.074 A 
ATOM     51  C   UNL A   1      43.682  27.113  29.963  1.00  0.00     0.029 A 
ATOM     52  N   UNL A   1      42.195  28.338  31.073  1.00  0.00    -0.354 N 
ATOM     53  N   UNL A   1      41.207  29.896  33.370  1.00  0.00    -0.248 NA
ATOM     54  C   UNL A   1      41.471  30.672  35.559  1.00  0.00     0.031 C 
ATOM     55  C   UNL A   1      44.169  27.337  31.254  1.00  0.00     0.029 A 
ATOM     56  C   UNL A   1      43.261  28.132  31.937  1.00  0.00     0.049 A 
ATOM     57  H   UNL A   1      41.388  28.858  31.289  1.00  0.00     0.167 HD
ATOM     58  C   UNL A   1      42.427  29.450  33.868  1.00  0.00     0.074 A 
ATOM     59  C   UNL A   1      42.551  29.990  35.207  1.00  0.00     0.031 C 
ATOM     60  C   UNL A   1      43.364  28.670  33.273  1.00  0.00     0.034 A 
BRANCH  47  61
ATOM     61  C   UNL A   1      41.875  26.879  27.518  1.00  0.00     0.023 A 
ATOM     62  C   UNL A   1      41.555  25.512  27.424  1.00  0.00     0.031 A 
ATOM     63  C   UNL A   1      42.567  27.463  26.442  1.00  0.00     0.131 A 
ATOM     64  C   UNL A   1      42.002  24.759  26.327  1.00  0.00     0.055 A 
ATOM     65  C   UNL A   1      42.932  26.727  25.312  1.00  0.00     0.041 A 
ATOM     66  F   UNL A   1      42.917  28.760  26.476  1.00  0.00    -0.206 F 
ATOM     67  C   UNL A   1      42.666  25.363  25.258  1.00  0.00     0.022 A 
BRANCH  64  68
ATOM     68  S   UNL A   1      41.839  22.954  26.394  1.00  0.00     0.124 S 
ATOM     69  O   UNL A   1      40.388  22.792  26.464  1.00  0.00    -0.237 OA
ATOM     70  O   UNL A   1      42.469  22.533  25.148  1.00  0.00    -0.237 OA
ATOM     71  O   UNL A   1      42.558  22.590  27.613  1.00  0.00    -0.744 OA
ENDBRANCH  64  68
ENDBRANCH  47  61
BRANCH  48  72
ATOM     72  C   UNL A   1      38.895  32.070  35.564  1.00  0.00     0.023 A 
ATOM     73  C   UNL A   1      38.292  31.371  36.623  1.00  0.00     0.031 A 
ATOM     74  C   UNL A   1      39.013  33.467  35.682  1.00  0.00     0.131 A 
ATOM     75  C   UNL A   1      37.790  32.071  37.730  1.00  0.00     0.055 A 
ATOM     76  C   UNL A   1      38.560  34.153  36.809  1.00  0.00     0.041 A 
ATOM     77  F   UNL A   1      39.587  34.184  34.702  1.00  0.00    -0.206 F 
ATOM     78  C   UNL A   1      37.931  33.456  37.837  1.00  0.00     0.022 A 
BRANCH  75  79
ATOM     79  S   UNL A   1      36.871  31.155  38.998  1.00  0.00     0.124 S 
ATOM     80  O   UNL A   1      36.756  29.834  38.385  1.00  0.00    -0.237 OA
ATOM     81  O   UNL A   1      37.771  31.248  40.147  1.00  0.00    -0.237 OA
ATOM     82  O   UNL A   1      35.626  31.897  39.122  1.00  0.00    -0.744 OA
ENDBRANCH  75  79
ENDBRANCH  48  72
BRANCH  60  83
ATOM     83  C   UNL A   1      44.625  28.397  34.056  1.00  0.00     0.023 A 
ATOM     84  C   UNL A   1      44.741  27.288  34.911  1.00  0.00     0.031 A 
ATOM     85  C   UNL A   1      45.721  29.273  33.953  1.00  0.00     0.131 A 
ATOM     86  C   UNL A   1      45.905  27.113  35.674  1.00  0.00     0.055 A 
ATOM     87  C   UNL A   1      46.900  29.061  34.669  1.00  0.00     0.041 A 
ATOM     88  F   UNL A   1      45.664  30.349  33.153  1.00  0.00    -0.206 F 
ATOM     89  C   UNL A   1      46.992  27.983  35.545  1.00  0.00     0.022 A 
BRANCH  86  90
ATOM     90  S   UNL A   1      45.948  25.784  36.907  1.00  0.00     0.124 S 
ATOM     91  O   UNL A   1      46.391  24.645  36.111  1.00  0.00    -0.237 OA
ATOM     92  O   UNL A   1      46.907  26.294  37.882  1.00  0.00    -0.237 OA
ATOM     93  O   UNL A   1      44.567  25.711  37.380  1.00  0.00    -0.744 OA
ENDBRANCH  86  90
ENDBRANCH  60  83
ENDBRANCH  34  35
ENDBRANCH  26  29
ENDBRANCH  24  25
ENDBRANCH  23  24
ENDBRANCH   1  23
TORSDOF 19
ENDMDL
MODEL 3
REMARK VINA RESULT:     -10.2      1.720      2.586
REMARK SMILES CCN(CC(C)(C)O)C(=O)[C@H]1CC=CC[C@H]1C(=O)NCCCNC(=O)c1ccc(-c2c3nc(c(-c4cc(S(=O)(=O)[O-])ccc4F)c4ccc([nH]4)c(-c4cc(S(=O)(=O)[O-])ccc4F)c4nc(c(-c5cc(S(=O)(=O)[O-])ccc5F)c5ccc2[nH]5)C=C4)C=C3)cc1
REMARK SMILES IDX 20 1 19 2 17 3 18 4 16 6 11 7 12 8 13 9 15 10 14 11 9 12
REMARK SMILES IDX 10 13 3 14 2 15 1 16 4 17 5 18 6 19 7 20 8 21 21 23 22 24
REMARK SMILES IDX 23 25 24 26 25 28 26 29 27 30 88 31 28 32 87 33 29 34 30 35
REMARK SMILES IDX 31 36 81 37 32 38 86 39 80 40 82 41 33 42 85 43 79 44 78 45
REMARK SMILES IDX 34 47 66 48 46 49 65 50 47 51 50 52 64 53 83 54 48 55 49 56
REMARK SMILES IDX 63 58 84 59 51 60 35 61 36 62 44 63 37 64 43 65 45 66 42 67
REMARK SMILES IDX 38 68 39 69 40 70 41 71 67 72 68 73 76 74 69 75 75 76 77 77
REMARK SMILES IDX 74 78 70 79 71 80 72 81 73 82 52 83 53 84 61 85 54 86 60 87
REMARK SMILES IDX 62 88 59 89 55 90 56 91 57 92 58 93
REMARK H PARENT 19 5 8 22 23 27 82 46 50 57
REMARK Flexibility Score: inf
ROOT
ATOM      1  C   UNL A   1      31.880  27.445  26.136  1.00  0.00     0.117 C 
ENDROOT
BRANCH   1   2
ATOM      2  N   UNL A   1      32.651  26.949  25.018  1.00  0.00    -0.356 N 
ATOM      3  C   UNL A   1      33.527  25.950  24.810  1.00  0.00     0.224 C 
ATOM      4  O   UNL A   1      33.956  25.932  23.640  1.00  0.00    -0.275 OA
ATOM      5  H   UNL A   1      32.497  27.476  24.202  1.00  0.00     0.163 HD
BRANCH   3   6
ATOM      6  C   UNL A   1      33.979  24.794  25.729  1.00  0.00     0.095 C 
ATOM      7  C   UNL A   1      33.161  23.588  26.270  1.00  0.00     0.095 C 
ATOM      8  C   UNL A   1      33.961  22.544  27.072  1.00  0.00     0.041 C 
ATOM      9  C   UNL A   1      35.393  22.377  26.680  1.00  0.00    -0.030 C 
ATOM     10  C   UNL A   1      35.471  24.525  25.399  1.00  0.00     0.041 C 
ATOM     11  C   UNL A   1      36.065  23.261  25.937  1.00  0.00    -0.030 C 
BRANCH   7  12
ATOM     12  C   UNL A   1      31.897  23.033  25.597  1.00  0.00     0.226 C 
ATOM     13  O   UNL A   1      30.889  23.038  26.317  1.00  0.00    -0.275 OA
BRANCH  12  14
ATOM     14  N   UNL A   1      31.815  22.526  24.305  1.00  0.00    -0.340 N 
BRANCH  14  15
ATOM     15  C   UNL A   1      30.760  23.063  23.408  1.00  0.00     0.116 C 
ATOM     16  C   UNL A   1      30.706  24.580  23.246  1.00  0.00     0.027 C 
ENDBRANCH  14  15
BRANCH  14  17
ATOM     17  C   UNL A   1      32.701  21.541  23.658  1.00  0.00     0.154 C 
BRANCH  17  18
ATOM     18  C   UNL A   1      32.693  20.084  24.229  1.00  0.00     0.077 C 
ATOM     19  C   UNL A   1      32.241  19.070  23.188  1.00  0.00     0.043 C 
ATOM     20  C   UNL A   1      34.116  19.716  24.673  1.00  0.00     0.043 C 
BRANCH  18  21
ATOM     21  O   UNL A   1      31.848  19.973  25.374  1.00  0.00    -0.389 OA
ATOM     22  H   UNL A   1      30.922  19.928  25.089  1.00  0.00     0.211 HD
ENDBRANCH  18  21
ENDBRANCH  17  18
ENDBRANCH  14  17
ENDBRANCH  12  14
ENDBRANCH   7  12
ENDBRANCH   3   6
ENDBRANCH   1   2
BRANCH   1  23
ATOM     23  C   UNL A   1      32.713  28.324  27.063  1.00  0.00     0.042 C 
BRANCH  23  24
ATOM     24  C   UNL A   1      33.629  29.299  26.344  1.00  0.00     0.118 C 
BRANCH  24  25
ATOM     25  N   UNL A   1      33.563  30.645  26.903  1.00  0.00    -0.352 N 
ATOM     26  C   UNL A   1      34.323  31.305  27.840  1.00  0.00     0.251 C 
ATOM     27  H   UNL A   1      32.828  31.188  26.537  1.00  0.00     0.163 HD
ATOM     28  O   UNL A   1      33.897  32.379  28.265  1.00  0.00    -0.269 OA
BRANCH  26  29
ATOM     29  C   UNL A   1      35.608  30.771  28.362  1.00  0.00     0.039 A 
ATOM     30  C   UNL A   1      35.576  29.892  29.454  1.00  0.00     0.014 A 
ATOM     31  C   UNL A   1      36.846  31.163  27.857  1.00  0.00     0.014 A 
ATOM     32  C   UNL A   1      36.765  29.370  29.982  1.00  0.00     0.010 A 
ATOM     33  C   UNL A   1      38.018  30.548  28.298  1.00  0.00     0.010 A 
ATOM     34  C   UNL A   1      37.998  29.659  29.380  1.00  0.00    -0.014 A 
BRANCH  34  35
ATOM     35  C   UNL A   1      39.281  29.083  29.879  1.00  0.00     0.031 A 
ATOM     36  C   UNL A   1      39.995  29.728  31.041  1.00  0.00     0.074 A 
ATOM     37  C   UNL A   1      39.845  28.039  29.240  1.00  0.00     0.049 A 
ATOM     38  N   UNL A   1      41.184  29.478  31.531  1.00  0.00    -0.248 NA
ATOM     39  C   UNL A   1      39.296  30.836  31.712  1.00  0.00     0.031 C 
ATOM     40  C   UNL A   1      39.282  27.353  28.075  1.00  0.00     0.029 A 
ATOM     41  N   UNL A   1      41.026  27.376  29.471  1.00  0.00    -0.354 N 
ATOM     42  C   UNL A   1      41.387  30.419  32.538  1.00  0.00     0.074 A 
ATOM     43  C   UNL A   1      40.226  31.283  32.541  1.00  0.00     0.031 C 
ATOM     44  C   UNL A   1      40.101  26.355  27.711  1.00  0.00     0.029 A 
ATOM     45  C   UNL A   1      41.274  26.358  28.579  1.00  0.00     0.049 A 
ATOM     46  H   UNL A   1      41.639  27.609  30.205  1.00  0.00     0.167 HD
ATOM     47  C   UNL A   1      42.433  30.538  33.395  1.00  0.00     0.034 A 
ATOM     48  C   UNL A   1      42.332  25.530  28.461  1.00  0.00     0.034 A 
ATOM     49  C   UNL A   1      43.563  29.642  33.405  1.00  0.00     0.049 A 
ATOM     50  C   UNL A   1      43.475  25.670  29.434  1.00  0.00     0.074 A 
ATOM     51  C   UNL A   1      44.642  29.623  34.272  1.00  0.00     0.029 A 
ATOM     52  N   UNL A   1      43.761  28.603  32.505  1.00  0.00    -0.354 N 
ATOM     53  N   UNL A   1      43.632  26.539  30.407  1.00  0.00    -0.248 NA
ATOM     54  C   UNL A   1      44.579  24.711  29.299  1.00  0.00     0.031 C 
ATOM     55  C   UNL A   1      45.519  28.614  33.861  1.00  0.00     0.029 A 
ATOM     56  C   UNL A   1      44.955  27.952  32.782  1.00  0.00     0.049 A 
ATOM     57  H   UNL A   1      43.144  28.362  31.777  1.00  0.00     0.167 HD
ATOM     58  C   UNL A   1      44.839  26.210  31.016  1.00  0.00     0.074 A 
ATOM     59  C   UNL A   1      45.359  25.055  30.313  1.00  0.00     0.031 C 
ATOM     60  C   UNL A   1      45.462  26.806  32.065  1.00  0.00     0.034 A 
BRANCH  47  61
ATOM     61  C   UNL A   1      42.403  31.689  34.375  1.00  0.00     0.023 A 
ATOM     62  C   UNL A   1      41.652  31.633  35.564  1.00  0.00     0.031 A 
ATOM     63  C   UNL A   1      43.109  32.875  34.105  1.00  0.00     0.131 A 
ATOM     64  C   UNL A   1      41.552  32.765  36.388  1.00  0.00     0.055 A 
ATOM     65  C   UNL A   1      43.078  33.968  34.975  1.00  0.00     0.041 A 
ATOM     66  F   UNL A   1      43.832  33.000  32.980  1.00  0.00    -0.206 F 
ATOM     67  C   UNL A   1      42.281  33.924  36.115  1.00  0.00     0.022 A 
BRANCH  64  68
ATOM     68  S   UNL A   1      40.337  32.750  37.734  1.00  0.00     0.124 S 
ATOM     69  O   UNL A   1      39.936  34.155  37.784  1.00  0.00    -0.237 OA
ATOM     70  O   UNL A   1      39.332  31.816  37.242  1.00  0.00    -0.237 OA
ATOM     71  O   UNL A   1      41.109  32.289  38.887  1.00  0.00    -0.744 OA
ENDBRANCH  64  68
ENDBRANCH  47  61
BRANCH  48  72
ATOM     72  C   UNL A   1      42.370  24.500  27.383  1.00  0.00     0.023 A 
ATOM     73  C   UNL A   1      41.629  23.312  27.493  1.00  0.00     0.031 A 
ATOM     74  C   UNL A   1      43.175  24.670  26.243  1.00  0.00     0.131 A 
ATOM     75  C   UNL A   1      41.742  22.322  26.506  1.00  0.00     0.055 A 
ATOM     76  C   UNL A   1      43.245  23.705  25.238  1.00  0.00     0.041 A 
ATOM     77  F   UNL A   1      43.900  25.790  26.085  1.00  0.00    -0.206 F 
ATOM     78  C   UNL A   1      42.535  22.514  25.373  1.00  0.00     0.022 A 
BRANCH  75  79
ATOM     79  S   UNL A   1      40.903  20.734  26.762  1.00  0.00     0.124 S 
ATOM     80  O   UNL A   1      40.806  20.681  28.219  1.00  0.00    -0.237 OA
ATOM     81  O   UNL A   1      39.644  20.941  26.047  1.00  0.00    -0.237 OA
ATOM     82  O   UNL A   1      41.807  19.766  26.160  1.00  0.00    -0.744 OA
ENDBRANCH  75  79
ENDBRANCH  48  72
BRANCH  60  83
ATOM     83  C   UNL A   1      46.751  26.182  32.539  1.00  0.00     0.023 A 
ATOM     84  C   UNL A   1      47.996  26.553  32.003  1.00  0.00     0.031 A 
ATOM     85  C   UNL A   1      46.727  25.188  33.534  1.00  0.00     0.131 A 
ATOM     86  C   UNL A   1      49.162  25.896  32.424  1.00  0.00     0.055 A 
ATOM     87  C   UNL A   1      47.897  24.579  33.992  1.00  0.00     0.041 A 
ATOM     88  F   UNL A   1      45.566  24.792  34.079  1.00  0.00    -0.206 F 
ATOM     89  C   UNL A   1      49.121  24.924  33.427  1.00  0.00     0.022 A 
BRANCH  86  90
ATOM     90  S   UNL A   1      50.722  26.263  31.577  1.00  0.00     0.124 S 
ATOM     91  O   UNL A   1      50.338  27.357  30.691  1.00  0.00    -0.237 OA
ATOM     92  O   UNL A   1      51.603  26.619  32.686  1.00  0.00    -0.237 OA
ATOM     93  O   UNL A   1      51.052  25.007  30.905  1.00  0.00    -0.744 OA
ENDBRANCH  86  90
ENDBRANCH  60  83
ENDBRANCH  34  35
ENDBRANCH  26  29
ENDBRANCH  24  25
ENDBRANCH  23  24
ENDBRANCH   1  23
TORSDOF 19
ENDMDL
