MODEL 1
REMARK VINA RESULT:     -12.3      0.000      0.000
REMARK SMILES C[C@@H](C1CC1)N(C)C(=O)N1Cc2nc[nH]c2C[C@H]1C(=O)NCCCNC(=O)c1ccc(-c2c3nc(c(-c4cc(S(=O)(=O)[O-])ccc4F)c4ccc([nH]4)c(-c4cc(S(=O)(=O)[O-])ccc4F)c4nc(c(-c5cc(S(=O)(=O)[O-])ccc5F)c5ccc2[nH]5)C=C4)C=C3)cc1
REMARK SMILES IDX 22 1 21 2 19 3 20 4 18 6 10 7 11 8 12 9 17 10 13 11 16 12
REMARK SMILES IDX 14 13 15 14 8 16 9 17 6 18 7 19 2 20 1 21 3 22 4 23 5 24
REMARK SMILES IDX 23 25 24 26 25 27 26 28 27 30 28 31 29 32 90 33 30 34 89 35
REMARK SMILES IDX 31 36 32 37 33 38 83 39 34 40 88 41 82 42 84 43 35 44 87 45
REMARK SMILES IDX 81 46 80 47 36 49 68 50 48 51 67 52 49 53 52 54 66 55 85 56
REMARK SMILES IDX 50 57 51 58 65 60 86 61 53 62 37 63 38 64 46 65 39 66 45 67
REMARK SMILES IDX 47 68 44 69 40 70 41 71 42 72 43 73 69 74 70 75 78 76 71 77
REMARK SMILES IDX 77 78 79 79 76 80 72 81 73 82 74 83 75 84 54 85 55 86 63 87
REMARK SMILES IDX 56 88 62 89 64 90 61 91 57 92 58 93 59 94 60 95
REMARK H PARENT 21 5 15 15 25 29 84 48 52 59
REMARK Flexibility Score: inf
ROOT
ATOM      1  C   UNL A   1      33.979  29.278  27.163  1.00  0.00     0.117 C 
ENDROOT
BRANCH   1   2
ATOM      2  N   UNL A   1      32.979  28.235  26.995  1.00  0.00    -0.354 N 
ATOM      3  C   UNL A   1      32.531  27.511  25.939  1.00  0.00     0.243 C 
ATOM      4  O   UNL A   1      31.826  26.536  26.245  1.00  0.00    -0.273 OA
ATOM      5  H   UNL A   1      32.526  28.002  27.837  1.00  0.00     0.163 HD
BRANCH   3   6
ATOM      6  C   UNL A   1      32.837  27.772  24.429  1.00  0.00     0.182 C 
ATOM      7  N   UNL A   1      32.481  26.694  23.438  1.00  0.00    -0.306 N 
ATOM      8  C   UNL A   1      31.102  26.681  22.901  1.00  0.00     0.180 C 
ATOM      9  C   UNL A   1      30.529  28.047  22.819  1.00  0.00     0.081 A 
ATOM     10  C   UNL A   1      32.441  29.211  23.982  1.00  0.00     0.091 C 
ATOM     11  N   UNL A   1      29.248  28.327  22.418  1.00  0.00    -0.240 NA
ATOM     12  C   UNL A   1      31.137  29.182  23.293  1.00  0.00     0.042 A 
ATOM     13  C   UNL A   1      29.090  29.614  22.640  1.00  0.00     0.197 A 
ATOM     14  N   UNL A   1      30.231  30.189  23.135  1.00  0.00    -0.348 N 
ATOM     15  H   UNL A   1      30.370  31.142  23.338  1.00  0.00     0.167 HD
BRANCH   7  16
ATOM     16  C   UNL A   1      33.297  25.741  22.852  1.00  0.00     0.321 C 
ATOM     17  O   UNL A   1      33.855  26.024  21.787  1.00  0.00    -0.248 OA
BRANCH  16  18
ATOM     18  N   UNL A   1      33.512  24.497  23.413  1.00  0.00    -0.325 N 
ATOM     19  C   UNL A   1      32.887  23.273  22.927  1.00  0.00     0.149 C 
BRANCH  18  20
ATOM     20  C   UNL A   1      34.745  24.279  24.210  1.00  0.00     0.086 C 
ATOM     21  C   UNL A   1      34.570  24.599  25.701  1.00  0.00     0.031 C 
BRANCH  20  22
ATOM     22  C   UNL A   1      35.494  22.981  23.965  1.00  0.00     0.011 C 
ATOM     23  C   UNL A   1      36.631  22.869  22.972  1.00  0.00     0.006 C 
ATOM     24  C   UNL A   1      36.896  22.663  24.435  1.00  0.00     0.006 C 
ENDBRANCH  20  22
ENDBRANCH  18  20
ENDBRANCH  16  18
ENDBRANCH   7  16
ENDBRANCH   3   6
ENDBRANCH   1   2
BRANCH   1  25
ATOM     25  C   UNL A   1      33.376  30.664  27.390  1.00  0.00     0.042 C 
BRANCH  25  26
ATOM     26  C   UNL A   1      34.427  31.720  27.641  1.00  0.00     0.118 C 
BRANCH  26  27
ATOM     27  N   UNL A   1      34.408  32.248  29.008  1.00  0.00    -0.352 N 
ATOM     28  C   UNL A   1      35.243  31.874  30.055  1.00  0.00     0.251 C 
ATOM     29  H   UNL A   1      33.732  32.937  29.206  1.00  0.00     0.163 HD
ATOM     30  O   UNL A   1      34.949  32.101  31.214  1.00  0.00    -0.269 OA
BRANCH  28  31
ATOM     31  C   UNL A   1      36.497  31.181  29.694  1.00  0.00     0.039 A 
ATOM     32  C   UNL A   1      37.698  31.866  29.508  1.00  0.00     0.014 A 
ATOM     33  C   UNL A   1      36.458  29.793  29.708  1.00  0.00     0.014 A 
ATOM     34  C   UNL A   1      38.878  31.123  29.449  1.00  0.00     0.010 A 
ATOM     35  C   UNL A   1      37.622  29.098  29.887  1.00  0.00     0.010 A 
ATOM     36  C   UNL A   1      38.836  29.736  29.683  1.00  0.00    -0.014 A 
BRANCH  36  37
ATOM     37  C   UNL A   1      40.051  28.942  29.853  1.00  0.00     0.031 A 
ATOM     38  C   UNL A   1      40.384  28.659  31.275  1.00  0.00     0.074 A 
ATOM     39  C   UNL A   1      40.696  28.336  28.829  1.00  0.00     0.049 A 
ATOM     40  N   UNL A   1      41.302  29.220  31.987  1.00  0.00    -0.248 NA
ATOM     41  C   UNL A   1      39.470  27.810  32.060  1.00  0.00     0.031 C 
ATOM     42  C   UNL A   1      40.312  28.275  27.412  1.00  0.00     0.029 A 
ATOM     43  N   UNL A   1      41.810  27.554  28.854  1.00  0.00    -0.354 N 
ATOM     44  C   UNL A   1      41.271  28.579  33.220  1.00  0.00     0.074 A 
ATOM     45  C   UNL A   1      39.991  27.929  33.284  1.00  0.00     0.031 C 
ATOM     46  C   UNL A   1      41.033  27.323  26.777  1.00  0.00     0.029 A 
ATOM     47  C   UNL A   1      42.059  26.840  27.681  1.00  0.00     0.049 A 
ATOM     48  H   UNL A   1      42.398  27.497  29.642  1.00  0.00     0.167 HD
ATOM     49  C   UNL A   1      42.417  28.407  33.939  1.00  0.00     0.034 A 
ATOM     50  C   UNL A   1      43.042  25.924  27.456  1.00  0.00     0.034 A 
ATOM     51  C   UNL A   1      43.469  29.264  33.425  1.00  0.00     0.049 A 
ATOM     52  C   UNL A   1      44.100  26.202  28.459  1.00  0.00     0.074 A 
ATOM     53  C   UNL A   1      43.603  30.628  33.237  1.00  0.00     0.029 A 
ATOM     54  N   UNL A   1      44.427  28.690  32.616  1.00  0.00    -0.354 N 
ATOM     55  N   UNL A   1      44.788  27.311  28.475  1.00  0.00    -0.248 NA
ATOM     56  C   UNL A   1      44.029  25.498  29.730  1.00  0.00     0.031 C 
ATOM     57  C   UNL A   1      44.248  30.761  31.971  1.00  0.00     0.029 A 
ATOM     58  C   UNL A   1      44.573  29.485  31.505  1.00  0.00     0.049 A 
ATOM     59  H   UNL A   1      44.919  27.858  32.802  1.00  0.00     0.167 HD
ATOM     60  C   UNL A   1      44.849  27.675  29.813  1.00  0.00     0.074 A 
ATOM     61  C   UNL A   1      44.444  26.473  30.545  1.00  0.00     0.031 C 
ATOM     62  C   UNL A   1      44.934  28.986  30.188  1.00  0.00     0.034 A 
BRANCH  49  63
ATOM     63  C   UNL A   1      42.728  27.202  34.808  1.00  0.00     0.023 A 
ATOM     64  C   UNL A   1      43.545  26.204  34.239  1.00  0.00     0.031 A 
ATOM     65  C   UNL A   1      42.062  26.832  35.999  1.00  0.00     0.131 A 
ATOM     66  C   UNL A   1      43.565  24.898  34.755  1.00  0.00     0.055 A 
ATOM     67  C   UNL A   1      42.136  25.547  36.547  1.00  0.00     0.041 A 
ATOM     68  F   UNL A   1      41.236  27.650  36.659  1.00  0.00    -0.206 F 
ATOM     69  C   UNL A   1      42.860  24.560  35.905  1.00  0.00     0.022 A 
BRANCH  66  70
ATOM     70  S   UNL A   1      44.376  23.607  33.780  1.00  0.00     0.124 S 
ATOM     71  O   UNL A   1      43.760  23.802  32.472  1.00  0.00    -0.237 OA
ATOM     72  O   UNL A   1      45.781  23.985  33.895  1.00  0.00    -0.237 OA
ATOM     73  O   UNL A   1      44.002  22.376  34.472  1.00  0.00    -0.744 OA
ENDBRANCH  66  70
ENDBRANCH  49  63
BRANCH  50  74
ATOM     74  C   UNL A   1      42.949  24.644  26.690  1.00  0.00     0.023 A 
ATOM     75  C   UNL A   1      44.003  24.132  25.895  1.00  0.00     0.031 A 
ATOM     76  C   UNL A   1      41.877  23.763  26.955  1.00  0.00     0.131 A 
ATOM     77  C   UNL A   1      43.955  22.798  25.414  1.00  0.00     0.055 A 
ATOM     78  C   UNL A   1      41.839  22.448  26.484  1.00  0.00     0.041 A 
ATOM     79  F   UNL A   1      40.863  24.125  27.757  1.00  0.00    -0.206 F 
ATOM     80  C   UNL A   1      42.884  21.955  25.720  1.00  0.00     0.022 A 
BRANCH  77  81
ATOM     81  S   UNL A   1      45.331  22.097  24.437  1.00  0.00     0.124 S 
ATOM     82  O   UNL A   1      46.226  21.598  25.474  1.00  0.00    -0.237 OA
ATOM     83  O   UNL A   1      44.658  21.093  23.621  1.00  0.00    -0.237 OA
ATOM     84  O   UNL A   1      45.843  23.248  23.690  1.00  0.00    -0.744 OA
ENDBRANCH  77  81
ENDBRANCH  50  74
BRANCH  62  85
ATOM     85  C   UNL A   1      45.263  30.022  29.125  1.00  0.00     0.023 A 
ATOM     86  C   UNL A   1      46.565  30.403  28.717  1.00  0.00     0.031 A 
ATOM     87  C   UNL A   1      44.177  30.568  28.417  1.00  0.00     0.131 A 
ATOM     88  C   UNL A   1      46.733  31.305  27.645  1.00  0.00     0.055 A 
ATOM     89  C   UNL A   1      44.348  31.439  27.344  1.00  0.00     0.041 A 
ATOM     90  F   UNL A   1      42.917  30.230  28.740  1.00  0.00    -0.206 F 
ATOM     91  C   UNL A   1      45.627  31.817  26.956  1.00  0.00     0.022 A 
BRANCH  88  92
ATOM     92  S   UNL A   1      48.394  31.861  27.132  1.00  0.00     0.124 S 
ATOM     93  O   UNL A   1      48.942  32.465  28.340  1.00  0.00    -0.237 OA
ATOM     94  O   UNL A   1      49.025  30.617  26.697  1.00  0.00    -0.237 OA
ATOM     95  O   UNL A   1      48.118  32.809  26.050  1.00  0.00    -0.744 OA
ENDBRANCH  88  92
ENDBRANCH  62  85
ENDBRANCH  36  37
ENDBRANCH  28  31
ENDBRANCH  26  27
ENDBRANCH  25  26
ENDBRANCH   1  25
TORSDOF 17
ENDMDL
MODEL 2
REMARK VINA RESULT:     -12.2      2.588      6.951
REMARK SMILES C[C@@H](C1CC1)N(C)C(=O)N1Cc2nc[nH]c2C[C@H]1C(=O)NCCCNC(=O)c1ccc(-c2c3nc(c(-c4cc(S(=O)(=O)[O-])ccc4F)c4ccc([nH]4)c(-c4cc(S(=O)(=O)[O-])ccc4F)c4nc(c(-c5cc(S(=O)(=O)[O-])ccc5F)c5ccc2[nH]5)C=C4)C=C3)cc1
REMARK SMILES IDX 22 1 21 2 19 3 20 4 18 6 10 7 11 8 12 9 17 10 13 11 16 12
REMARK SMILES IDX 14 13 15 14 8 16 9 17 6 18 7 19 2 20 1 21 3 22 4 23 5 24
REMARK SMILES IDX 23 25 24 26 25 27 26 28 27 30 28 31 29 32 90 33 30 34 89 35
REMARK SMILES IDX 31 36 32 37 33 38 83 39 34 40 88 41 82 42 84 43 35 44 87 45
REMARK SMILES IDX 81 46 80 47 36 49 68 50 48 51 67 52 49 53 52 54 66 55 85 56
REMARK SMILES IDX 50 57 51 58 65 60 86 61 53 62 37 63 38 64 46 65 39 66 45 67
REMARK SMILES IDX 47 68 44 69 40 70 41 71 42 72 43 73 69 74 70 75 78 76 71 77
REMARK SMILES IDX 77 78 79 79 76 80 72 81 73 82 74 83 75 84 54 85 55 86 63 87
REMARK SMILES IDX 56 88 62 89 64 90 61 91 57 92 58 93 59 94 60 95
REMARK H PARENT 21 5 15 15 25 29 84 48 52 59
REMARK Flexibility Score: inf
ROOT
ATOM      1  C   UNL A   1      33.584  30.038  26.822  1.00  0.00     0.117 C 
ENDROOT
BRANCH   1   2
ATOM      2  N   UNL A   1      32.425  29.352  27.370  1.00  0.00    -0.354 N 
ATOM      3  C   UNL A   1      31.804  28.175  27.104  1.00  0.00     0.243 C 
ATOM      4  O   UNL A   1      30.976  27.825  27.959  1.00  0.00    -0.273 OA
ATOM      5  H   UNL A   1      31.994  29.854  28.098  1.00  0.00     0.163 HD
BRANCH   3   6
ATOM      6  C   UNL A   1      32.053  27.245  25.874  1.00  0.00     0.182 C 
ATOM      7  N   UNL A   1      30.986  26.243  25.517  1.00  0.00    -0.306 N 
ATOM      8  C   UNL A   1      29.884  26.695  24.637  1.00  0.00     0.180 C 
ATOM      9  C   UNL A   1      30.331  27.743  23.687  1.00  0.00     0.081 A 
ATOM     10  C   UNL A   1      32.645  28.015  24.655  1.00  0.00     0.091 C 
ATOM     11  N   UNL A   1      29.508  28.388  22.800  1.00  0.00    -0.240 NA
ATOM     12  C   UNL A   1      31.574  28.324  23.689  1.00  0.00     0.042 A 
ATOM     13  C   UNL A   1      30.247  29.337  22.269  1.00  0.00     0.197 A 
ATOM     14  N   UNL A   1      31.530  29.313  22.749  1.00  0.00    -0.348 N 
ATOM     15  H   UNL A   1      32.274  29.894  22.472  1.00  0.00     0.167 HD
BRANCH   7  16
ATOM     16  C   UNL A   1      30.923  24.890  25.808  1.00  0.00     0.321 C 
ATOM     17  O   UNL A   1      30.266  24.535  26.791  1.00  0.00    -0.248 OA
BRANCH  16  18
ATOM     18  N   UNL A   1      31.559  23.932  25.042  1.00  0.00    -0.325 N 
ATOM     19  C   UNL A   1      31.246  23.681  23.641  1.00  0.00     0.149 C 
BRANCH  18  20
ATOM     20  C   UNL A   1      32.900  23.459  25.464  1.00  0.00     0.086 C 
ATOM     21  C   UNL A   1      33.132  21.966  25.190  1.00  0.00     0.031 C 
BRANCH  20  22
ATOM     22  C   UNL A   1      34.083  24.326  25.071  1.00  0.00     0.011 C 
ATOM     23  C   UNL A   1      35.483  24.082  25.593  1.00  0.00     0.006 C 
ATOM     24  C   UNL A   1      35.198  23.932  24.126  1.00  0.00     0.006 C 
ENDBRANCH  20  22
ENDBRANCH  18  20
ENDBRANCH  16  18
ENDBRANCH   7  16
ENDBRANCH   3   6
ENDBRANCH   1   2
BRANCH   1  25
ATOM     25  C   UNL A   1      34.914  29.430  27.265  1.00  0.00     0.042 C 
BRANCH  25  26
ATOM     26  C   UNL A   1      35.853  30.455  27.858  1.00  0.00     0.118 C 
BRANCH  26  27
ATOM     27  N   UNL A   1      35.914  30.411  29.322  1.00  0.00    -0.352 N 
ATOM     28  C   UNL A   1      36.715  29.578  30.095  1.00  0.00     0.251 C 
ATOM     29  H   UNL A   1      35.326  31.035  29.807  1.00  0.00     0.163 HD
ATOM     30  O   UNL A   1      36.464  29.367  31.267  1.00  0.00    -0.269 OA
BRANCH  28  31
ATOM     31  C   UNL A   1      37.874  28.955  29.424  1.00  0.00     0.039 A 
ATOM     32  C   UNL A   1      38.501  29.542  28.325  1.00  0.00     0.014 A 
ATOM     33  C   UNL A   1      38.414  27.834  30.044  1.00  0.00     0.014 A 
ATOM     34  C   UNL A   1      39.744  29.043  27.932  1.00  0.00     0.010 A 
ATOM     35  C   UNL A   1      39.721  27.510  29.808  1.00  0.00     0.010 A 
ATOM     36  C   UNL A   1      40.369  28.050  28.707  1.00  0.00    -0.014 A 
BRANCH  36  37
ATOM     37  C   UNL A   1      41.755  27.647  28.478  1.00  0.00     0.031 A 
ATOM     38  C   UNL A   1      41.888  26.382  27.707  1.00  0.00     0.074 A 
ATOM     39  C   UNL A   1      42.818  28.442  28.743  1.00  0.00     0.049 A 
ATOM     40  N   UNL A   1      42.196  25.217  28.168  1.00  0.00    -0.248 NA
ATOM     41  C   UNL A   1      41.431  26.355  26.307  1.00  0.00     0.031 C 
ATOM     42  C   UNL A   1      42.826  29.831  29.222  1.00  0.00     0.029 A 
ATOM     43  N   UNL A   1      44.144  28.201  28.554  1.00  0.00    -0.354 N 
ATOM     44  C   UNL A   1      42.260  24.375  27.063  1.00  0.00     0.074 A 
ATOM     45  C   UNL A   1      41.544  25.056  26.020  1.00  0.00     0.031 C 
ATOM     46  C   UNL A   1      44.055  30.371  29.059  1.00  0.00     0.029 A 
ATOM     47  C   UNL A   1      44.970  29.322  28.650  1.00  0.00     0.049 A 
ATOM     48  H   UNL A   1      44.496  27.301  28.363  1.00  0.00     0.167 HD
ATOM     49  C   UNL A   1      43.145  23.338  27.034  1.00  0.00     0.034 A 
ATOM     50  C   UNL A   1      46.312  29.390  28.423  1.00  0.00     0.034 A 
ATOM     51  C   UNL A   1      43.656  23.073  28.367  1.00  0.00     0.049 A 
ATOM     52  C   UNL A   1      46.825  28.007  28.578  1.00  0.00     0.074 A 
ATOM     53  C   UNL A   1      43.076  22.753  29.580  1.00  0.00     0.029 A 
ATOM     54  N   UNL A   1      44.914  23.544  28.677  1.00  0.00    -0.354 N 
ATOM     55  N   UNL A   1      46.795  27.361  29.712  1.00  0.00    -0.248 NA
ATOM     56  C   UNL A   1      46.882  27.170  27.389  1.00  0.00     0.031 C 
ATOM     57  C   UNL A   1      43.794  23.525  30.543  1.00  0.00     0.029 A 
ATOM     58  C   UNL A   1      44.838  24.186  29.890  1.00  0.00     0.049 A 
ATOM     59  H   UNL A   1      45.723  23.440  28.127  1.00  0.00     0.167 HD
ATOM     60  C   UNL A   1      46.377  26.080  29.383  1.00  0.00     0.074 A 
ATOM     61  C   UNL A   1      46.536  25.997  27.929  1.00  0.00     0.031 C 
ATOM     62  C   UNL A   1      45.669  25.315  30.268  1.00  0.00     0.034 A 
BRANCH  49  63
ATOM     63  C   UNL A   1      43.865  22.842  25.794  1.00  0.00     0.023 A 
ATOM     64  C   UNL A   1      43.949  21.446  25.626  1.00  0.00     0.031 A 
ATOM     65  C   UNL A   1      44.705  23.605  24.950  1.00  0.00     0.131 A 
ATOM     66  C   UNL A   1      44.911  20.871  24.778  1.00  0.00     0.055 A 
ATOM     67  C   UNL A   1      45.617  23.029  24.059  1.00  0.00     0.041 A 
ATOM     68  F   UNL A   1      44.764  24.940  24.990  1.00  0.00    -0.206 F 
ATOM     69  C   UNL A   1      45.752  21.655  23.996  1.00  0.00     0.022 A 
BRANCH  66  70
ATOM     70  S   UNL A   1      45.168  19.082  24.869  1.00  0.00     0.124 S 
ATOM     71  O   UNL A   1      45.063  18.703  23.464  1.00  0.00    -0.237 OA
ATOM     72  O   UNL A   1      46.499  19.001  25.462  1.00  0.00    -0.237 OA
ATOM     73  O   UNL A   1      44.075  18.627  25.724  1.00  0.00    -0.744 OA
ENDBRANCH  66  70
ENDBRANCH  49  63
BRANCH  50  74
ATOM     74  C   UNL A   1      47.075  30.482  27.746  1.00  0.00     0.023 A 
ATOM     75  C   UNL A   1      46.461  31.605  27.142  1.00  0.00     0.031 A 
ATOM     76  C   UNL A   1      48.475  30.553  27.926  1.00  0.00     0.131 A 
ATOM     77  C   UNL A   1      47.239  32.728  26.757  1.00  0.00     0.055 A 
ATOM     78  C   UNL A   1      49.235  31.665  27.552  1.00  0.00     0.041 A 
ATOM     79  F   UNL A   1      49.144  29.574  28.555  1.00  0.00    -0.206 F 
ATOM     80  C   UNL A   1      48.618  32.764  26.976  1.00  0.00     0.022 A 
BRANCH  77  81
ATOM     81  S   UNL A   1      46.460  34.212  26.031  1.00  0.00     0.124 S 
ATOM     82  O   UNL A   1      45.255  33.664  25.419  1.00  0.00    -0.237 OA
ATOM     83  O   UNL A   1      46.265  35.068  27.195  1.00  0.00    -0.237 OA
ATOM     84  O   UNL A   1      47.462  34.696  25.080  1.00  0.00    -0.744 OA
ENDBRANCH  77  81
ENDBRANCH  50  74
BRANCH  62  85
ATOM     85  C   UNL A   1      45.604  25.764  31.719  1.00  0.00     0.023 A 
ATOM     86  C   UNL A   1      46.642  25.628  32.674  1.00  0.00     0.031 A 
ATOM     87  C   UNL A   1      44.452  26.468  32.111  1.00  0.00     0.131 A 
ATOM     88  C   UNL A   1      46.491  26.180  33.964  1.00  0.00     0.055 A 
ATOM     89  C   UNL A   1      44.317  27.032  33.378  1.00  0.00     0.041 A 
ATOM     90  F   UNL A   1      43.440  26.652  31.247  1.00  0.00    -0.206 F 
ATOM     91  C   UNL A   1      45.334  26.886  34.312  1.00  0.00     0.022 A 
BRANCH  88  92
ATOM     92  S   UNL A   1      47.784  25.973  35.235  1.00  0.00     0.124 S 
ATOM     93  O   UNL A   1      47.073  25.359  36.351  1.00  0.00    -0.237 OA
ATOM     94  O   UNL A   1      48.763  25.125  34.558  1.00  0.00    -0.237 OA
ATOM     95  O   UNL A   1      48.240  27.341  35.485  1.00  0.00    -0.744 OA
ENDBRANCH  88  92
ENDBRANCH  62  85
ENDBRANCH  36  37
ENDBRANCH  28  31
ENDBRANCH  26  27
ENDBRANCH  25  26
ENDBRANCH   1  25
TORSDOF 17
ENDMDL
MODEL 3
REMARK VINA RESULT:     -12.1      2.814      7.543
REMARK SMILES C[C@@H](C1CC1)N(C)C(=O)N1Cc2nc[nH]c2C[C@H]1C(=O)NCCCNC(=O)c1ccc(-c2c3nc(c(-c4cc(S(=O)(=O)[O-])ccc4F)c4ccc([nH]4)c(-c4cc(S(=O)(=O)[O-])ccc4F)c4nc(c(-c5cc(S(=O)(=O)[O-])ccc5F)c5ccc2[nH]5)C=C4)C=C3)cc1
REMARK SMILES IDX 22 1 21 2 19 3 20 4 18 6 10 7 11 8 12 9 17 10 13 11 16 12
REMARK SMILES IDX 14 13 15 14 8 16 9 17 6 18 7 19 2 20 1 21 3 22 4 23 5 24
REMARK SMILES IDX 23 25 24 26 25 27 26 28 27 30 28 31 29 32 90 33 30 34 89 35
REMARK SMILES IDX 31 36 32 37 33 38 83 39 34 40 88 41 82 42 84 43 35 44 87 45
REMARK SMILES IDX 81 46 80 47 36 49 68 50 48 51 67 52 49 53 52 54 66 55 85 56
REMARK SMILES IDX 50 57 51 58 65 60 86 61 53 62 37 63 38 64 46 65 39 66 45 67
REMARK SMILES IDX 47 68 44 69 40 70 41 71 42 72 43 73 69 74 70 75 78 76 71 77
REMARK SMILES IDX 77 78 79 79 76 80 72 81 73 82 74 83 75 84 54 85 55 86 63 87
REMARK SMILES IDX 56 88 62 89 64 90 61 91 57 92 58 93 59 94 60 95
REMARK H PARENT 21 5 15 15 25 29 84 48 52 59
REMARK Flexibility Score: inf
ROOT
ATOM      1  C   UNL A   1      33.513  29.943  26.562  1.00  0.00     0.117 C 
ENDROOT
BRANCH   1   2
ATOM      2  N   UNL A   1      32.499  29.295  27.379  1.00  0.00    -0.354 N 
ATOM      3  C   UNL A   1      31.712  28.201  27.225  1.00  0.00     0.243 C 
ATOM      4  O   UNL A   1      31.136  27.831  28.260  1.00  0.00    -0.273 OA
ATOM      5  H   UNL A   1      32.352  29.753  28.238  1.00  0.00     0.163 HD
BRANCH   3   6
ATOM      6  C   UNL A   1      31.497  27.382  25.912  1.00  0.00     0.182 C 
ATOM      7  N   UNL A   1      32.453  27.611  24.770  1.00  0.00    -0.306 N 
ATOM      8  C   UNL A   1      33.711  26.830  24.758  1.00  0.00     0.180 C 
ATOM      9  C   UNL A   1      33.539  25.497  25.387  1.00  0.00     0.081 A 
ATOM     10  C   UNL A   1      31.179  25.882  26.193  1.00  0.00     0.091 C 
ATOM     11  N   UNL A   1      34.550  24.590  25.570  1.00  0.00    -0.240 NA
ATOM     12  C   UNL A   1      32.398  25.070  26.018  1.00  0.00     0.042 A 
ATOM     13  C   UNL A   1      34.024  23.626  26.294  1.00  0.00     0.197 A 
ATOM     14  N   UNL A   1      32.699  23.853  26.558  1.00  0.00    -0.348 N 
ATOM     15  H   UNL A   1      32.084  23.257  27.042  1.00  0.00     0.167 HD
BRANCH   7  16
ATOM     16  C   UNL A   1      32.290  28.389  23.636  1.00  0.00     0.321 C 
ATOM     17  O   UNL A   1      33.213  29.143  23.308  1.00  0.00    -0.248 OA
BRANCH  16  18
ATOM     18  N   UNL A   1      31.147  28.350  22.862  1.00  0.00    -0.325 N 
ATOM     19  C   UNL A   1      30.674  27.151  22.182  1.00  0.00     0.149 C 
BRANCH  18  20
ATOM     20  C   UNL A   1      30.103  29.381  23.082  1.00  0.00     0.086 C 
ATOM     21  C   UNL A   1      30.404  30.308  24.269  1.00  0.00     0.031 C 
BRANCH  20  22
ATOM     22  C   UNL A   1      29.613  30.128  21.854  1.00  0.00     0.011 C 
ATOM     23  C   UNL A   1      28.144  30.274  21.519  1.00  0.00     0.006 C 
ATOM     24  C   UNL A   1      28.959  31.492  21.847  1.00  0.00     0.006 C 
ENDBRANCH  20  22
ENDBRANCH  18  20
ENDBRANCH  16  18
ENDBRANCH   7  16
ENDBRANCH   3   6
ENDBRANCH   1   2
BRANCH   1  25
ATOM     25  C   UNL A   1      34.602  30.633  27.383  1.00  0.00     0.042 C 
BRANCH  25  26
ATOM     26  C   UNL A   1      35.526  29.652  28.065  1.00  0.00     0.118 C 
BRANCH  26  27
ATOM     27  N   UNL A   1      35.769  29.966  29.477  1.00  0.00    -0.352 N 
ATOM     28  C   UNL A   1      36.801  29.478  30.271  1.00  0.00     0.251 C 
ATOM     29  H   UNL A   1      35.135  30.585  29.906  1.00  0.00     0.163 HD
ATOM     30  O   UNL A   1      36.737  29.514  31.485  1.00  0.00    -0.269 OA
BRANCH  28  31
ATOM     31  C   UNL A   1      37.970  28.906  29.570  1.00  0.00     0.039 A 
ATOM     32  C   UNL A   1      38.542  29.520  28.457  1.00  0.00     0.014 A 
ATOM     33  C   UNL A   1      38.573  27.811  30.175  1.00  0.00     0.014 A 
ATOM     34  C   UNL A   1      39.795  29.077  28.031  1.00  0.00     0.010 A 
ATOM     35  C   UNL A   1      39.887  27.545  29.906  1.00  0.00     0.010 A 
ATOM     36  C   UNL A   1      40.483  28.113  28.791  1.00  0.00    -0.014 A 
BRANCH  36  37
ATOM     37  C   UNL A   1      41.879  27.770  28.526  1.00  0.00     0.031 A 
ATOM     38  C   UNL A   1      42.050  26.493  27.783  1.00  0.00     0.074 A 
ATOM     39  C   UNL A   1      42.909  28.622  28.737  1.00  0.00     0.049 A 
ATOM     40  N   UNL A   1      42.429  25.357  28.264  1.00  0.00    -0.248 NA
ATOM     41  C   UNL A   1      41.551  26.407  26.400  1.00  0.00     0.031 C 
ATOM     42  C   UNL A   1      42.864  30.023  29.179  1.00  0.00     0.029 A 
ATOM     43  N   UNL A   1      44.239  28.441  28.510  1.00  0.00    -0.354 N 
ATOM     44  C   UNL A   1      42.500  24.490  27.179  1.00  0.00     0.074 A 
ATOM     45  C   UNL A   1      41.718  25.107  26.143  1.00  0.00     0.031 C 
ATOM     46  C   UNL A   1      44.060  30.617  28.963  1.00  0.00     0.029 A 
ATOM     47  C   UNL A   1      45.012  29.603  28.551  1.00  0.00     0.049 A 
ATOM     48  H   UNL A   1      44.628  27.554  28.331  1.00  0.00     0.167 HD
ATOM     49  C   UNL A   1      43.433  23.497  27.147  1.00  0.00     0.034 A 
ATOM     50  C   UNL A   1      46.341  29.730  28.278  1.00  0.00     0.034 A 
ATOM     51  C   UNL A   1      43.998  23.292  28.469  1.00  0.00     0.049 A 
ATOM     52  C   UNL A   1      46.926  28.377  28.451  1.00  0.00     0.074 A 
ATOM     53  C   UNL A   1      43.473  22.977  29.708  1.00  0.00     0.029 A 
ATOM     54  N   UNL A   1      45.240  23.832  28.725  1.00  0.00    -0.354 N 
ATOM     55  N   UNL A   1      46.963  27.762  29.601  1.00  0.00    -0.248 NA
ATOM     56  C   UNL A   1      46.987  27.512  27.283  1.00  0.00     0.031 C 
ATOM     57  C   UNL A   1      44.182  23.809  30.627  1.00  0.00     0.029 A 
ATOM     58  C   UNL A   1      45.171  24.501  29.924  1.00  0.00     0.049 A 
ATOM     59  H   UNL A   1      46.036  23.752  28.152  1.00  0.00     0.167 HD
ATOM     60  C   UNL A   1      46.598  26.453  29.319  1.00  0.00     0.074 A 
ATOM     61  C   UNL A   1      46.716  26.339  27.863  1.00  0.00     0.031 C 
ATOM     62  C   UNL A   1      45.958  25.680  30.246  1.00  0.00     0.034 A 
BRANCH  49  63
ATOM     63  C   UNL A   1      44.137  23.003  25.897  1.00  0.00     0.023 A 
ATOM     64  C   UNL A   1      44.141  21.611  25.679  1.00  0.00     0.031 A 
ATOM     65  C   UNL A   1      45.031  23.744  25.090  1.00  0.00     0.131 A 
ATOM     66  C   UNL A   1      45.077  21.010  24.821  1.00  0.00     0.055 A 
ATOM     67  C   UNL A   1      45.917  23.147  24.187  1.00  0.00     0.041 A 
ATOM     68  F   UNL A   1      45.168  25.071  25.178  1.00  0.00    -0.206 F 
ATOM     69  C   UNL A   1      45.972  21.770  24.076  1.00  0.00     0.022 A 
BRANCH  66  70
ATOM     70  S   UNL A   1      45.228  19.207  24.850  1.00  0.00     0.124 S 
ATOM     71  O   UNL A   1      46.538  19.035  25.466  1.00  0.00    -0.237 OA
ATOM     72  O   UNL A   1      44.077  18.824  25.661  1.00  0.00    -0.237 OA
ATOM     73  O   UNL A   1      45.146  18.840  23.438  1.00  0.00    -0.744 OA
ENDBRANCH  66  70
ENDBRANCH  49  63
BRANCH  50  74
ATOM     74  C   UNL A   1      47.028  30.838  27.550  1.00  0.00     0.023 A 
ATOM     75  C   UNL A   1      46.347  31.951  26.999  1.00  0.00     0.031 A 
ATOM     76  C   UNL A   1      48.436  30.938  27.622  1.00  0.00     0.131 A 
ATOM     77  C   UNL A   1      47.070  33.090  26.560  1.00  0.00     0.055 A 
ATOM     78  C   UNL A   1      49.142  32.066  27.196  1.00  0.00     0.041 A 
ATOM     79  F   UNL A   1      49.171  29.971  28.194  1.00  0.00    -0.206 F 
ATOM     80  C   UNL A   1      48.461  33.153  26.673  1.00  0.00     0.022 A 
BRANCH  77  81
ATOM     81  S   UNL A   1      46.208  34.560  25.901  1.00  0.00     0.124 S 
ATOM     82  O   UNL A   1      47.309  35.356  25.373  1.00  0.00    -0.237 OA
ATOM     83  O   UNL A   1      45.298  33.978  24.921  1.00  0.00    -0.237 OA
ATOM     84  O   UNL A   1      45.552  35.130  27.080  1.00  0.00    -0.744 OA
ENDBRANCH  77  81
ENDBRANCH  50  74
BRANCH  62  85
ATOM     85  C   UNL A   1      45.916  26.164  31.686  1.00  0.00     0.023 A 
ATOM     86  C   UNL A   1      44.819  26.806  32.311  1.00  0.00     0.031 A 
ATOM     87  C   UNL A   1      47.026  25.849  32.491  1.00  0.00     0.131 A 
ATOM     88  C   UNL A   1      44.872  27.115  33.687  1.00  0.00     0.055 A 
ATOM     89  C   UNL A   1      47.064  26.134  33.854  1.00  0.00     0.041 A 
ATOM     90  F   UNL A   1      48.090  25.220  31.965  1.00  0.00    -0.206 F 
ATOM     91  C   UNL A   1      45.989  26.774  34.457  1.00  0.00     0.022 A 
BRANCH  88  92
ATOM     92  S   UNL A   1      43.500  27.994  34.510  1.00  0.00     0.124 S 
ATOM     93  O   UNL A   1      42.370  27.784  33.611  1.00  0.00    -0.237 OA
ATOM     94  O   UNL A   1      43.421  27.320  35.803  1.00  0.00    -0.237 OA
ATOM     95  O   UNL A   1      43.973  29.378  34.577  1.00  0.00    -0.744 OA
ENDBRANCH  88  92
ENDBRANCH  62  85
ENDBRANCH  36  37
ENDBRANCH  28  31
ENDBRANCH  26  27
ENDBRANCH  25  26
ENDBRANCH   1  25
TORSDOF 17
ENDMDL
