MODEL 1
REMARK VINA RESULT:     -10.9      0.000      0.000
REMARK SMILES O=C(NCCCNC(=O)[C@@H]1CNc2ccccc2C1)c1ccc(-c2c3nc(c(-c4cc(S(=O)(=O)[O-])ccc4F)c4ccc([nH]4)c(-c4cc(S(=O)(=O)[O-])ccc4F)c4nc(c(-c5cc(S(=O)(=O)[O-])ccc5F)c5ccc2[nH]5)C=C4)C=C3)cc1
REMARK SMILES IDX 1 1 2 2 3 3 20 5 21 6 82 7 22 8 81 9 23 10 24 11 25 12 75 13
REMARK SMILES IDX 26 14 80 15 74 16 76 17 27 18 79 19 73 20 72 21 28 23 60 24
REMARK SMILES IDX 40 25 59 26 41 27 44 28 58 29 77 30 42 31 43 32 57 34 78 35
REMARK SMILES IDX 45 36 29 37 30 38 38 39 31 40 37 41 39 42 36 43 32 44 33 45
REMARK SMILES IDX 34 46 35 47 61 48 62 49 70 50 63 51 69 52 71 53 68 54 64 55
REMARK SMILES IDX 65 56 66 57 67 58 46 59 47 60 55 61 48 62 54 63 56 64 53 65
REMARK SMILES IDX 49 66 50 67 51 68 52 69 4 70 5 71 6 72 7 73 8 74 9 76 10 77
REMARK SMILES IDX 11 78 19 79 12 80 18 81 13 82 17 84 14 85 16 86 15 87
REMARK H PARENT 3 4 76 22 44 33 7 75 12 83
REMARK Flexibility Score: inf
ROOT
ATOM      1  O   UNL A   1      38.301  21.741  25.950  1.00  0.00    -0.269 OA
ATOM      2  C   UNL A   1      39.405  21.872  26.477  1.00  0.00     0.251 C 
ATOM      3  N   UNL A   1      40.172  20.758  26.717  1.00  0.00    -0.352 N 
ATOM      4  H   UNL A   1      39.858  19.933  26.280  1.00  0.00     0.163 HD
ENDROOT
BRANCH   2   5
ATOM      5  C   UNL A   1      39.894  23.215  26.855  1.00  0.00     0.039 A 
ATOM      6  C   UNL A   1      40.729  23.385  27.963  1.00  0.00     0.014 A 
ATOM      7  C   UNL A   1      39.548  24.317  26.067  1.00  0.00     0.014 A 
ATOM      8  C   UNL A   1      41.101  24.663  28.361  1.00  0.00     0.010 A 
ATOM      9  C   UNL A   1      40.003  25.592  26.416  1.00  0.00     0.010 A 
ATOM     10  C   UNL A   1      40.765  25.780  27.579  1.00  0.00    -0.014 A 
BRANCH  10  11
ATOM     11  C   UNL A   1      41.278  27.120  27.965  1.00  0.00     0.031 A 
ATOM     12  C   UNL A   1      42.688  27.533  27.653  1.00  0.00     0.074 A 
ATOM     13  C   UNL A   1      40.443  27.975  28.588  1.00  0.00     0.049 A 
ATOM     14  N   UNL A   1      43.294  28.663  27.913  1.00  0.00    -0.248 NA
ATOM     15  C   UNL A   1      43.531  26.541  26.971  1.00  0.00     0.031 C 
ATOM     16  C   UNL A   1      39.051  27.682  28.943  1.00  0.00     0.029 A 
ATOM     17  N   UNL A   1      40.628  29.264  29.016  1.00  0.00    -0.354 N 
ATOM     18  C   UNL A   1      44.594  28.519  27.438  1.00  0.00     0.074 A 
ATOM     19  C   UNL A   1      44.696  27.171  26.917  1.00  0.00     0.031 C 
ATOM     20  C   UNL A   1      38.496  28.773  29.487  1.00  0.00     0.029 A 
ATOM     21  C   UNL A   1      39.508  29.817  29.592  1.00  0.00     0.049 A 
ATOM     22  H   UNL A   1      41.480  29.748  28.921  1.00  0.00     0.167 HD
ATOM     23  C   UNL A   1      45.600  29.430  27.432  1.00  0.00     0.034 A 
ATOM     24  C   UNL A   1      39.319  31.022  30.165  1.00  0.00     0.034 A 
ATOM     25  C   UNL A   1      45.476  30.766  27.970  1.00  0.00     0.049 A 
ATOM     26  C   UNL A   1      40.469  31.989  30.207  1.00  0.00     0.074 A 
ATOM     27  C   UNL A   1      46.420  31.779  27.991  1.00  0.00     0.029 A 
ATOM     28  N   UNL A   1      44.346  31.272  28.602  1.00  0.00    -0.354 N 
ATOM     29  N   UNL A   1      41.686  31.847  29.735  1.00  0.00    -0.248 NA
ATOM     30  C   UNL A   1      40.220  33.281  30.856  1.00  0.00     0.031 C 
ATOM     31  C   UNL A   1      45.891  32.861  28.704  1.00  0.00     0.029 A 
ATOM     32  C   UNL A   1      44.582  32.564  29.050  1.00  0.00     0.049 A 
ATOM     33  H   UNL A   1      43.498  30.783  28.715  1.00  0.00     0.167 HD
ATOM     34  C   UNL A   1      42.340  33.044  30.010  1.00  0.00     0.074 A 
ATOM     35  C   UNL A   1      41.376  33.899  30.672  1.00  0.00     0.031 C 
ATOM     36  C   UNL A   1      43.621  33.402  29.732  1.00  0.00     0.034 A 
BRANCH  23  37
ATOM     37  C   UNL A   1      46.935  28.987  26.872  1.00  0.00     0.023 A 
ATOM     38  C   UNL A   1      47.104  28.681  25.509  1.00  0.00     0.031 A 
ATOM     39  C   UNL A   1      48.045  28.823  27.720  1.00  0.00     0.131 A 
ATOM     40  C   UNL A   1      48.318  28.144  25.054  1.00  0.00     0.055 A 
ATOM     41  C   UNL A   1      49.279  28.375  27.244  1.00  0.00     0.041 A 
ATOM     42  F   UNL A   1      47.944  29.076  29.035  1.00  0.00    -0.206 F 
ATOM     43  C   UNL A   1      49.416  28.014  25.908  1.00  0.00     0.022 A 
BRANCH  40  44
ATOM     44  S   UNL A   1      48.384  27.453  23.377  1.00  0.00     0.124 S 
ATOM     45  O   UNL A   1      49.748  27.787  22.972  1.00  0.00    -0.237 OA
ATOM     46  O   UNL A   1      48.115  26.039  23.609  1.00  0.00    -0.237 OA
ATOM     47  O   UNL A   1      47.337  28.182  22.664  1.00  0.00    -0.744 OA
ENDBRANCH  40  44
ENDBRANCH  23  37
BRANCH  24  48
ATOM     48  C   UNL A   1      37.998  31.363  30.764  1.00  0.00     0.023 A 
ATOM     49  C   UNL A   1      37.020  32.044  30.024  1.00  0.00     0.031 A 
ATOM     50  C   UNL A   1      37.698  31.018  32.095  1.00  0.00     0.131 A 
ATOM     51  C   UNL A   1      35.802  32.388  30.629  1.00  0.00     0.055 A 
ATOM     52  C   UNL A   1      36.464  31.312  32.674  1.00  0.00     0.041 A 
ATOM     53  F   UNL A   1      38.598  30.362  32.846  1.00  0.00    -0.206 F 
ATOM     54  C   UNL A   1      35.510  32.011  31.942  1.00  0.00     0.022 A 
BRANCH  51  55
ATOM     55  S   UNL A   1      34.624  33.398  29.691  1.00  0.00     0.124 S 
ATOM     56  O   UNL A   1      35.511  34.336  29.014  1.00  0.00    -0.237 OA
ATOM     57  O   UNL A   1      33.975  32.402  28.845  1.00  0.00    -0.237 OA
ATOM     58  O   UNL A   1      33.774  33.980  30.729  1.00  0.00    -0.744 OA
ENDBRANCH  51  55
ENDBRANCH  24  48
BRANCH  36  59
ATOM     59  C   UNL A   1      44.033  34.805  30.113  1.00  0.00     0.023 A 
ATOM     60  C   UNL A   1      43.826  35.900  29.255  1.00  0.00     0.031 A 
ATOM     61  C   UNL A   1      44.666  35.043  31.347  1.00  0.00     0.131 A 
ATOM     62  C   UNL A   1      44.302  37.170  29.615  1.00  0.00     0.055 A 
ATOM     63  C   UNL A   1      45.076  36.322  31.728  1.00  0.00     0.041 A 
ATOM     64  F   UNL A   1      44.895  34.036  32.203  1.00  0.00    -0.206 F 
ATOM     65  C   UNL A   1      44.908  37.391  30.854  1.00  0.00     0.022 A 
BRANCH  62  66
ATOM     66  S   UNL A   1      44.215  38.511  28.396  1.00  0.00     0.124 S 
ATOM     67  O   UNL A   1      45.598  38.975  28.357  1.00  0.00    -0.237 OA
ATOM     68  O   UNL A   1      43.739  37.819  27.203  1.00  0.00    -0.237 OA
ATOM     69  O   UNL A   1      43.263  39.451  28.987  1.00  0.00    -0.744 OA
ENDBRANCH  62  66
ENDBRANCH  36  59
ENDBRANCH  10  11
ENDBRANCH   2   5
BRANCH   3  70
ATOM     70  C   UNL A   1      41.379  20.615  27.519  1.00  0.00     0.118 C 
BRANCH  70  71
ATOM     71  C   UNL A   1      42.241  19.445  27.063  1.00  0.00     0.042 C 
BRANCH  71  72
ATOM     72  C   UNL A   1      42.749  19.578  25.630  1.00  0.00     0.117 C 
BRANCH  72  73
ATOM     73  N   UNL A   1      44.182  19.786  25.584  1.00  0.00    -0.356 N 
ATOM     74  C   UNL A   1      44.920  20.911  25.373  1.00  0.00     0.225 C 
ATOM     75  H   UNL A   1      44.714  18.973  25.731  1.00  0.00     0.163 HD
ATOM     76  O   UNL A   1      46.145  20.768  25.446  1.00  0.00    -0.275 OA
BRANCH  74  77
ATOM     77  C   UNL A   1      44.262  22.285  25.227  1.00  0.00     0.102 C 
ATOM     78  C   UNL A   1      44.970  23.275  24.307  1.00  0.00     0.126 C 
ATOM     79  C   UNL A   1      44.106  22.967  26.603  1.00  0.00     0.053 C 
ATOM     80  N   UNL A   1      46.282  23.613  24.811  1.00  0.00    -0.384 N 
ATOM     81  C   UNL A   1      45.361  23.678  27.062  1.00  0.00    -0.024 A 
ATOM     82  C   UNL A   1      46.388  23.974  26.147  1.00  0.00     0.037 A 
ATOM     83  H   UNL A   1      47.073  23.588  24.227  1.00  0.00     0.160 HD
ATOM     84  C   UNL A   1      45.481  24.084  28.398  1.00  0.00     0.006 A 
ATOM     85  C   UNL A   1      47.545  24.609  26.604  1.00  0.00     0.026 A 
ATOM     86  C   UNL A   1      46.626  24.751  28.831  1.00  0.00     0.000 A 
ATOM     87  C   UNL A   1      47.663  25.005  27.937  1.00  0.00     0.002 A 
ENDBRANCH  74  77
ENDBRANCH  72  73
ENDBRANCH  71  72
ENDBRANCH  70  71
ENDBRANCH   3  70
TORSDOF 13
ENDMDL
MODEL 2
REMARK VINA RESULT:     -10.9      5.069     12.391
REMARK SMILES O=C(NCCCNC(=O)[C@@H]1CNc2ccccc2C1)c1ccc(-c2c3nc(c(-c4cc(S(=O)(=O)[O-])ccc4F)c4ccc([nH]4)c(-c4cc(S(=O)(=O)[O-])ccc4F)c4nc(c(-c5cc(S(=O)(=O)[O-])ccc5F)c5ccc2[nH]5)C=C4)C=C3)cc1
REMARK SMILES IDX 1 1 2 2 3 3 20 5 21 6 82 7 22 8 81 9 23 10 24 11 25 12 75 13
REMARK SMILES IDX 26 14 80 15 74 16 76 17 27 18 79 19 73 20 72 21 28 23 60 24
REMARK SMILES IDX 40 25 59 26 41 27 44 28 58 29 77 30 42 31 43 32 57 34 78 35
REMARK SMILES IDX 45 36 29 37 30 38 38 39 31 40 37 41 39 42 36 43 32 44 33 45
REMARK SMILES IDX 34 46 35 47 61 48 62 49 70 50 63 51 69 52 71 53 68 54 64 55
REMARK SMILES IDX 65 56 66 57 67 58 46 59 47 60 55 61 48 62 54 63 56 64 53 65
REMARK SMILES IDX 49 66 50 67 51 68 52 69 4 70 5 71 6 72 7 73 8 74 9 76 10 77
REMARK SMILES IDX 11 78 19 79 12 80 18 81 13 82 17 84 14 85 16 86 15 87
REMARK H PARENT 3 4 76 22 44 33 7 75 12 83
REMARK Flexibility Score: inf
ROOT
ATOM      1  O   UNL A   1      33.508  31.121  26.939  1.00  0.00    -0.269 OA
ATOM      2  C   UNL A   1      34.240  31.827  27.633  1.00  0.00     0.251 C 
ATOM      3  N   UNL A   1      33.920  33.148  27.820  1.00  0.00    -0.352 N 
ATOM      4  H   UNL A   1      33.015  33.405  27.528  1.00  0.00     0.163 HD
ENDROOT
BRANCH   2   5
ATOM      5  C   UNL A   1      35.455  31.253  28.252  1.00  0.00     0.039 A 
ATOM      6  C   UNL A   1      36.640  31.991  28.313  1.00  0.00     0.014 A 
ATOM      7  C   UNL A   1      35.397  29.976  28.818  1.00  0.00     0.014 A 
ATOM      8  C   UNL A   1      37.797  31.403  28.810  1.00  0.00     0.010 A 
ATOM      9  C   UNL A   1      36.540  29.423  29.404  1.00  0.00     0.010 A 
ATOM     10  C   UNL A   1      37.756  30.123  29.385  1.00  0.00    -0.014 A 
BRANCH  10  11
ATOM     11  C   UNL A   1      38.983  29.569  30.016  1.00  0.00     0.031 A 
ATOM     12  C   UNL A   1      39.408  29.993  31.392  1.00  0.00     0.074 A 
ATOM     13  C   UNL A   1      39.703  28.657  29.335  1.00  0.00     0.049 A 
ATOM     14  N   UNL A   1      40.444  29.606  32.092  1.00  0.00    -0.248 NA
ATOM     15  C   UNL A   1      38.566  30.991  32.067  1.00  0.00     0.031 C 
ATOM     16  C   UNL A   1      39.385  28.171  27.989  1.00  0.00     0.029 A 
ATOM     17  N   UNL A   1      40.833  27.961  29.678  1.00  0.00    -0.354 N 
ATOM     18  C   UNL A   1      40.389  30.320  33.285  1.00  0.00     0.074 A 
ATOM     19  C   UNL A   1      39.240  31.197  33.189  1.00  0.00     0.031 C 
ATOM     20  C   UNL A   1      40.266  27.223  27.643  1.00  0.00     0.029 A 
ATOM     21  C   UNL A   1      41.257  27.088  28.704  1.00  0.00     0.049 A 
ATOM     22  H   UNL A   1      41.297  28.076  30.539  1.00  0.00     0.167 HD
ATOM     23  C   UNL A   1      41.216  30.241  34.359  1.00  0.00     0.034 A 
ATOM     24  C   UNL A   1      42.335  26.282  28.657  1.00  0.00     0.034 A 
ATOM     25  C   UNL A   1      42.365  29.366  34.425  1.00  0.00     0.049 A 
ATOM     26  C   UNL A   1      43.274  26.263  29.831  1.00  0.00     0.074 A 
ATOM     27  C   UNL A   1      43.252  29.185  35.472  1.00  0.00     0.029 A 
ATOM     28  N   UNL A   1      42.800  28.539  33.396  1.00  0.00    -0.354 N 
ATOM     29  N   UNL A   1      43.197  26.927  30.960  1.00  0.00    -0.248 NA
ATOM     30  C   UNL A   1      44.443  25.383  29.724  1.00  0.00     0.031 C 
ATOM     31  C   UNL A   1      44.264  28.315  35.048  1.00  0.00     0.029 A 
ATOM     32  C   UNL A   1      43.962  27.878  33.768  1.00  0.00     0.049 A 
ATOM     33  H   UNL A   1      42.347  28.436  32.527  1.00  0.00     0.167 HD
ATOM     34  C   UNL A   1      44.298  26.525  31.711  1.00  0.00     0.074 A 
ATOM     35  C   UNL A   1      45.010  25.549  30.910  1.00  0.00     0.031 C 
ATOM     36  C   UNL A   1      44.679  26.923  32.952  1.00  0.00     0.034 A 
BRANCH  23  37
ATOM     37  C   UNL A   1      40.932  31.167  35.523  1.00  0.00     0.023 A 
ATOM     38  C   UNL A   1      39.774  31.036  36.310  1.00  0.00     0.031 A 
ATOM     39  C   UNL A   1      41.810  32.224  35.823  1.00  0.00     0.131 A 
ATOM     40  C   UNL A   1      39.479  31.995  37.292  1.00  0.00     0.055 A 
ATOM     41  C   UNL A   1      41.557  33.122  36.863  1.00  0.00     0.041 A 
ATOM     42  F   UNL A   1      42.922  32.417  35.096  1.00  0.00    -0.206 F 
ATOM     43  C   UNL A   1      40.377  33.023  37.592  1.00  0.00     0.022 A 
BRANCH  40  44
ATOM     44  S   UNL A   1      37.828  31.984  38.045  1.00  0.00     0.124 S 
ATOM     45  O   UNL A   1      38.132  32.325  39.433  1.00  0.00    -0.237 OA
ATOM     46  O   UNL A   1      37.124  33.004  37.277  1.00  0.00    -0.237 OA
ATOM     47  O   UNL A   1      37.366  30.613  37.838  1.00  0.00    -0.744 OA
ENDBRANCH  40  44
ENDBRANCH  23  37
BRANCH  24  48
ATOM     48  C   UNL A   1      42.593  25.452  27.446  1.00  0.00     0.023 A 
ATOM     49  C   UNL A   1      42.159  24.120  27.373  1.00  0.00     0.031 A 
ATOM     50  C   UNL A   1      43.287  25.982  26.342  1.00  0.00     0.131 A 
ATOM     51  C   UNL A   1      42.453  23.352  26.236  1.00  0.00     0.055 A 
ATOM     52  C   UNL A   1      43.528  25.231  25.191  1.00  0.00     0.041 A 
ATOM     53  F   UNL A   1      43.722  27.253  26.359  1.00  0.00    -0.206 F 
ATOM     54  C   UNL A   1      43.118  23.903  25.139  1.00  0.00     0.022 A 
BRANCH  51  55
ATOM     55  S   UNL A   1      42.010  21.595  26.240  1.00  0.00     0.124 S 
ATOM     56  O   UNL A   1      42.946  21.050  25.264  1.00  0.00    -0.237 OA
ATOM     57  O   UNL A   1      42.245  21.224  27.632  1.00  0.00    -0.237 OA
ATOM     58  O   UNL A   1      40.607  21.597  25.828  1.00  0.00    -0.744 OA
ENDBRANCH  51  55
ENDBRANCH  24  48
BRANCH  36  59
ATOM     59  C   UNL A   1      45.908  26.262  33.531  1.00  0.00     0.023 A 
ATOM     60  C   UNL A   1      45.839  25.040  34.225  1.00  0.00     0.031 A 
ATOM     61  C   UNL A   1      47.166  26.880  33.408  1.00  0.00     0.131 A 
ATOM     62  C   UNL A   1      46.992  24.507  34.819  1.00  0.00     0.055 A 
ATOM     63  C   UNL A   1      48.322  26.310  33.944  1.00  0.00     0.041 A 
ATOM     64  F   UNL A   1      47.292  28.050  32.763  1.00  0.00    -0.206 F 
ATOM     65  C   UNL A   1      48.236  25.124  34.667  1.00  0.00     0.022 A 
BRANCH  62  66
ATOM     66  S   UNL A   1      46.828  23.050  35.887  1.00  0.00     0.124 S 
ATOM     67  O   UNL A   1      47.640  23.427  37.040  1.00  0.00    -0.237 OA
ATOM     68  O   UNL A   1      45.388  22.988  36.113  1.00  0.00    -0.237 OA
ATOM     69  O   UNL A   1      47.374  21.964  35.073  1.00  0.00    -0.744 OA
ENDBRANCH  62  66
ENDBRANCH  36  59
ENDBRANCH  10  11
ENDBRANCH   2   5
BRANCH   3  70
ATOM     70  C   UNL A   1      34.718  34.228  28.385  1.00  0.00     0.118 C 
BRANCH  70  71
ATOM     71  C   UNL A   1      33.869  35.431  28.776  1.00  0.00     0.042 C 
BRANCH  71  72
ATOM     72  C   UNL A   1      33.080  35.234  30.067  1.00  0.00     0.117 C 
BRANCH  72  73
ATOM     73  N   UNL A   1      33.700  35.915  31.186  1.00  0.00    -0.356 N 
ATOM     74  C   UNL A   1      34.495  35.453  32.191  1.00  0.00     0.225 C 
ATOM     75  H   UNL A   1      33.514  36.880  31.226  1.00  0.00     0.163 HD
ATOM     76  O   UNL A   1      34.912  36.309  32.978  1.00  0.00    -0.275 OA
BRANCH  74  77
ATOM     77  C   UNL A   1      34.971  33.999  32.232  1.00  0.00     0.102 C 
ATOM     78  C   UNL A   1      35.094  33.372  33.616  1.00  0.00     0.126 C 
ATOM     79  C   UNL A   1      36.341  33.852  31.536  1.00  0.00     0.053 C 
ATOM     80  N   UNL A   1      36.095  34.047  34.411  1.00  0.00    -0.384 N 
ATOM     81  C   UNL A   1      37.507  34.202  32.437  1.00  0.00    -0.024 A 
ATOM     82  C   UNL A   1      37.335  34.278  33.831  1.00  0.00     0.037 A 
ATOM     83  H   UNL A   1      35.904  34.333  35.333  1.00  0.00     0.160 HD
ATOM     84  C   UNL A   1      38.778  34.407  31.881  1.00  0.00     0.006 A 
ATOM     85  C   UNL A   1      38.423  34.626  34.634  1.00  0.00     0.026 A 
ATOM     86  C   UNL A   1      39.863  34.717  32.700  1.00  0.00     0.000 A 
ATOM     87  C   UNL A   1      39.684  34.837  34.075  1.00  0.00     0.002 A 
ENDBRANCH  74  77
ENDBRANCH  72  73
ENDBRANCH  71  72
ENDBRANCH  70  71
ENDBRANCH   3  70
TORSDOF 13
ENDMDL
MODEL 3
REMARK VINA RESULT:     -10.5      1.433      1.655
REMARK SMILES O=C(NCCCNC(=O)[C@@H]1CNc2ccccc2C1)c1ccc(-c2c3nc(c(-c4cc(S(=O)(=O)[O-])ccc4F)c4ccc([nH]4)c(-c4cc(S(=O)(=O)[O-])ccc4F)c4nc(c(-c5cc(S(=O)(=O)[O-])ccc5F)c5ccc2[nH]5)C=C4)C=C3)cc1
REMARK SMILES IDX 1 1 2 2 3 3 20 5 21 6 82 7 22 8 81 9 23 10 24 11 25 12 75 13
REMARK SMILES IDX 26 14 80 15 74 16 76 17 27 18 79 19 73 20 72 21 28 23 60 24
REMARK SMILES IDX 40 25 59 26 41 27 44 28 58 29 77 30 42 31 43 32 57 34 78 35
REMARK SMILES IDX 45 36 29 37 30 38 38 39 31 40 37 41 39 42 36 43 32 44 33 45
REMARK SMILES IDX 34 46 35 47 61 48 62 49 70 50 63 51 69 52 71 53 68 54 64 55
REMARK SMILES IDX 65 56 66 57 67 58 46 59 47 60 55 61 48 62 54 63 56 64 53 65
REMARK SMILES IDX 49 66 50 67 51 68 52 69 4 70 5 71 6 72 7 73 8 74 9 76 10 77
REMARK SMILES IDX 11 78 19 79 12 80 18 81 13 82 17 84 14 85 16 86 15 87
REMARK H PARENT 3 4 76 22 44 33 7 75 12 83
REMARK Flexibility Score: inf
ROOT
ATOM      1  O   UNL A   1      38.121  21.916  25.996  1.00  0.00    -0.269 OA
ATOM      2  C   UNL A   1      39.271  22.063  26.411  1.00  0.00     0.251 C 
ATOM      3  N   UNL A   1      40.096  20.971  26.507  1.00  0.00    -0.352 N 
ATOM      4  H   UNL A   1      39.767  20.156  26.061  1.00  0.00     0.163 HD
ENDROOT
BRANCH   2   5
ATOM      5  C   UNL A   1      39.751  23.404  26.808  1.00  0.00     0.039 A 
ATOM      6  C   UNL A   1      40.231  23.636  28.100  1.00  0.00     0.014 A 
ATOM      7  C   UNL A   1      39.761  24.435  25.864  1.00  0.00     0.014 A 
ATOM      8  C   UNL A   1      40.588  24.923  28.486  1.00  0.00     0.010 A 
ATOM      9  C   UNL A   1      40.211  25.708  26.229  1.00  0.00     0.010 A 
ATOM     10  C   UNL A   1      40.607  25.969  27.550  1.00  0.00    -0.014 A 
BRANCH  10  11
ATOM     11  C   UNL A   1      41.107  27.306  27.963  1.00  0.00     0.031 A 
ATOM     12  C   UNL A   1      42.537  27.704  27.739  1.00  0.00     0.074 A 
ATOM     13  C   UNL A   1      40.243  28.171  28.529  1.00  0.00     0.049 A 
ATOM     14  N   UNL A   1      43.137  28.830  28.032  1.00  0.00    -0.248 NA
ATOM     15  C   UNL A   1      43.413  26.702  27.114  1.00  0.00     0.031 C 
ATOM     16  C   UNL A   1      38.829  27.892  28.797  1.00  0.00     0.029 A 
ATOM     17  N   UNL A   1      40.412  29.460  28.963  1.00  0.00    -0.354 N 
ATOM     18  C   UNL A   1      44.462  28.673  27.641  1.00  0.00     0.074 A 
ATOM     19  C   UNL A   1      44.585  27.321  27.132  1.00  0.00     0.031 C 
ATOM     20  C   UNL A   1      38.250  28.990  29.300  1.00  0.00     0.029 A 
ATOM     21  C   UNL A   1      39.264  30.025  29.466  1.00  0.00     0.049 A 
ATOM     22  H   UNL A   1      41.273  29.936  28.920  1.00  0.00     0.167 HD
ATOM     23  C   UNL A   1      45.475  29.574  27.695  1.00  0.00     0.034 A 
ATOM     24  C   UNL A   1      39.050  31.234  30.020  1.00  0.00     0.034 A 
ATOM     25  C   UNL A   1      45.331  30.914  28.219  1.00  0.00     0.049 A 
ATOM     26  C   UNL A   1      40.204  32.191  30.131  1.00  0.00     0.074 A 
ATOM     27  C   UNL A   1      46.280  31.918  28.296  1.00  0.00     0.029 A 
ATOM     28  N   UNL A   1      44.167  31.432  28.777  1.00  0.00    -0.354 N 
ATOM     29  N   UNL A   1      41.446  32.036  29.738  1.00  0.00    -0.248 NA
ATOM     30  C   UNL A   1      39.926  33.488  30.759  1.00  0.00     0.031 C 
ATOM     31  C   UNL A   1      45.717  33.008  28.970  1.00  0.00     0.029 A 
ATOM     32  C   UNL A   1      44.387  32.724  29.235  1.00  0.00     0.049 A 
ATOM     33  H   UNL A   1      43.309  30.952  28.838  1.00  0.00     0.167 HD
ATOM     34  C   UNL A   1      42.093  33.228  30.049  1.00  0.00     0.074 A 
ATOM     35  C   UNL A   1      41.098  34.095  30.646  1.00  0.00     0.031 C 
ATOM     36  C   UNL A   1      43.392  33.574  29.851  1.00  0.00     0.034 A 
BRANCH  23  37
ATOM     37  C   UNL A   1      46.838  29.117  27.222  1.00  0.00     0.023 A 
ATOM     38  C   UNL A   1      47.083  28.779  25.879  1.00  0.00     0.031 A 
ATOM     39  C   UNL A   1      47.898  28.972  28.135  1.00  0.00     0.131 A 
ATOM     40  C   UNL A   1      48.320  28.230  25.506  1.00  0.00     0.055 A 
ATOM     41  C   UNL A   1      49.157  28.512  27.740  1.00  0.00     0.041 A 
ATOM     42  F   UNL A   1      47.725  29.257  29.435  1.00  0.00    -0.206 F 
ATOM     43  C   UNL A   1      49.368  28.119  26.422  1.00  0.00     0.022 A 
BRANCH  40  44
ATOM     44  S   UNL A   1      48.479  27.499  23.852  1.00  0.00     0.124 S 
ATOM     45  O   UNL A   1      48.421  26.070  24.152  1.00  0.00    -0.237 OA
ATOM     46  O   UNL A   1      47.326  28.052  23.151  1.00  0.00    -0.237 OA
ATOM     47  O   UNL A   1      49.781  27.975  23.390  1.00  0.00    -0.744 OA
ENDBRANCH  40  44
ENDBRANCH  23  37
BRANCH  24  48
ATOM     48  C   UNL A   1      37.697  31.590  30.534  1.00  0.00     0.023 A 
ATOM     49  C   UNL A   1      36.773  32.275  29.731  1.00  0.00     0.031 A 
ATOM     50  C   UNL A   1      37.311  31.254  31.845  1.00  0.00     0.131 A 
ATOM     51  C   UNL A   1      35.523  32.632  30.256  1.00  0.00     0.055 A 
ATOM     52  C   UNL A   1      36.046  31.562  32.344  1.00  0.00     0.041 A 
ATOM     53  F   UNL A   1      38.157  30.595  32.655  1.00  0.00    -0.206 F 
ATOM     54  C   UNL A   1      35.146  32.265  31.550  1.00  0.00     0.022 A 
BRANCH  51  55
ATOM     55  S   UNL A   1      34.414  33.647  29.242  1.00  0.00     0.124 S 
ATOM     56  O   UNL A   1      35.348  34.583  28.628  1.00  0.00    -0.237 OA
ATOM     57  O   UNL A   1      33.822  32.654  28.351  1.00  0.00    -0.237 OA
ATOM     58  O   UNL A   1      33.496  34.229  30.219  1.00  0.00    -0.744 OA
ENDBRANCH  51  55
ENDBRANCH  24  48
BRANCH  36  59
ATOM     59  C   UNL A   1      43.792  34.974  30.253  1.00  0.00     0.023 A 
ATOM     60  C   UNL A   1      44.149  35.295  31.575  1.00  0.00     0.031 A 
ATOM     61  C   UNL A   1      43.791  36.009  29.300  1.00  0.00     0.131 A 
ATOM     62  C   UNL A   1      44.431  36.625  31.919  1.00  0.00     0.055 A 
ATOM     63  C   UNL A   1      44.139  37.319  29.635  1.00  0.00     0.041 A 
ATOM     64  F   UNL A   1      43.453  35.763  28.025  1.00  0.00    -0.206 F 
ATOM     65  C   UNL A   1      44.447  37.635  30.955  1.00  0.00     0.022 A 
BRANCH  62  66
ATOM     66  S   UNL A   1      44.673  37.040  33.669  1.00  0.00     0.124 S 
ATOM     67  O   UNL A   1      45.016  35.743  34.244  1.00  0.00    -0.237 OA
ATOM     68  O   UNL A   1      45.754  38.018  33.612  1.00  0.00    -0.237 OA
ATOM     69  O   UNL A   1      43.375  37.576  34.078  1.00  0.00    -0.744 OA
ENDBRANCH  62  66
ENDBRANCH  36  59
ENDBRANCH  10  11
ENDBRANCH   2   5
BRANCH   3  70
ATOM     70  C   UNL A   1      41.387  20.835  27.170  1.00  0.00     0.118 C 
BRANCH  70  71
ATOM     71  C   UNL A   1      42.102  19.546  26.785  1.00  0.00     0.042 C 
BRANCH  71  72
ATOM     72  C   UNL A   1      42.778  19.603  25.418  1.00  0.00     0.117 C 
BRANCH  72  73
ATOM     73  N   UNL A   1      44.202  19.843  25.532  1.00  0.00    -0.356 N 
ATOM     74  C   UNL A   1      44.931  20.990  25.440  1.00  0.00     0.225 C 
ATOM     75  H   UNL A   1      44.737  19.036  25.707  1.00  0.00     0.163 HD
ATOM     76  O   UNL A   1      46.144  20.870  25.638  1.00  0.00    -0.275 OA
BRANCH  74  77
ATOM     77  C   UNL A   1      44.258  22.355  25.273  1.00  0.00     0.102 C 
ATOM     78  C   UNL A   1      45.024  23.385  24.450  1.00  0.00     0.126 C 
ATOM     79  C   UNL A   1      43.962  22.991  26.648  1.00  0.00     0.053 C 
ATOM     80  N   UNL A   1      46.276  23.734  25.082  1.00  0.00    -0.384 N 
ATOM     81  C   UNL A   1      45.154  23.713  27.240  1.00  0.00    -0.024 A 
ATOM     82  C   UNL A   1      46.253  24.057  26.431  1.00  0.00     0.037 A 
ATOM     83  H   UNL A   1      47.118  23.743  24.572  1.00  0.00     0.160 HD
ATOM     84  C   UNL A   1      45.143  24.081  28.593  1.00  0.00     0.006 A 
ATOM     85  C   UNL A   1      47.349  24.700  27.010  1.00  0.00     0.026 A 
ATOM     86  C   UNL A   1      46.229  24.758  29.147  1.00  0.00     0.000 A 
ATOM     87  C   UNL A   1      47.336  25.059  28.359  1.00  0.00     0.002 A 
ENDBRANCH  74  77
ENDBRANCH  72  73
ENDBRANCH  71  72
ENDBRANCH  70  71
ENDBRANCH   3  70
TORSDOF 13
ENDMDL
