MODEL 1
REMARK VINA RESULT:     -10.5      0.000      0.000
REMARK SMILES C[C@H]([NH2+]CC1CCCC1)[C@H](C)C(=O)NCCCNC(=O)c1ccc(-c2c3nc(c(-c4cc(S(=O)(=O)[O-])ccc4F)c4ccc([nH]4)c(-c4cc(S(=O)(=O)[O-])ccc4F)c4nc(c(-c5cc(S(=O)(=O)[O-])ccc5F)c5ccc2[nH]5)C=C4)C=C3)cc1
REMARK SMILES IDX 15 1 14 2 12 3 13 4 10 6 11 7 2 8 1 9 3 10 4 13 5 14 6 15
REMARK SMILES IDX 9 16 7 17 8 18 16 19 17 20 18 21 19 22 20 24 21 25 22 26
REMARK SMILES IDX 83 27 23 28 82 29 24 30 25 31 26 32 76 33 27 34 81 35 75 36
REMARK SMILES IDX 77 37 28 38 80 39 74 40 73 41 29 43 61 44 41 45 60 46 42 47
REMARK SMILES IDX 45 48 59 49 78 50 43 51 44 52 58 54 79 55 46 56 30 57 31 58
REMARK SMILES IDX 39 59 32 60 38 61 40 62 37 63 33 64 34 65 35 66 36 67 62 68
REMARK SMILES IDX 63 69 71 70 64 71 70 72 72 73 69 74 65 75 66 76 67 77 68 78
REMARK SMILES IDX 47 79 48 80 56 81 49 82 55 83 57 84 54 85 50 86 51 87 52 88
REMARK SMILES IDX 53 89
REMARK H PARENT 14 5 3 11 3 12 18 23 77 42 45 53
REMARK Flexibility Score: inf
ROOT
ATOM      1  C   UNL A   1      32.515  30.132  26.999  1.00  0.00     0.117 C 
ENDROOT
BRANCH   1   2
ATOM      2  N   UNL A   1      31.647  28.964  27.146  1.00  0.00    -0.356 N 
ATOM      3  C   UNL A   1      31.629  27.750  26.526  1.00  0.00     0.228 C 
ATOM      4  O   UNL A   1      30.802  26.928  26.934  1.00  0.00    -0.275 OA
ATOM      5  H   UNL A   1      30.940  29.075  27.822  1.00  0.00     0.163 HD
BRANCH   3   6
ATOM      6  C   UNL A   1      32.617  27.360  25.427  1.00  0.00     0.133 C 
ATOM      7  C   UNL A   1      33.451  26.132  25.794  1.00  0.00     0.024 C 
BRANCH   6   8
ATOM      8  C   UNL A   1      32.003  27.375  23.981  1.00  0.00     0.191 C 
ATOM      9  C   UNL A   1      32.809  28.348  23.104  1.00  0.00     0.076 C 
BRANCH   8  10
ATOM     10  N   UNL A   1      30.560  27.651  23.975  1.00  0.00    -0.343 N 
ATOM     11  H   UNL A   1      30.390  28.370  24.679  1.00  0.00     0.346 HD
ATOM     12  H   UNL A   1      30.134  26.740  24.144  1.00  0.00     0.346 HD
BRANCH  10  13
ATOM     13  C   UNL A   1      29.936  28.109  22.735  1.00  0.00     0.264 C 
BRANCH  13  14
ATOM     14  C   UNL A   1      28.977  29.256  23.087  1.00  0.00     0.044 C 
ATOM     15  C   UNL A   1      29.651  30.432  23.785  1.00  0.00     0.009 C 
ATOM     16  C   UNL A   1      28.312  29.905  21.870  1.00  0.00     0.009 C 
ATOM     17  C   UNL A   1      28.600  31.528  23.679  1.00  0.00     0.001 C 
ATOM     18  C   UNL A   1      27.959  31.328  22.308  1.00  0.00     0.001 C 
ENDBRANCH  13  14
ENDBRANCH  10  13
ENDBRANCH   8  10
ENDBRANCH   6   8
ENDBRANCH   3   6
ENDBRANCH   1   2
BRANCH   1  19
ATOM     19  C   UNL A   1      31.751  31.440  27.059  1.00  0.00     0.042 C 
BRANCH  19  20
ATOM     20  C   UNL A   1      32.546  32.614  26.501  1.00  0.00     0.118 C 
BRANCH  20  21
ATOM     21  N   UNL A   1      32.364  33.844  27.265  1.00  0.00    -0.352 N 
ATOM     22  C   UNL A   1      33.030  34.314  28.377  1.00  0.00     0.251 C 
ATOM     23  H   UNL A   1      31.650  34.435  26.932  1.00  0.00     0.163 HD
ATOM     24  O   UNL A   1      32.590  35.285  28.979  1.00  0.00    -0.269 OA
BRANCH  22  25
ATOM     25  C   UNL A   1      34.248  33.625  28.847  1.00  0.00     0.039 A 
ATOM     26  C   UNL A   1      35.495  34.217  28.633  1.00  0.00     0.014 A 
ATOM     27  C   UNL A   1      34.158  32.407  29.521  1.00  0.00     0.014 A 
ATOM     28  C   UNL A   1      36.639  33.630  29.179  1.00  0.00     0.010 A 
ATOM     29  C   UNL A   1      35.274  31.891  30.165  1.00  0.00     0.010 A 
ATOM     30  C   UNL A   1      36.530  32.492  29.997  1.00  0.00    -0.014 A 
BRANCH  30  31
ATOM     31  C   UNL A   1      37.710  31.907  30.685  1.00  0.00     0.031 A 
ATOM     32  C   UNL A   1      38.544  30.866  29.988  1.00  0.00     0.074 A 
ATOM     33  C   UNL A   1      37.962  32.232  31.969  1.00  0.00     0.049 A 
ATOM     34  N   UNL A   1      39.535  30.149  30.452  1.00  0.00    -0.248 NA
ATOM     35  C   UNL A   1      38.179  30.553  28.599  1.00  0.00     0.031 C 
ATOM     36  C   UNL A   1      37.174  33.167  32.776  1.00  0.00     0.029 A 
ATOM     37  N   UNL A   1      38.940  31.800  32.828  1.00  0.00    -0.354 N 
ATOM     38  C   UNL A   1      39.886  29.278  29.426  1.00  0.00     0.074 A 
ATOM     39  C   UNL A   1      38.952  29.510  28.344  1.00  0.00     0.031 C 
ATOM     40  C   UNL A   1      37.712  33.253  34.003  1.00  0.00     0.029 A 
ATOM     41  C   UNL A   1      38.853  32.348  34.087  1.00  0.00     0.049 A 
ATOM     42  H   UNL A   1      39.639  31.156  32.568  1.00  0.00     0.167 HD
ATOM     43  C   UNL A   1      40.908  28.388  29.378  1.00  0.00     0.034 A 
ATOM     44  C   UNL A   1      39.597  32.136  35.189  1.00  0.00     0.034 A 
ATOM     45  C   UNL A   1      41.847  28.200  30.458  1.00  0.00     0.049 A 
ATOM     46  C   UNL A   1      40.750  31.171  35.109  1.00  0.00     0.074 A 
ATOM     47  C   UNL A   1      42.979  27.407  30.488  1.00  0.00     0.029 A 
ATOM     48  N   UNL A   1      41.755  28.809  31.704  1.00  0.00    -0.354 N 
ATOM     49  N   UNL A   1      41.125  30.415  34.101  1.00  0.00    -0.248 NA
ATOM     50  C   UNL A   1      41.589  31.041  36.306  1.00  0.00     0.031 C 
ATOM     51  C   UNL A   1      43.532  27.480  31.772  1.00  0.00     0.029 A 
ATOM     52  C   UNL A   1      42.790  28.380  32.522  1.00  0.00     0.049 A 
ATOM     53  H   UNL A   1      41.058  29.451  31.969  1.00  0.00     0.167 HD
ATOM     54  C   UNL A   1      42.257  29.734  34.538  1.00  0.00     0.074 A 
ATOM     55  C   UNL A   1      42.512  30.185  35.892  1.00  0.00     0.031 C 
ATOM     56  C   UNL A   1      43.017  28.822  33.880  1.00  0.00     0.034 A 
BRANCH  43  57
ATOM     57  C   UNL A   1      41.036  27.543  28.131  1.00  0.00     0.023 A 
ATOM     58  C   UNL A   1      40.693  26.179  28.119  1.00  0.00     0.031 A 
ATOM     59  C   UNL A   1      41.565  28.093  26.949  1.00  0.00     0.131 A 
ATOM     60  C   UNL A   1      40.977  25.391  26.993  1.00  0.00     0.055 A 
ATOM     61  C   UNL A   1      41.755  27.324  25.797  1.00  0.00     0.041 A 
ATOM     62  F   UNL A   1      41.930  29.384  26.898  1.00  0.00    -0.206 F 
ATOM     63  C   UNL A   1      41.481  25.959  25.823  1.00  0.00     0.022 A 
BRANCH  60  64
ATOM     64  S   UNL A   1      40.848  23.588  27.146  1.00  0.00     0.124 S 
ATOM     65  O   UNL A   1      41.680  23.137  26.032  1.00  0.00    -0.237 OA
ATOM     66  O   UNL A   1      41.382  23.345  28.481  1.00  0.00    -0.237 OA
ATOM     67  O   UNL A   1      39.418  23.331  26.987  1.00  0.00    -0.744 OA
ENDBRANCH  60  64
ENDBRANCH  43  57
BRANCH  44  68
ATOM     68  C   UNL A   1      39.268  32.842  36.459  1.00  0.00     0.023 A 
ATOM     69  C   UNL A   1      38.389  32.280  37.398  1.00  0.00     0.031 A 
ATOM     70  C   UNL A   1      39.832  34.097  36.751  1.00  0.00     0.131 A 
ATOM     71  C   UNL A   1      38.075  32.985  38.571  1.00  0.00     0.055 A 
ATOM     72  C   UNL A   1      39.552  34.773  37.939  1.00  0.00     0.041 A 
ATOM     73  F   UNL A   1      40.689  34.672  35.892  1.00  0.00    -0.206 F 
ATOM     74  C   UNL A   1      38.660  34.221  38.854  1.00  0.00     0.022 A 
BRANCH  71  75
ATOM     75  S   UNL A   1      36.845  32.284  39.706  1.00  0.00     0.124 S 
ATOM     76  O   UNL A   1      35.594  32.654  39.054  1.00  0.00    -0.237 OA
ATOM     77  O   UNL A   1      37.186  30.866  39.683  1.00  0.00    -0.237 OA
ATOM     78  O   UNL A   1      37.117  32.968  40.968  1.00  0.00    -0.744 OA
ENDBRANCH  71  75
ENDBRANCH  44  68
BRANCH  56  79
ATOM     79  C   UNL A   1      44.217  28.276  34.615  1.00  0.00     0.023 A 
ATOM     80  C   UNL A   1      44.086  27.314  35.631  1.00  0.00     0.031 A 
ATOM     81  C   UNL A   1      45.509  28.734  34.300  1.00  0.00     0.131 A 
ATOM     82  C   UNL A   1      45.221  26.882  36.334  1.00  0.00     0.055 A 
ATOM     83  C   UNL A   1      46.640  28.255  34.961  1.00  0.00     0.041 A 
ATOM     84  F   UNL A   1      45.692  29.656  33.341  1.00  0.00    -0.206 F 
ATOM     85  C   UNL A   1      46.498  27.333  35.993  1.00  0.00     0.022 A 
BRANCH  82  86
ATOM     86  S   UNL A   1      44.994  25.793  37.767  1.00  0.00     0.124 S 
ATOM     87  O   UNL A   1      44.940  24.475  37.140  1.00  0.00    -0.237 OA
ATOM     88  O   UNL A   1      46.182  26.073  38.564  1.00  0.00    -0.237 OA
ATOM     89  O   UNL A   1      43.734  26.252  38.350  1.00  0.00    -0.744 OA
ENDBRANCH  82  86
ENDBRANCH  56  79
ENDBRANCH  30  31
ENDBRANCH  22  25
ENDBRANCH  20  21
ENDBRANCH  19  20
ENDBRANCH   1  19
TORSDOF 17
ENDMDL
MODEL 2
REMARK VINA RESULT:     -10.4      6.010      9.049
REMARK SMILES C[C@H]([NH2+]CC1CCCC1)[C@H](C)C(=O)NCCCNC(=O)c1ccc(-c2c3nc(c(-c4cc(S(=O)(=O)[O-])ccc4F)c4ccc([nH]4)c(-c4cc(S(=O)(=O)[O-])ccc4F)c4nc(c(-c5cc(S(=O)(=O)[O-])ccc5F)c5ccc2[nH]5)C=C4)C=C3)cc1
REMARK SMILES IDX 15 1 14 2 12 3 13 4 10 6 11 7 2 8 1 9 3 10 4 13 5 14 6 15
REMARK SMILES IDX 9 16 7 17 8 18 16 19 17 20 18 21 19 22 20 24 21 25 22 26
REMARK SMILES IDX 83 27 23 28 82 29 24 30 25 31 26 32 76 33 27 34 81 35 75 36
REMARK SMILES IDX 77 37 28 38 80 39 74 40 73 41 29 43 61 44 41 45 60 46 42 47
REMARK SMILES IDX 45 48 59 49 78 50 43 51 44 52 58 54 79 55 46 56 30 57 31 58
REMARK SMILES IDX 39 59 32 60 38 61 40 62 37 63 33 64 34 65 35 66 36 67 62 68
REMARK SMILES IDX 63 69 71 70 64 71 70 72 72 73 69 74 65 75 66 76 67 77 68 78
REMARK SMILES IDX 47 79 48 80 56 81 49 82 55 83 57 84 54 85 50 86 51 87 52 88
REMARK SMILES IDX 53 89
REMARK H PARENT 14 5 3 11 3 12 18 23 77 42 45 53
REMARK Flexibility Score: inf
ROOT
ATOM      1  C   UNL A   1      35.085  22.597  23.410  1.00  0.00     0.117 C 
ENDROOT
BRANCH   1   2
ATOM      2  N   UNL A   1      34.479  23.788  24.005  1.00  0.00    -0.356 N 
ATOM      3  C   UNL A   1      33.666  23.961  25.086  1.00  0.00     0.228 C 
ATOM      4  O   UNL A   1      33.380  25.125  25.387  1.00  0.00    -0.275 OA
ATOM      5  H   UNL A   1      34.700  24.624  23.536  1.00  0.00     0.163 HD
BRANCH   3   6
ATOM      6  C   UNL A   1      33.174  22.803  25.954  1.00  0.00     0.133 C 
ATOM      7  C   UNL A   1      33.131  23.160  27.441  1.00  0.00     0.024 C 
BRANCH   6   8
ATOM      8  C   UNL A   1      31.912  22.066  25.380  1.00  0.00     0.191 C 
ATOM      9  C   UNL A   1      30.659  22.573  26.114  1.00  0.00     0.076 C 
BRANCH   8  10
ATOM     10  N   UNL A   1      32.043  20.603  25.404  1.00  0.00    -0.343 N 
ATOM     11  H   UNL A   1      31.645  20.253  24.532  1.00  0.00     0.346 HD
ATOM     12  H   UNL A   1      31.568  20.326  26.262  1.00  0.00     0.346 HD
BRANCH  10  13
ATOM     13  C   UNL A   1      33.376  20.016  25.532  1.00  0.00     0.264 C 
BRANCH  13  14
ATOM     14  C   UNL A   1      33.646  19.182  24.271  1.00  0.00     0.044 C 
ATOM     15  C   UNL A   1      34.051  17.741  24.559  1.00  0.00     0.009 C 
ATOM     16  C   UNL A   1      32.428  19.028  23.356  1.00  0.00     0.009 C 
ATOM     17  C   UNL A   1      33.893  17.074  23.200  1.00  0.00     0.001 C 
ATOM     18  C   UNL A   1      32.664  17.731  22.579  1.00  0.00     0.001 C 
ENDBRANCH  13  14
ENDBRANCH  10  13
ENDBRANCH   8  10
ENDBRANCH   6   8
ENDBRANCH   3   6
ENDBRANCH   1   2
BRANCH   1  19
ATOM     19  C   UNL A   1      36.523  22.392  23.846  1.00  0.00     0.042 C 
BRANCH  19  20
ATOM     20  C   UNL A   1      36.645  22.004  25.314  1.00  0.00     0.118 C 
BRANCH  20  21
ATOM     21  N   UNL A   1      37.634  20.957  25.548  1.00  0.00    -0.352 N 
ATOM     22  C   UNL A   1      38.938  21.038  25.991  1.00  0.00     0.251 C 
ATOM     23  H   UNL A   1      37.320  20.043  25.360  1.00  0.00     0.163 HD
ATOM     24  O   UNL A   1      39.657  20.049  25.936  1.00  0.00    -0.269 OA
BRANCH  22  25
ATOM     25  C   UNL A   1      39.459  22.322  26.501  1.00  0.00     0.039 A 
ATOM     26  C   UNL A   1      40.575  22.323  27.341  1.00  0.00     0.014 A 
ATOM     27  C   UNL A   1      38.862  23.526  26.130  1.00  0.00     0.014 A 
ATOM     28  C   UNL A   1      41.145  23.538  27.728  1.00  0.00     0.010 A 
ATOM     29  C   UNL A   1      39.497  24.727  26.413  1.00  0.00     0.010 A 
ATOM     30  C   UNL A   1      40.642  24.749  27.221  1.00  0.00    -0.014 A 
BRANCH  30  31
ATOM     31  C   UNL A   1      41.291  26.051  27.522  1.00  0.00     0.031 A 
ATOM     32  C   UNL A   1      42.707  26.304  27.078  1.00  0.00     0.074 A 
ATOM     33  C   UNL A   1      40.646  26.957  28.285  1.00  0.00     0.049 A 
ATOM     34  N   UNL A   1      43.491  27.319  27.340  1.00  0.00    -0.248 NA
ATOM     35  C   UNL A   1      43.342  25.250  26.274  1.00  0.00     0.031 C 
ATOM     36  C   UNL A   1      39.302  26.790  28.843  1.00  0.00     0.029 A 
ATOM     37  N   UNL A   1      41.040  28.190  28.739  1.00  0.00    -0.354 N 
ATOM     38  C   UNL A   1      44.719  27.006  26.766  1.00  0.00     0.074 A 
ATOM     39  C   UNL A   1      44.592  25.677  26.207  1.00  0.00     0.031 C 
ATOM     40  C   UNL A   1      38.976  27.887  29.546  1.00  0.00     0.029 A 
ATOM     41  C   UNL A   1      40.102  28.815  29.527  1.00  0.00     0.049 A 
ATOM     42  H   UNL A   1      41.914  28.591  28.522  1.00  0.00     0.167 HD
ATOM     43  C   UNL A   1      45.839  27.767  26.688  1.00  0.00     0.034 A 
ATOM     44  C   UNL A   1      40.146  29.995  30.176  1.00  0.00     0.034 A 
ATOM     45  C   UNL A   1      45.929  29.103  27.225  1.00  0.00     0.049 A 
ATOM     46  C   UNL A   1      41.383  30.843  30.049  1.00  0.00     0.074 A 
ATOM     47  C   UNL A   1      46.970  30.008  27.118  1.00  0.00     0.029 A 
ATOM     48  N   UNL A   1      44.939  29.724  27.979  1.00  0.00    -0.354 N 
ATOM     49  N   UNL A   1      42.510  30.573  29.428  1.00  0.00    -0.248 NA
ATOM     50  C   UNL A   1      41.351  32.160  30.695  1.00  0.00     0.031 C 
ATOM     51  C   UNL A   1      46.640  31.145  27.865  1.00  0.00     0.029 A 
ATOM     52  C   UNL A   1      45.361  30.985  28.374  1.00  0.00     0.049 A 
ATOM     53  H   UNL A   1      44.066  29.328  28.200  1.00  0.00     0.167 HD
ATOM     54  C   UNL A   1      43.314  31.696  29.594  1.00  0.00     0.074 A 
ATOM     55  C   UNL A   1      42.535  32.653  30.355  1.00  0.00     0.031 C 
ATOM     56  C   UNL A   1      44.580  31.918  29.155  1.00  0.00     0.034 A 
BRANCH  43  57
ATOM     57  C   UNL A   1      47.051  27.154  26.023  1.00  0.00     0.023 A 
ATOM     58  C   UNL A   1      48.000  26.411  26.748  1.00  0.00     0.031 A 
ATOM     59  C   UNL A   1      47.294  27.364  24.653  1.00  0.00     0.131 A 
ATOM     60  C   UNL A   1      49.190  25.997  26.130  1.00  0.00     0.055 A 
ATOM     61  C   UNL A   1      48.436  26.865  24.021  1.00  0.00     0.041 A 
ATOM     62  F   UNL A   1      46.437  28.081  23.908  1.00  0.00    -0.206 F 
ATOM     63  C   UNL A   1      49.403  26.196  24.765  1.00  0.00     0.022 A 
BRANCH  60  64
ATOM     64  S   UNL A   1      50.529  25.359  27.176  1.00  0.00     0.124 S 
ATOM     65  O   UNL A   1      50.835  26.523  28.005  1.00  0.00    -0.237 OA
ATOM     66  O   UNL A   1      49.890  24.240  27.858  1.00  0.00    -0.237 OA
ATOM     67  O   UNL A   1      51.570  24.997  26.218  1.00  0.00    -0.744 OA
ENDBRANCH  60  64
ENDBRANCH  43  57
BRANCH  44  68
ATOM     68  C   UNL A   1      38.989  30.434  31.006  1.00  0.00     0.023 A 
ATOM     69  C   UNL A   1      37.979  31.250  30.474  1.00  0.00     0.031 A 
ATOM     70  C   UNL A   1      38.880  30.040  32.352  1.00  0.00     0.131 A 
ATOM     71  C   UNL A   1      36.919  31.672  31.291  1.00  0.00     0.055 A 
ATOM     72  C   UNL A   1      37.801  30.426  33.148  1.00  0.00     0.041 A 
ATOM     73  F   UNL A   1      39.813  29.250  32.906  1.00  0.00    -0.206 F 
ATOM     74  C   UNL A   1      36.816  31.255  32.620  1.00  0.00     0.022 A 
BRANCH  71  75
ATOM     75  S   UNL A   1      35.694  32.822  30.604  1.00  0.00     0.124 S 
ATOM     76  O   UNL A   1      35.836  32.587  29.172  1.00  0.00    -0.237 OA
ATOM     77  O   UNL A   1      34.457  32.346  31.215  1.00  0.00    -0.237 OA
ATOM     78  O   UNL A   1      36.153  34.128  31.071  1.00  0.00    -0.744 OA
ENDBRANCH  71  75
ENDBRANCH  44  68
BRANCH  56  79
ATOM     79  C   UNL A   1      45.183  33.266  29.467  1.00  0.00     0.023 A 
ATOM     80  C   UNL A   1      44.956  34.385  28.649  1.00  0.00     0.031 A 
ATOM     81  C   UNL A   1      46.007  33.428  30.596  1.00  0.00     0.131 A 
ATOM     82  C   UNL A   1      45.589  35.603  28.938  1.00  0.00     0.055 A 
ATOM     83  C   UNL A   1      46.584  34.657  30.914  1.00  0.00     0.041 A 
ATOM     84  F   UNL A   1      46.262  32.391  31.410  1.00  0.00    -0.206 F 
ATOM     85  C   UNL A   1      46.388  35.750  30.075  1.00  0.00     0.022 A 
BRANCH  82  86
ATOM     86  S   UNL A   1      45.433  36.968  27.754  1.00  0.00     0.124 S 
ATOM     87  O   UNL A   1      46.590  36.753  26.890  1.00  0.00    -0.237 OA
ATOM     88  O   UNL A   1      44.130  36.713  27.152  1.00  0.00    -0.237 OA
ATOM     89  O   UNL A   1      45.504  38.161  28.597  1.00  0.00    -0.744 OA
ENDBRANCH  82  86
ENDBRANCH  56  79
ENDBRANCH  30  31
ENDBRANCH  22  25
ENDBRANCH  20  21
ENDBRANCH  19  20
ENDBRANCH   1  19
TORSDOF 17
ENDMDL
MODEL 3
REMARK VINA RESULT:     -10.2      1.917      2.217
REMARK SMILES C[C@H]([NH2+]CC1CCCC1)[C@H](C)C(=O)NCCCNC(=O)c1ccc(-c2c3nc(c(-c4cc(S(=O)(=O)[O-])ccc4F)c4ccc([nH]4)c(-c4cc(S(=O)(=O)[O-])ccc4F)c4nc(c(-c5cc(S(=O)(=O)[O-])ccc5F)c5ccc2[nH]5)C=C4)C=C3)cc1
REMARK SMILES IDX 15 1 14 2 12 3 13 4 10 6 11 7 2 8 1 9 3 10 4 13 5 14 6 15
REMARK SMILES IDX 9 16 7 17 8 18 16 19 17 20 18 21 19 22 20 24 21 25 22 26
REMARK SMILES IDX 83 27 23 28 82 29 24 30 25 31 26 32 76 33 27 34 81 35 75 36
REMARK SMILES IDX 77 37 28 38 80 39 74 40 73 41 29 43 61 44 41 45 60 46 42 47
REMARK SMILES IDX 45 48 59 49 78 50 43 51 44 52 58 54 79 55 46 56 30 57 31 58
REMARK SMILES IDX 39 59 32 60 38 61 40 62 37 63 33 64 34 65 35 66 36 67 62 68
REMARK SMILES IDX 63 69 71 70 64 71 70 72 72 73 69 74 65 75 66 76 67 77 68 78
REMARK SMILES IDX 47 79 48 80 56 81 49 82 55 83 57 84 54 85 50 86 51 87 52 88
REMARK SMILES IDX 53 89
REMARK H PARENT 14 5 3 11 3 12 18 23 77 42 45 53
REMARK Flexibility Score: inf
ROOT
ATOM      1  C   UNL A   1      32.581  30.311  26.989  1.00  0.00     0.117 C 
ENDROOT
BRANCH   1   2
ATOM      2  N   UNL A   1      31.768  29.102  27.124  1.00  0.00    -0.356 N 
ATOM      3  C   UNL A   1      31.789  27.905  26.473  1.00  0.00     0.228 C 
ATOM      4  O   UNL A   1      31.008  27.037  26.877  1.00  0.00    -0.275 OA
ATOM      5  H   UNL A   1      31.073  29.166  27.818  1.00  0.00     0.163 HD
BRANCH   3   6
ATOM      6  C   UNL A   1      32.768  27.587  25.343  1.00  0.00     0.133 C 
ATOM      7  C   UNL A   1      33.557  26.301  25.593  1.00  0.00     0.024 C 
BRANCH   6   8
ATOM      8  C   UNL A   1      32.161  27.760  23.905  1.00  0.00     0.191 C 
ATOM      9  C   UNL A   1      32.926  28.872  23.168  1.00  0.00     0.076 C 
BRANCH   8  10
ATOM     10  N   UNL A   1      30.707  27.970  23.918  1.00  0.00    -0.343 N 
ATOM     11  H   UNL A   1      30.524  28.759  24.539  1.00  0.00     0.346 HD
ATOM     12  H   UNL A   1      30.329  27.068  24.208  1.00  0.00     0.346 HD
BRANCH  10  13
ATOM     13  C   UNL A   1      30.023  28.250  22.657  1.00  0.00     0.264 C 
BRANCH  13  14
ATOM     14  C   UNL A   1      28.992  29.359  22.916  1.00  0.00     0.044 C 
ATOM     15  C   UNL A   1      29.528  30.517  23.751  1.00  0.00     0.009 C 
ATOM     16  C   UNL A   1      28.488  30.047  21.645  1.00  0.00     0.009 C 
ATOM     17  C   UNL A   1      28.472  31.593  23.542  1.00  0.00     0.001 C 
ATOM     18  C   UNL A   1      28.037  31.441  22.087  1.00  0.00     0.001 C 
ENDBRANCH  13  14
ENDBRANCH  10  13
ENDBRANCH   8  10
ENDBRANCH   6   8
ENDBRANCH   3   6
ENDBRANCH   1   2
BRANCH   1  19
ATOM     19  C   UNL A   1      31.761  31.582  27.085  1.00  0.00     0.042 C 
BRANCH  19  20
ATOM     20  C   UNL A   1      32.475  32.792  26.495  1.00  0.00     0.118 C 
BRANCH  20  21
ATOM     21  N   UNL A   1      32.300  34.004  27.288  1.00  0.00    -0.352 N 
ATOM     22  C   UNL A   1      32.964  34.442  28.414  1.00  0.00     0.251 C 
ATOM     23  H   UNL A   1      31.591  34.608  26.967  1.00  0.00     0.163 HD
ATOM     24  O   UNL A   1      32.530  35.401  29.038  1.00  0.00    -0.269 OA
BRANCH  22  25
ATOM     25  C   UNL A   1      34.176  33.732  28.871  1.00  0.00     0.039 A 
ATOM     26  C   UNL A   1      35.431  34.300  28.638  1.00  0.00     0.014 A 
ATOM     27  C   UNL A   1      34.072  32.520  29.553  1.00  0.00     0.014 A 
ATOM     28  C   UNL A   1      36.571  33.694  29.172  1.00  0.00     0.010 A 
ATOM     29  C   UNL A   1      35.186  31.987  30.185  1.00  0.00     0.010 A 
ATOM     30  C   UNL A   1      36.451  32.563  29.997  1.00  0.00    -0.014 A 
BRANCH  30  31
ATOM     31  C   UNL A   1      37.629  31.959  30.673  1.00  0.00     0.031 A 
ATOM     32  C   UNL A   1      38.443  30.910  29.964  1.00  0.00     0.074 A 
ATOM     33  C   UNL A   1      37.896  32.276  31.956  1.00  0.00     0.049 A 
ATOM     34  N   UNL A   1      39.429  30.179  30.417  1.00  0.00    -0.248 NA
ATOM     35  C   UNL A   1      38.063  30.609  28.577  1.00  0.00     0.031 C 
ATOM     36  C   UNL A   1      37.127  33.217  32.773  1.00  0.00     0.029 A 
ATOM     37  N   UNL A   1      38.876  31.826  32.805  1.00  0.00    -0.354 N 
ATOM     38  C   UNL A   1      39.759  29.307  29.384  1.00  0.00     0.074 A 
ATOM     39  C   UNL A   1      38.819  29.557  28.311  1.00  0.00     0.031 C 
ATOM     40  C   UNL A   1      37.676  33.291  33.997  1.00  0.00     0.029 A 
ATOM     41  C   UNL A   1      38.806  32.370  34.066  1.00  0.00     0.049 A 
ATOM     42  H   UNL A   1      39.564  31.175  32.536  1.00  0.00     0.167 HD
ATOM     43  C   UNL A   1      40.769  28.404  29.324  1.00  0.00     0.034 A 
ATOM     44  C   UNL A   1      39.557  32.143  35.162  1.00  0.00     0.034 A 
ATOM     45  C   UNL A   1      41.714  28.199  30.395  1.00  0.00     0.049 A 
ATOM     46  C   UNL A   1      40.696  31.164  35.067  1.00  0.00     0.074 A 
ATOM     47  C   UNL A   1      42.836  27.391  30.412  1.00  0.00     0.029 A 
ATOM     48  N   UNL A   1      41.642  28.803  31.644  1.00  0.00    -0.354 N 
ATOM     49  N   UNL A   1      41.053  30.408  34.053  1.00  0.00    -0.248 NA
ATOM     50  C   UNL A   1      41.543  31.018  36.257  1.00  0.00     0.031 C 
ATOM     51  C   UNL A   1      43.401  27.451  31.692  1.00  0.00     0.029 A 
ATOM     52  C   UNL A   1      42.677  28.358  32.452  1.00  0.00     0.049 A 
ATOM     53  H   UNL A   1      40.955  29.454  31.918  1.00  0.00     0.167 HD
ATOM     54  C   UNL A   1      42.179  29.710  34.478  1.00  0.00     0.074 A 
ATOM     55  C   UNL A   1      42.452  30.151  35.832  1.00  0.00     0.031 C 
ATOM     56  C   UNL A   1      42.922  28.790  33.809  1.00  0.00     0.034 A 
BRANCH  43  57
ATOM     57  C   UNL A   1      40.876  27.562  28.072  1.00  0.00     0.023 A 
ATOM     58  C   UNL A   1      40.472  26.215  28.046  1.00  0.00     0.031 A 
ATOM     59  C   UNL A   1      41.443  28.097  26.901  1.00  0.00     0.131 A 
ATOM     60  C   UNL A   1      40.736  25.423  26.918  1.00  0.00     0.055 A 
ATOM     61  C   UNL A   1      41.614  27.329  25.746  1.00  0.00     0.041 A 
ATOM     62  F   UNL A   1      41.865  29.371  26.864  1.00  0.00    -0.206 F 
ATOM     63  C   UNL A   1      41.280  25.977  25.758  1.00  0.00     0.022 A 
BRANCH  60  64
ATOM     64  S   UNL A   1      40.526  23.627  27.056  1.00  0.00     0.124 S 
ATOM     65  O   UNL A   1      40.852  23.399  28.462  1.00  0.00    -0.237 OA
ATOM     66  O   UNL A   1      39.127  23.444  26.686  1.00  0.00    -0.237 OA
ATOM     67  O   UNL A   1      41.500  23.093  26.106  1.00  0.00    -0.744 OA
ENDBRANCH  60  64
ENDBRANCH  43  57
BRANCH  44  68
ATOM     68  C   UNL A   1      39.247  32.848  36.438  1.00  0.00     0.023 A 
ATOM     69  C   UNL A   1      39.825  34.090  36.742  1.00  0.00     0.031 A 
ATOM     70  C   UNL A   1      38.363  32.284  37.375  1.00  0.00     0.131 A 
ATOM     71  C   UNL A   1      39.538  34.714  37.966  1.00  0.00     0.055 A 
ATOM     72  C   UNL A   1      38.045  32.929  38.570  1.00  0.00     0.041 A 
ATOM     73  F   UNL A   1      37.774  31.104  37.126  1.00  0.00    -0.206 F 
ATOM     74  C   UNL A   1      38.642  34.149  38.876  1.00  0.00     0.022 A 
BRANCH  71  75
ATOM     75  S   UNL A   1      40.393  36.260  38.378  1.00  0.00     0.124 S 
ATOM     76  O   UNL A   1      41.260  36.439  37.220  1.00  0.00    -0.237 OA
ATOM     77  O   UNL A   1      39.282  37.198  38.500  1.00  0.00    -0.237 OA
ATOM     78  O   UNL A   1      41.080  35.947  39.630  1.00  0.00    -0.744 OA
ENDBRANCH  71  75
ENDBRANCH  44  68
BRANCH  56  79
ATOM     79  C   UNL A   1      44.120  28.225  34.532  1.00  0.00     0.023 A 
ATOM     80  C   UNL A   1      45.377  28.851  34.481  1.00  0.00     0.031 A 
ATOM     81  C   UNL A   1      44.003  27.036  35.275  1.00  0.00     0.131 A 
ATOM     82  C   UNL A   1      46.480  28.258  35.112  1.00  0.00     0.055 A 
ATOM     83  C   UNL A   1      45.090  26.484  35.953  1.00  0.00     0.041 A 
ATOM     84  F   UNL A   1      42.827  26.393  35.355  1.00  0.00    -0.206 F 
ATOM     85  C   UNL A   1      46.340  27.088  35.863  1.00  0.00     0.022 A 
BRANCH  82  86
ATOM     86  S   UNL A   1      48.123  28.984  34.860  1.00  0.00     0.124 S 
ATOM     87  O   UNL A   1      48.999  27.841  35.096  1.00  0.00    -0.237 OA
ATOM     88  O   UNL A   1      48.048  29.457  33.482  1.00  0.00    -0.237 OA
ATOM     89  O   UNL A   1      48.191  30.036  35.873  1.00  0.00    -0.744 OA
ENDBRANCH  82  86
ENDBRANCH  56  79
ENDBRANCH  30  31
ENDBRANCH  22  25
ENDBRANCH  20  21
ENDBRANCH  19  20
ENDBRANCH   1  19
TORSDOF 17
ENDMDL
