MODEL 1
REMARK VINA RESULT:     -11.3      0.000      0.000
REMARK SMILES C[C@@H]1C[N@@H+]([C@@H](C)CC(=O)NCCCNC(=O)c2ccc(-c3c4nc(c(-c5cc(S(=O)(=O)[O-])ccc5F)c5ccc([nH]5)c(-c5cc(S(=O)(=O)[O-])ccc5F)c5nc(c(-c6cc(S(=O)(=O)[O-])ccc6F)c6ccc3[nH]6)C=C5)C=C4)cc2)C[C@H](C)O1
REMARK SMILES IDX 12 1 11 2 10 3 8 4 9 5 7 7 5 8 6 9 4 10 1 11 2 12 3 13 83 14
REMARK SMILES IDX 81 15 80 16 82 18 13 19 14 20 15 21 16 23 17 24 18 25 79 26
REMARK SMILES IDX 19 27 78 28 20 29 21 30 22 31 72 32 23 33 77 34 71 35 73 36
REMARK SMILES IDX 24 37 76 38 70 39 69 40 25 42 57 43 37 44 56 45 38 46 41 47
REMARK SMILES IDX 55 48 74 49 39 50 40 51 54 53 75 54 42 55 26 56 27 57 35 58
REMARK SMILES IDX 28 59 34 60 36 61 33 62 29 63 30 64 31 65 32 66 58 67 59 68
REMARK SMILES IDX 67 69 60 70 66 71 68 72 65 73 61 74 62 75 63 76 64 77 43 78
REMARK SMILES IDX 44 79 52 80 45 81 51 82 53 83 50 84 46 85 47 86 48 87 49 88
REMARK H PARENT 10 6 4 17 14 22 73 41 41 52
REMARK Flexibility Score: inf
ROOT
ATOM      1  C   UNL A   1      33.468  29.123  24.145  1.00  0.00     0.042 C 
ENDROOT
BRANCH   1   2
ATOM      2  C   UNL A   1      32.748  28.816  22.841  1.00  0.00     0.117 C 
BRANCH   2   3
ATOM      3  N   UNL A   1      33.399  27.711  22.167  1.00  0.00    -0.356 N 
ATOM      4  C   UNL A   1      32.882  26.486  21.873  1.00  0.00     0.225 C 
ATOM      5  O   UNL A   1      33.653  25.591  21.521  1.00  0.00    -0.275 OA
ATOM      6  H   UNL A   1      34.331  27.865  21.887  1.00  0.00     0.163 HD
BRANCH   4   7
ATOM      7  C   UNL A   1      31.384  26.260  21.916  1.00  0.00     0.164 C 
BRANCH   7   8
ATOM      8  C   UNL A   1      30.870  25.569  23.204  1.00  0.00     0.190 C 
ATOM      9  C   UNL A   1      30.187  26.637  24.083  1.00  0.00     0.076 C 
BRANCH   8  10
ATOM     10  N   UNL A   1      31.906  24.767  23.918  1.00  0.00    -0.328 N 
ATOM     11  C   UNL A   1      33.576  21.871  23.900  1.00  0.00     0.045 C 
ATOM     12  C   UNL A   1      32.520  22.464  24.832  1.00  0.00     0.170 C 
ATOM     13  C   UNL A   1      31.471  23.367  24.135  1.00  0.00     0.294 C 
ATOM     14  O   UNL A   1      33.091  23.061  26.007  1.00  0.00    -0.364 OA
ATOM     15  C   UNL A   1      33.425  24.452  25.918  1.00  0.00     0.170 C 
ATOM     16  C   UNL A   1      32.330  25.301  25.224  1.00  0.00     0.294 C 
ATOM     17  H   UNL A   1      32.704  24.818  23.285  1.00  0.00     0.348 HD
ATOM     18  C   UNL A   1      34.837  24.672  25.383  1.00  0.00     0.045 C 
ENDBRANCH   8  10
ENDBRANCH   7   8
ENDBRANCH   4   7
ENDBRANCH   2   3
ENDBRANCH   1   2
BRANCH   1  19
ATOM     19  C   UNL A   1      32.601  29.084  25.392  1.00  0.00     0.118 C 
BRANCH  19  20
ATOM     20  N   UNL A   1      32.196  30.400  25.862  1.00  0.00    -0.352 N 
ATOM     21  C   UNL A   1      32.723  31.237  26.816  1.00  0.00     0.251 C 
ATOM     22  H   UNL A   1      31.395  30.756  25.413  1.00  0.00     0.163 HD
ATOM     23  O   UNL A   1      32.098  32.262  27.083  1.00  0.00    -0.269 OA
BRANCH  21  24
ATOM     24  C   UNL A   1      33.983  30.932  27.544  1.00  0.00     0.039 A 
ATOM     25  C   UNL A   1      34.776  32.004  27.975  1.00  0.00     0.014 A 
ATOM     26  C   UNL A   1      34.432  29.631  27.774  1.00  0.00     0.014 A 
ATOM     27  C   UNL A   1      35.966  31.771  28.675  1.00  0.00     0.010 A 
ATOM     28  C   UNL A   1      35.554  29.400  28.569  1.00  0.00     0.010 A 
ATOM     29  C   UNL A   1      36.347  30.466  29.017  1.00  0.00    -0.014 A 
BRANCH  29  30
ATOM     30  C   UNL A   1      37.577  30.184  29.809  1.00  0.00     0.031 A 
ATOM     31  C   UNL A   1      38.654  29.296  29.240  1.00  0.00     0.074 A 
ATOM     32  C   UNL A   1      37.697  30.668  31.062  1.00  0.00     0.049 A 
ATOM     33  N   UNL A   1      39.735  28.828  29.812  1.00  0.00    -0.248 NA
ATOM     34  C   UNL A   1      38.473  28.843  27.851  1.00  0.00     0.031 C 
ATOM     35  C   UNL A   1      36.714  31.516  31.740  1.00  0.00     0.029 A 
ATOM     36  N   UNL A   1      38.690  30.506  31.996  1.00  0.00    -0.354 N 
ATOM     37  C   UNL A   1      40.346  28.011  28.865  1.00  0.00     0.074 A 
ATOM     38  C   UNL A   1      39.482  27.998  27.705  1.00  0.00     0.031 C 
ATOM     39  C   UNL A   1      37.164  31.820  32.966  1.00  0.00     0.029 A 
ATOM     40  C   UNL A   1      38.438  31.143  33.190  1.00  0.00     0.049 A 
ATOM     41  H   UNL A   1      39.507  29.984  31.828  1.00  0.00     0.167 HD
ATOM     42  C   UNL A   1      41.529  27.352  28.946  1.00  0.00     0.034 A 
ATOM     43  C   UNL A   1      39.138  31.163  34.343  1.00  0.00     0.034 A 
ATOM     44  C   UNL A   1      42.392  27.392  30.103  1.00  0.00     0.049 A 
ATOM     45  C   UNL A   1      40.436  30.397  34.420  1.00  0.00     0.074 A 
ATOM     46  C   UNL A   1      43.635  26.807  30.270  1.00  0.00     0.029 A 
ATOM     47  N   UNL A   1      42.101  28.050  31.291  1.00  0.00    -0.354 N 
ATOM     48  N   UNL A   1      41.018  29.660  33.500  1.00  0.00    -0.248 NA
ATOM     49  C   UNL A   1      41.176  30.473  35.685  1.00  0.00     0.031 C 
ATOM     50  C   UNL A   1      44.060  27.047  31.581  1.00  0.00     0.029 A 
ATOM     51  C   UNL A   1      43.126  27.857  32.206  1.00  0.00     0.049 A 
ATOM     52  H   UNL A   1      41.286  28.577  31.461  1.00  0.00     0.167 HD
ATOM     53  C   UNL A   1      42.210  29.217  34.068  1.00  0.00     0.074 A 
ATOM     54  C   UNL A   1      42.269  29.781  35.400  1.00  0.00     0.031 C 
ATOM     55  C   UNL A   1      43.172  28.421  33.535  1.00  0.00     0.034 A 
BRANCH  42  56
ATOM     56  C   UNL A   1      41.945  26.511  27.761  1.00  0.00     0.023 A 
ATOM     57  C   UNL A   1      41.723  25.123  27.721  1.00  0.00     0.031 A 
ATOM     58  C   UNL A   1      42.584  27.103  26.657  1.00  0.00     0.131 A 
ATOM     59  C   UNL A   1      42.201  24.366  26.641  1.00  0.00     0.055 A 
ATOM     60  C   UNL A   1      42.980  26.357  25.544  1.00  0.00     0.041 A 
ATOM     61  F   UNL A   1      42.844  28.421  26.643  1.00  0.00    -0.206 F 
ATOM     62  C   UNL A   1      42.803  24.977  25.538  1.00  0.00     0.022 A 
BRANCH  59  63
ATOM     63  S   UNL A   1      42.155  22.558  26.763  1.00  0.00     0.124 S 
ATOM     64  O   UNL A   1      41.023  22.351  27.664  1.00  0.00    -0.237 OA
ATOM     65  O   UNL A   1      41.952  22.151  25.378  1.00  0.00    -0.237 OA
ATOM     66  O   UNL A   1      43.459  22.219  27.329  1.00  0.00    -0.744 OA
ENDBRANCH  59  63
ENDBRANCH  42  56
BRANCH  43  67
ATOM     67  C   UNL A   1      38.629  31.914  35.528  1.00  0.00     0.023 A 
ATOM     68  C   UNL A   1      38.149  31.236  36.660  1.00  0.00     0.031 A 
ATOM     69  C   UNL A   1      38.565  33.319  35.527  1.00  0.00     0.131 A 
ATOM     70  C   UNL A   1      37.575  31.959  37.719  1.00  0.00     0.055 A 
ATOM     71  C   UNL A   1      38.052  34.036  36.608  1.00  0.00     0.041 A 
ATOM     72  F   UNL A   1      39.011  34.018  34.471  1.00  0.00    -0.206 F 
ATOM     73  C   UNL A   1      37.538  33.354  37.708  1.00  0.00     0.022 A 
BRANCH  70  74
ATOM     74  S   UNL A   1      36.782  31.040  39.066  1.00  0.00     0.124 S 
ATOM     75  O   UNL A   1      36.682  29.703  38.492  1.00  0.00    -0.237 OA
ATOM     76  O   UNL A   1      37.742  31.203  40.151  1.00  0.00    -0.237 OA
ATOM     77  O   UNL A   1      35.510  31.737  39.250  1.00  0.00    -0.744 OA
ENDBRANCH  70  74
ENDBRANCH  43  67
BRANCH  55  78
ATOM     78  C   UNL A   1      44.398  28.161  34.378  1.00  0.00     0.023 A 
ATOM     79  C   UNL A   1      44.491  27.050  35.233  1.00  0.00     0.031 A 
ATOM     80  C   UNL A   1      45.488  29.050  34.328  1.00  0.00     0.131 A 
ATOM     81  C   UNL A   1      45.622  26.889  36.048  1.00  0.00     0.055 A 
ATOM     82  C   UNL A   1      46.638  28.847  35.090  1.00  0.00     0.041 A 
ATOM     83  F   UNL A   1      45.453  30.130  33.531  1.00  0.00    -0.206 F 
ATOM     84  C   UNL A   1      46.705  27.769  35.968  1.00  0.00     0.022 A 
BRANCH  81  85
ATOM     85  S   UNL A   1      45.619  25.567  37.291  1.00  0.00     0.124 S 
ATOM     86  O   UNL A   1      44.194  25.388  37.539  1.00  0.00    -0.237 OA
ATOM     87  O   UNL A   1      46.287  24.477  36.589  1.00  0.00    -0.237 OA
ATOM     88  O   UNL A   1      46.375  26.141  38.404  1.00  0.00    -0.744 OA
ENDBRANCH  81  85
ENDBRANCH  55  78
ENDBRANCH  29  30
ENDBRANCH  21  24
ENDBRANCH  19  20
ENDBRANCH   1  19
TORSDOF 15
ENDMDL
MODEL 2
REMARK VINA RESULT:     -11.3      5.348     10.362
REMARK SMILES C[C@@H]1C[N@@H+]([C@@H](C)CC(=O)NCCCNC(=O)c2ccc(-c3c4nc(c(-c5cc(S(=O)(=O)[O-])ccc5F)c5ccc([nH]5)c(-c5cc(S(=O)(=O)[O-])ccc5F)c5nc(c(-c6cc(S(=O)(=O)[O-])ccc6F)c6ccc3[nH]6)C=C5)C=C4)cc2)C[C@H](C)O1
REMARK SMILES IDX 12 1 11 2 10 3 8 4 9 5 7 7 5 8 6 9 4 10 1 11 2 12 3 13 83 14
REMARK SMILES IDX 81 15 80 16 82 18 13 19 14 20 15 21 16 23 17 24 18 25 79 26
REMARK SMILES IDX 19 27 78 28 20 29 21 30 22 31 72 32 23 33 77 34 71 35 73 36
REMARK SMILES IDX 24 37 76 38 70 39 69 40 25 42 57 43 37 44 56 45 38 46 41 47
REMARK SMILES IDX 55 48 74 49 39 50 40 51 54 53 75 54 42 55 26 56 27 57 35 58
REMARK SMILES IDX 28 59 34 60 36 61 33 62 29 63 30 64 31 65 32 66 58 67 59 68
REMARK SMILES IDX 67 69 60 70 66 71 68 72 65 73 61 74 62 75 63 76 64 77 43 78
REMARK SMILES IDX 44 79 52 80 45 81 51 82 53 83 50 84 46 85 47 86 48 87 49 88
REMARK H PARENT 10 6 4 17 14 22 73 41 41 52
REMARK Flexibility Score: inf
ROOT
ATOM      1  C   UNL A   1      34.760  21.824  26.709  1.00  0.00     0.042 C 
ENDROOT
BRANCH   1   2
ATOM      2  C   UNL A   1      33.432  21.355  26.133  1.00  0.00     0.117 C 
BRANCH   2   3
ATOM      3  N   UNL A   1      32.342  22.084  26.749  1.00  0.00    -0.356 N 
ATOM      4  C   UNL A   1      31.903  23.339  26.458  1.00  0.00     0.225 C 
ATOM      5  O   UNL A   1      31.131  23.890  27.246  1.00  0.00    -0.275 OA
ATOM      6  H   UNL A   1      31.861  21.614  27.467  1.00  0.00     0.163 HD
BRANCH   4   7
ATOM      7  C   UNL A   1      32.309  24.008  25.159  1.00  0.00     0.164 C 
BRANCH   7   8
ATOM      8  C   UNL A   1      31.194  24.847  24.487  1.00  0.00     0.190 C 
ATOM      9  C   UNL A   1      30.674  24.065  23.263  1.00  0.00     0.076 C 
BRANCH   8  10
ATOM     10  N   UNL A   1      31.592  26.254  24.184  1.00  0.00    -0.328 N 
ATOM     11  C   UNL A   1      33.676  28.153  22.390  1.00  0.00     0.045 C 
ATOM     12  C   UNL A   1      33.546  27.868  23.886  1.00  0.00     0.170 C 
ATOM     13  C   UNL A   1      33.061  26.438  24.234  1.00  0.00     0.294 C 
ATOM     14  O   UNL A   1      32.830  28.897  24.585  1.00  0.00    -0.364 OA
ATOM     15  C   UNL A   1      31.410  28.727  24.691  1.00  0.00     0.170 C 
ATOM     16  C   UNL A   1      30.992  27.280  25.055  1.00  0.00     0.294 C 
ATOM     17  H   UNL A   1      31.228  26.392  23.242  1.00  0.00     0.348 HD
ATOM     18  C   UNL A   1      30.670  29.324  23.497  1.00  0.00     0.045 C 
ENDBRANCH   8  10
ENDBRANCH   7   8
ENDBRANCH   4   7
ENDBRANCH   2   3
ENDBRANCH   1   2
BRANCH   1  19
ATOM     19  C   UNL A   1      35.829  22.165  25.685  1.00  0.00     0.118 C 
BRANCH  19  20
ATOM     20  N   UNL A   1      36.857  21.144  25.552  1.00  0.00    -0.352 N 
ATOM     21  C   UNL A   1      38.223  21.192  25.689  1.00  0.00     0.251 C 
ATOM     22  H   UNL A   1      36.508  20.252  25.321  1.00  0.00     0.163 HD
ATOM     23  O   UNL A   1      38.860  20.179  25.409  1.00  0.00    -0.269 OA
BRANCH  21  24
ATOM     24  C   UNL A   1      38.943  22.418  26.127  1.00  0.00     0.039 A 
ATOM     25  C   UNL A   1      40.069  22.268  26.947  1.00  0.00     0.014 A 
ATOM     26  C   UNL A   1      38.521  23.705  25.796  1.00  0.00     0.014 A 
ATOM     27  C   UNL A   1      40.789  23.390  27.377  1.00  0.00     0.010 A 
ATOM     28  C   UNL A   1      39.302  24.813  26.127  1.00  0.00     0.010 A 
ATOM     29  C   UNL A   1      40.437  24.673  26.936  1.00  0.00    -0.014 A 
BRANCH  29  30
ATOM     30  C   UNL A   1      41.214  25.882  27.328  1.00  0.00     0.031 A 
ATOM     31  C   UNL A   1      40.573  26.948  28.181  1.00  0.00     0.074 A 
ATOM     32  C   UNL A   1      42.468  26.058  26.863  1.00  0.00     0.049 A 
ATOM     33  N   UNL A   1      41.031  28.125  28.524  1.00  0.00    -0.248 NA
ATOM     34  C   UNL A   1      39.220  26.664  28.686  1.00  0.00     0.031 C 
ATOM     35  C   UNL A   1      43.192  25.116  26.006  1.00  0.00     0.029 A 
ATOM     36  N   UNL A   1      43.352  27.094  27.033  1.00  0.00    -0.354 N 
ATOM     37  C   UNL A   1      40.016  28.729  29.261  1.00  0.00     0.074 A 
ATOM     38  C   UNL A   1      38.897  27.812  29.261  1.00  0.00     0.031 C 
ATOM     39  C   UNL A   1      44.415  25.605  25.749  1.00  0.00     0.029 A 
ATOM     40  C   UNL A   1      44.545  26.920  26.369  1.00  0.00     0.049 A 
ATOM     41  H   UNL A   1      43.152  27.888  27.579  1.00  0.00     0.167 HD
ATOM     42  C   UNL A   1      40.025  29.927  29.899  1.00  0.00     0.034 A 
ATOM     43  C   UNL A   1      45.614  27.734  26.252  1.00  0.00     0.034 A 
ATOM     44  C   UNL A   1      41.157  30.821  29.909  1.00  0.00     0.049 A 
ATOM     45  C   UNL A   1      45.590  29.074  26.944  1.00  0.00     0.074 A 
ATOM     46  C   UNL A   1      41.293  32.031  30.568  1.00  0.00     0.029 A 
ATOM     47  N   UNL A   1      42.348  30.608  29.226  1.00  0.00    -0.354 N 
ATOM     48  N   UNL A   1      44.636  29.612  27.670  1.00  0.00    -0.248 NA
ATOM     49  C   UNL A   1      46.789  29.911  26.811  1.00  0.00     0.031 C 
ATOM     50  C   UNL A   1      42.531  32.582  30.223  1.00  0.00     0.029 A 
ATOM     51  C   UNL A   1      43.208  31.678  29.421  1.00  0.00     0.049 A 
ATOM     52  H   UNL A   1      42.552  29.812  28.682  1.00  0.00     0.167 HD
ATOM     53  C   UNL A   1      45.138  30.835  28.108  1.00  0.00     0.074 A 
ATOM     54  C   UNL A   1      46.481  30.946  27.578  1.00  0.00     0.031 C 
ATOM     55  C   UNL A   1      44.545  31.779  28.883  1.00  0.00     0.034 A 
BRANCH  42  56
ATOM     56  C   UNL A   1      38.763  30.348  30.617  1.00  0.00     0.023 A 
ATOM     57  C   UNL A   1      37.732  31.040  29.958  1.00  0.00     0.031 A 
ATOM     58  C   UNL A   1      38.591  30.062  31.983  1.00  0.00     0.131 A 
ATOM     59  C   UNL A   1      36.615  31.489  30.681  1.00  0.00     0.055 A 
ATOM     60  C   UNL A   1      37.437  30.434  32.677  1.00  0.00     0.041 A 
ATOM     61  F   UNL A   1      39.549  29.421  32.673  1.00  0.00    -0.206 F 
ATOM     62  C   UNL A   1      36.446  31.166  32.029  1.00  0.00     0.022 A 
BRANCH  59  63
ATOM     63  S   UNL A   1      35.456  32.623  29.868  1.00  0.00     0.124 S 
ATOM     64  O   UNL A   1      36.292  33.805  29.667  1.00  0.00    -0.237 OA
ATOM     65  O   UNL A   1      35.088  31.889  28.663  1.00  0.00    -0.237 OA
ATOM     66  O   UNL A   1      34.388  32.785  30.851  1.00  0.00    -0.744 OA
ENDBRANCH  59  63
ENDBRANCH  42  56
BRANCH  43  67
ATOM     67  C   UNL A   1      46.795  27.324  25.435  1.00  0.00     0.023 A 
ATOM     68  C   UNL A   1      46.985  27.828  24.138  1.00  0.00     0.031 A 
ATOM     69  C   UNL A   1      47.722  26.383  25.917  1.00  0.00     0.131 A 
ATOM     70  C   UNL A   1      48.042  27.347  23.347  1.00  0.00     0.055 A 
ATOM     71  C   UNL A   1      48.807  25.955  25.151  1.00  0.00     0.041 A 
ATOM     72  F   UNL A   1      47.589  25.868  27.150  1.00  0.00    -0.206 F 
ATOM     73  C   UNL A   1      48.963  26.426  23.851  1.00  0.00     0.022 A 
BRANCH  70  74
ATOM     74  S   UNL A   1      48.132  27.866  21.612  1.00  0.00     0.124 S 
ATOM     75  O   UNL A   1      49.299  28.740  21.626  1.00  0.00    -0.237 OA
ATOM     76  O   UNL A   1      48.293  26.591  20.922  1.00  0.00    -0.237 OA
ATOM     77  O   UNL A   1      46.852  28.536  21.391  1.00  0.00    -0.744 OA
ENDBRANCH  70  74
ENDBRANCH  43  67
BRANCH  55  78
ATOM     78  C   UNL A   1      45.372  32.989  29.250  1.00  0.00     0.023 A 
ATOM     79  C   UNL A   1      45.389  34.148  28.454  1.00  0.00     0.031 A 
ATOM     80  C   UNL A   1      46.162  32.976  30.414  1.00  0.00     0.131 A 
ATOM     81  C   UNL A   1      46.226  35.220  28.800  1.00  0.00     0.055 A 
ATOM     82  C   UNL A   1      46.939  34.071  30.789  1.00  0.00     0.041 A 
ATOM     83  F   UNL A   1      46.186  31.895  31.211  1.00  0.00    -0.206 F 
ATOM     84  C   UNL A   1      46.987  35.197  29.972  1.00  0.00     0.022 A 
BRANCH  81  85
ATOM     85  S   UNL A   1      46.386  36.608  27.642  1.00  0.00     0.124 S 
ATOM     86  O   UNL A   1      46.197  35.951  26.354  1.00  0.00    -0.237 OA
ATOM     87  O   UNL A   1      45.311  37.496  28.070  1.00  0.00    -0.237 OA
ATOM     88  O   UNL A   1      47.738  37.108  27.892  1.00  0.00    -0.744 OA
ENDBRANCH  81  85
ENDBRANCH  55  78
ENDBRANCH  29  30
ENDBRANCH  21  24
ENDBRANCH  19  20
ENDBRANCH   1  19
TORSDOF 15
ENDMDL
MODEL 3
REMARK VINA RESULT:     -11.3      1.510      1.743
REMARK SMILES C[C@@H]1C[N@@H+]([C@@H](C)CC(=O)NCCCNC(=O)c2ccc(-c3c4nc(c(-c5cc(S(=O)(=O)[O-])ccc5F)c5ccc([nH]5)c(-c5cc(S(=O)(=O)[O-])ccc5F)c5nc(c(-c6cc(S(=O)(=O)[O-])ccc6F)c6ccc3[nH]6)C=C5)C=C4)cc2)C[C@H](C)O1
REMARK SMILES IDX 12 1 11 2 10 3 8 4 9 5 7 7 5 8 6 9 4 10 1 11 2 12 3 13 83 14
REMARK SMILES IDX 81 15 80 16 82 18 13 19 14 20 15 21 16 23 17 24 18 25 79 26
REMARK SMILES IDX 19 27 78 28 20 29 21 30 22 31 72 32 23 33 77 34 71 35 73 36
REMARK SMILES IDX 24 37 76 38 70 39 69 40 25 42 57 43 37 44 56 45 38 46 41 47
REMARK SMILES IDX 55 48 74 49 39 50 40 51 54 53 75 54 42 55 26 56 27 57 35 58
REMARK SMILES IDX 28 59 34 60 36 61 33 62 29 63 30 64 31 65 32 66 58 67 59 68
REMARK SMILES IDX 67 69 60 70 66 71 68 72 65 73 61 74 62 75 63 76 64 77 43 78
REMARK SMILES IDX 44 79 52 80 45 81 51 82 53 83 50 84 46 85 47 86 48 87 49 88
REMARK H PARENT 10 6 4 17 14 22 73 41 41 52
REMARK Flexibility Score: inf
ROOT
ATOM      1  C   UNL A   1      33.428  29.235  24.053  1.00  0.00     0.042 C 
ENDROOT
BRANCH   1   2
ATOM      2  C   UNL A   1      32.614  28.745  22.864  1.00  0.00     0.117 C 
BRANCH   2   3
ATOM      3  N   UNL A   1      33.308  27.658  22.205  1.00  0.00    -0.356 N 
ATOM      4  C   UNL A   1      32.846  26.405  21.942  1.00  0.00     0.225 C 
ATOM      5  O   UNL A   1      33.653  25.540  21.599  1.00  0.00    -0.275 OA
ATOM      6  H   UNL A   1      34.228  27.849  21.912  1.00  0.00     0.163 HD
BRANCH   4   7
ATOM      7  C   UNL A   1      31.360  26.111  22.007  1.00  0.00     0.164 C 
BRANCH   7   8
ATOM      8  C   UNL A   1      30.890  25.436  23.320  1.00  0.00     0.190 C 
ATOM      9  C   UNL A   1      30.193  26.505  24.188  1.00  0.00     0.076 C 
BRANCH   8  10
ATOM     10  N   UNL A   1      31.962  24.680  24.032  1.00  0.00    -0.328 N 
ATOM     11  C   UNL A   1      33.655  21.799  24.100  1.00  0.00     0.045 C 
ATOM     12  C   UNL A   1      32.633  22.435  25.043  1.00  0.00     0.170 C 
ATOM     13  C   UNL A   1      31.549  23.292  24.342  1.00  0.00     0.294 C 
ATOM     14  O   UNL A   1      33.248  23.098  26.159  1.00  0.00    -0.364 OA
ATOM     15  C   UNL A   1      33.565  24.485  25.981  1.00  0.00     0.170 C 
ATOM     16  C   UNL A   1      32.435  25.288  25.289  1.00  0.00     0.294 C 
ATOM     17  H   UNL A   1      32.733  24.703  23.365  1.00  0.00     0.348 HD
ATOM     18  C   UNL A   1      34.952  24.684  25.377  1.00  0.00     0.045 C 
ENDBRANCH   8  10
ENDBRANCH   7   8
ENDBRANCH   4   7
ENDBRANCH   2   3
ENDBRANCH   1   2
BRANCH   1  19
ATOM     19  C   UNL A   1      32.727  29.158  25.398  1.00  0.00     0.118 C 
BRANCH  19  20
ATOM     20  N   UNL A   1      32.317  30.453  25.917  1.00  0.00    -0.352 N 
ATOM     21  C   UNL A   1      32.852  31.267  26.886  1.00  0.00     0.251 C 
ATOM     22  H   UNL A   1      31.502  30.814  25.495  1.00  0.00     0.163 HD
ATOM     23  O   UNL A   1      32.221  32.276  27.196  1.00  0.00    -0.269 OA
BRANCH  21  24
ATOM     24  C   UNL A   1      34.131  30.956  27.578  1.00  0.00     0.039 A 
ATOM     25  C   UNL A   1      35.045  31.998  27.783  1.00  0.00     0.014 A 
ATOM     26  C   UNL A   1      34.479  29.669  27.988  1.00  0.00     0.014 A 
ATOM     27  C   UNL A   1      36.258  31.759  28.441  1.00  0.00     0.010 A 
ATOM     28  C   UNL A   1      35.632  29.454  28.743  1.00  0.00     0.010 A 
ATOM     29  C   UNL A   1      36.547  30.492  28.966  1.00  0.00    -0.014 A 
BRANCH  29  30
ATOM     30  C   UNL A   1      37.802  30.217  29.720  1.00  0.00     0.031 A 
ATOM     31  C   UNL A   1      38.842  29.292  29.141  1.00  0.00     0.074 A 
ATOM     32  C   UNL A   1      37.977  30.740  30.950  1.00  0.00     0.049 A 
ATOM     33  N   UNL A   1      39.936  28.826  29.688  1.00  0.00    -0.248 NA
ATOM     34  C   UNL A   1      38.600  28.796  27.776  1.00  0.00     0.031 C 
ATOM     35  C   UNL A   1      37.034  31.627  31.636  1.00  0.00     0.029 A 
ATOM     36  N   UNL A   1      39.003  30.594  31.851  1.00  0.00    -0.354 N 
ATOM     37  C   UNL A   1      40.498  27.967  28.746  1.00  0.00     0.074 A 
ATOM     38  C   UNL A   1      39.590  27.930  27.621  1.00  0.00     0.031 C 
ATOM     39  C   UNL A   1      37.537  31.964  32.833  1.00  0.00     0.029 A 
ATOM     40  C   UNL A   1      38.807  31.274  33.031  1.00  0.00     0.049 A 
ATOM     41  H   UNL A   1      39.805  30.052  31.670  1.00  0.00     0.167 HD
ATOM     42  C   UNL A   1      41.673  27.291  28.805  1.00  0.00     0.034 A 
ATOM     43  C   UNL A   1      39.552  31.321  34.155  1.00  0.00     0.034 A 
ATOM     44  C   UNL A   1      42.580  27.356  29.925  1.00  0.00     0.049 A 
ATOM     45  C   UNL A   1      40.839  30.536  34.208  1.00  0.00     0.074 A 
ATOM     46  C   UNL A   1      43.820  26.756  30.065  1.00  0.00     0.029 A 
ATOM     47  N   UNL A   1      42.345  28.058  31.101  1.00  0.00    -0.354 N 
ATOM     48  N   UNL A   1      41.374  29.760  33.293  1.00  0.00    -0.248 NA
ATOM     49  C   UNL A   1      41.629  30.642  35.442  1.00  0.00     0.031 C 
ATOM     50  C   UNL A   1      44.299  27.033  31.350  1.00  0.00     0.029 A 
ATOM     51  C   UNL A   1      43.402  27.879  31.982  1.00  0.00     0.049 A 
ATOM     52  H   UNL A   1      41.546  28.604  31.283  1.00  0.00     0.167 HD
ATOM     53  C   UNL A   1      42.580  29.316  33.830  1.00  0.00     0.074 A 
ATOM     54  C   UNL A   1      42.699  29.923  35.139  1.00  0.00     0.031 C 
ATOM     55  C   UNL A   1      43.508  28.486  33.288  1.00  0.00     0.034 A 
BRANCH  42  56
ATOM     56  C   UNL A   1      42.030  26.404  27.634  1.00  0.00     0.023 A 
ATOM     57  C   UNL A   1      41.658  25.049  27.589  1.00  0.00     0.031 A 
ATOM     58  C   UNL A   1      42.762  26.918  26.548  1.00  0.00     0.131 A 
ATOM     59  C   UNL A   1      42.083  24.239  26.525  1.00  0.00     0.055 A 
ATOM     60  C   UNL A   1      43.108  26.127  25.450  1.00  0.00     0.041 A 
ATOM     61  F   UNL A   1      43.166  28.199  26.541  1.00  0.00    -0.206 F 
ATOM     62  C   UNL A   1      42.781  24.775  25.441  1.00  0.00     0.022 A 
BRANCH  59  63
ATOM     63  S   UNL A   1      41.836  22.447  26.649  1.00  0.00     0.124 S 
ATOM     64  O   UNL A   1      40.386  22.359  26.817  1.00  0.00    -0.237 OA
ATOM     65  O   UNL A   1      42.361  21.966  25.377  1.00  0.00    -0.237 OA
ATOM     66  O   UNL A   1      42.614  22.073  27.828  1.00  0.00    -0.744 OA
ENDBRANCH  59  63
ENDBRANCH  42  56
BRANCH  43  67
ATOM     67  C   UNL A   1      39.101  32.119  35.332  1.00  0.00     0.023 A 
ATOM     68  C   UNL A   1      39.557  33.433  35.531  1.00  0.00     0.031 A 
ATOM     69  C   UNL A   1      38.249  31.565  36.304  1.00  0.00     0.131 A 
ATOM     70  C   UNL A   1      39.206  34.127  36.700  1.00  0.00     0.055 A 
ATOM     71  C   UNL A   1      37.852  32.282  37.434  1.00  0.00     0.041 A 
ATOM     72  F   UNL A   1      37.782  30.314  36.165  1.00  0.00    -0.206 F 
ATOM     73  C   UNL A   1      38.344  33.567  37.645  1.00  0.00     0.022 A 
BRANCH  70  74
ATOM     74  S   UNL A   1      39.979  35.736  37.019  1.00  0.00     0.124 S 
ATOM     75  O   UNL A   1      39.661  36.463  35.795  1.00  0.00    -0.237 OA
ATOM     76  O   UNL A   1      39.285  36.173  38.224  1.00  0.00    -0.237 OA
ATOM     77  O   UNL A   1      41.392  35.404  37.199  1.00  0.00    -0.744 OA
ENDBRANCH  70  74
ENDBRANCH  43  67
BRANCH  55  78
ATOM     78  C   UNL A   1      44.762  28.234  34.092  1.00  0.00     0.023 A 
ATOM     79  C   UNL A   1      44.870  27.152  34.982  1.00  0.00     0.031 A 
ATOM     80  C   UNL A   1      45.863  29.101  33.969  1.00  0.00     0.131 A 
ATOM     81  C   UNL A   1      46.029  26.999  35.758  1.00  0.00     0.055 A 
ATOM     82  C   UNL A   1      47.039  28.904  34.693  1.00  0.00     0.041 A 
ATOM     83  F   UNL A   1      45.815  30.153  33.136  1.00  0.00    -0.206 F 
ATOM     84  C   UNL A   1      47.122  27.857  35.606  1.00  0.00     0.022 A 
BRANCH  81  85
ATOM     85  S   UNL A   1      46.053  25.722  37.047  1.00  0.00     0.124 S 
ATOM     86  O   UNL A   1      46.672  24.600  36.349  1.00  0.00    -0.237 OA
ATOM     87  O   UNL A   1      46.859  26.347  38.091  1.00  0.00    -0.237 OA
ATOM     88  O   UNL A   1      44.641  25.543  37.379  1.00  0.00    -0.744 OA
ENDBRANCH  81  85
ENDBRANCH  55  78
ENDBRANCH  29  30
ENDBRANCH  21  24
ENDBRANCH  19  20
ENDBRANCH   1  19
TORSDOF 15
ENDMDL
