MODEL 1
REMARK VINA RESULT:     -11.9      0.000      0.000
REMARK SMILES CO[C@@H]1C[C@H](C(=O)NCCCNC(=O)c2ccc(-c3c4nc(c(-c5cc(S(=O)(=O)[O-])ccc5F)c5ccc([nH]5)c(-c5cc(S(=O)(=O)[O-])ccc5F)c5nc(c(-c6cc(S(=O)(=O)[O-])ccc6F)c6ccc3[nH]6)C=C5)C=C4)cc2)N(C(=O)c2ccn(C)c(=O)c2)C1
REMARK SMILES IDX 10 1 9 2 8 3 6 4 7 5 5 7 3 8 4 9 89 10 78 11 2 12 1 13 79 14
REMARK SMILES IDX 80 15 81 16 82 17 88 18 83 19 86 20 84 21 87 22 85 23 11 24
REMARK SMILES IDX 12 25 13 26 14 28 15 29 16 30 77 31 17 32 76 33 18 34 19 35
REMARK SMILES IDX 20 36 70 37 21 38 75 39 69 40 71 41 22 42 74 43 68 44 67 45
REMARK SMILES IDX 23 47 55 48 35 49 54 50 36 51 39 52 53 53 72 54 37 55 38 56
REMARK SMILES IDX 52 58 73 59 40 60 24 61 25 62 33 63 26 64 32 65 34 66 31 67
REMARK SMILES IDX 27 68 28 69 29 70 30 71 56 72 57 73 65 74 58 75 64 76 66 77
REMARK SMILES IDX 63 78 59 79 60 80 61 81 62 82 41 83 42 84 50 85 43 86 49 87
REMARK SMILES IDX 51 88 48 89 44 90 45 91 46 92 47 93
REMARK H PARENT 8 6 12 27 71 46 39 57
REMARK Flexibility Score: inf
ROOT
ATOM      1  C   UNL A   1      31.437  31.675  26.501  1.00  0.00     0.042 C 
ENDROOT
BRANCH   1   2
ATOM      2  C   UNL A   1      31.503  30.223  26.018  1.00  0.00     0.117 C 
BRANCH   2   3
ATOM      3  N   UNL A   1      32.384  30.077  24.869  1.00  0.00    -0.354 N 
ATOM      4  C   UNL A   1      32.717  29.045  24.059  1.00  0.00     0.242 C 
ATOM      5  O   UNL A   1      33.641  29.282  23.264  1.00  0.00    -0.273 OA
ATOM      6  H   UNL A   1      32.839  30.916  24.627  1.00  0.00     0.163 HD
BRANCH   4   7
ATOM      7  C   UNL A   1      32.145  27.604  24.093  1.00  0.00     0.177 C 
ATOM      8  C   UNL A   1      30.169  27.357  22.753  1.00  0.00     0.139 C 
ATOM      9  C   UNL A   1      30.624  27.559  24.197  1.00  0.00     0.069 C 
ATOM     10  C   UNL A   1      31.282  26.475  22.151  1.00  0.00     0.152 C 
ATOM     11  N   UNL A   1      32.432  26.632  23.042  1.00  0.00    -0.324 N 
BRANCH   8  12
ATOM     12  O   UNL A   1      30.076  28.583  22.035  1.00  0.00    -0.380 OA
ATOM     13  C   UNL A   1      29.264  29.568  22.671  1.00  0.00     0.195 C 
ENDBRANCH   8  12
BRANCH  11  14
ATOM     14  C   UNL A   1      33.425  25.669  23.051  1.00  0.00     0.254 C 
ATOM     15  O   UNL A   1      34.100  25.379  22.068  1.00  0.00    -0.269 OA
BRANCH  14  16
ATOM     16  C   UNL A   1      33.543  24.858  24.295  1.00  0.00     0.046 A 
ATOM     17  C   UNL A   1      32.401  24.281  24.954  1.00  0.00     0.032 A 
ATOM     18  C   UNL A   1      34.783  24.680  24.779  1.00  0.00     0.085 A 
ATOM     19  C   UNL A   1      32.588  23.462  25.998  1.00  0.00     0.089 A 
ATOM     20  C   UNL A   1      35.004  23.761  25.923  1.00  0.00     0.251 A 
ATOM     21  N   UNL A   1      33.862  23.171  26.462  1.00  0.00    -0.319 N 
ATOM     22  O   UNL A   1      36.153  23.557  26.303  1.00  0.00    -0.269 OA
ATOM     23  C   UNL A   1      34.012  22.224  27.555  1.00  0.00     0.153 C 
ENDBRANCH  14  16
ENDBRANCH  11  14
ENDBRANCH   4   7
ENDBRANCH   2   3
ENDBRANCH   1   2
BRANCH   1  24
ATOM     24  C   UNL A   1      32.723  32.202  27.132  1.00  0.00     0.118 C 
BRANCH  24  25
ATOM     25  N   UNL A   1      32.617  33.597  27.525  1.00  0.00    -0.352 N 
ATOM     26  C   UNL A   1      33.282  34.305  28.500  1.00  0.00     0.251 C 
ATOM     27  H   UNL A   1      31.962  34.121  27.010  1.00  0.00     0.163 HD
ATOM     28  O   UNL A   1      32.864  35.421  28.798  1.00  0.00    -0.269 OA
BRANCH  26  29
ATOM     29  C   UNL A   1      34.466  33.749  29.207  1.00  0.00     0.039 A 
ATOM     30  C   UNL A   1      34.267  32.733  30.149  1.00  0.00     0.014 A 
ATOM     31  C   UNL A   1      35.754  34.254  29.014  1.00  0.00     0.014 A 
ATOM     32  C   UNL A   1      35.355  32.193  30.848  1.00  0.00     0.010 A 
ATOM     33  C   UNL A   1      36.848  33.659  29.649  1.00  0.00     0.010 A 
ATOM     34  C   UNL A   1      36.662  32.629  30.584  1.00  0.00    -0.014 A 
BRANCH  34  35
ATOM     35  C   UNL A   1      37.836  32.040  31.290  1.00  0.00     0.031 A 
ATOM     36  C   UNL A   1      38.628  30.927  30.653  1.00  0.00     0.074 A 
ATOM     37  C   UNL A   1      38.161  32.464  32.529  1.00  0.00     0.049 A 
ATOM     38  N   UNL A   1      39.620  30.224  31.142  1.00  0.00    -0.248 NA
ATOM     39  C   UNL A   1      38.228  30.529  29.295  1.00  0.00     0.031 C 
ATOM     40  C   UNL A   1      37.456  33.508  33.276  1.00  0.00     0.029 A 
ATOM     41  N   UNL A   1      39.158  32.063  33.386  1.00  0.00    -0.354 N 
ATOM     42  C   UNL A   1      39.945  29.288  30.165  1.00  0.00     0.074 A 
ATOM     43  C   UNL A   1      39.004  29.478  29.080  1.00  0.00     0.031 C 
ATOM     44  C   UNL A   1      38.055  33.680  34.465  1.00  0.00     0.029 A 
ATOM     45  C   UNL A   1      39.156  32.729  34.590  1.00  0.00     0.049 A 
ATOM     46  H   UNL A   1      39.813  31.364  33.159  1.00  0.00     0.167 HD
ATOM     47  C   UNL A   1      40.946  28.372  30.160  1.00  0.00     0.034 A 
ATOM     48  C   UNL A   1      39.939  32.584  35.677  1.00  0.00     0.034 A 
ATOM     49  C   UNL A   1      41.894  28.210  31.237  1.00  0.00     0.049 A 
ATOM     50  C   UNL A   1      41.038  31.553  35.656  1.00  0.00     0.074 A 
ATOM     51  C   UNL A   1      42.985  27.359  31.306  1.00  0.00     0.029 A 
ATOM     52  N   UNL A   1      41.861  28.907  32.438  1.00  0.00    -0.354 N 
ATOM     53  N   UNL A   1      41.359  30.707  34.704  1.00  0.00    -0.248 NA
ATOM     54  C   UNL A   1      41.887  31.465  36.852  1.00  0.00     0.031 C 
ATOM     55  C   UNL A   1      43.570  27.496  32.570  1.00  0.00     0.029 A 
ATOM     56  C   UNL A   1      42.892  28.484  33.265  1.00  0.00     0.049 A 
ATOM     57  H   UNL A   1      41.202  29.601  32.669  1.00  0.00     0.167 HD
ATOM     58  C   UNL A   1      42.464  30.004  35.179  1.00  0.00     0.074 A 
ATOM     59  C   UNL A   1      42.762  30.538  36.492  1.00  0.00     0.031 C 
ATOM     60  C   UNL A   1      43.170  29.011  34.581  1.00  0.00     0.034 A 
BRANCH  47  61
ATOM     61  C   UNL A   1      41.046  27.457  28.960  1.00  0.00     0.023 A 
ATOM     62  C   UNL A   1      42.047  27.619  27.986  1.00  0.00     0.031 A 
ATOM     63  C   UNL A   1      40.107  26.428  28.767  1.00  0.00     0.131 A 
ATOM     64  C   UNL A   1      42.034  26.829  26.826  1.00  0.00     0.055 A 
ATOM     65  C   UNL A   1      40.152  25.585  27.653  1.00  0.00     0.041 A 
ATOM     66  F   UNL A   1      39.117  26.231  29.651  1.00  0.00    -0.206 F 
ATOM     67  C   UNL A   1      41.109  25.796  26.665  1.00  0.00     0.022 A 
BRANCH  64  68
ATOM     68  S   UNL A   1      43.145  27.274  25.463  1.00  0.00     0.124 S 
ATOM     69  O   UNL A   1      43.381  25.974  24.838  1.00  0.00    -0.237 OA
ATOM     70  O   UNL A   1      42.341  28.216  24.694  1.00  0.00    -0.237 OA
ATOM     71  O   UNL A   1      44.306  27.850  26.141  1.00  0.00    -0.744 OA
ENDBRANCH  64  68
ENDBRANCH  47  61
BRANCH  48  72
ATOM     72  C   UNL A   1      39.706  33.423  36.889  1.00  0.00     0.023 A 
ATOM     73  C   UNL A   1      40.494  34.556  37.146  1.00  0.00     0.031 A 
ATOM     74  C   UNL A   1      38.712  33.083  37.824  1.00  0.00     0.131 A 
ATOM     75  C   UNL A   1      40.301  35.287  38.329  1.00  0.00     0.055 A 
ATOM     76  C   UNL A   1      38.491  33.843  38.974  1.00  0.00     0.041 A 
ATOM     77  F   UNL A   1      37.928  32.012  37.623  1.00  0.00    -0.206 F 
ATOM     78  C   UNL A   1      39.297  34.946  39.237  1.00  0.00     0.022 A 
BRANCH  75  79
ATOM     79  S   UNL A   1      41.433  36.656  38.698  1.00  0.00     0.124 S 
ATOM     80  O   UNL A   1      40.513  37.684  39.170  1.00  0.00    -0.237 OA
ATOM     81  O   UNL A   1      42.307  36.063  39.706  1.00  0.00    -0.237 OA
ATOM     82  O   UNL A   1      42.069  36.928  37.411  1.00  0.00    -0.744 OA
ENDBRANCH  75  79
ENDBRANCH  48  72
BRANCH  60  83
ATOM     83  C   UNL A   1      44.358  28.466  35.335  1.00  0.00     0.023 A 
ATOM     84  C   UNL A   1      44.213  27.500  36.346  1.00  0.00     0.031 A 
ATOM     85  C   UNL A   1      45.653  28.935  35.049  1.00  0.00     0.131 A 
ATOM     86  C   UNL A   1      45.337  27.072  37.070  1.00  0.00     0.055 A 
ATOM     87  C   UNL A   1      46.773  28.463  35.733  1.00  0.00     0.041 A 
ATOM     88  F   UNL A   1      45.849  29.860  34.095  1.00  0.00    -0.206 F 
ATOM     89  C   UNL A   1      46.617  27.536  36.760  1.00  0.00     0.022 A 
BRANCH  86  90
ATOM     90  S   UNL A   1      45.090  25.967  38.488  1.00  0.00     0.124 S 
ATOM     91  O   UNL A   1      46.238  26.291  39.328  1.00  0.00    -0.237 OA
ATOM     92  O   UNL A   1      43.789  26.392  38.992  1.00  0.00    -0.237 OA
ATOM     93  O   UNL A   1      45.117  24.632  37.891  1.00  0.00    -0.744 OA
ENDBRANCH  86  90
ENDBRANCH  60  83
ENDBRANCH  34  35
ENDBRANCH  26  29
ENDBRANCH  24  25
ENDBRANCH   1  24
TORSDOF 16
ENDMDL
MODEL 2
REMARK VINA RESULT:     -11.7      5.690     10.682
REMARK SMILES CO[C@@H]1C[C@H](C(=O)NCCCNC(=O)c2ccc(-c3c4nc(c(-c5cc(S(=O)(=O)[O-])ccc5F)c5ccc([nH]5)c(-c5cc(S(=O)(=O)[O-])ccc5F)c5nc(c(-c6cc(S(=O)(=O)[O-])ccc6F)c6ccc3[nH]6)C=C5)C=C4)cc2)N(C(=O)c2ccn(C)c(=O)c2)C1
REMARK SMILES IDX 10 1 9 2 8 3 6 4 7 5 5 7 3 8 4 9 89 10 78 11 2 12 1 13 79 14
REMARK SMILES IDX 80 15 81 16 82 17 88 18 83 19 86 20 84 21 87 22 85 23 11 24
REMARK SMILES IDX 12 25 13 26 14 28 15 29 16 30 77 31 17 32 76 33 18 34 19 35
REMARK SMILES IDX 20 36 70 37 21 38 75 39 69 40 71 41 22 42 74 43 68 44 67 45
REMARK SMILES IDX 23 47 55 48 35 49 54 50 36 51 39 52 53 53 72 54 37 55 38 56
REMARK SMILES IDX 52 58 73 59 40 60 24 61 25 62 33 63 26 64 32 65 34 66 31 67
REMARK SMILES IDX 27 68 28 69 29 70 30 71 56 72 57 73 65 74 58 75 64 76 66 77
REMARK SMILES IDX 63 78 59 79 60 80 61 81 62 82 41 83 42 84 50 85 43 86 49 87
REMARK SMILES IDX 51 88 48 89 44 90 45 91 46 92 47 93
REMARK H PARENT 8 6 12 27 71 46 39 57
REMARK Flexibility Score: inf
ROOT
ATOM      1  C   UNL A   1      35.883  22.511  23.830  1.00  0.00     0.042 C 
ENDROOT
BRANCH   1   2
ATOM      2  C   UNL A   1      34.460  22.957  23.486  1.00  0.00     0.117 C 
BRANCH   2   3
ATOM      3  N   UNL A   1      34.411  24.362  23.111  1.00  0.00    -0.354 N 
ATOM      4  C   UNL A   1      33.590  25.395  23.417  1.00  0.00     0.242 C 
ATOM      5  O   UNL A   1      33.789  26.431  22.763  1.00  0.00    -0.273 OA
ATOM      6  H   UNL A   1      35.136  24.620  22.497  1.00  0.00     0.163 HD
BRANCH   4   7
ATOM      7  C   UNL A   1      32.394  25.381  24.404  1.00  0.00     0.177 C 
ATOM      8  C   UNL A   1      32.811  26.668  26.387  1.00  0.00     0.139 C 
ATOM      9  C   UNL A   1      32.816  25.234  25.863  1.00  0.00     0.069 C 
ATOM     10  C   UNL A   1      31.650  27.324  25.612  1.00  0.00     0.152 C 
ATOM     11  N   UNL A   1      31.416  26.463  24.452  1.00  0.00    -0.324 N 
BRANCH   8  12
ATOM     12  O   UNL A   1      34.029  27.352  26.112  1.00  0.00    -0.380 OA
ATOM     13  C   UNL A   1      33.888  28.767  26.004  1.00  0.00     0.195 C 
ENDBRANCH   8  12
BRANCH  11  14
ATOM     14  C   UNL A   1      30.195  26.508  23.804  1.00  0.00     0.254 C 
ATOM     15  O   UNL A   1      29.502  25.519  23.588  1.00  0.00    -0.269 OA
BRANCH  14  16
ATOM     16  C   UNL A   1      29.811  27.823  23.217  1.00  0.00     0.046 A 
ATOM     17  C   UNL A   1      30.701  28.587  22.382  1.00  0.00     0.032 A 
ATOM     18  C   UNL A   1      28.576  28.267  23.499  1.00  0.00     0.085 A 
ATOM     19  C   UNL A   1      30.250  29.700  21.788  1.00  0.00     0.089 A 
ATOM     20  C   UNL A   1      28.060  29.488  22.832  1.00  0.00     0.251 A 
ATOM     21  N   UNL A   1      28.946  30.134  21.973  1.00  0.00    -0.319 N 
ATOM     22  O   UNL A   1      26.904  29.835  23.049  1.00  0.00    -0.269 OA
ATOM     23  C   UNL A   1      28.490  31.311  21.251  1.00  0.00     0.153 C 
ENDBRANCH  14  16
ENDBRANCH  11  14
ENDBRANCH   4   7
ENDBRANCH   2   3
ENDBRANCH   1   2
BRANCH   1  24
ATOM     24  C   UNL A   1      36.114  22.172  25.300  1.00  0.00     0.118 C 
BRANCH  24  25
ATOM     25  N   UNL A   1      37.053  21.078  25.477  1.00  0.00    -0.352 N 
ATOM     26  C   UNL A   1      38.404  21.092  25.742  1.00  0.00     0.251 C 
ATOM     27  H   UNL A   1      36.658  20.180  25.394  1.00  0.00     0.163 HD
ATOM     28  O   UNL A   1      39.031  20.041  25.628  1.00  0.00    -0.269 OA
BRANCH  26  29
ATOM     29  C   UNL A   1      39.116  22.336  26.137  1.00  0.00     0.039 A 
ATOM     30  C   UNL A   1      40.410  22.228  26.661  1.00  0.00     0.014 A 
ATOM     31  C   UNL A   1      38.512  23.593  26.069  1.00  0.00     0.014 A 
ATOM     32  C   UNL A   1      41.109  23.375  27.060  1.00  0.00     0.010 A 
ATOM     33  C   UNL A   1      39.240  24.743  26.388  1.00  0.00     0.010 A 
ATOM     34  C   UNL A   1      40.544  24.649  26.899  1.00  0.00    -0.014 A 
BRANCH  34  35
ATOM     35  C   UNL A   1      41.286  25.884  27.283  1.00  0.00     0.031 A 
ATOM     36  C   UNL A   1      40.618  26.945  28.120  1.00  0.00     0.074 A 
ATOM     37  C   UNL A   1      42.542  26.084  26.833  1.00  0.00     0.049 A 
ATOM     38  N   UNL A   1      41.061  28.125  28.479  1.00  0.00    -0.248 NA
ATOM     39  C   UNL A   1      39.256  26.651  28.589  1.00  0.00     0.031 C 
ATOM     40  C   UNL A   1      43.293  25.156  25.984  1.00  0.00     0.029 A 
ATOM     41  N   UNL A   1      43.407  27.136  27.014  1.00  0.00    -0.354 N 
ATOM     42  C   UNL A   1      40.026  28.721  29.193  1.00  0.00     0.074 A 
ATOM     43  C   UNL A   1      38.914  27.793  29.164  1.00  0.00     0.031 C 
ATOM     44  C   UNL A   1      44.509  25.668  25.739  1.00  0.00     0.029 A 
ATOM     45  C   UNL A   1      44.613  26.981  26.369  1.00  0.00     0.049 A 
ATOM     46  H   UNL A   1      43.185  27.927  27.556  1.00  0.00     0.167 HD
ATOM     47  C   UNL A   1      40.009  29.918  29.832  1.00  0.00     0.034 A 
ATOM     48  C   UNL A   1      45.677  27.804  26.282  1.00  0.00     0.034 A 
ATOM     49  C   UNL A   1      41.134  30.823  29.876  1.00  0.00     0.049 A 
ATOM     50  C   UNL A   1      45.635  29.134  26.990  1.00  0.00     0.074 A 
ATOM     51  C   UNL A   1      41.246  32.029  30.549  1.00  0.00     0.029 A 
ATOM     52  N   UNL A   1      42.340  30.627  29.214  1.00  0.00    -0.354 N 
ATOM     53  N   UNL A   1      44.663  29.662  27.699  1.00  0.00    -0.248 NA
ATOM     54  C   UNL A   1      46.836  29.973  26.895  1.00  0.00     0.031 C 
ATOM     55  C   UNL A   1      42.492  32.589  30.242  1.00  0.00     0.029 A 
ATOM     56  C   UNL A   1      43.188  31.702  29.437  1.00  0.00     0.049 A 
ATOM     57  H   UNL A   1      42.560  29.839  28.667  1.00  0.00     0.167 HD
ATOM     58  C   UNL A   1      45.148  30.885  28.154  1.00  0.00     0.074 A 
ATOM     59  C   UNL A   1      46.502  31.006  27.654  1.00  0.00     0.031 C 
ATOM     60  C   UNL A   1      44.531  31.821  28.920  1.00  0.00     0.034 A 
BRANCH  47  61
ATOM     61  C   UNL A   1      38.722  30.325  30.512  1.00  0.00     0.023 A 
ATOM     62  C   UNL A   1      37.710  31.022  29.828  1.00  0.00     0.031 A 
ATOM     63  C   UNL A   1      38.514  30.042  31.875  1.00  0.00     0.131 A 
ATOM     64  C   UNL A   1      36.583  31.488  30.524  1.00  0.00     0.055 A 
ATOM     65  C   UNL A   1      37.349  30.431  32.541  1.00  0.00     0.041 A 
ATOM     66  F   UNL A   1      39.448  29.394  32.588  1.00  0.00    -0.206 F 
ATOM     67  C   UNL A   1      36.384  31.175  31.871  1.00  0.00     0.022 A 
BRANCH  64  68
ATOM     68  S   UNL A   1      35.463  32.640  29.683  1.00  0.00     0.124 S 
ATOM     69  O   UNL A   1      35.166  31.915  28.450  1.00  0.00    -0.237 OA
ATOM     70  O   UNL A   1      34.363  32.762  30.633  1.00  0.00    -0.237 OA
ATOM     71  O   UNL A   1      36.275  33.843  29.509  1.00  0.00    -0.744 OA
ENDBRANCH  64  68
ENDBRANCH  47  61
BRANCH  48  72
ATOM     72  C   UNL A   1      46.871  27.407  25.481  1.00  0.00     0.023 A 
ATOM     73  C   UNL A   1      47.024  27.830  24.151  1.00  0.00     0.031 A 
ATOM     74  C   UNL A   1      47.862  26.571  26.026  1.00  0.00     0.131 A 
ATOM     75  C   UNL A   1      48.122  27.385  23.397  1.00  0.00     0.055 A 
ATOM     76  C   UNL A   1      48.978  26.171  25.288  1.00  0.00     0.041 A 
ATOM     77  F   UNL A   1      47.767  26.142  27.295  1.00  0.00    -0.206 F 
ATOM     78  C   UNL A   1      49.105  26.570  23.961  1.00  0.00     0.022 A 
BRANCH  75  79
ATOM     79  S   UNL A   1      48.208  27.831  21.642  1.00  0.00     0.124 S 
ATOM     80  O   UNL A   1      48.422  26.532  21.014  1.00  0.00    -0.237 OA
ATOM     81  O   UNL A   1      46.903  28.445  21.420  1.00  0.00    -0.237 OA
ATOM     82  O   UNL A   1      49.344  28.750  21.580  1.00  0.00    -0.744 OA
ENDBRANCH  75  79
ENDBRANCH  48  72
BRANCH  60  83
ATOM     83  C   UNL A   1      45.337  33.042  29.291  1.00  0.00     0.023 A 
ATOM     84  C   UNL A   1      45.331  34.201  28.496  1.00  0.00     0.031 A 
ATOM     85  C   UNL A   1      46.136  33.037  30.449  1.00  0.00     0.131 A 
ATOM     86  C   UNL A   1      46.150  35.289  28.840  1.00  0.00     0.055 A 
ATOM     87  C   UNL A   1      46.903  34.142  30.816  1.00  0.00     0.041 A 
ATOM     88  F   UNL A   1      46.181  31.954  31.242  1.00  0.00    -0.206 F 
ATOM     89  C   UNL A   1      46.923  35.272  30.003  1.00  0.00     0.022 A 
BRANCH  86  90
ATOM     90  S   UNL A   1      46.261  36.692  27.697  1.00  0.00     0.124 S 
ATOM     91  O   UNL A   1      44.953  36.659  27.049  1.00  0.00    -0.237 OA
ATOM     92  O   UNL A   1      46.498  37.813  28.599  1.00  0.00    -0.237 OA
ATOM     93  O   UNL A   1      47.388  36.343  26.833  1.00  0.00    -0.744 OA
ENDBRANCH  86  90
ENDBRANCH  60  83
ENDBRANCH  34  35
ENDBRANCH  26  29
ENDBRANCH  24  25
ENDBRANCH   1  24
TORSDOF 16
ENDMDL
MODEL 3
REMARK VINA RESULT:     -11.7      3.874      9.152
REMARK SMILES CO[C@@H]1C[C@H](C(=O)NCCCNC(=O)c2ccc(-c3c4nc(c(-c5cc(S(=O)(=O)[O-])ccc5F)c5ccc([nH]5)c(-c5cc(S(=O)(=O)[O-])ccc5F)c5nc(c(-c6cc(S(=O)(=O)[O-])ccc6F)c6ccc3[nH]6)C=C5)C=C4)cc2)N(C(=O)c2ccn(C)c(=O)c2)C1
REMARK SMILES IDX 10 1 9 2 8 3 6 4 7 5 5 7 3 8 4 9 89 10 78 11 2 12 1 13 79 14
REMARK SMILES IDX 80 15 81 16 82 17 88 18 83 19 86 20 84 21 87 22 85 23 11 24
REMARK SMILES IDX 12 25 13 26 14 28 15 29 16 30 77 31 17 32 76 33 18 34 19 35
REMARK SMILES IDX 20 36 70 37 21 38 75 39 69 40 71 41 22 42 74 43 68 44 67 45
REMARK SMILES IDX 23 47 55 48 35 49 54 50 36 51 39 52 53 53 72 54 37 55 38 56
REMARK SMILES IDX 52 58 73 59 40 60 24 61 25 62 33 63 26 64 32 65 34 66 31 67
REMARK SMILES IDX 27 68 28 69 29 70 30 71 56 72 57 73 65 74 58 75 64 76 66 77
REMARK SMILES IDX 63 78 59 79 60 80 61 81 62 82 41 83 42 84 50 85 43 86 49 87
REMARK SMILES IDX 51 88 48 89 44 90 45 91 46 92 47 93
REMARK H PARENT 8 6 12 27 71 46 39 57
REMARK Flexibility Score: inf
ROOT
ATOM      1  C   UNL A   1      31.759  28.136  27.274  1.00  0.00     0.042 C 
ENDROOT
BRANCH   1   2
ATOM      2  C   UNL A   1      31.430  27.004  26.297  1.00  0.00     0.117 C 
BRANCH   2   3
ATOM      3  N   UNL A   1      31.790  25.703  26.839  1.00  0.00    -0.354 N 
ATOM      4  C   UNL A   1      32.289  24.562  26.306  1.00  0.00     0.242 C 
ATOM      5  O   UNL A   1      32.320  23.593  27.081  1.00  0.00    -0.273 OA
ATOM      6  H   UNL A   1      31.638  25.637  27.809  1.00  0.00     0.163 HD
BRANCH   4   7
ATOM      7  C   UNL A   1      32.721  24.325  24.835  1.00  0.00     0.177 C 
ATOM      8  C   UNL A   1      35.104  24.335  24.554  1.00  0.00     0.139 C 
ATOM      9  C   UNL A   1      33.872  25.222  24.390  1.00  0.00     0.069 C 
ATOM     10  C   UNL A   1      34.577  22.928  24.208  1.00  0.00     0.152 C 
ATOM     11  N   UNL A   1      33.122  23.009  24.349  1.00  0.00    -0.324 N 
BRANCH   8  12
ATOM     12  O   UNL A   1      35.615  24.352  25.882  1.00  0.00    -0.380 OA
ATOM     13  C   UNL A   1      36.873  23.696  26.028  1.00  0.00     0.195 C 
ENDBRANCH   8  12
BRANCH  11  14
ATOM     14  C   UNL A   1      32.322  22.081  23.706  1.00  0.00     0.254 C 
ATOM     15  O   UNL A   1      31.372  22.382  22.990  1.00  0.00    -0.269 OA
BRANCH  14  16
ATOM     16  C   UNL A   1      32.565  20.652  24.052  1.00  0.00     0.046 A 
ATOM     17  C   UNL A   1      32.817  20.215  25.400  1.00  0.00     0.032 A 
ATOM     18  C   UNL A   1      32.529  19.775  23.036  1.00  0.00     0.085 A 
ATOM     19  C   UNL A   1      32.906  18.904  25.659  1.00  0.00     0.089 A 
ATOM     20  C   UNL A   1      32.607  18.320  23.314  1.00  0.00     0.251 A 
ATOM     21  N   UNL A   1      32.770  17.962  24.651  1.00  0.00    -0.319 N 
ATOM     22  O   UNL A   1      32.500  17.534  22.378  1.00  0.00    -0.269 OA
ATOM     23  C   UNL A   1      32.807  16.551  24.998  1.00  0.00     0.153 C 
ENDBRANCH  14  16
ENDBRANCH  11  14
ENDBRANCH   4   7
ENDBRANCH   2   3
ENDBRANCH   1   2
BRANCH   1  24
ATOM     24  C   UNL A   1      33.207  28.617  27.238  1.00  0.00     0.118 C 
BRANCH  24  25
ATOM     25  N   UNL A   1      33.313  30.065  27.295  1.00  0.00    -0.352 N 
ATOM     26  C   UNL A   1      34.278  30.871  27.853  1.00  0.00     0.251 C 
ATOM     27  H   UNL A   1      32.572  30.548  26.862  1.00  0.00     0.163 HD
ATOM     28  O   UNL A   1      34.041  32.071  27.971  1.00  0.00    -0.269 OA
BRANCH  26  29
ATOM     29  C   UNL A   1      35.578  30.328  28.329  1.00  0.00     0.039 A 
ATOM     30  C   UNL A   1      36.682  30.384  27.470  1.00  0.00     0.014 A 
ATOM     31  C   UNL A   1      35.714  29.702  29.570  1.00  0.00     0.014 A 
ATOM     32  C   UNL A   1      37.920  29.869  27.874  1.00  0.00     0.010 A 
ATOM     33  C   UNL A   1      36.968  29.264  30.006  1.00  0.00     0.010 A 
ATOM     34  C   UNL A   1      38.086  29.330  29.159  1.00  0.00    -0.014 A 
BRANCH  34  35
ATOM     35  C   UNL A   1      39.404  28.811  29.622  1.00  0.00     0.031 A 
ATOM     36  C   UNL A   1      40.151  29.509  30.731  1.00  0.00     0.074 A 
ATOM     37  C   UNL A   1      39.963  27.747  29.011  1.00  0.00     0.049 A 
ATOM     38  N   UNL A   1      41.347  29.269  31.210  1.00  0.00    -0.248 NA
ATOM     39  C   UNL A   1      39.473  30.651  31.362  1.00  0.00     0.031 C 
ATOM     40  C   UNL A   1      39.366  27.001  27.900  1.00  0.00     0.029 A 
ATOM     41  N   UNL A   1      41.163  27.111  29.225  1.00  0.00    -0.354 N 
ATOM     42  C   UNL A   1      41.573  30.241  32.179  1.00  0.00     0.074 A 
ATOM     43  C   UNL A   1      40.413  31.109  32.175  1.00  0.00     0.031 C 
ATOM     44  C   UNL A   1      40.188  26.000  27.549  1.00  0.00     0.029 A 
ATOM     45  C   UNL A   1      41.393  26.057  28.371  1.00  0.00     0.049 A 
ATOM     46  H   UNL A   1      41.798  27.385  29.925  1.00  0.00     0.167 HD
ATOM     47  C   UNL A   1      42.636  30.388  33.010  1.00  0.00     0.034 A 
ATOM     48  C   UNL A   1      42.456  25.237  28.252  1.00  0.00     0.034 A 
ATOM     49  C   UNL A   1      43.775  29.501  33.022  1.00  0.00     0.049 A 
ATOM     50  C   UNL A   1      43.632  25.422  29.177  1.00  0.00     0.074 A 
ATOM     51  C   UNL A   1      44.874  29.518  33.865  1.00  0.00     0.029 A 
ATOM     52  N   UNL A   1      43.969  28.440  32.144  1.00  0.00    -0.354 N 
ATOM     53  N   UNL A   1      43.809  26.320  30.118  1.00  0.00    -0.248 NA
ATOM     54  C   UNL A   1      44.746  24.476  29.030  1.00  0.00     0.031 C 
ATOM     55  C   UNL A   1      45.758  28.512  33.457  1.00  0.00     0.029 A 
ATOM     56  C   UNL A   1      45.181  27.819  32.406  1.00  0.00     0.049 A 
ATOM     57  H   UNL A   1      43.337  28.171  31.440  1.00  0.00     0.167 HD
ATOM     58  C   UNL A   1      45.044  26.030  30.692  1.00  0.00     0.074 A 
ATOM     59  C   UNL A   1      45.558  24.865  30.002  1.00  0.00     0.031 C 
ATOM     60  C   UNL A   1      45.692  26.667  31.700  1.00  0.00     0.034 A 
BRANCH  47  61
ATOM     61  C   UNL A   1      42.623  31.567  33.956  1.00  0.00     0.023 A 
ATOM     62  C   UNL A   1      42.115  31.464  35.263  1.00  0.00     0.031 A 
ATOM     63  C   UNL A   1      43.094  32.824  33.536  1.00  0.00     0.131 A 
ATOM     64  C   UNL A   1      42.008  32.608  36.069  1.00  0.00     0.055 A 
ATOM     65  C   UNL A   1      43.067  33.942  34.374  1.00  0.00     0.041 A 
ATOM     66  F   UNL A   1      43.576  32.993  32.294  1.00  0.00    -0.206 F 
ATOM     67  C   UNL A   1      42.504  33.842  35.642  1.00  0.00     0.022 A 
BRANCH  64  68
ATOM     68  S   UNL A   1      41.070  32.492  37.616  1.00  0.00     0.124 S 
ATOM     69  O   UNL A   1      41.902  31.579  38.397  1.00  0.00    -0.237 OA
ATOM     70  O   UNL A   1      41.039  33.876  38.072  1.00  0.00    -0.237 OA
ATOM     71  O   UNL A   1      39.782  31.943  37.196  1.00  0.00    -0.744 OA
ENDBRANCH  64  68
ENDBRANCH  47  61
BRANCH  48  72
ATOM     72  C   UNL A   1      42.472  24.173  27.206  1.00  0.00     0.023 A 
ATOM     73  C   UNL A   1      41.647  23.043  27.312  1.00  0.00     0.031 A 
ATOM     74  C   UNL A   1      43.337  24.258  26.101  1.00  0.00     0.131 A 
ATOM     75  C   UNL A   1      41.732  22.022  26.351  1.00  0.00     0.055 A 
ATOM     76  C   UNL A   1      43.382  23.264  25.121  1.00  0.00     0.041 A 
ATOM     77  F   UNL A   1      44.143  25.321  25.949  1.00  0.00    -0.206 F 
ATOM     78  C   UNL A   1      42.584  22.132  25.251  1.00  0.00     0.022 A 
BRANCH  75  79
ATOM     79  S   UNL A   1      40.760  20.511  26.600  1.00  0.00     0.124 S 
ATOM     80  O   UNL A   1      40.801  20.366  28.050  1.00  0.00    -0.237 OA
ATOM     81  O   UNL A   1      39.470  20.883  26.027  1.00  0.00    -0.237 OA
ATOM     82  O   UNL A   1      41.503  19.501  25.848  1.00  0.00    -0.744 OA
ENDBRANCH  75  79
ENDBRANCH  48  72
BRANCH  60  83
ATOM     83  C   UNL A   1      47.015  26.087  32.138  1.00  0.00     0.023 A 
ATOM     84  C   UNL A   1      48.201  26.326  31.422  1.00  0.00     0.031 A 
ATOM     85  C   UNL A   1      47.085  25.267  33.279  1.00  0.00     0.131 A 
ATOM     86  C   UNL A   1      49.396  25.709  31.824  1.00  0.00     0.055 A 
ATOM     87  C   UNL A   1      48.287  24.704  33.707  1.00  0.00     0.041 A 
ATOM     88  F   UNL A   1      45.982  25.003  33.998  1.00  0.00    -0.206 F 
ATOM     89  C   UNL A   1      49.449  24.913  32.970  1.00  0.00     0.022 A 
BRANCH  86  90
ATOM     90  S   UNL A   1      50.865  25.889  30.774  1.00  0.00     0.124 S 
ATOM     91  O   UNL A   1      51.887  25.210  31.564  1.00  0.00    -0.237 OA
ATOM     92  O   UNL A   1      50.456  25.216  29.546  1.00  0.00    -0.237 OA
ATOM     93  O   UNL A   1      51.030  27.337  30.661  1.00  0.00    -0.744 OA
ENDBRANCH  86  90
ENDBRANCH  60  83
ENDBRANCH  34  35
ENDBRANCH  26  29
ENDBRANCH  24  25
ENDBRANCH   1  24
TORSDOF 16
ENDMDL
