MODEL 1
REMARK VINA RESULT:      -9.8      0.000      0.000
REMARK SMILES CCCC(=O)N(c1cc2sc(=O)oc2c2ccccc12)S(=O)(=O)c1ccc(C(=O)NCCCNC(=O)c2ccc(-c3c4nc(c(-c5cc(S(=O)(=O)[O-])ccc5F)c5ccc([nH]5)c(-c5cc(S(=O)(=O)[O-])ccc5F)c5nc(c(-c6cc(S(=O)(=O)[O-])ccc6F)c6ccc3[nH]6)C=C5)C=C4)cc2)cc1
REMARK SMILES IDX 31 1 30 2 28 3 29 4 27 6 24 7 25 8 101 9 26 10 100 11 21 12
REMARK SMILES IDX 22 13 23 14 6 15 4 16 5 17 3 18 2 19 1 20 7 21 8 22 20 23
REMARK SMILES IDX 9 24 15 25 19 26 10 27 14 28 16 29 18 30 11 31 13 32 17 33
REMARK SMILES IDX 12 34 32 35 33 36 34 37 35 38 36 40 37 41 38 42 99 43 39 44
REMARK SMILES IDX 98 45 40 46 41 47 42 48 92 49 43 50 97 51 91 52 93 53 44 54
REMARK SMILES IDX 96 55 90 56 89 57 45 59 77 60 57 61 76 62 58 63 61 64 75 65
REMARK SMILES IDX 94 66 59 67 60 68 74 70 95 71 62 72 46 73 47 74 55 75 48 76
REMARK SMILES IDX 54 77 56 78 53 79 49 80 50 81 51 82 52 83 78 84 79 85 87 86
REMARK SMILES IDX 80 87 86 88 88 89 85 90 81 91 82 92 83 93 84 94 63 95 64 96
REMARK SMILES IDX 72 97 65 98 71 99 73 100 70 101 66 102 67 103 68 104 69 105
REMARK H PARENT 30 5 34 39 93 58 61 69
REMARK Flexibility Score: inf
ROOT
ATOM      1  C   UNL A   1      44.437  28.285  37.032  1.00  0.00     0.118 C 
ENDROOT
BRANCH   1   2
ATOM      2  N   UNL A   1      44.864  29.188  35.969  1.00  0.00    -0.352 N 
ATOM      3  C   UNL A   1      44.236  29.903  34.989  1.00  0.00     0.251 C 
ATOM      4  O   UNL A   1      44.969  30.481  34.180  1.00  0.00    -0.269 OA
ATOM      5  H   UNL A   1      45.841  29.310  35.953  1.00  0.00     0.163 HD
BRANCH   3   6
ATOM      6  C   UNL A   1      42.761  30.006  34.810  1.00  0.00     0.039 A 
ATOM      7  C   UNL A   1      39.985  30.403  34.633  1.00  0.00     0.088 A 
ATOM      8  C   UNL A   1      40.683  30.877  35.745  1.00  0.00     0.023 A 
ATOM      9  C   UNL A   1      40.640  29.645  33.663  1.00  0.00     0.023 A 
ATOM     10  C   UNL A   1      42.064  30.705  35.813  1.00  0.00     0.015 A 
ATOM     11  C   UNL A   1      42.019  29.419  33.779  1.00  0.00     0.015 A 
BRANCH   7  12
ATOM     12  S   UNL A   1      38.231  30.720  34.538  1.00  0.00     0.270 S 
ATOM     13  O   UNL A   1      37.821  31.045  35.885  1.00  0.00    -0.201 OA
ATOM     14  O   UNL A   1      37.647  29.596  33.825  1.00  0.00    -0.201 OA
BRANCH  12  15
ATOM     15  N   UNL A   1      38.060  32.092  33.545  1.00  0.00    -0.202 N 
BRANCH  15  16
ATOM     16  C   UNL A   1      36.737  32.554  33.249  1.00  0.00     0.241 C 
ATOM     17  O   UNL A   1      35.905  32.749  34.133  1.00  0.00    -0.273 OA
BRANCH  16  18
ATOM     18  C   UNL A   1      36.334  32.765  31.797  1.00  0.00     0.101 C 
BRANCH  18  19
ATOM     19  C   UNL A   1      34.822  32.783  31.575  1.00  0.00     0.006 C 
ATOM     20  C   UNL A   1      34.318  34.158  31.151  1.00  0.00     0.004 C 
ENDBRANCH  18  19
ENDBRANCH  16  18
ENDBRANCH  15  16
BRANCH  15  21
ATOM     21  C   UNL A   1      39.149  33.034  33.448  1.00  0.00     0.070 A 
ATOM     22  C   UNL A   1      39.275  33.943  34.513  1.00  0.00     0.051 A 
ATOM     23  C   UNL A   1      40.071  33.062  32.349  1.00  0.00     0.010 A 
ATOM     24  C   UNL A   1      40.306  34.863  34.498  1.00  0.00     0.080 A 
ATOM     25  C   UNL A   1      41.191  33.935  32.423  1.00  0.00     0.028 A 
ATOM     26  C   UNL A   1      39.975  32.232  31.206  1.00  0.00     0.011 A 
ATOM     27  S   UNL A   1      40.640  36.129  35.660  1.00  0.00    -0.052 S 
ATOM     28  C   UNL A   1      41.257  34.843  33.488  1.00  0.00     0.157 A 
ATOM     29  C   UNL A   1      42.221  33.845  31.466  1.00  0.00     0.013 A 
ATOM     30  C   UNL A   1      41.012  32.149  30.270  1.00  0.00     0.001 A 
ATOM     31  C   UNL A   1      42.067  36.563  34.717  1.00  0.00     0.396 A 
ATOM     32  O   UNL A   1      42.295  35.778  33.587  1.00  0.00    -0.413 OA
ATOM     33  C   UNL A   1      42.149  32.931  30.419  1.00  0.00     0.001 A 
ATOM     34  O   UNL A   1      42.797  37.497  35.018  1.00  0.00    -0.233 OA
ENDBRANCH  15  21
ENDBRANCH  12  15
ENDBRANCH   7  12
ENDBRANCH   3   6
ENDBRANCH   1   2
BRANCH   1  35
ATOM     35  C   UNL A   1      44.267  26.853  36.542  1.00  0.00     0.042 C 
BRANCH  35  36
ATOM     36  C   UNL A   1      45.511  25.994  36.752  1.00  0.00     0.118 C 
BRANCH  36  37
ATOM     37  N   UNL A   1      45.355  24.599  36.361  1.00  0.00    -0.352 N 
ATOM     38  C   UNL A   1      45.400  24.024  35.110  1.00  0.00     0.251 C 
ATOM     39  H   UNL A   1      45.193  23.972  37.103  1.00  0.00     0.163 HD
ATOM     40  O   UNL A   1      45.246  22.813  34.984  1.00  0.00    -0.269 OA
BRANCH  38  41
ATOM     41  C   UNL A   1      45.564  24.891  33.929  1.00  0.00     0.039 A 
ATOM     42  C   UNL A   1      44.470  25.189  33.113  1.00  0.00     0.014 A 
ATOM     43  C   UNL A   1      46.848  25.329  33.593  1.00  0.00     0.014 A 
ATOM     44  C   UNL A   1      44.676  25.780  31.879  1.00  0.00     0.010 A 
ATOM     45  C   UNL A   1      47.048  25.974  32.376  1.00  0.00     0.010 A 
ATOM     46  C   UNL A   1      45.964  26.170  31.508  1.00  0.00    -0.014 A 
BRANCH  46  47
ATOM     47  C   UNL A   1      46.062  26.951  30.269  1.00  0.00     0.031 A 
ATOM     48  C   UNL A   1      46.110  26.074  29.064  1.00  0.00     0.074 A 
ATOM     49  C   UNL A   1      45.639  28.231  30.200  1.00  0.00     0.049 A 
ATOM     50  N   UNL A   1      45.023  25.516  28.628  1.00  0.00    -0.248 NA
ATOM     51  C   UNL A   1      47.325  25.480  28.514  1.00  0.00     0.031 C 
ATOM     52  C   UNL A   1      44.561  28.780  31.038  1.00  0.00     0.029 A 
ATOM     53  N   UNL A   1      45.887  29.221  29.277  1.00  0.00    -0.354 N 
ATOM     54  C   UNL A   1      45.380  24.473  27.790  1.00  0.00     0.074 A 
ATOM     55  C   UNL A   1      46.823  24.502  27.735  1.00  0.00     0.031 C 
ATOM     56  C   UNL A   1      44.115  29.921  30.475  1.00  0.00     0.029 A 
ATOM     57  C   UNL A   1      44.956  30.258  29.329  1.00  0.00     0.049 A 
ATOM     58  H   UNL A   1      46.643  29.201  28.647  1.00  0.00     0.167 HD
ATOM     59  C   UNL A   1      44.430  23.707  27.180  1.00  0.00     0.034 A 
ATOM     60  C   UNL A   1      44.533  30.949  28.237  1.00  0.00     0.034 A 
ATOM     61  C   UNL A   1      43.064  24.113  27.447  1.00  0.00     0.049 A 
ATOM     62  C   UNL A   1      43.676  29.901  27.555  1.00  0.00     0.074 A 
ATOM     63  C   UNL A   1      41.867  23.604  27.894  1.00  0.00     0.029 A 
ATOM     64  N   UNL A   1      42.846  25.447  27.239  1.00  0.00    -0.354 N 
ATOM     65  N   UNL A   1      42.473  29.533  27.913  1.00  0.00    -0.248 NA
ATOM     66  C   UNL A   1      44.293  29.033  26.541  1.00  0.00     0.031 C 
ATOM     67  C   UNL A   1      40.976  24.725  28.061  1.00  0.00     0.029 A 
ATOM     68  C   UNL A   1      41.644  25.890  27.695  1.00  0.00     0.049 A 
ATOM     69  H   UNL A   1      43.503  26.035  26.799  1.00  0.00     0.167 HD
ATOM     70  C   UNL A   1      42.296  28.263  27.362  1.00  0.00     0.074 A 
ATOM     71  C   UNL A   1      43.358  28.106  26.389  1.00  0.00     0.031 C 
ATOM     72  C   UNL A   1      41.438  27.322  27.862  1.00  0.00     0.034 A 
BRANCH  59  73
ATOM     73  C   UNL A   1      44.715  22.832  26.015  1.00  0.00     0.023 A 
ATOM     74  C   UNL A   1      45.021  21.468  26.091  1.00  0.00     0.031 A 
ATOM     75  C   UNL A   1      44.525  23.409  24.741  1.00  0.00     0.131 A 
ATOM     76  C   UNL A   1      45.104  20.722  24.898  1.00  0.00     0.055 A 
ATOM     77  C   UNL A   1      44.589  22.664  23.569  1.00  0.00     0.041 A 
ATOM     78  F   UNL A   1      44.253  24.720  24.625  1.00  0.00    -0.206 F 
ATOM     79  C   UNL A   1      44.874  21.309  23.645  1.00  0.00     0.022 A 
BRANCH  76  80
ATOM     80  S   UNL A   1      45.496  18.949  24.901  1.00  0.00     0.124 S 
ATOM     81  O   UNL A   1      45.638  18.659  23.476  1.00  0.00    -0.237 OA
ATOM     82  O   UNL A   1      46.737  18.915  25.672  1.00  0.00    -0.237 OA
ATOM     83  O   UNL A   1      44.341  18.339  25.552  1.00  0.00    -0.744 OA
ENDBRANCH  76  80
ENDBRANCH  59  73
BRANCH  60  84
ATOM     84  C   UNL A   1      45.595  31.738  27.520  1.00  0.00     0.023 A 
ATOM     85  C   UNL A   1      46.903  31.282  27.312  1.00  0.00     0.031 A 
ATOM     86  C   UNL A   1      45.303  33.042  27.061  1.00  0.00     0.131 A 
ATOM     87  C   UNL A   1      47.908  32.177  26.922  1.00  0.00     0.055 A 
ATOM     88  C   UNL A   1      46.292  33.908  26.583  1.00  0.00     0.041 A 
ATOM     89  F   UNL A   1      44.042  33.508  27.087  1.00  0.00    -0.206 F 
ATOM     90  C   UNL A   1      47.615  33.492  26.560  1.00  0.00     0.022 A 
BRANCH  87  91
ATOM     91  S   UNL A   1      49.652  31.681  27.016  1.00  0.00     0.124 S 
ATOM     92  O   UNL A   1      49.604  30.287  26.585  1.00  0.00    -0.237 OA
ATOM     93  O   UNL A   1      50.259  32.617  26.074  1.00  0.00    -0.237 OA
ATOM     94  O   UNL A   1      49.986  31.894  28.419  1.00  0.00    -0.744 OA
ENDBRANCH  87  91
ENDBRANCH  60  84
BRANCH  72  95
ATOM     95  C   UNL A   1      40.319  27.824  28.713  1.00  0.00     0.023 A 
ATOM     96  C   UNL A   1      39.199  28.474  28.165  1.00  0.00     0.031 A 
ATOM     97  C   UNL A   1      40.447  27.777  30.113  1.00  0.00     0.131 A 
ATOM     98  C   UNL A   1      38.278  29.096  29.018  1.00  0.00     0.055 A 
ATOM     99  C   UNL A   1      39.498  28.350  30.956  1.00  0.00     0.041 A 
ATOM    100  F   UNL A   1      41.531  27.226  30.686  1.00  0.00    -0.206 F 
ATOM    101  C   UNL A   1      38.414  29.025  30.409  1.00  0.00     0.022 A 
BRANCH  98 102
ATOM    102  S   UNL A   1      36.907  30.082  28.356  1.00  0.00     0.124 S 
ATOM    103  O   UNL A   1      37.253  31.434  28.792  1.00  0.00    -0.237 OA
ATOM    104  O   UNL A   1      37.031  29.838  26.921  1.00  0.00    -0.237 OA
ATOM    105  O   UNL A   1      35.722  29.517  28.993  1.00  0.00    -0.744 OA
ENDBRANCH  98 102
ENDBRANCH  72  95
ENDBRANCH  46  47
ENDBRANCH  38  41
ENDBRANCH  36  37
ENDBRANCH  35  36
ENDBRANCH   1  35
TORSDOF 19
ENDMDL
MODEL 2
REMARK VINA RESULT:      -9.7      5.058     10.618
REMARK SMILES CCCC(=O)N(c1cc2sc(=O)oc2c2ccccc12)S(=O)(=O)c1ccc(C(=O)NCCCNC(=O)c2ccc(-c3c4nc(c(-c5cc(S(=O)(=O)[O-])ccc5F)c5ccc([nH]5)c(-c5cc(S(=O)(=O)[O-])ccc5F)c5nc(c(-c6cc(S(=O)(=O)[O-])ccc6F)c6ccc3[nH]6)C=C5)C=C4)cc2)cc1
REMARK SMILES IDX 31 1 30 2 28 3 29 4 27 6 24 7 25 8 101 9 26 10 100 11 21 12
REMARK SMILES IDX 22 13 23 14 6 15 4 16 5 17 3 18 2 19 1 20 7 21 8 22 20 23
REMARK SMILES IDX 9 24 15 25 19 26 10 27 14 28 16 29 18 30 11 31 13 32 17 33
REMARK SMILES IDX 12 34 32 35 33 36 34 37 35 38 36 40 37 41 38 42 99 43 39 44
REMARK SMILES IDX 98 45 40 46 41 47 42 48 92 49 43 50 97 51 91 52 93 53 44 54
REMARK SMILES IDX 96 55 90 56 89 57 45 59 77 60 57 61 76 62 58 63 61 64 75 65
REMARK SMILES IDX 94 66 59 67 60 68 74 70 95 71 62 72 46 73 47 74 55 75 48 76
REMARK SMILES IDX 54 77 56 78 53 79 49 80 50 81 51 82 52 83 78 84 79 85 87 86
REMARK SMILES IDX 80 87 86 88 88 89 85 90 81 91 82 92 83 93 84 94 63 95 64 96
REMARK SMILES IDX 72 97 65 98 71 99 73 100 70 101 66 102 67 103 68 104 69 105
REMARK H PARENT 30 5 34 39 93 58 61 69
REMARK Flexibility Score: inf
ROOT
ATOM      1  C   UNL A   1      35.603  29.882  27.541  1.00  0.00     0.118 C 
ENDROOT
BRANCH   1   2
ATOM      2  N   UNL A   1      34.357  30.374  26.965  1.00  0.00    -0.352 N 
ATOM      3  C   UNL A   1      33.239  29.799  26.427  1.00  0.00     0.251 C 
ATOM      4  O   UNL A   1      32.418  30.571  25.923  1.00  0.00    -0.269 OA
ATOM      5  H   UNL A   1      34.310  31.357  26.960  1.00  0.00     0.163 HD
BRANCH   3   6
ATOM      6  C   UNL A   1      32.962  28.336  26.379  1.00  0.00     0.039 A 
ATOM      7  C   UNL A   1      32.189  25.637  26.288  1.00  0.00     0.088 A 
ATOM      8  C   UNL A   1      31.304  26.594  26.787  1.00  0.00     0.023 A 
ATOM      9  C   UNL A   1      33.489  25.998  25.933  1.00  0.00     0.023 A 
ATOM     10  C   UNL A   1      31.681  27.935  26.800  1.00  0.00     0.015 A 
ATOM     11  C   UNL A   1      33.879  27.342  26.019  1.00  0.00     0.015 A 
BRANCH   7  12
ATOM     12  S   UNL A   1      31.640  23.941  26.201  1.00  0.00     0.270 S 
ATOM     13  O   UNL A   1      30.201  24.004  26.083  1.00  0.00    -0.201 OA
ATOM     14  O   UNL A   1      32.272  23.245  27.309  1.00  0.00    -0.201 OA
BRANCH  12  15
ATOM     15  N   UNL A   1      32.301  23.311  24.764  1.00  0.00    -0.202 N 
BRANCH  15  16
ATOM     16  C   UNL A   1      31.983  23.963  23.530  1.00  0.00     0.241 C 
ATOM     17  O   UNL A   1      30.822  24.198  23.199  1.00  0.00    -0.273 OA
BRANCH  16  18
ATOM     18  C   UNL A   1      33.111  24.333  22.577  1.00  0.00     0.101 C 
BRANCH  18  19
ATOM     19  C   UNL A   1      32.964  25.725  21.962  1.00  0.00     0.006 C 
ATOM     20  C   UNL A   1      32.504  25.668  20.510  1.00  0.00     0.004 C 
ENDBRANCH  18  19
ENDBRANCH  16  18
ENDBRANCH  15  16
BRANCH  15  21
ATOM     21  C   UNL A   1      33.507  22.522  24.829  1.00  0.00     0.070 A 
ATOM     22  C   UNL A   1      34.681  23.216  25.168  1.00  0.00     0.051 A 
ATOM     23  C   UNL A   1      33.539  21.110  24.574  1.00  0.00     0.010 A 
ATOM     24  C   UNL A   1      35.872  22.522  25.267  1.00  0.00     0.080 A 
ATOM     25  C   UNL A   1      34.752  20.405  24.805  1.00  0.00     0.028 A 
ATOM     26  C   UNL A   1      32.420  20.348  24.160  1.00  0.00     0.011 A 
ATOM     27  S   UNL A   1      37.467  23.158  25.610  1.00  0.00    -0.052 S 
ATOM     28  C   UNL A   1      35.902  21.144  25.114  1.00  0.00     0.157 A 
ATOM     29  C   UNL A   1      34.769  18.997  24.765  1.00  0.00     0.013 A 
ATOM     30  C   UNL A   1      32.453  18.950  24.134  1.00  0.00     0.001 A 
ATOM     31  C   UNL A   1      38.095  21.511  25.538  1.00  0.00     0.396 A 
ATOM     32  O   UNL A   1      37.146  20.521  25.285  1.00  0.00    -0.413 OA
ATOM     33  C   UNL A   1      33.617  18.274  24.469  1.00  0.00     0.001 A 
ATOM     34  O   UNL A   1      39.283  21.252  25.679  1.00  0.00    -0.233 OA
ENDBRANCH  15  21
ENDBRANCH  12  15
ENDBRANCH   7  12
ENDBRANCH   3   6
ENDBRANCH   1   2
BRANCH   1  35
ATOM     35  C   UNL A   1      35.859  30.447  28.932  1.00  0.00     0.042 C 
BRANCH  35  36
ATOM     36  C   UNL A   1      37.045  29.795  29.638  1.00  0.00     0.118 C 
BRANCH  36  37
ATOM     37  N   UNL A   1      36.763  29.324  30.987  1.00  0.00    -0.352 N 
ATOM     38  C   UNL A   1      37.631  28.967  31.996  1.00  0.00     0.251 C 
ATOM     39  H   UNL A   1      35.807  29.251  31.213  1.00  0.00     0.163 HD
ATOM     40  O   UNL A   1      37.194  28.592  33.079  1.00  0.00    -0.269 OA
BRANCH  38  41
ATOM     41  C   UNL A   1      39.080  28.973  31.728  1.00  0.00     0.039 A 
ATOM     42  C   UNL A   1      39.835  30.129  31.943  1.00  0.00     0.014 A 
ATOM     43  C   UNL A   1      39.662  27.833  31.167  1.00  0.00     0.014 A 
ATOM     44  C   UNL A   1      41.126  30.207  31.451  1.00  0.00     0.010 A 
ATOM     45  C   UNL A   1      40.979  27.893  30.722  1.00  0.00     0.010 A 
ATOM     46  C   UNL A   1      41.698  29.092  30.837  1.00  0.00    -0.014 A 
BRANCH  46  47
ATOM     47  C   UNL A   1      43.125  29.205  30.512  1.00  0.00     0.031 A 
ATOM     48  C   UNL A   1      43.983  28.619  31.580  1.00  0.00     0.074 A 
ATOM     49  C   UNL A   1      43.557  29.326  29.239  1.00  0.00     0.049 A 
ATOM     50  N   UNL A   1      44.107  27.331  31.676  1.00  0.00    -0.248 NA
ATOM     51  C   UNL A   1      44.434  29.332  32.772  1.00  0.00     0.031 C 
ATOM     52  C   UNL A   1      42.834  28.782  28.078  1.00  0.00     0.029 A 
ATOM     53  N   UNL A   1      44.768  29.729  28.724  1.00  0.00    -0.354 N 
ATOM     54  C   UNL A   1      44.599  27.038  32.937  1.00  0.00     0.074 A 
ATOM     55  C   UNL A   1      44.804  28.317  33.576  1.00  0.00     0.031 C 
ATOM     56  C   UNL A   1      43.684  28.712  27.034  1.00  0.00     0.029 A 
ATOM     57  C   UNL A   1      44.956  29.330  27.402  1.00  0.00     0.049 A 
ATOM     58  H   UNL A   1      45.431  30.245  29.236  1.00  0.00     0.167 HD
ATOM     59  C   UNL A   1      44.832  25.748  33.315  1.00  0.00     0.034 A 
ATOM     60  C   UNL A   1      46.164  28.979  26.884  1.00  0.00     0.034 A 
ATOM     61  C   UNL A   1      44.573  24.760  32.287  1.00  0.00     0.049 A 
ATOM     62  C   UNL A   1      46.385  27.642  27.564  1.00  0.00     0.074 A 
ATOM     63  C   UNL A   1      43.868  23.598  32.076  1.00  0.00     0.029 A 
ATOM     64  N   UNL A   1      45.174  25.052  31.093  1.00  0.00    -0.354 N 
ATOM     65  N   UNL A   1      45.809  26.510  27.251  1.00  0.00    -0.248 NA
ATOM     66  C   UNL A   1      47.124  27.609  28.835  1.00  0.00     0.031 C 
ATOM     67  C   UNL A   1      43.980  23.294  30.672  1.00  0.00     0.029 A 
ATOM     68  C   UNL A   1      44.765  24.268  30.060  1.00  0.00     0.049 A 
ATOM     69  H   UNL A   1      45.842  25.768  30.991  1.00  0.00     0.167 HD
ATOM     70  C   UNL A   1      45.904  25.719  28.397  1.00  0.00     0.074 A 
ATOM     71  C   UNL A   1      46.876  26.373  29.247  1.00  0.00     0.031 C 
ATOM     72  C   UNL A   1      45.045  24.696  28.697  1.00  0.00     0.034 A 
BRANCH  59  73
ATOM     73  C   UNL A   1      45.678  25.382  34.479  1.00  0.00     0.023 A 
ATOM     74  C   UNL A   1      47.071  25.239  34.448  1.00  0.00     0.031 A 
ATOM     75  C   UNL A   1      45.021  25.309  35.728  1.00  0.00     0.131 A 
ATOM     76  C   UNL A   1      47.762  25.054  35.662  1.00  0.00     0.055 A 
ATOM     77  C   UNL A   1      45.712  25.144  36.923  1.00  0.00     0.041 A 
ATOM     78  F   UNL A   1      43.684  25.416  35.797  1.00  0.00    -0.206 F 
ATOM     79  C   UNL A   1      47.093  25.022  36.894  1.00  0.00     0.022 A 
BRANCH  76  80
ATOM     80  S   UNL A   1      49.567  24.861  35.716  1.00  0.00     0.124 S 
ATOM     81  O   UNL A   1      50.019  26.229  35.955  1.00  0.00    -0.237 OA
ATOM     82  O   UNL A   1      49.739  23.942  36.839  1.00  0.00    -0.237 OA
ATOM     83  O   UNL A   1      49.898  24.311  34.406  1.00  0.00    -0.744 OA
ENDBRANCH  76  80
ENDBRANCH  59  73
BRANCH  60  84
ATOM     84  C   UNL A   1      47.199  30.070  26.860  1.00  0.00     0.023 A 
ATOM     85  C   UNL A   1      48.548  29.877  27.182  1.00  0.00     0.031 A 
ATOM     86  C   UNL A   1      46.809  31.392  26.547  1.00  0.00     0.131 A 
ATOM     87  C   UNL A   1      49.377  30.978  27.438  1.00  0.00     0.055 A 
ATOM     88  C   UNL A   1      47.665  32.486  26.713  1.00  0.00     0.041 A 
ATOM     89  F   UNL A   1      45.572  31.648  26.087  1.00  0.00    -0.206 F 
ATOM     90  C   UNL A   1      48.945  32.285  27.211  1.00  0.00     0.022 A 
BRANCH  87  91
ATOM     91  S   UNL A   1      50.999  30.733  28.213  1.00  0.00     0.124 S 
ATOM     92  O   UNL A   1      51.205  31.997  28.914  1.00  0.00    -0.237 OA
ATOM     93  O   UNL A   1      50.733  29.574  29.058  1.00  0.00    -0.237 OA
ATOM     94  O   UNL A   1      51.881  30.496  27.076  1.00  0.00    -0.744 OA
ENDBRANCH  87  91
ENDBRANCH  60  84
BRANCH  72  95
ATOM     95  C   UNL A   1      44.291  24.100  27.554  1.00  0.00     0.023 A 
ATOM     96  C   UNL A   1      44.855  23.119  26.720  1.00  0.00     0.031 A 
ATOM     97  C   UNL A   1      43.035  24.632  27.209  1.00  0.00     0.131 A 
ATOM     98  C   UNL A   1      44.181  22.738  25.552  1.00  0.00     0.055 A 
ATOM     99  C   UNL A   1      42.346  24.209  26.076  1.00  0.00     0.041 A 
ATOM    100  F   UNL A   1      42.484  25.619  27.935  1.00  0.00    -0.206 F 
ATOM    101  C   UNL A   1      42.925  23.268  25.233  1.00  0.00     0.022 A 
BRANCH  98 102
ATOM    102  S   UNL A   1      44.939  21.598  24.364  1.00  0.00     0.124 S 
ATOM    103  O   UNL A   1      46.357  21.673  24.715  1.00  0.00    -0.237 OA
ATOM    104  O   UNL A   1      44.281  20.337  24.698  1.00  0.00    -0.237 OA
ATOM    105  O   UNL A   1      44.600  22.162  23.062  1.00  0.00    -0.744 OA
ENDBRANCH  98 102
ENDBRANCH  72  95
ENDBRANCH  46  47
ENDBRANCH  38  41
ENDBRANCH  36  37
ENDBRANCH  35  36
ENDBRANCH   1  35
TORSDOF 19
ENDMDL
MODEL 3
REMARK VINA RESULT:      -9.6      5.089     12.050
REMARK SMILES CCCC(=O)N(c1cc2sc(=O)oc2c2ccccc12)S(=O)(=O)c1ccc(C(=O)NCCCNC(=O)c2ccc(-c3c4nc(c(-c5cc(S(=O)(=O)[O-])ccc5F)c5ccc([nH]5)c(-c5cc(S(=O)(=O)[O-])ccc5F)c5nc(c(-c6cc(S(=O)(=O)[O-])ccc6F)c6ccc3[nH]6)C=C5)C=C4)cc2)cc1
REMARK SMILES IDX 31 1 30 2 28 3 29 4 27 6 24 7 25 8 101 9 26 10 100 11 21 12
REMARK SMILES IDX 22 13 23 14 6 15 4 16 5 17 3 18 2 19 1 20 7 21 8 22 20 23
REMARK SMILES IDX 9 24 15 25 19 26 10 27 14 28 16 29 18 30 11 31 13 32 17 33
REMARK SMILES IDX 12 34 32 35 33 36 34 37 35 38 36 40 37 41 38 42 99 43 39 44
REMARK SMILES IDX 98 45 40 46 41 47 42 48 92 49 43 50 97 51 91 52 93 53 44 54
REMARK SMILES IDX 96 55 90 56 89 57 45 59 77 60 57 61 76 62 58 63 61 64 75 65
REMARK SMILES IDX 94 66 59 67 60 68 74 70 95 71 62 72 46 73 47 74 55 75 48 76
REMARK SMILES IDX 54 77 56 78 53 79 49 80 50 81 51 82 52 83 78 84 79 85 87 86
REMARK SMILES IDX 80 87 86 88 88 89 85 90 81 91 82 92 83 93 84 94 63 95 64 96
REMARK SMILES IDX 72 97 65 98 71 99 73 100 70 101 66 102 67 103 68 104 69 105
REMARK H PARENT 30 5 34 39 93 58 61 69
REMARK Flexibility Score: inf
ROOT
ATOM      1  C   UNL A   1      34.841  29.882  27.098  1.00  0.00     0.118 C 
ENDROOT
BRANCH   1   2
ATOM      2  N   UNL A   1      33.749  30.082  26.152  1.00  0.00    -0.352 N 
ATOM      3  C   UNL A   1      32.834  29.274  25.537  1.00  0.00     0.251 C 
ATOM      4  O   UNL A   1      32.117  29.810  24.686  1.00  0.00    -0.269 OA
ATOM      5  H   UNL A   1      33.646  31.027  25.894  1.00  0.00     0.163 HD
BRANCH   3   6
ATOM      6  C   UNL A   1      32.666  27.816  25.790  1.00  0.00     0.039 A 
ATOM      7  C   UNL A   1      32.103  25.093  26.193  1.00  0.00     0.088 A 
ATOM      8  C   UNL A   1      31.063  26.025  26.209  1.00  0.00     0.023 A 
ATOM      9  C   UNL A   1      33.427  25.519  26.083  1.00  0.00     0.023 A 
ATOM     10  C   UNL A   1      31.345  27.369  25.977  1.00  0.00     0.015 A 
ATOM     11  C   UNL A   1      33.701  26.884  25.922  1.00  0.00     0.015 A 
BRANCH   7  12
ATOM     12  S   UNL A   1      31.695  23.368  26.404  1.00  0.00     0.270 S 
ATOM     13  O   UNL A   1      30.266  23.330  26.615  1.00  0.00    -0.201 OA
ATOM     14  O   UNL A   1      32.616  22.845  27.399  1.00  0.00    -0.201 OA
BRANCH  12  15
ATOM     15  N   UNL A   1      32.071  22.618  24.922  1.00  0.00    -0.202 N 
BRANCH  15  16
ATOM     16  C   UNL A   1      31.925  23.382  23.720  1.00  0.00     0.241 C 
ATOM     17  O   UNL A   1      30.821  23.722  23.296  1.00  0.00    -0.273 OA
BRANCH  16  18
ATOM     18  C   UNL A   1      33.166  23.743  22.917  1.00  0.00     0.101 C 
BRANCH  18  19
ATOM     19  C   UNL A   1      32.921  24.812  21.852  1.00  0.00     0.006 C 
ATOM     20  C   UNL A   1      33.281  26.208  22.343  1.00  0.00     0.004 C 
ENDBRANCH  18  19
ENDBRANCH  16  18
ENDBRANCH  15  16
BRANCH  15  21
ATOM     21  C   UNL A   1      32.973  21.492  24.910  1.00  0.00     0.070 A 
ATOM     22  C   UNL A   1      32.387  20.234  24.693  1.00  0.00     0.051 A 
ATOM     23  C   UNL A   1      34.391  21.617  25.098  1.00  0.00     0.010 A 
ATOM     24  C   UNL A   1      33.192  19.111  24.650  1.00  0.00     0.080 A 
ATOM     25  C   UNL A   1      35.203  20.463  24.925  1.00  0.00     0.028 A 
ATOM     26  C   UNL A   1      35.053  22.834  25.391  1.00  0.00     0.011 A 
ATOM     27  S   UNL A   1      32.705  17.440  24.458  1.00  0.00    -0.052 S 
ATOM     28  C   UNL A   1      34.572  19.226  24.739  1.00  0.00     0.157 A 
ATOM     29  C   UNL A   1      36.606  20.585  24.898  1.00  0.00     0.013 A 
ATOM     30  C   UNL A   1      36.447  22.938  25.351  1.00  0.00     0.001 A 
ATOM     31  C   UNL A   1      34.409  16.982  24.498  1.00  0.00     0.396 A 
ATOM     32  O   UNL A   1      35.307  18.039  24.631  1.00  0.00    -0.413 OA
ATOM     33  C   UNL A   1      37.222  21.822  25.072  1.00  0.00     0.001 A 
ATOM     34  O   UNL A   1      34.779  15.817  24.434  1.00  0.00    -0.233 OA
ENDBRANCH  15  21
ENDBRANCH  12  15
ENDBRANCH   7  12
ENDBRANCH   3   6
ENDBRANCH   1   2
BRANCH   1  35
ATOM     35  C   UNL A   1      35.142  31.136  27.908  1.00  0.00     0.042 C 
BRANCH  35  36
ATOM     36  C   UNL A   1      36.436  31.038  28.712  1.00  0.00     0.118 C 
BRANCH  36  37
ATOM     37  N   UNL A   1      36.296  30.386  30.007  1.00  0.00    -0.352 N 
ATOM     38  C   UNL A   1      37.127  29.482  30.632  1.00  0.00     0.251 C 
ATOM     39  H   UNL A   1      35.486  30.627  30.512  1.00  0.00     0.163 HD
ATOM     40  O   UNL A   1      36.834  29.041  31.739  1.00  0.00    -0.269 OA
BRANCH  38  41
ATOM     41  C   UNL A   1      38.328  29.004  29.923  1.00  0.00     0.039 A 
ATOM     42  C   UNL A   1      38.240  28.568  28.597  1.00  0.00     0.014 A 
ATOM     43  C   UNL A   1      39.529  28.906  30.629  1.00  0.00     0.014 A 
ATOM     44  C   UNL A   1      39.300  27.886  28.028  1.00  0.00     0.010 A 
ATOM     45  C   UNL A   1      40.615  28.269  30.037  1.00  0.00     0.010 A 
ATOM     46  C   UNL A   1      40.487  27.733  28.747  1.00  0.00    -0.014 A 
BRANCH  46  47
ATOM     47  C   UNL A   1      41.615  27.161  28.002  1.00  0.00     0.031 A 
ATOM     48  C   UNL A   1      42.638  28.193  27.670  1.00  0.00     0.074 A 
ATOM     49  C   UNL A   1      41.925  25.850  28.077  1.00  0.00     0.049 A 
ATOM     50  N   UNL A   1      43.456  28.610  28.588  1.00  0.00    -0.248 NA
ATOM     51  C   UNL A   1      42.599  29.059  26.495  1.00  0.00     0.031 C 
ATOM     52  C   UNL A   1      41.644  25.011  29.254  1.00  0.00     0.029 A 
ATOM     53  N   UNL A   1      42.716  25.056  27.277  1.00  0.00    -0.354 N 
ATOM     54  C   UNL A   1      44.009  29.805  28.161  1.00  0.00     0.074 A 
ATOM     55  C   UNL A   1      43.459  30.035  26.845  1.00  0.00     0.031 C 
ATOM     56  C   UNL A   1      42.405  23.900  29.184  1.00  0.00     0.029 A 
ATOM     57  C   UNL A   1      43.114  23.877  27.906  1.00  0.00     0.049 A 
ATOM     58  H   UNL A   1      42.972  25.294  26.358  1.00  0.00     0.167 HD
ATOM     59  C   UNL A   1      44.914  30.474  28.933  1.00  0.00     0.034 A 
ATOM     60  C   UNL A   1      44.320  23.283  27.703  1.00  0.00     0.034 A 
ATOM     61  C   UNL A   1      45.263  29.805  30.171  1.00  0.00     0.049 A 
ATOM     62  C   UNL A   1      45.237  24.252  28.424  1.00  0.00     0.074 A 
ATOM     63  C   UNL A   1      45.326  30.033  31.525  1.00  0.00     0.029 A 
ATOM     64  N   UNL A   1      45.617  28.496  29.996  1.00  0.00    -0.354 N 
ATOM     65  N   UNL A   1      45.392  24.353  29.719  1.00  0.00    -0.248 NA
ATOM     66  C   UNL A   1      45.851  25.347  27.658  1.00  0.00     0.031 C 
ATOM     67  C   UNL A   1      45.609  28.763  32.146  1.00  0.00     0.029 A 
ATOM     68  C   UNL A   1      45.729  27.793  31.155  1.00  0.00     0.049 A 
ATOM     69  H   UNL A   1      45.777  28.097  29.109  1.00  0.00     0.167 HD
ATOM     70  C   UNL A   1      45.894  25.638  29.931  1.00  0.00     0.074 A 
ATOM     71  C   UNL A   1      46.326  26.110  28.632  1.00  0.00     0.031 C 
ATOM     72  C   UNL A   1      45.744  26.338  31.097  1.00  0.00     0.034 A 
BRANCH  59  73
ATOM     73  C   UNL A   1      45.803  31.539  28.405  1.00  0.00     0.023 A 
ATOM     74  C   UNL A   1      47.193  31.434  28.272  1.00  0.00     0.031 A 
ATOM     75  C   UNL A   1      45.162  32.683  27.881  1.00  0.00     0.131 A 
ATOM     76  C   UNL A   1      47.892  32.458  27.601  1.00  0.00     0.055 A 
ATOM     77  C   UNL A   1      45.854  33.680  27.203  1.00  0.00     0.041 A 
ATOM     78  F   UNL A   1      43.833  32.832  28.009  1.00  0.00    -0.206 F 
ATOM     79  C   UNL A   1      47.229  33.566  27.055  1.00  0.00     0.022 A 
BRANCH  76  80
ATOM     80  S   UNL A   1      49.693  32.404  27.382  1.00  0.00     0.124 S 
ATOM     81  O   UNL A   1      49.833  31.654  26.136  1.00  0.00    -0.237 OA
ATOM     82  O   UNL A   1      50.030  33.823  27.298  1.00  0.00    -0.237 OA
ATOM     83  O   UNL A   1      50.169  31.721  28.581  1.00  0.00    -0.744 OA
ENDBRANCH  76  80
ENDBRANCH  59  73
BRANCH  60  84
ATOM     84  C   UNL A   1      44.574  22.797  26.302  1.00  0.00     0.023 A 
ATOM     85  C   UNL A   1      44.341  21.484  25.874  1.00  0.00     0.031 A 
ATOM     86  C   UNL A   1      45.128  23.681  25.349  1.00  0.00     0.131 A 
ATOM     87  C   UNL A   1      44.884  21.029  24.665  1.00  0.00     0.055 A 
ATOM     88  C   UNL A   1      45.588  23.246  24.101  1.00  0.00     0.041 A 
ATOM     89  F   UNL A   1      45.252  24.991  25.623  1.00  0.00    -0.206 F 
ATOM     90  C   UNL A   1      45.512  21.900  23.774  1.00  0.00     0.022 A 
BRANCH  87  91
ATOM     91  S   UNL A   1      44.907  19.254  24.290  1.00  0.00     0.124 S 
ATOM     92  O   UNL A   1      46.286  18.887  24.601  1.00  0.00    -0.237 OA
ATOM     93  O   UNL A   1      43.894  18.760  25.218  1.00  0.00    -0.237 OA
ATOM     94  O   UNL A   1      44.547  19.204  22.879  1.00  0.00    -0.744 OA
ENDBRANCH  87  91
ENDBRANCH  60  84
BRANCH  72  95
ATOM     95  C   UNL A   1      45.465  25.536  32.326  1.00  0.00     0.023 A 
ATOM     96  C   UNL A   1      46.478  24.834  33.003  1.00  0.00     0.031 A 
ATOM     97  C   UNL A   1      44.133  25.357  32.741  1.00  0.00     0.131 A 
ATOM     98  C   UNL A   1      46.132  23.945  34.029  1.00  0.00     0.055 A 
ATOM     99  C   UNL A   1      43.802  24.513  33.797  1.00  0.00     0.041 A 
ATOM    100  F   UNL A   1      43.123  25.952  32.084  1.00  0.00    -0.206 F 
ATOM    101  C   UNL A   1      44.801  23.791  34.438  1.00  0.00     0.022 A 
BRANCH  98 102
ATOM    102  S   UNL A   1      47.382  22.899  34.823  1.00  0.00     0.124 S 
ATOM    103  O   UNL A   1      47.195  23.205  36.240  1.00  0.00    -0.237 OA
ATOM    104  O   UNL A   1      46.957  21.563  34.412  1.00  0.00    -0.237 OA
ATOM    105  O   UNL A   1      48.645  23.362  34.257  1.00  0.00    -0.744 OA
ENDBRANCH  98 102
ENDBRANCH  72  95
ENDBRANCH  46  47
ENDBRANCH  38  41
ENDBRANCH  36  37
ENDBRANCH  35  36
ENDBRANCH   1  35
TORSDOF 19
ENDMDL
