MODEL 1
REMARK VINA RESULT:     -12.3      0.000      0.000
REMARK SMILES O=C(NCCCNC(=O)c1cn(-c2ncnc3ccccc23)cn1)c1ccc(-c2c3nc(c(-c4cc(S(=O)(=O)[O-])ccc4F)c4ccc([nH]4)c(-c4cc(S(=O)(=O)[O-])ccc4F)c4nc(c(-c5cc(S(=O)(=O)[O-])ccc5F)c5ccc2[nH]5)C=C4)C=C3)cc1
REMARK SMILES IDX 4 1 3 2 1 3 2 4 25 6 26 7 87 8 27 9 86 10 28 11 29 12 30 13
REMARK SMILES IDX 80 14 31 15 85 16 79 17 81 18 32 19 84 20 78 21 77 22 33 24
REMARK SMILES IDX 65 25 45 26 64 27 46 28 49 29 63 30 82 31 47 32 48 33 62 35
REMARK SMILES IDX 83 36 50 37 34 38 35 39 43 40 36 41 42 42 44 43 41 44 37 45
REMARK SMILES IDX 38 46 39 47 40 48 66 49 67 50 75 51 68 52 74 53 76 54 73 55
REMARK SMILES IDX 69 56 70 57 71 58 72 59 51 60 52 61 60 62 53 63 59 64 61 65
REMARK SMILES IDX 58 66 54 67 55 68 56 69 57 70 5 71 6 72 7 73 8 74 9 76 10 77
REMARK SMILES IDX 11 78 24 79 12 80 23 81 13 82 14 83 22 84 15 85 17 86 21 87
REMARK SMILES IDX 16 88 18 89 20 90 19 91
REMARK H PARENT 3 5 81 23 49 34 7 75
REMARK Flexibility Score: inf
ROOT
ATOM      1  C   UNL A   1      34.254  33.450  29.318  1.00  0.00     0.118 C 
ENDROOT
BRANCH   1   2
ATOM      2  N   UNL A   1      33.981  32.425  28.328  1.00  0.00    -0.352 N 
ATOM      3  O   UNL A   1      33.976  30.557  27.153  1.00  0.00    -0.269 OA
ATOM      4  C   UNL A   1      34.600  31.265  27.950  1.00  0.00     0.251 C 
ATOM      5  H   UNL A   1      33.163  32.606  27.810  1.00  0.00     0.163 HD
BRANCH   4   6
ATOM      6  C   UNL A   1      35.962  30.844  28.377  1.00  0.00     0.039 A 
ATOM      7  C   UNL A   1      36.972  31.696  28.830  1.00  0.00     0.014 A 
ATOM      8  C   UNL A   1      36.237  29.468  28.282  1.00  0.00     0.014 A 
ATOM      9  C   UNL A   1      38.253  31.208  29.081  1.00  0.00     0.010 A 
ATOM     10  C   UNL A   1      37.504  28.971  28.564  1.00  0.00     0.010 A 
ATOM     11  C   UNL A   1      38.526  29.850  28.924  1.00  0.00    -0.014 A 
BRANCH  11  12
ATOM     12  C   UNL A   1      39.864  29.361  29.259  1.00  0.00     0.031 A 
ATOM     13  C   UNL A   1      40.203  29.304  30.716  1.00  0.00     0.074 A 
ATOM     14  C   UNL A   1      40.667  28.792  28.335  1.00  0.00     0.049 A 
ATOM     15  N   UNL A   1      41.273  29.705  31.324  1.00  0.00    -0.248 NA
ATOM     16  C   UNL A   1      39.176  28.771  31.627  1.00  0.00     0.031 C 
ATOM     17  C   UNL A   1      40.338  28.509  26.935  1.00  0.00     0.029 A 
ATOM     18  N   UNL A   1      41.890  28.207  28.492  1.00  0.00    -0.354 N 
ATOM     19  C   UNL A   1      41.141  29.309  32.657  1.00  0.00     0.074 A 
ATOM     20  C   UNL A   1      39.786  28.855  32.807  1.00  0.00     0.031 C 
ATOM     21  C   UNL A   1      41.213  27.602  26.451  1.00  0.00     0.029 A 
ATOM     22  C   UNL A   1      42.225  27.337  27.461  1.00  0.00     0.049 A 
ATOM     23  H   UNL A   1      42.480  28.385  29.262  1.00  0.00     0.167 HD
ATOM     24  C   UNL A   1      42.206  29.216  33.503  1.00  0.00     0.034 A 
ATOM     25  C   UNL A   1      43.194  26.385  27.464  1.00  0.00     0.034 A 
ATOM     26  C   UNL A   1      43.304  30.040  33.063  1.00  0.00     0.049 A 
ATOM     27  C   UNL A   1      44.164  26.737  28.527  1.00  0.00     0.074 A 
ATOM     28  C   UNL A   1      43.462  31.392  32.822  1.00  0.00     0.029 A 
ATOM     29  N   UNL A   1      44.404  29.443  32.496  1.00  0.00    -0.354 N 
ATOM     30  N   UNL A   1      44.914  27.804  28.498  1.00  0.00    -0.248 NA
ATOM     31  C   UNL A   1      44.000  26.131  29.840  1.00  0.00     0.031 C 
ATOM     32  C   UNL A   1      44.339  31.465  31.700  1.00  0.00     0.029 A 
ATOM     33  C   UNL A   1      44.692  30.158  31.360  1.00  0.00     0.049 A 
ATOM     34  H   UNL A   1      44.890  28.657  32.838  1.00  0.00     0.167 HD
ATOM     35  C   UNL A   1      44.967  28.242  29.812  1.00  0.00     0.074 A 
ATOM     36  C   UNL A   1      44.484  27.114  30.605  1.00  0.00     0.031 C 
ATOM     37  C   UNL A   1      45.132  29.562  30.115  1.00  0.00     0.034 A 
BRANCH  24  38
ATOM     38  C   UNL A   1      42.372  28.148  34.567  1.00  0.00     0.023 A 
ATOM     39  C   UNL A   1      43.125  27.004  34.233  1.00  0.00     0.031 A 
ATOM     40  C   UNL A   1      41.609  28.048  35.753  1.00  0.00     0.131 A 
ATOM     41  C   UNL A   1      43.015  25.816  34.978  1.00  0.00     0.055 A 
ATOM     42  C   UNL A   1      41.560  26.887  36.532  1.00  0.00     0.041 A 
ATOM     43  F   UNL A   1      40.799  29.024  36.178  1.00  0.00    -0.206 F 
ATOM     44  C   UNL A   1      42.235  25.749  36.128  1.00  0.00     0.022 A 
BRANCH  41  45
ATOM     45  S   UNL A   1      43.738  24.299  34.296  1.00  0.00     0.124 S 
ATOM     46  O   UNL A   1      44.064  24.711  32.934  1.00  0.00    -0.237 OA
ATOM     47  O   UNL A   1      44.869  24.079  35.192  1.00  0.00    -0.237 OA
ATOM     48  O   UNL A   1      42.653  23.327  34.409  1.00  0.00    -0.744 OA
ENDBRANCH  41  45
ENDBRANCH  24  38
BRANCH  25  49
ATOM     49  C   UNL A   1      43.097  25.041  26.835  1.00  0.00     0.023 A 
ATOM     50  C   UNL A   1      44.065  24.539  25.943  1.00  0.00     0.031 A 
ATOM     51  C   UNL A   1      42.112  24.128  27.282  1.00  0.00     0.131 A 
ATOM     52  C   UNL A   1      44.006  23.190  25.519  1.00  0.00     0.055 A 
ATOM     53  C   UNL A   1      42.048  22.805  26.847  1.00  0.00     0.041 A 
ATOM     54  F   UNL A   1      41.219  24.474  28.223  1.00  0.00    -0.206 F 
ATOM     55  C   UNL A   1      43.001  22.327  25.963  1.00  0.00     0.022 A 
BRANCH  52  56
ATOM     56  S   UNL A   1      45.304  22.509  24.439  1.00  0.00     0.124 S 
ATOM     57  O   UNL A   1      46.100  21.719  25.371  1.00  0.00    -0.237 OA
ATOM     58  O   UNL A   1      44.530  21.764  23.452  1.00  0.00    -0.237 OA
ATOM     59  O   UNL A   1      45.975  23.701  23.917  1.00  0.00    -0.744 OA
ENDBRANCH  52  56
ENDBRANCH  25  49
BRANCH  37  60
ATOM     60  C   UNL A   1      45.539  30.517  29.014  1.00  0.00     0.023 A 
ATOM     61  C   UNL A   1      46.880  30.798  28.662  1.00  0.00     0.031 A 
ATOM     62  C   UNL A   1      44.525  31.042  28.195  1.00  0.00     0.131 A 
ATOM     63  C   UNL A   1      47.160  31.585  27.528  1.00  0.00     0.055 A 
ATOM     64  C   UNL A   1      44.807  31.808  27.065  1.00  0.00     0.041 A 
ATOM     65  F   UNL A   1      43.234  30.776  28.455  1.00  0.00    -0.206 F 
ATOM     66  C   UNL A   1      46.127  32.087  26.729  1.00  0.00     0.022 A 
BRANCH  63  67
ATOM     67  S   UNL A   1      48.882  31.962  27.067  1.00  0.00     0.124 S 
ATOM     68  O   UNL A   1      48.748  33.048  26.104  1.00  0.00    -0.237 OA
ATOM     69  O   UNL A   1      49.487  32.313  28.351  1.00  0.00    -0.237 OA
ATOM     70  O   UNL A   1      49.368  30.701  26.499  1.00  0.00    -0.744 OA
ENDBRANCH  63  67
ENDBRANCH  37  60
ENDBRANCH  11  12
ENDBRANCH   4   6
ENDBRANCH   1   2
BRANCH   1  71
ATOM     71  C   UNL A   1      33.297  34.643  29.305  1.00  0.00     0.042 C 
BRANCH  71  72
ATOM     72  C   UNL A   1      33.962  35.991  29.577  1.00  0.00     0.118 C 
BRANCH  72  73
ATOM     73  N   UNL A   1      33.252  36.769  30.581  1.00  0.00    -0.351 N 
ATOM     74  C   UNL A   1      33.024  36.491  31.913  1.00  0.00     0.271 C 
ATOM     75  H   UNL A   1      32.879  37.623  30.262  1.00  0.00     0.163 HD
ATOM     76  O   UNL A   1      32.261  37.200  32.546  1.00  0.00    -0.267 OA
BRANCH  74  77
ATOM     77  C   UNL A   1      33.750  35.370  32.507  1.00  0.00     0.146 A 
ATOM     78  C   UNL A   1      35.079  35.368  32.882  1.00  0.00     0.128 A 
ATOM     79  N   UNL A   1      33.187  34.135  32.753  1.00  0.00    -0.231 NA
ATOM     80  N   UNL A   1      35.358  34.082  33.283  1.00  0.00    -0.289 N 
ATOM     81  C   UNL A   1      34.187  33.375  33.148  1.00  0.00     0.206 A 
BRANCH  80  82
ATOM     82  C   UNL A   1      36.625  33.537  33.609  1.00  0.00     0.149 A 
ATOM     83  N   UNL A   1      36.676  32.890  34.795  1.00  0.00    -0.218 NA
ATOM     84  C   UNL A   1      37.703  33.610  32.705  1.00  0.00     0.044 A 
ATOM     85  C   UNL A   1      37.780  32.172  35.014  1.00  0.00     0.224 A 
ATOM     86  C   UNL A   1      38.815  32.852  33.091  1.00  0.00     0.076 A 
ATOM     87  C   UNL A   1      37.792  34.408  31.526  1.00  0.00     0.014 A 
ATOM     88  N   UNL A   1      38.853  32.130  34.216  1.00  0.00    -0.236 NA
ATOM     89  C   UNL A   1      39.944  32.855  32.279  1.00  0.00     0.029 A 
ATOM     90  C   UNL A   1      38.943  34.410  30.741  1.00  0.00     0.001 A 
ATOM     91  C   UNL A   1      40.019  33.621  31.114  1.00  0.00     0.002 A 
ENDBRANCH  80  82
ENDBRANCH  74  77
ENDBRANCH  72  73
ENDBRANCH  71  72
ENDBRANCH   1  71
TORSDOF 14
ENDMDL
MODEL 2
REMARK VINA RESULT:     -12.3      3.606     11.639
REMARK SMILES O=C(NCCCNC(=O)c1cn(-c2ncnc3ccccc23)cn1)c1ccc(-c2c3nc(c(-c4cc(S(=O)(=O)[O-])ccc4F)c4ccc([nH]4)c(-c4cc(S(=O)(=O)[O-])ccc4F)c4nc(c(-c5cc(S(=O)(=O)[O-])ccc5F)c5ccc2[nH]5)C=C4)C=C3)cc1
REMARK SMILES IDX 4 1 3 2 1 3 2 4 25 6 26 7 87 8 27 9 86 10 28 11 29 12 30 13
REMARK SMILES IDX 80 14 31 15 85 16 79 17 81 18 32 19 84 20 78 21 77 22 33 24
REMARK SMILES IDX 65 25 45 26 64 27 46 28 49 29 63 30 82 31 47 32 48 33 62 35
REMARK SMILES IDX 83 36 50 37 34 38 35 39 43 40 36 41 42 42 44 43 41 44 37 45
REMARK SMILES IDX 38 46 39 47 40 48 66 49 67 50 75 51 68 52 74 53 76 54 73 55
REMARK SMILES IDX 69 56 70 57 71 58 72 59 51 60 52 61 60 62 53 63 59 64 61 65
REMARK SMILES IDX 58 66 54 67 55 68 56 69 57 70 5 71 6 72 7 73 8 74 9 76 10 77
REMARK SMILES IDX 11 78 24 79 12 80 23 81 13 82 14 83 22 84 15 85 17 86 21 87
REMARK SMILES IDX 16 88 18 89 20 90 19 91
REMARK H PARENT 3 5 81 23 49 34 7 75
REMARK Flexibility Score: inf
ROOT
ATOM      1  C   UNL A   1      41.925  21.508  27.290  1.00  0.00     0.118 C 
ENDROOT
BRANCH   1   2
ATOM      2  N   UNL A   1      40.559  21.799  26.897  1.00  0.00    -0.352 N 
ATOM      3  O   UNL A   1      38.694  22.815  26.300  1.00  0.00    -0.269 OA
ATOM      4  C   UNL A   1      39.795  22.933  26.846  1.00  0.00     0.251 C 
ATOM      5  H   UNL A   1      40.071  20.997  26.600  1.00  0.00     0.163 HD
BRANCH   4   6
ATOM      6  C   UNL A   1      40.169  24.244  27.442  1.00  0.00     0.039 A 
ATOM      7  C   UNL A   1      41.346  24.512  28.144  1.00  0.00     0.014 A 
ATOM      8  C   UNL A   1      39.226  25.277  27.292  1.00  0.00     0.014 A 
ATOM      9  C   UNL A   1      41.534  25.742  28.772  1.00  0.00     0.010 A 
ATOM     10  C   UNL A   1      39.425  26.518  27.887  1.00  0.00     0.010 A 
ATOM     11  C   UNL A   1      40.562  26.736  28.664  1.00  0.00    -0.014 A 
BRANCH  11  12
ATOM     12  C   UNL A   1      40.822  28.039  29.280  1.00  0.00     0.031 A 
ATOM     13  C   UNL A   1      41.926  28.849  28.676  1.00  0.00     0.074 A 
ATOM     14  C   UNL A   1      39.984  28.574  30.193  1.00  0.00     0.049 A 
ATOM     15  N   UNL A   1      42.889  29.486  29.262  1.00  0.00    -0.248 NA
ATOM     16  C   UNL A   1      41.990  28.911  27.206  1.00  0.00     0.031 C 
ATOM     17  C   UNL A   1      38.705  28.021  30.649  1.00  0.00     0.029 A 
ATOM     18  N   UNL A   1      40.024  29.801  30.791  1.00  0.00    -0.354 N 
ATOM     19  C   UNL A   1      43.568  30.181  28.260  1.00  0.00     0.074 A 
ATOM     20  C   UNL A   1      43.052  29.690  27.011  1.00  0.00     0.031 C 
ATOM     21  C   UNL A   1      37.987  29.000  31.240  1.00  0.00     0.029 A 
ATOM     22  C   UNL A   1      38.799  30.203  31.311  1.00  0.00     0.049 A 
ATOM     23  H   UNL A   1      40.842  30.347  30.850  1.00  0.00     0.167 HD
ATOM     24  C   UNL A   1      44.386  31.239  28.525  1.00  0.00     0.034 A 
ATOM     25  C   UNL A   1      38.429  31.458  31.677  1.00  0.00     0.034 A 
ATOM     26  C   UNL A   1      44.866  31.207  29.884  1.00  0.00     0.049 A 
ATOM     27  C   UNL A   1      39.665  32.240  31.911  1.00  0.00     0.074 A 
ATOM     28  C   UNL A   1      45.600  30.302  30.629  1.00  0.00     0.029 A 
ATOM     29  N   UNL A   1      44.342  32.086  30.801  1.00  0.00    -0.354 N 
ATOM     30  N   UNL A   1      40.515  31.981  32.867  1.00  0.00    -0.248 NA
ATOM     31  C   UNL A   1      40.188  33.048  30.821  1.00  0.00     0.031 C 
ATOM     32  C   UNL A   1      45.048  30.375  31.942  1.00  0.00     0.029 A 
ATOM     33  C   UNL A   1      44.049  31.350  31.922  1.00  0.00     0.049 A 
ATOM     34  H   UNL A   1      44.205  33.054  30.679  1.00  0.00     0.167 HD
ATOM     35  C   UNL A   1      41.762  32.223  32.314  1.00  0.00     0.074 A 
ATOM     36  C   UNL A   1      41.494  32.983  31.096  1.00  0.00     0.031 C 
ATOM     37  C   UNL A   1      42.872  31.552  32.741  1.00  0.00     0.034 A 
BRANCH  24  38
ATOM     38  C   UNL A   1      44.512  32.473  27.652  1.00  0.00     0.023 A 
ATOM     39  C   UNL A   1      43.868  33.650  28.086  1.00  0.00     0.031 A 
ATOM     40  C   UNL A   1      44.961  32.484  26.312  1.00  0.00     0.131 A 
ATOM     41  C   UNL A   1      43.595  34.702  27.193  1.00  0.00     0.055 A 
ATOM     42  C   UNL A   1      44.752  33.565  25.447  1.00  0.00     0.041 A 
ATOM     43  F   UNL A   1      45.540  31.427  25.732  1.00  0.00    -0.206 F 
ATOM     44  C   UNL A   1      44.034  34.668  25.873  1.00  0.00     0.022 A 
BRANCH  41  45
ATOM     45  S   UNL A   1      42.472  36.021  27.730  1.00  0.00     0.124 S 
ATOM     46  O   UNL A   1      43.074  36.426  28.997  1.00  0.00    -0.237 OA
ATOM     47  O   UNL A   1      42.581  36.972  26.630  1.00  0.00    -0.237 OA
ATOM     48  O   UNL A   1      41.184  35.341  27.843  1.00  0.00    -0.744 OA
ENDBRANCH  41  45
ENDBRANCH  24  38
BRANCH  25  49
ATOM     49  C   UNL A   1      37.084  32.064  31.478  1.00  0.00     0.023 A 
ATOM     50  C   UNL A   1      36.528  32.295  30.205  1.00  0.00     0.031 A 
ATOM     51  C   UNL A   1      36.225  32.240  32.588  1.00  0.00     0.131 A 
ATOM     52  C   UNL A   1      35.180  32.707  30.085  1.00  0.00     0.055 A 
ATOM     53  C   UNL A   1      34.902  32.663  32.465  1.00  0.00     0.041 A 
ATOM     54  F   UNL A   1      36.623  31.930  33.832  1.00  0.00    -0.206 F 
ATOM     55  C   UNL A   1      34.370  32.895  31.209  1.00  0.00     0.022 A 
BRANCH  52  56
ATOM     56  S   UNL A   1      34.426  32.919  28.441  1.00  0.00     0.124 S 
ATOM     57  O   UNL A   1      35.551  33.396  27.644  1.00  0.00    -0.237 OA
ATOM     58  O   UNL A   1      33.942  31.576  28.144  1.00  0.00    -0.237 OA
ATOM     59  O   UNL A   1      33.375  33.911  28.673  1.00  0.00    -0.744 OA
ENDBRANCH  52  56
ENDBRANCH  25  49
BRANCH  37  60
ATOM     60  C   UNL A   1      42.787  30.742  34.017  1.00  0.00     0.023 A 
ATOM     61  C   UNL A   1      42.292  29.419  34.087  1.00  0.00     0.031 A 
ATOM     62  C   UNL A   1      43.371  31.284  35.174  1.00  0.00     0.131 A 
ATOM     63  C   UNL A   1      42.389  28.694  35.290  1.00  0.00     0.055 A 
ATOM     64  C   UNL A   1      43.479  30.557  36.360  1.00  0.00     0.041 A 
ATOM     65  F   UNL A   1      43.894  32.521  35.158  1.00  0.00    -0.206 F 
ATOM     66  C   UNL A   1      42.983  29.260  36.424  1.00  0.00     0.022 A 
BRANCH  63  67
ATOM     67  S   UNL A   1      41.749  26.991  35.398  1.00  0.00     0.124 S 
ATOM     68  O   UNL A   1      42.937  26.167  35.205  1.00  0.00    -0.237 OA
ATOM     69  O   UNL A   1      41.154  26.957  36.732  1.00  0.00    -0.237 OA
ATOM     70  O   UNL A   1      40.776  26.922  34.304  1.00  0.00    -0.744 OA
ENDBRANCH  63  67
ENDBRANCH  37  60
ENDBRANCH  11  12
ENDBRANCH   4   6
ENDBRANCH   1   2
BRANCH   1  71
ATOM     71  C   UNL A   1      42.325  20.033  27.223  1.00  0.00     0.042 C 
BRANCH  71  72
ATOM     72  C   UNL A   1      42.501  19.489  25.807  1.00  0.00     0.118 C 
BRANCH  72  73
ATOM     73  N   UNL A   1      43.796  18.852  25.613  1.00  0.00    -0.351 N 
ATOM     74  C   UNL A   1      44.953  19.360  25.061  1.00  0.00     0.271 C 
ATOM     75  H   UNL A   1      43.853  17.919  25.922  1.00  0.00     0.163 HD
ATOM     76  O   UNL A   1      45.886  18.606  24.838  1.00  0.00    -0.267 OA
BRANCH  74  77
ATOM     77  C   UNL A   1      45.012  20.797  24.807  1.00  0.00     0.146 A 
ATOM     78  C   UNL A   1      45.596  21.746  25.624  1.00  0.00     0.128 A 
ATOM     79  N   UNL A   1      44.457  21.405  23.700  1.00  0.00    -0.231 NA
ATOM     80  N   UNL A   1      45.316  22.964  25.051  1.00  0.00    -0.289 N 
ATOM     81  C   UNL A   1      44.595  22.697  23.912  1.00  0.00     0.206 A 
BRANCH  80  82
ATOM     82  C   UNL A   1      45.564  24.249  25.595  1.00  0.00     0.149 A 
ATOM     83  N   UNL A   1      45.979  25.174  24.700  1.00  0.00    -0.218 NA
ATOM     84  C   UNL A   1      45.306  24.527  26.952  1.00  0.00     0.044 A 
ATOM     85  C   UNL A   1      45.990  26.435  25.136  1.00  0.00     0.224 A 
ATOM     86  C   UNL A   1      45.409  25.885  27.279  1.00  0.00     0.076 A 
ATOM     87  C   UNL A   1      45.037  23.589  27.992  1.00  0.00     0.014 A 
ATOM     88  N   UNL A   1      45.729  26.829  26.389  1.00  0.00    -0.236 NA
ATOM     89  C   UNL A   1      45.185  26.277  28.594  1.00  0.00     0.029 A 
ATOM     90  C   UNL A   1      44.836  24.006  29.306  1.00  0.00     0.001 A 
ATOM     91  C   UNL A   1      44.899  25.357  29.606  1.00  0.00     0.002 A 
ENDBRANCH  80  82
ENDBRANCH  74  77
ENDBRANCH  72  73
ENDBRANCH  71  72
ENDBRANCH   1  71
TORSDOF 14
ENDMDL
MODEL 3
REMARK VINA RESULT:     -12.1      4.228      9.470
REMARK SMILES O=C(NCCCNC(=O)c1cn(-c2ncnc3ccccc23)cn1)c1ccc(-c2c3nc(c(-c4cc(S(=O)(=O)[O-])ccc4F)c4ccc([nH]4)c(-c4cc(S(=O)(=O)[O-])ccc4F)c4nc(c(-c5cc(S(=O)(=O)[O-])ccc5F)c5ccc2[nH]5)C=C4)C=C3)cc1
REMARK SMILES IDX 4 1 3 2 1 3 2 4 25 6 26 7 87 8 27 9 86 10 28 11 29 12 30 13
REMARK SMILES IDX 80 14 31 15 85 16 79 17 81 18 32 19 84 20 78 21 77 22 33 24
REMARK SMILES IDX 65 25 45 26 64 27 46 28 49 29 63 30 82 31 47 32 48 33 62 35
REMARK SMILES IDX 83 36 50 37 34 38 35 39 43 40 36 41 42 42 44 43 41 44 37 45
REMARK SMILES IDX 38 46 39 47 40 48 66 49 67 50 75 51 68 52 74 53 76 54 73 55
REMARK SMILES IDX 69 56 70 57 71 58 72 59 51 60 52 61 60 62 53 63 59 64 61 65
REMARK SMILES IDX 58 66 54 67 55 68 56 69 57 70 5 71 6 72 7 73 8 74 9 76 10 77
REMARK SMILES IDX 11 78 24 79 12 80 23 81 13 82 14 83 22 84 15 85 17 86 21 87
REMARK SMILES IDX 16 88 18 89 20 90 19 91
REMARK H PARENT 3 5 81 23 49 34 7 75
REMARK Flexibility Score: inf
ROOT
ATOM      1  C   UNL A   1      34.567  28.582  27.011  1.00  0.00     0.118 C 
ENDROOT
BRANCH   1   2
ATOM      2  N   UNL A   1      34.765  29.587  28.038  1.00  0.00    -0.352 N 
ATOM      3  O   UNL A   1      35.650  31.042  29.441  1.00  0.00    -0.269 OA
ATOM      4  C   UNL A   1      35.847  30.046  28.738  1.00  0.00     0.251 C 
ATOM      5  H   UNL A   1      33.929  30.043  28.288  1.00  0.00     0.163 HD
BRANCH   4   6
ATOM      6  C   UNL A   1      37.190  29.404  28.755  1.00  0.00     0.039 A 
ATOM      7  C   UNL A   1      37.684  28.578  29.766  1.00  0.00     0.014 A 
ATOM      8  C   UNL A   1      38.021  29.693  27.657  1.00  0.00     0.014 A 
ATOM      9  C   UNL A   1      39.006  28.136  29.740  1.00  0.00     0.010 A 
ATOM     10  C   UNL A   1      39.329  29.226  27.609  1.00  0.00     0.010 A 
ATOM     11  C   UNL A   1      39.835  28.481  28.674  1.00  0.00    -0.014 A 
BRANCH  11  12
ATOM     12  C   UNL A   1      41.198  27.945  28.645  1.00  0.00     0.031 A 
ATOM     13  C   UNL A   1      41.373  26.617  27.978  1.00  0.00     0.074 A 
ATOM     14  C   UNL A   1      42.264  28.692  29.002  1.00  0.00     0.049 A 
ATOM     15  N   UNL A   1      42.030  25.577  28.384  1.00  0.00    -0.248 NA
ATOM     16  C   UNL A   1      40.669  26.405  26.702  1.00  0.00     0.031 C 
ATOM     17  C   UNL A   1      42.262  30.107  29.384  1.00  0.00     0.029 A 
ATOM     18  N   UNL A   1      43.593  28.385  28.948  1.00  0.00    -0.354 N 
ATOM     19  C   UNL A   1      41.984  24.651  27.340  1.00  0.00     0.074 A 
ATOM     20  C   UNL A   1      41.034  25.163  26.391  1.00  0.00     0.031 C 
ATOM     21  C   UNL A   1      43.518  30.593  29.282  1.00  0.00     0.029 A 
ATOM     22  C   UNL A   1      44.420  29.503  28.948  1.00  0.00     0.049 A 
ATOM     23  H   UNL A   1      43.934  27.461  28.913  1.00  0.00     0.167 HD
ATOM     24  C   UNL A   1      42.862  23.612  27.243  1.00  0.00     0.034 A 
ATOM     25  C   UNL A   1      45.731  29.561  28.596  1.00  0.00     0.034 A 
ATOM     26  C   UNL A   1      43.433  23.282  28.524  1.00  0.00     0.049 A 
ATOM     27  C   UNL A   1      46.281  28.190  28.689  1.00  0.00     0.074 A 
ATOM     28  C   UNL A   1      42.913  22.883  29.742  1.00  0.00     0.029 A 
ATOM     29  N   UNL A   1      44.734  23.637  28.789  1.00  0.00    -0.354 N 
ATOM     30  N   UNL A   1      46.391  27.528  29.808  1.00  0.00    -0.248 NA
ATOM     31  C   UNL A   1      46.316  27.376  27.483  1.00  0.00     0.031 C 
ATOM     32  C   UNL A   1      43.740  23.513  30.718  1.00  0.00     0.029 A 
ATOM     33  C   UNL A   1      44.734  24.214  30.034  1.00  0.00     0.049 A 
ATOM     34  H   UNL A   1      45.513  23.503  28.201  1.00  0.00     0.167 HD
ATOM     35  C   UNL A   1      46.088  26.217  29.482  1.00  0.00     0.074 A 
ATOM     36  C   UNL A   1      46.161  26.164  28.024  1.00  0.00     0.031 C 
ATOM     37  C   UNL A   1      45.534  25.366  30.395  1.00  0.00     0.034 A 
BRANCH  24  38
ATOM     38  C   UNL A   1      43.437  23.086  25.941  1.00  0.00     0.023 A 
ATOM     39  C   UNL A   1      43.459  21.689  25.753  1.00  0.00     0.031 A 
ATOM     40  C   UNL A   1      44.214  23.836  25.028  1.00  0.00     0.131 A 
ATOM     41  C   UNL A   1      44.300  21.097  24.793  1.00  0.00     0.055 A 
ATOM     42  C   UNL A   1      44.992  23.246  24.027  1.00  0.00     0.041 A 
ATOM     43  F   UNL A   1      44.342  25.165  25.106  1.00  0.00    -0.206 F 
ATOM     44  C   UNL A   1      45.069  21.868  23.926  1.00  0.00     0.022 A 
BRANCH  41  45
ATOM     45  S   UNL A   1      44.534  19.300  24.841  1.00  0.00     0.124 S 
ATOM     46  O   UNL A   1      43.394  18.874  25.647  1.00  0.00    -0.237 OA
ATOM     47  O   UNL A   1      44.488  18.955  23.424  1.00  0.00    -0.237 OA
ATOM     48  O   UNL A   1      45.839  19.146  25.480  1.00  0.00    -0.744 OA
ENDBRANCH  41  45
ENDBRANCH  24  38
BRANCH  25  49
ATOM     49  C   UNL A   1      46.386  30.676  27.859  1.00  0.00     0.023 A 
ATOM     50  C   UNL A   1      45.675  31.584  27.051  1.00  0.00     0.031 A 
ATOM     51  C   UNL A   1      47.743  30.983  28.117  1.00  0.00     0.131 A 
ATOM     52  C   UNL A   1      46.328  32.723  26.522  1.00  0.00     0.055 A 
ATOM     53  C   UNL A   1      48.386  32.096  27.578  1.00  0.00     0.041 A 
ATOM     54  F   UNL A   1      48.473  30.246  28.970  1.00  0.00    -0.206 F 
ATOM     55  C   UNL A   1      47.678  32.977  26.779  1.00  0.00     0.022 A 
BRANCH  52  56
ATOM     56  S   UNL A   1      45.394  33.950  25.553  1.00  0.00     0.124 S 
ATOM     57  O   UNL A   1      44.596  33.106  24.670  1.00  0.00    -0.237 OA
ATOM     58  O   UNL A   1      44.668  34.678  26.587  1.00  0.00    -0.237 OA
ATOM     59  O   UNL A   1      46.441  34.723  24.882  1.00  0.00    -0.744 OA
ENDBRANCH  52  56
ENDBRANCH  25  49
BRANCH  37  60
ATOM     60  C   UNL A   1      45.513  25.777  31.852  1.00  0.00     0.023 A 
ATOM     61  C   UNL A   1      44.348  26.169  32.550  1.00  0.00     0.031 A 
ATOM     62  C   UNL A   1      46.696  25.617  32.593  1.00  0.00     0.131 A 
ATOM     63  C   UNL A   1      44.400  26.390  33.939  1.00  0.00     0.055 A 
ATOM     64  C   UNL A   1      46.741  25.822  33.972  1.00  0.00     0.041 A 
ATOM     65  F   UNL A   1      47.826  25.207  31.993  1.00  0.00    -0.206 F 
ATOM     66  C   UNL A   1      45.592  26.216  34.650  1.00  0.00     0.022 A 
BRANCH  63  67
ATOM     67  S   UNL A   1      42.908  26.903  34.851  1.00  0.00     0.124 S 
ATOM     68  O   UNL A   1      43.441  27.588  36.022  1.00  0.00    -0.237 OA
ATOM     69  O   UNL A   1      42.212  27.743  33.878  1.00  0.00    -0.237 OA
ATOM     70  O   UNL A   1      42.233  25.636  35.143  1.00  0.00    -0.744 OA
ENDBRANCH  63  67
ENDBRANCH  37  60
ENDBRANCH  11  12
ENDBRANCH   4   6
ENDBRANCH   1   2
BRANCH   1  71
ATOM     71  C   UNL A   1      33.109  28.286  26.657  1.00  0.00     0.042 C 
BRANCH  71  72
ATOM     72  C   UNL A   1      32.885  27.847  25.212  1.00  0.00     0.118 C 
BRANCH  72  73
ATOM     73  N   UNL A   1      31.495  27.510  24.942  1.00  0.00    -0.351 N 
ATOM     74  C   UNL A   1      30.861  26.286  24.988  1.00  0.00     0.271 C 
ATOM     75  H   UNL A   1      30.922  28.270  24.688  1.00  0.00     0.163 HD
ATOM     76  O   UNL A   1      29.721  26.190  24.563  1.00  0.00    -0.267 OA
BRANCH  74  77
ATOM     77  C   UNL A   1      31.584  25.167  25.586  1.00  0.00     0.146 A 
ATOM     78  C   UNL A   1      32.511  24.363  24.951  1.00  0.00     0.128 A 
ATOM     79  N   UNL A   1      31.412  24.750  26.890  1.00  0.00    -0.231 NA
ATOM     80  N   UNL A   1      32.845  23.382  25.856  1.00  0.00    -0.289 N 
ATOM     81  C   UNL A   1      32.122  23.647  26.995  1.00  0.00     0.206 A 
BRANCH  80  82
ATOM     82  C   UNL A   1      33.638  22.230  25.623  1.00  0.00     0.149 A 
ATOM     83  N   UNL A   1      32.937  21.096  25.398  1.00  0.00    -0.218 NA
ATOM     84  C   UNL A   1      35.043  22.315  25.557  1.00  0.00     0.044 A 
ATOM     85  C   UNL A   1      33.647  20.059  24.947  1.00  0.00     0.224 A 
ATOM     86  C   UNL A   1      35.659  21.135  25.122  1.00  0.00     0.076 A 
ATOM     87  C   UNL A   1      35.863  23.414  25.947  1.00  0.00     0.014 A 
ATOM     88  N   UNL A   1      34.978  20.028  24.806  1.00  0.00    -0.236 NA
ATOM     89  C   UNL A   1      37.045  21.097  25.027  1.00  0.00     0.029 A 
ATOM     90  C   UNL A   1      37.252  23.344  25.861  1.00  0.00     0.001 A 
ATOM     91  C   UNL A   1      37.845  22.184  25.389  1.00  0.00     0.002 A 
ENDBRANCH  80  82
ENDBRANCH  74  77
ENDBRANCH  72  73
ENDBRANCH  71  72
ENDBRANCH   1  71
TORSDOF 14
ENDMDL
