MODEL 1
REMARK VINA RESULT:     -12.5      0.000      0.000
REMARK SMILES C[C@@](NC(=O)[C@H]1COc2ccccc21)(C(=O)NCCCNC(=O)c1ccc(-c2c3nc(c(-c4cc(S(=O)(=O)[O-])ccc4F)c4ccc([nH]4)c(-c4cc(S(=O)(=O)[O-])ccc4F)c4nc(c(-c5cc(S(=O)(=O)[O-])ccc5F)c5ccc2[nH]5)C=C4)C=C3)cc1)C(F)(F)F
REMARK SMILES IDX 19 1 18 2 17 3 15 4 16 5 2 7 1 8 3 9 4 10 5 12 6 13 7 14
REMARK SMILES IDX 14 15 8 16 9 17 13 18 10 19 12 20 11 21 87 22 88 23 89 24
REMARK SMILES IDX 90 25 20 26 21 27 22 28 23 30 24 31 25 32 86 33 26 34 85 35
REMARK SMILES IDX 27 36 28 37 29 38 79 39 30 40 84 41 78 42 80 43 31 44 83 45
REMARK SMILES IDX 77 46 76 47 32 49 64 50 44 51 63 52 45 53 48 54 62 55 81 56
REMARK SMILES IDX 46 57 47 58 61 60 82 61 49 62 33 63 34 64 42 65 35 66 41 67
REMARK SMILES IDX 43 68 40 69 36 70 37 71 38 72 39 73 65 74 66 75 74 76 67 77
REMARK SMILES IDX 73 78 75 79 72 80 68 81 69 82 70 83 71 84 50 85 51 86 59 87
REMARK SMILES IDX 52 88 58 89 60 90 57 91 53 92 54 93 55 94 56 95
REMARK H PARENT 17 6 3 11 21 29 80 48 48 59
REMARK Flexibility Score: inf
ROOT
ATOM      1  C   UNL A   1      31.157  31.191  25.842  1.00  0.00     0.042 C 
ENDROOT
BRANCH   1   2
ATOM      2  C   UNL A   1      31.305  29.841  25.163  1.00  0.00     0.117 C 
BRANCH   2   3
ATOM      3  N   UNL A   1      30.605  29.777  23.884  1.00  0.00    -0.354 N 
ATOM      4  C   UNL A   1      30.361  28.723  23.038  1.00  0.00     0.254 C 
ATOM      5  O   UNL A   1      29.825  28.991  21.962  1.00  0.00    -0.272 OA
ATOM      6  H   UNL A   1      30.247  30.639  23.572  1.00  0.00     0.163 HD
BRANCH   4   7
ATOM      7  C   UNL A   1      30.930  27.336  23.342  1.00  0.00     0.212 C 
ATOM      8  C   UNL A   1      31.037  26.629  21.954  1.00  0.00     0.056 C 
BRANCH   7   9
ATOM      9  N   UNL A   1      32.305  27.398  23.956  1.00  0.00    -0.334 N 
ATOM     10  C   UNL A   1      33.351  26.558  24.139  1.00  0.00     0.232 C 
ATOM     11  H   UNL A   1      32.494  28.292  24.322  1.00  0.00     0.164 HD
ATOM     12  O   UNL A   1      34.398  27.167  24.422  1.00  0.00    -0.274 OA
BRANCH  10  13
ATOM     13  C   UNL A   1      33.414  25.034  24.201  1.00  0.00     0.150 C 
ATOM     14  C   UNL A   1      33.103  24.350  22.867  1.00  0.00     0.248 C 
ATOM     15  C   UNL A   1      34.656  24.304  24.529  1.00  0.00     0.010 A 
ATOM     16  O   UNL A   1      34.341  23.869  22.287  1.00  0.00    -0.492 OA
ATOM     17  C   UNL A   1      35.137  23.676  23.389  1.00  0.00     0.123 A 
ATOM     18  C   UNL A   1      35.262  24.093  25.755  1.00  0.00     0.008 A 
ATOM     19  C   UNL A   1      36.295  22.929  23.397  1.00  0.00     0.047 A 
ATOM     20  C   UNL A   1      36.435  23.334  25.790  1.00  0.00     0.001 A 
ATOM     21  C   UNL A   1      36.959  22.771  24.615  1.00  0.00     0.004 A 
ENDBRANCH  10  13
ENDBRANCH   7   9
BRANCH   7  22
ATOM     22  C   UNL A   1      29.925  26.451  24.114  1.00  0.00     0.420 C 
ATOM     23  F   UNL A   1      28.639  26.835  23.961  1.00  0.00    -0.168 F 
ATOM     24  F   UNL A   1      29.990  25.176  23.625  1.00  0.00    -0.168 F 
ATOM     25  F   UNL A   1      30.170  26.339  25.424  1.00  0.00    -0.168 F 
ENDBRANCH   7  22
ENDBRANCH   4   7
ENDBRANCH   2   3
ENDBRANCH   1   2
BRANCH   1  26
ATOM     26  C   UNL A   1      32.263  31.487  26.845  1.00  0.00     0.118 C 
BRANCH  26  27
ATOM     27  N   UNL A   1      32.371  32.898  27.185  1.00  0.00    -0.352 N 
ATOM     28  C   UNL A   1      33.383  33.557  27.847  1.00  0.00     0.251 C 
ATOM     29  H   UNL A   1      31.615  33.461  26.902  1.00  0.00     0.163 HD
ATOM     30  O   UNL A   1      33.256  34.744  28.132  1.00  0.00    -0.269 OA
BRANCH  28  31
ATOM     31  C   UNL A   1      34.591  32.808  28.261  1.00  0.00     0.039 A 
ATOM     32  C   UNL A   1      35.830  33.451  28.224  1.00  0.00     0.014 A 
ATOM     33  C   UNL A   1      34.489  31.505  28.751  1.00  0.00     0.014 A 
ATOM     34  C   UNL A   1      36.950  32.818  28.765  1.00  0.00     0.010 A 
ATOM     35  C   UNL A   1      35.582  30.918  29.381  1.00  0.00     0.010 A 
ATOM     36  C   UNL A   1      36.827  31.568  29.394  1.00  0.00    -0.014 A 
BRANCH  36  37
ATOM     37  C   UNL A   1      37.991  30.915  30.048  1.00  0.00     0.031 A 
ATOM     38  C   UNL A   1      38.343  31.267  31.469  1.00  0.00     0.074 A 
ATOM     39  C   UNL A   1      38.762  30.055  29.352  1.00  0.00     0.049 A 
ATOM     40  N   UNL A   1      39.350  30.861  32.199  1.00  0.00    -0.248 NA
ATOM     41  C   UNL A   1      37.463  32.233  32.144  1.00  0.00     0.031 C 
ATOM     42  C   UNL A   1      38.554  29.675  27.951  1.00  0.00     0.029 A 
ATOM     43  N   UNL A   1      39.877  29.346  29.722  1.00  0.00    -0.354 N 
ATOM     44  C   UNL A   1      39.232  31.534  33.411  1.00  0.00     0.074 A 
ATOM     45  C   UNL A   1      38.102  32.427  33.287  1.00  0.00     0.031 C 
ATOM     46  C   UNL A   1      39.488  28.779  27.594  1.00  0.00     0.029 A 
ATOM     47  C   UNL A   1      40.388  28.551  28.720  1.00  0.00     0.049 A 
ATOM     48  H   UNL A   1      40.275  29.401  30.621  1.00  0.00     0.167 HD
ATOM     49  C   UNL A   1      39.978  31.396  34.535  1.00  0.00     0.034 A 
ATOM     50  C   UNL A   1      41.461  27.735  28.711  1.00  0.00     0.034 A 
ATOM     51  C   UNL A   1      41.090  30.484  34.648  1.00  0.00     0.049 A 
ATOM     52  C   UNL A   1      42.280  27.600  29.972  1.00  0.00     0.074 A 
ATOM     53  C   UNL A   1      41.885  30.225  35.751  1.00  0.00     0.029 A 
ATOM     54  N   UNL A   1      41.568  29.684  33.617  1.00  0.00    -0.354 N 
ATOM     55  N   UNL A   1      42.123  28.203  31.127  1.00  0.00    -0.248 NA
ATOM     56  C   UNL A   1      43.410  26.664  29.929  1.00  0.00     0.031 C 
ATOM     57  C   UNL A   1      42.878  29.315  35.372  1.00  0.00     0.029 A 
ATOM     58  C   UNL A   1      42.661  28.950  34.053  1.00  0.00     0.049 A 
ATOM     59  H   UNL A   1      41.187  29.645  32.711  1.00  0.00     0.167 HD
ATOM     60  C   UNL A   1      43.116  27.692  31.959  1.00  0.00     0.074 A 
ATOM     61  C   UNL A   1      43.855  26.724  31.175  1.00  0.00     0.031 C 
ATOM     62  C   UNL A   1      43.390  27.992  33.255  1.00  0.00     0.034 A 
BRANCH  49  63
ATOM     63  C   UNL A   1      39.618  32.268  35.714  1.00  0.00     0.023 A 
ATOM     64  C   UNL A   1      38.795  31.800  36.754  1.00  0.00     0.031 A 
ATOM     65  C   UNL A   1      40.064  33.600  35.780  1.00  0.00     0.131 A 
ATOM     66  C   UNL A   1      38.371  32.677  37.763  1.00  0.00     0.055 A 
ATOM     67  C   UNL A   1      39.711  34.443  36.836  1.00  0.00     0.041 A 
ATOM     68  F   UNL A   1      40.836  34.112  34.808  1.00  0.00    -0.206 F 
ATOM     69  C   UNL A   1      38.845  33.989  37.827  1.00  0.00     0.022 A 
BRANCH  66  70
ATOM     70  S   UNL A   1      37.070  32.123  38.900  1.00  0.00     0.124 S 
ATOM     71  O   UNL A   1      37.624  32.517  40.193  1.00  0.00    -0.237 OA
ATOM     72  O   UNL A   1      35.910  32.879  38.445  1.00  0.00    -0.237 OA
ATOM     73  O   UNL A   1      37.006  30.682  38.670  1.00  0.00    -0.744 OA
ENDBRANCH  66  70
ENDBRANCH  49  63
BRANCH  50  74
ATOM     74  C   UNL A   1      41.829  26.978  27.480  1.00  0.00     0.023 A 
ATOM     75  C   UNL A   1      41.641  25.588  27.400  1.00  0.00     0.031 A 
ATOM     76  C   UNL A   1      42.417  27.626  26.379  1.00  0.00     0.131 A 
ATOM     77  C   UNL A   1      42.082  24.886  26.267  1.00  0.00     0.055 A 
ATOM     78  C   UNL A   1      42.805  26.931  25.233  1.00  0.00     0.041 A 
ATOM     79  F   UNL A   1      42.612  28.955  26.399  1.00  0.00    -0.206 F 
ATOM     80  C   UNL A   1      42.651  25.549  25.179  1.00  0.00     0.022 A 
BRANCH  77  81
ATOM     81  S   UNL A   1      41.974  23.074  26.271  1.00  0.00     0.124 S 
ATOM     82  O   UNL A   1      40.533  22.863  26.348  1.00  0.00    -0.237 OA
ATOM     83  O   UNL A   1      42.607  22.732  25.002  1.00  0.00    -0.237 OA
ATOM     84  O   UNL A   1      42.726  22.692  27.465  1.00  0.00    -0.744 OA
ENDBRANCH  77  81
ENDBRANCH  50  74
BRANCH  62  85
ATOM     85  C   UNL A   1      44.507  27.222  33.913  1.00  0.00     0.023 A 
ATOM     86  C   UNL A   1      44.273  26.024  34.610  1.00  0.00     0.031 A 
ATOM     87  C   UNL A   1      45.827  27.704  33.849  1.00  0.00     0.131 A 
ATOM     88  C   UNL A   1      45.334  25.377  35.261  1.00  0.00     0.055 A 
ATOM     89  C   UNL A   1      46.888  27.024  34.448  1.00  0.00     0.041 A 
ATOM     90  F   UNL A   1      46.107  28.844  33.197  1.00  0.00    -0.206 F 
ATOM     91  C   UNL A   1      46.642  25.861  35.171  1.00  0.00     0.022 A 
BRANCH  88  92
ATOM     92  S   UNL A   1      44.967  23.942  36.308  1.00  0.00     0.124 S 
ATOM     93  O   UNL A   1      43.944  23.251  35.528  1.00  0.00    -0.237 OA
ATOM     94  O   UNL A   1      46.263  23.277  36.391  1.00  0.00    -0.237 OA
ATOM     95  O   UNL A   1      44.497  24.539  37.557  1.00  0.00    -0.744 OA
ENDBRANCH  88  92
ENDBRANCH  62  85
ENDBRANCH  36  37
ENDBRANCH  28  31
ENDBRANCH  26  27
ENDBRANCH   1  26
TORSDOF 16
ENDMDL
MODEL 2
REMARK VINA RESULT:     -12.5      1.931      2.343
REMARK SMILES C[C@@](NC(=O)[C@H]1COc2ccccc21)(C(=O)NCCCNC(=O)c1ccc(-c2c3nc(c(-c4cc(S(=O)(=O)[O-])ccc4F)c4ccc([nH]4)c(-c4cc(S(=O)(=O)[O-])ccc4F)c4nc(c(-c5cc(S(=O)(=O)[O-])ccc5F)c5ccc2[nH]5)C=C4)C=C3)cc1)C(F)(F)F
REMARK SMILES IDX 19 1 18 2 17 3 15 4 16 5 2 7 1 8 3 9 4 10 5 12 6 13 7 14
REMARK SMILES IDX 14 15 8 16 9 17 13 18 10 19 12 20 11 21 87 22 88 23 89 24
REMARK SMILES IDX 90 25 20 26 21 27 22 28 23 30 24 31 25 32 86 33 26 34 85 35
REMARK SMILES IDX 27 36 28 37 29 38 79 39 30 40 84 41 78 42 80 43 31 44 83 45
REMARK SMILES IDX 77 46 76 47 32 49 64 50 44 51 63 52 45 53 48 54 62 55 81 56
REMARK SMILES IDX 46 57 47 58 61 60 82 61 49 62 33 63 34 64 42 65 35 66 41 67
REMARK SMILES IDX 43 68 40 69 36 70 37 71 38 72 39 73 65 74 66 75 74 76 67 77
REMARK SMILES IDX 73 78 75 79 72 80 68 81 69 82 70 83 71 84 50 85 51 86 59 87
REMARK SMILES IDX 52 88 58 89 60 90 57 91 53 92 54 93 55 94 56 95
REMARK H PARENT 17 6 3 11 21 29 80 48 48 59
REMARK Flexibility Score: inf
ROOT
ATOM      1  C   UNL A   1      31.924  28.931  27.204  1.00  0.00     0.042 C 
ENDROOT
BRANCH   1   2
ATOM      2  C   UNL A   1      32.096  27.449  26.923  1.00  0.00     0.117 C 
BRANCH   2   3
ATOM      3  N   UNL A   1      32.822  27.193  25.683  1.00  0.00    -0.354 N 
ATOM      4  C   UNL A   1      32.486  26.458  24.573  1.00  0.00     0.254 C 
ATOM      5  O   UNL A   1      33.355  26.336  23.709  1.00  0.00    -0.272 OA
ATOM      6  H   UNL A   1      33.707  27.621  25.635  1.00  0.00     0.163 HD
BRANCH   4   7
ATOM      7  C   UNL A   1      31.181  25.662  24.536  1.00  0.00     0.212 C 
ATOM      8  C   UNL A   1      31.258  24.819  23.224  1.00  0.00     0.056 C 
BRANCH   7   9
ATOM      9  N   UNL A   1      31.046  24.720  25.704  1.00  0.00    -0.334 N 
ATOM     10  C   UNL A   1      31.808  23.788  26.324  1.00  0.00     0.232 C 
ATOM     11  H   UNL A   1      30.165  24.806  26.134  1.00  0.00     0.164 HD
ATOM     12  O   UNL A   1      31.369  23.496  27.451  1.00  0.00    -0.274 OA
BRANCH  10  13
ATOM     13  C   UNL A   1      32.987  22.959  25.819  1.00  0.00     0.150 C 
ATOM     14  C   UNL A   1      33.902  22.450  26.936  1.00  0.00     0.248 C 
ATOM     15  C   UNL A   1      32.808  21.684  25.094  1.00  0.00     0.010 A 
ATOM     16  O   UNL A   1      33.653  21.037  27.139  1.00  0.00    -0.492 OA
ATOM     17  C   UNL A   1      33.194  20.631  25.910  1.00  0.00     0.123 A 
ATOM     18  C   UNL A   1      32.455  21.458  23.776  1.00  0.00     0.008 A 
ATOM     19  C   UNL A   1      33.122  19.318  25.496  1.00  0.00     0.047 A 
ATOM     20  C   UNL A   1      32.380  20.136  23.329  1.00  0.00     0.001 A 
ATOM     21  C   UNL A   1      32.694  19.071  24.190  1.00  0.00     0.004 A 
ENDBRANCH  10  13
ENDBRANCH   7   9
BRANCH   7  22
ATOM     22  C   UNL A   1      29.953  26.570  24.301  1.00  0.00     0.420 C 
ATOM     23  F   UNL A   1      30.248  27.888  24.296  1.00  0.00    -0.168 F 
ATOM     24  F   UNL A   1      29.433  26.304  23.065  1.00  0.00    -0.168 F 
ATOM     25  F   UNL A   1      28.942  26.376  25.156  1.00  0.00    -0.168 F 
ENDBRANCH   7  22
ENDBRANCH   4   7
ENDBRANCH   2   3
ENDBRANCH   1   2
BRANCH   1  26
ATOM     26  C   UNL A   1      32.953  29.802  26.498  1.00  0.00     0.118 C 
BRANCH  26  27
ATOM     27  N   UNL A   1      32.900  31.200  26.902  1.00  0.00    -0.352 N 
ATOM     28  C   UNL A   1      33.826  31.936  27.607  1.00  0.00     0.251 C 
ATOM     29  H   UNL A   1      32.089  31.689  26.631  1.00  0.00     0.163 HD
ATOM     30  O   UNL A   1      33.564  33.089  27.942  1.00  0.00    -0.269 OA
BRANCH  28  31
ATOM     31  C   UNL A   1      35.104  31.308  28.008  1.00  0.00     0.039 A 
ATOM     32  C   UNL A   1      36.269  32.076  27.990  1.00  0.00     0.014 A 
ATOM     33  C   UNL A   1      35.137  29.990  28.468  1.00  0.00     0.014 A 
ATOM     34  C   UNL A   1      37.449  31.551  28.520  1.00  0.00     0.010 A 
ATOM     35  C   UNL A   1      36.285  29.505  29.087  1.00  0.00     0.010 A 
ATOM     36  C   UNL A   1      37.455  30.280  29.119  1.00  0.00    -0.014 A 
BRANCH  36  37
ATOM     37  C   UNL A   1      38.681  29.736  29.762  1.00  0.00     0.031 A 
ATOM     38  C   UNL A   1      39.096  30.236  31.120  1.00  0.00     0.074 A 
ATOM     39  C   UNL A   1      39.447  28.843  29.105  1.00  0.00     0.049 A 
ATOM     40  N   UNL A   1      40.157  29.939  31.824  1.00  0.00    -0.248 NA
ATOM     41  C   UNL A   1      38.214  31.229  31.752  1.00  0.00     0.031 C 
ATOM     42  C   UNL A   1      39.179  28.322  27.762  1.00  0.00     0.029 A 
ATOM     43  N   UNL A   1      40.610  28.213  29.474  1.00  0.00    -0.354 N 
ATOM     44  C   UNL A   1      40.078  30.721  32.973  1.00  0.00     0.074 A 
ATOM     45  C   UNL A   1      38.906  31.556  32.832  1.00  0.00     0.031 C 
ATOM     46  C   UNL A   1      40.129  27.431  27.436  1.00  0.00     0.029 A 
ATOM     47  C   UNL A   1      41.098  27.345  28.523  1.00  0.00     0.049 A 
ATOM     48  H   UNL A   1      41.055  28.369  30.338  1.00  0.00     0.167 HD
ATOM     49  C   UNL A   1      40.890  30.720  34.059  1.00  0.00     0.034 A 
ATOM     50  C   UNL A   1      42.202  26.572  28.527  1.00  0.00     0.034 A 
ATOM     51  C   UNL A   1      42.045  29.865  34.191  1.00  0.00     0.049 A 
ATOM     52  C   UNL A   1      43.095  26.590  29.744  1.00  0.00     0.074 A 
ATOM     53  C   UNL A   1      42.909  29.742  35.265  1.00  0.00     0.029 A 
ATOM     54  N   UNL A   1      42.499  28.987  33.214  1.00  0.00    -0.354 N 
ATOM     55  N   UNL A   1      42.976  27.294  30.845  1.00  0.00    -0.248 NA
ATOM     56  C   UNL A   1      44.260  25.696  29.723  1.00  0.00     0.031 C 
ATOM     57  C   UNL A   1      43.918  28.837  34.915  1.00  0.00     0.029 A 
ATOM     58  C   UNL A   1      43.643  28.339  33.651  1.00  0.00     0.049 A 
ATOM     59  H   UNL A   1      42.070  28.847  32.339  1.00  0.00     0.167 HD
ATOM     60  C   UNL A   1      44.035  26.903  31.661  1.00  0.00     0.074 A 
ATOM     61  C   UNL A   1      44.770  25.892  30.930  1.00  0.00     0.031 C 
ATOM     62  C   UNL A   1      44.367  27.336  32.905  1.00  0.00     0.034 A 
BRANCH  49  63
ATOM     63  C   UNL A   1      40.560  31.688  35.169  1.00  0.00     0.023 A 
ATOM     64  C   UNL A   1      39.569  31.401  36.127  1.00  0.00     0.031 A 
ATOM     65  C   UNL A   1      41.207  32.932  35.250  1.00  0.00     0.131 A 
ATOM     66  C   UNL A   1      39.194  32.377  37.062  1.00  0.00     0.055 A 
ATOM     67  C   UNL A   1      40.892  33.865  36.240  1.00  0.00     0.041 A 
ATOM     68  F   UNL A   1      42.148  33.273  34.353  1.00  0.00    -0.206 F 
ATOM     69  C   UNL A   1      39.867  33.597  37.143  1.00  0.00     0.022 A 
BRANCH  66  70
ATOM     70  S   UNL A   1      37.712  32.086  38.067  1.00  0.00     0.124 S 
ATOM     71  O   UNL A   1      38.222  32.316  39.416  1.00  0.00    -0.237 OA
ATOM     72  O   UNL A   1      36.782  33.087  37.556  1.00  0.00    -0.237 OA
ATOM     73  O   UNL A   1      37.362  30.699  37.768  1.00  0.00    -0.744 OA
ENDBRANCH  66  70
ENDBRANCH  49  63
BRANCH  50  74
ATOM     74  C   UNL A   1      42.534  25.715  27.353  1.00  0.00     0.023 A 
ATOM     75  C   UNL A   1      42.128  24.370  27.299  1.00  0.00     0.031 A 
ATOM     76  C   UNL A   1      43.300  26.213  26.285  1.00  0.00     0.131 A 
ATOM     77  C   UNL A   1      42.532  23.559  26.228  1.00  0.00     0.055 A 
ATOM     78  C   UNL A   1      43.655  25.416  25.195  1.00  0.00     0.041 A 
ATOM     79  F   UNL A   1      43.708  27.493  26.281  1.00  0.00    -0.206 F 
ATOM     80  C   UNL A   1      43.282  24.076  25.169  1.00  0.00     0.022 A 
BRANCH  77  81
ATOM     81  S   UNL A   1      42.130  21.790  26.277  1.00  0.00     0.124 S 
ATOM     82  O   UNL A   1      43.009  21.257  25.243  1.00  0.00    -0.237 OA
ATOM     83  O   UNL A   1      42.471  21.442  27.652  1.00  0.00    -0.237 OA
ATOM     84  O   UNL A   1      40.703  21.757  25.962  1.00  0.00    -0.744 OA
ENDBRANCH  77  81
ENDBRANCH  50  74
BRANCH  62  85
ATOM     85  C   UNL A   1      45.551  26.675  33.566  1.00  0.00     0.023 A 
ATOM     86  C   UNL A   1      45.430  25.459  34.259  1.00  0.00     0.031 A 
ATOM     87  C   UNL A   1      46.819  27.280  33.506  1.00  0.00     0.131 A 
ATOM     88  C   UNL A   1      46.545  24.914  34.913  1.00  0.00     0.055 A 
ATOM     89  C   UNL A   1      47.938  26.703  34.108  1.00  0.00     0.041 A 
ATOM     90  F   UNL A   1      46.991  28.444  32.858  1.00  0.00    -0.206 F 
ATOM     91  C   UNL A   1      47.802  25.520  34.828  1.00  0.00     0.022 A 
BRANCH  88  92
ATOM     92  S   UNL A   1      46.314  23.448  35.956  1.00  0.00     0.124 S 
ATOM     93  O   UNL A   1      44.886  23.187  35.798  1.00  0.00    -0.237 OA
ATOM     94  O   UNL A   1      47.211  22.479  35.336  1.00  0.00    -0.237 OA
ATOM     95  O   UNL A   1      46.718  23.904  37.284  1.00  0.00    -0.744 OA
ENDBRANCH  88  92
ENDBRANCH  62  85
ENDBRANCH  36  37
ENDBRANCH  28  31
ENDBRANCH  26  27
ENDBRANCH   1  26
TORSDOF 16
ENDMDL
MODEL 3
REMARK VINA RESULT:     -12.5      1.879      2.401
REMARK SMILES C[C@@](NC(=O)[C@H]1COc2ccccc21)(C(=O)NCCCNC(=O)c1ccc(-c2c3nc(c(-c4cc(S(=O)(=O)[O-])ccc4F)c4ccc([nH]4)c(-c4cc(S(=O)(=O)[O-])ccc4F)c4nc(c(-c5cc(S(=O)(=O)[O-])ccc5F)c5ccc2[nH]5)C=C4)C=C3)cc1)C(F)(F)F
REMARK SMILES IDX 19 1 18 2 17 3 15 4 16 5 2 7 1 8 3 9 4 10 5 12 6 13 7 14
REMARK SMILES IDX 14 15 8 16 9 17 13 18 10 19 12 20 11 21 87 22 88 23 89 24
REMARK SMILES IDX 90 25 20 26 21 27 22 28 23 30 24 31 25 32 86 33 26 34 85 35
REMARK SMILES IDX 27 36 28 37 29 38 79 39 30 40 84 41 78 42 80 43 31 44 83 45
REMARK SMILES IDX 77 46 76 47 32 49 64 50 44 51 63 52 45 53 48 54 62 55 81 56
REMARK SMILES IDX 46 57 47 58 61 60 82 61 49 62 33 63 34 64 42 65 35 66 41 67
REMARK SMILES IDX 43 68 40 69 36 70 37 71 38 72 39 73 65 74 66 75 74 76 67 77
REMARK SMILES IDX 73 78 75 79 72 80 68 81 69 82 70 83 71 84 50 85 51 86 59 87
REMARK SMILES IDX 52 88 58 89 60 90 57 91 53 92 54 93 55 94 56 95
REMARK H PARENT 17 6 3 11 21 29 80 48 48 59
REMARK Flexibility Score: inf
ROOT
ATOM      1  C   UNL A   1      32.175  29.924  26.289  1.00  0.00     0.042 C 
ENDROOT
BRANCH   1   2
ATOM      2  C   UNL A   1      32.253  29.325  24.897  1.00  0.00     0.117 C 
BRANCH   2   3
ATOM      3  N   UNL A   1      30.938  29.019  24.342  1.00  0.00    -0.354 N 
ATOM      4  C   UNL A   1      30.344  27.822  24.030  1.00  0.00     0.254 C 
ATOM      5  O   UNL A   1      29.247  27.879  23.472  1.00  0.00    -0.272 OA
ATOM      6  H   UNL A   1      30.381  29.810  24.159  1.00  0.00     0.163 HD
BRANCH   4   7
ATOM      7  C   UNL A   1      31.117  26.510  24.175  1.00  0.00     0.212 C 
ATOM      8  C   UNL A   1      30.132  25.403  23.687  1.00  0.00     0.056 C 
BRANCH   7   9
ATOM      9  N   UNL A   1      32.351  26.469  23.312  1.00  0.00    -0.334 N 
ATOM     10  C   UNL A   1      33.241  25.538  22.894  1.00  0.00     0.232 C 
ATOM     11  H   UNL A   1      32.569  27.360  22.955  1.00  0.00     0.164 HD
ATOM     12  O   UNL A   1      33.917  25.935  21.927  1.00  0.00    -0.274 OA
BRANCH  10  13
ATOM     13  C   UNL A   1      33.639  24.191  23.492  1.00  0.00     0.150 C 
ATOM     14  C   UNL A   1      33.899  23.106  22.443  1.00  0.00     0.248 C 
ATOM     15  C   UNL A   1      34.868  24.010  24.293  1.00  0.00     0.010 A 
ATOM     16  O   UNL A   1      35.328  22.900  22.325  1.00  0.00    -0.492 OA
ATOM     17  C   UNL A   1      35.792  23.278  23.561  1.00  0.00     0.123 A 
ATOM     18  C   UNL A   1      35.124  24.346  25.610  1.00  0.00     0.008 A 
ATOM     19  C   UNL A   1      37.040  22.967  24.057  1.00  0.00     0.047 A 
ATOM     20  C   UNL A   1      36.379  24.036  26.139  1.00  0.00     0.001 A 
ATOM     21  C   UNL A   1      37.339  23.367  25.361  1.00  0.00     0.004 A 
ENDBRANCH  10  13
ENDBRANCH   7   9
BRANCH   7  22
ATOM     22  C   UNL A   1      31.360  26.140  25.656  1.00  0.00     0.420 C 
ATOM     23  F   UNL A   1      32.564  26.537  26.122  1.00  0.00    -0.168 F 
ATOM     24  F   UNL A   1      30.435  26.782  26.432  1.00  0.00    -0.168 F 
ATOM     25  F   UNL A   1      31.215  24.841  25.939  1.00  0.00    -0.168 F 
ENDBRANCH   7  22
ENDBRANCH   4   7
ENDBRANCH   2   3
ENDBRANCH   1   2
BRANCH   1  26
ATOM     26  C   UNL A   1      33.536  30.283  26.869  1.00  0.00     0.118 C 
BRANCH  26  27
ATOM     27  N   UNL A   1      33.539  31.546  27.595  1.00  0.00    -0.352 N 
ATOM     28  C   UNL A   1      34.474  32.038  28.478  1.00  0.00     0.251 C 
ATOM     29  H   UNL A   1      32.763  32.130  27.430  1.00  0.00     0.163 HD
ATOM     30  O   UNL A   1      34.259  33.090  29.073  1.00  0.00    -0.269 OA
BRANCH  28  31
ATOM     31  C   UNL A   1      35.703  31.259  28.745  1.00  0.00     0.039 A 
ATOM     32  C   UNL A   1      36.933  31.779  28.338  1.00  0.00     0.014 A 
ATOM     33  C   UNL A   1      35.647  30.060  29.458  1.00  0.00     0.014 A 
ATOM     34  C   UNL A   1      38.113  31.141  28.727  1.00  0.00     0.010 A 
ATOM     35  C   UNL A   1      36.822  29.483  29.930  1.00  0.00     0.010 A 
ATOM     36  C   UNL A   1      38.070  30.016  29.568  1.00  0.00    -0.014 A 
BRANCH  36  37
ATOM     37  C   UNL A   1      39.316  29.373  30.060  1.00  0.00     0.031 A 
ATOM     38  C   UNL A   1      40.002  29.914  31.286  1.00  0.00     0.074 A 
ATOM     39  C   UNL A   1      39.860  28.345  29.377  1.00  0.00     0.049 A 
ATOM     40  N   UNL A   1      41.126  29.539  31.842  1.00  0.00    -0.248 NA
ATOM     41  C   UNL A   1      39.353  31.053  31.954  1.00  0.00     0.031 C 
ATOM     42  C   UNL A   1      39.317  27.767  28.145  1.00  0.00     0.029 A 
ATOM     43  N   UNL A   1      40.990  27.605  29.617  1.00  0.00    -0.354 N 
ATOM     44  C   UNL A   1      41.325  30.406  32.912  1.00  0.00     0.074 A 
ATOM     45  C   UNL A   1      40.246  31.368  32.879  1.00  0.00     0.031 C 
ATOM     46  C   UNL A   1      40.095  26.743  27.759  1.00  0.00     0.029 A 
ATOM     47  C   UNL A   1      41.215  26.616  28.685  1.00  0.00     0.049 A 
ATOM     48  H   UNL A   1      41.586  27.766  30.384  1.00  0.00     0.167 HD
ATOM     49  C   UNL A   1      42.300  30.382  33.854  1.00  0.00     0.034 A 
ATOM     50  C   UNL A   1      42.212  25.714  28.589  1.00  0.00     0.034 A 
ATOM     51  C   UNL A   1      43.358  29.402  33.883  1.00  0.00     0.049 A 
ATOM     52  C   UNL A   1      43.289  25.708  29.646  1.00  0.00     0.074 A 
ATOM     53  C   UNL A   1      44.368  29.250  34.817  1.00  0.00     0.029 A 
ATOM     54  N   UNL A   1      43.544  28.406  32.932  1.00  0.00    -0.354 N 
ATOM     55  N   UNL A   1      43.433  26.500  30.683  1.00  0.00    -0.248 NA
ATOM     56  C   UNL A   1      44.328  24.677  29.526  1.00  0.00     0.031 C 
ATOM     57  C   UNL A   1      45.199  28.204  34.398  1.00  0.00     0.029 A 
ATOM     58  C   UNL A   1      44.665  27.654  33.243  1.00  0.00     0.049 A 
ATOM     59  H   UNL A   1      42.964  28.257  32.150  1.00  0.00     0.167 HD
ATOM     60  C   UNL A   1      44.562  26.040  31.357  1.00  0.00     0.074 A 
ATOM     61  C   UNL A   1      45.048  24.895  30.616  1.00  0.00     0.031 C 
ATOM     62  C   UNL A   1      45.140  26.517  32.489  1.00  0.00     0.034 A 
BRANCH  49  63
ATOM     63  C   UNL A   1      42.266  31.461  34.909  1.00  0.00     0.023 A 
ATOM     64  C   UNL A   1      41.263  31.498  35.895  1.00  0.00     0.031 A 
ATOM     65  C   UNL A   1      43.220  32.494  34.906  1.00  0.00     0.131 A 
ATOM     66  C   UNL A   1      41.185  32.587  36.776  1.00  0.00     0.055 A 
ATOM     67  C   UNL A   1      43.189  33.529  35.843  1.00  0.00     0.041 A 
ATOM     68  F   UNL A   1      44.191  32.526  33.978  1.00  0.00    -0.206 F 
ATOM     69  C   UNL A   1      42.156  33.590  36.775  1.00  0.00     0.022 A 
BRANCH  66  70
ATOM     70  S   UNL A   1      39.707  32.752  37.816  1.00  0.00     0.124 S 
ATOM     71  O   UNL A   1      40.273  32.606  39.154  1.00  0.00    -0.237 OA
ATOM     72  O   UNL A   1      39.223  34.083  37.469  1.00  0.00    -0.237 OA
ATOM     73  O   UNL A   1      38.858  31.646  37.382  1.00  0.00    -0.744 OA
ENDBRANCH  66  70
ENDBRANCH  49  63
BRANCH  50  74
ATOM     74  C   UNL A   1      42.248  24.739  27.461  1.00  0.00     0.023 A 
ATOM     75  C   UNL A   1      41.588  23.502  27.551  1.00  0.00     0.031 A 
ATOM     76  C   UNL A   1      42.979  25.010  26.291  1.00  0.00     0.131 A 
ATOM     77  C   UNL A   1      41.714  22.564  26.514  1.00  0.00     0.055 A 
ATOM     78  C   UNL A   1      43.058  24.095  25.240  1.00  0.00     0.041 A 
ATOM     79  F   UNL A   1      43.622  26.181  26.149  1.00  0.00    -0.206 F 
ATOM     80  C   UNL A   1      42.434  22.857  25.355  1.00  0.00     0.022 A 
BRANCH  77  81
ATOM     81  S   UNL A   1      40.987  20.916  26.739  1.00  0.00     0.124 S 
ATOM     82  O   UNL A   1      39.781  21.010  25.925  1.00  0.00    -0.237 OA
ATOM     83  O   UNL A   1      42.042  20.049  26.228  1.00  0.00    -0.237 OA
ATOM     84  O   UNL A   1      40.762  20.838  28.182  1.00  0.00    -0.744 OA
ENDBRANCH  77  81
ENDBRANCH  50  74
BRANCH  62  85
ATOM     85  C   UNL A   1      46.336  25.764  33.016  1.00  0.00     0.023 A 
ATOM     86  C   UNL A   1      46.202  24.711  33.938  1.00  0.00     0.031 A 
ATOM     87  C   UNL A   1      47.630  26.113  32.593  1.00  0.00     0.131 A 
ATOM     88  C   UNL A   1      47.347  24.082  34.449  1.00  0.00     0.055 A 
ATOM     89  C   UNL A   1      48.762  25.444  33.059  1.00  0.00     0.041 A 
ATOM     90  F   UNL A   1      47.816  27.112  31.714  1.00  0.00    -0.206 F 
ATOM     91  C   UNL A   1      48.625  24.431  34.004  1.00  0.00     0.022 A 
BRANCH  88  92
ATOM     92  S   UNL A   1      47.151  22.861  35.776  1.00  0.00     0.124 S 
ATOM     93  O   UNL A   1      48.225  21.917  35.481  1.00  0.00    -0.237 OA
ATOM     94  O   UNL A   1      47.327  23.673  36.976  1.00  0.00    -0.237 OA
ATOM     95  O   UNL A   1      45.798  22.346  35.572  1.00  0.00    -0.744 OA
ENDBRANCH  88  92
ENDBRANCH  62  85
ENDBRANCH  36  37
ENDBRANCH  28  31
ENDBRANCH  26  27
ENDBRANCH   1  26
TORSDOF 16
ENDMDL
