MODEL 1
REMARK VINA RESULT:     -14.0      0.000      0.000
REMARK SMILES Cc1cccc(-n2c(C)cc(/C=N\c3ccc(O)c(C(=O)NCCCNC(=O)c4ccc(-c5c6nc(c(-c7cc(S(=O)(=O)[O-])ccc7F)c7ccc([nH]7)c(-c7cc(S(=O)(=O)[O-])ccc7F)c7nc(c(-c8cc(S(=O)(=O)[O-])ccc8F)c8ccc5[nH]8)C=C7)C=C6)cc4)c3)c2C)c1
REMARK SMILES IDX 24 1 23 2 22 3 20 4 21 5 19 7 14 8 15 9 92 10 16 11 17 12
REMARK SMILES IDX 13 13 12 14 11 15 7 16 8 17 93 18 9 19 10 20 94 21 6 22 1 23
REMARK SMILES IDX 2 24 3 25 95 26 4 27 5 28 18 29 25 31 26 32 27 33 28 35
REMARK SMILES IDX 29 36 30 37 91 38 31 39 90 40 32 41 33 42 34 43 84 44 35 45
REMARK SMILES IDX 89 46 83 47 85 48 36 49 88 50 82 51 81 52 37 54 69 55 49 56
REMARK SMILES IDX 68 57 50 58 53 59 67 60 86 61 51 62 52 63 66 65 87 66 54 67
REMARK SMILES IDX 38 68 39 69 47 70 40 71 46 72 48 73 45 74 41 75 42 76 43 77
REMARK SMILES IDX 44 78 70 79 71 80 79 81 72 82 78 83 80 84 77 85 73 86 74 87
REMARK SMILES IDX 75 88 76 89 55 90 56 91 64 92 57 93 63 94 65 95 62 96 58 97
REMARK SMILES IDX 59 98 60 99 61 100
REMARK H PARENT 22 6 18 30 26 34 85 53 53 64
REMARK Flexibility Score: inf
ROOT
ATOM      1  C   UNL A   1      38.639  21.557  25.675  1.00  0.00     0.042 C 
ENDROOT
BRANCH   1   2
ATOM      2  C   UNL A   1      37.183  21.479  25.289  1.00  0.00     0.118 C 
BRANCH   2   3
ATOM      3  N   UNL A   1      36.297  22.263  26.132  1.00  0.00    -0.352 N 
ATOM      4  C   UNL A   1      34.976  22.636  26.103  1.00  0.00     0.255 C 
ATOM      5  O   UNL A   1      34.588  23.319  27.057  1.00  0.00    -0.269 OA
ATOM      6  H   UNL A   1      36.760  22.618  26.926  1.00  0.00     0.163 HD
BRANCH   4   7
ATOM      7  C   UNL A   1      33.982  22.323  25.023  1.00  0.00     0.083 A 
ATOM      8  C   UNL A   1      33.345  22.735  22.694  1.00  0.00     0.064 A 
ATOM      9  C   UNL A   1      32.312  21.811  22.794  1.00  0.00     0.032 A 
ATOM     10  C   UNL A   1      34.268  22.845  23.745  1.00  0.00     0.046 A 
ATOM     11  C   UNL A   1      32.000  21.291  24.036  1.00  0.00     0.049 A 
ATOM     12  C   UNL A   1      32.735  21.706  25.146  1.00  0.00     0.128 A 
BRANCH   8  13
ATOM     13  N   UNL A   1      33.428  23.605  21.604  1.00  0.00    -0.256 NA
ATOM     14  C   UNL A   1      33.165  24.879  21.714  1.00  0.00     0.121 C 
BRANCH  14  15
ATOM     15  C   UNL A   1      32.742  25.688  22.868  1.00  0.00     0.014 A 
ATOM     16  N   UNL A   1      32.484  27.253  24.492  1.00  0.00    -0.318 N 
ATOM     17  C   UNL A   1      31.582  26.236  24.762  1.00  0.00     0.021 A 
ATOM     18  C   UNL A   1      33.032  27.006  23.227  1.00  0.00     0.029 A 
ATOM     19  C   UNL A   1      30.565  26.306  25.849  1.00  0.00     0.065 C 
ATOM     20  C   UNL A   1      31.762  25.253  23.810  1.00  0.00     0.033 A 
ATOM     21  C   UNL A   1      33.833  28.033  22.511  1.00  0.00     0.065 C 
BRANCH  16  22
ATOM     22  C   UNL A   1      32.835  28.318  25.382  1.00  0.00     0.046 A 
ATOM     23  C   UNL A   1      31.368  31.661  26.514  1.00  0.00     0.044 C 
ATOM     24  C   UNL A   1      32.251  30.452  26.404  1.00  0.00    -0.049 A 
ATOM     25  C   UNL A   1      33.282  30.275  27.334  1.00  0.00     0.003 A 
ATOM     26  C   UNL A   1      32.033  29.471  25.422  1.00  0.00     0.030 A 
ATOM     27  C   UNL A   1      34.109  29.156  27.265  1.00  0.00     0.002 A 
ATOM     28  C   UNL A   1      33.895  28.188  26.283  1.00  0.00     0.026 A 
ENDBRANCH  16  22
ENDBRANCH  14  15
ENDBRANCH   8  13
BRANCH  12  29
ATOM     29  O   UNL A   1      31.947  21.787  26.264  1.00  0.00    -0.507 OA
ATOM     30  H   UNL A   1      31.363  21.086  26.476  1.00  0.00     0.293 HD
ENDBRANCH  12  29
ENDBRANCH   4   7
ENDBRANCH   2   3
ENDBRANCH   1   2
BRANCH   1  31
ATOM     31  C   UNL A   1      38.995  22.907  26.259  1.00  0.00     0.118 C 
BRANCH  31  32
ATOM     32  N   UNL A   1      40.437  23.110  26.466  1.00  0.00    -0.352 N 
ATOM     33  C   UNL A   1      41.126  24.293  26.700  1.00  0.00     0.251 C 
ATOM     34  H   UNL A   1      40.989  22.296  26.434  1.00  0.00     0.163 HD
ATOM     35  O   UNL A   1      42.343  24.303  26.870  1.00  0.00    -0.269 OA
BRANCH  33  36
ATOM     36  C   UNL A   1      40.347  25.542  26.850  1.00  0.00     0.039 A 
ATOM     37  C   UNL A   1      40.775  26.677  26.155  1.00  0.00     0.014 A 
ATOM     38  C   UNL A   1      39.484  25.657  27.925  1.00  0.00     0.014 A 
ATOM     39  C   UNL A   1      40.578  27.928  26.730  1.00  0.00     0.010 A 
ATOM     40  C   UNL A   1      39.486  26.856  28.600  1.00  0.00     0.010 A 
ATOM     41  C   UNL A   1      40.066  27.991  28.024  1.00  0.00    -0.014 A 
BRANCH  41  42
ATOM     42  C   UNL A   1      40.179  29.158  28.894  1.00  0.00     0.031 A 
ATOM     43  C   UNL A   1      39.107  30.177  28.904  1.00  0.00     0.074 A 
ATOM     44  C   UNL A   1      41.194  29.251  29.785  1.00  0.00     0.049 A 
ATOM     45  N   UNL A   1      39.246  31.381  29.341  1.00  0.00    -0.248 NA
ATOM     46  C   UNL A   1      37.772  29.914  28.383  1.00  0.00     0.031 C 
ATOM     47  C   UNL A   1      41.307  30.176  30.909  1.00  0.00     0.029 A 
ATOM     48  N   UNL A   1      42.453  28.656  29.701  1.00  0.00    -0.354 N 
ATOM     49  C   UNL A   1      37.992  31.938  29.448  1.00  0.00     0.074 A 
ATOM     50  C   UNL A   1      37.118  31.005  28.782  1.00  0.00     0.031 C 
ATOM     51  C   UNL A   1      42.601  30.309  31.232  1.00  0.00     0.029 A 
ATOM     52  C   UNL A   1      43.373  29.582  30.242  1.00  0.00     0.049 A 
ATOM     53  H   UNL A   1      42.660  27.765  29.337  1.00  0.00     0.167 HD
ATOM     54  C   UNL A   1      37.824  33.062  30.201  1.00  0.00     0.034 A 
ATOM     55  C   UNL A   1      44.351  30.112  29.451  1.00  0.00     0.034 A 
ATOM     56  C   UNL A   1      39.111  33.581  30.678  1.00  0.00     0.049 A 
ATOM     57  C   UNL A   1      44.207  31.608  29.214  1.00  0.00     0.074 A 
ATOM     58  C   UNL A   1      39.784  33.563  31.889  1.00  0.00     0.029 A 
ATOM     59  N   UNL A   1      40.034  34.013  29.743  1.00  0.00    -0.354 N 
ATOM     60  N   UNL A   1      43.271  32.356  29.733  1.00  0.00    -0.248 NA
ATOM     61  C   UNL A   1      45.065  32.358  28.295  1.00  0.00     0.031 C 
ATOM     62  C   UNL A   1      41.141  33.940  31.646  1.00  0.00     0.029 A 
ATOM     63  C   UNL A   1      41.282  34.213  30.297  1.00  0.00     0.049 A 
ATOM     64  H   UNL A   1      39.825  34.161  28.792  1.00  0.00     0.167 HD
ATOM     65  C   UNL A   1      43.321  33.606  29.173  1.00  0.00     0.074 A 
ATOM     66  C   UNL A   1      44.475  33.566  28.292  1.00  0.00     0.031 C 
ATOM     67  C   UNL A   1      42.387  34.573  29.419  1.00  0.00     0.034 A 
BRANCH  54  68
ATOM     68  C   UNL A   1      36.490  33.565  30.710  1.00  0.00     0.023 A 
ATOM     69  C   UNL A   1      35.612  34.181  29.797  1.00  0.00     0.031 A 
ATOM     70  C   UNL A   1      36.031  33.526  32.042  1.00  0.00     0.131 A 
ATOM     71  C   UNL A   1      34.423  34.804  30.221  1.00  0.00     0.055 A 
ATOM     72  C   UNL A   1      34.883  34.200  32.478  1.00  0.00     0.041 A 
ATOM     73  F   UNL A   1      36.621  32.779  32.979  1.00  0.00    -0.206 F 
ATOM     74  C   UNL A   1      34.074  34.856  31.566  1.00  0.00     0.022 A 
BRANCH  71  75
ATOM     75  S   UNL A   1      33.326  35.532  28.978  1.00  0.00     0.124 S 
ATOM     76  O   UNL A   1      34.268  36.200  28.088  1.00  0.00    -0.237 OA
ATOM     77  O   UNL A   1      32.647  34.358  28.442  1.00  0.00    -0.237 OA
ATOM     78  O   UNL A   1      32.476  36.429  29.763  1.00  0.00    -0.744 OA
ENDBRANCH  71  75
ENDBRANCH  54  68
BRANCH  55  79
ATOM     79  C   UNL A   1      44.880  29.107  28.479  1.00  0.00     0.023 A 
ATOM     80  C   UNL A   1      45.679  28.067  29.008  1.00  0.00     0.031 A 
ATOM     81  C   UNL A   1      44.294  28.906  27.223  1.00  0.00     0.131 A 
ATOM     82  C   UNL A   1      45.718  26.815  28.377  1.00  0.00     0.055 A 
ATOM     83  C   UNL A   1      44.400  27.676  26.560  1.00  0.00     0.041 A 
ATOM     84  F   UNL A   1      43.487  29.833  26.687  1.00  0.00    -0.206 F 
ATOM     85  C   UNL A   1      45.071  26.609  27.159  1.00  0.00     0.022 A 
BRANCH  82  86
ATOM     86  S   UNL A   1      46.382  25.399  29.307  1.00  0.00     0.124 S 
ATOM     87  O   UNL A   1      45.674  25.509  30.578  1.00  0.00    -0.237 OA
ATOM     88  O   UNL A   1      46.015  24.263  28.466  1.00  0.00    -0.237 OA
ATOM     89  O   UNL A   1      47.817  25.664  29.363  1.00  0.00    -0.744 OA
ENDBRANCH  82  86
ENDBRANCH  55  79
BRANCH  67  90
ATOM     90  C   UNL A   1      42.450  35.948  28.804  1.00  0.00     0.023 A 
ATOM     91  C   UNL A   1      42.942  37.050  29.521  1.00  0.00     0.031 A 
ATOM     92  C   UNL A   1      41.944  36.217  27.512  1.00  0.00     0.131 A 
ATOM     93  C   UNL A   1      42.982  38.327  28.935  1.00  0.00     0.055 A 
ATOM     94  C   UNL A   1      41.895  37.503  26.971  1.00  0.00     0.041 A 
ATOM     95  F   UNL A   1      41.522  35.236  26.700  1.00  0.00    -0.206 F 
ATOM     96  C   UNL A   1      42.427  38.569  27.678  1.00  0.00     0.022 A 
BRANCH  93  97
ATOM     97  S   UNL A   1      43.854  39.652  29.807  1.00  0.00     0.124 S 
ATOM     98  O   UNL A   1      43.189  40.853  29.314  1.00  0.00    -0.237 OA
ATOM     99  O   UNL A   1      43.591  39.307  31.202  1.00  0.00    -0.237 OA
ATOM    100  O   UNL A   1      45.243  39.490  29.382  1.00  0.00    -0.744 OA
ENDBRANCH  93  97
ENDBRANCH  67  90
ENDBRANCH  41  42
ENDBRANCH  33  36
ENDBRANCH  31  32
ENDBRANCH   1  31
TORSDOF 17
ENDMDL
MODEL 2
REMARK VINA RESULT:     -14.0      3.985     10.546
REMARK SMILES Cc1cccc(-n2c(C)cc(/C=N\c3ccc(O)c(C(=O)NCCCNC(=O)c4ccc(-c5c6nc(c(-c7cc(S(=O)(=O)[O-])ccc7F)c7ccc([nH]7)c(-c7cc(S(=O)(=O)[O-])ccc7F)c7nc(c(-c8cc(S(=O)(=O)[O-])ccc8F)c8ccc5[nH]8)C=C7)C=C6)cc4)c3)c2C)c1
REMARK SMILES IDX 24 1 23 2 22 3 20 4 21 5 19 7 14 8 15 9 92 10 16 11 17 12
REMARK SMILES IDX 13 13 12 14 11 15 7 16 8 17 93 18 9 19 10 20 94 21 6 22 1 23
REMARK SMILES IDX 2 24 3 25 95 26 4 27 5 28 18 29 25 31 26 32 27 33 28 35
REMARK SMILES IDX 29 36 30 37 91 38 31 39 90 40 32 41 33 42 34 43 84 44 35 45
REMARK SMILES IDX 89 46 83 47 85 48 36 49 88 50 82 51 81 52 37 54 69 55 49 56
REMARK SMILES IDX 68 57 50 58 53 59 67 60 86 61 51 62 52 63 66 65 87 66 54 67
REMARK SMILES IDX 38 68 39 69 47 70 40 71 46 72 48 73 45 74 41 75 42 76 43 77
REMARK SMILES IDX 44 78 70 79 71 80 79 81 72 82 78 83 80 84 77 85 73 86 74 87
REMARK SMILES IDX 75 88 76 89 55 90 56 91 64 92 57 93 63 94 65 95 62 96 58 97
REMARK SMILES IDX 59 98 60 99 61 100
REMARK H PARENT 22 6 18 30 26 34 85 53 53 64
REMARK Flexibility Score: inf
ROOT
ATOM      1  C   UNL A   1      33.231  31.256  27.310  1.00  0.00     0.042 C 
ENDROOT
BRANCH   1   2
ATOM      2  C   UNL A   1      32.488  30.387  26.326  1.00  0.00     0.118 C 
BRANCH   2   3
ATOM      3  N   UNL A   1      33.344  29.556  25.496  1.00  0.00    -0.352 N 
ATOM      4  C   UNL A   1      33.169  28.483  24.658  1.00  0.00     0.255 C 
ATOM      5  O   UNL A   1      34.190  28.059  24.105  1.00  0.00    -0.269 OA
ATOM      6  H   UNL A   1      34.288  29.830  25.549  1.00  0.00     0.163 HD
BRANCH   4   7
ATOM      7  C   UNL A   1      31.880  27.769  24.377  1.00  0.00     0.083 A 
ATOM      8  C   UNL A   1      30.148  26.304  25.301  1.00  0.00     0.064 A 
ATOM      9  C   UNL A   1      29.403  26.417  24.134  1.00  0.00     0.032 A 
ATOM     10  C   UNL A   1      31.279  27.117  25.472  1.00  0.00     0.046 A 
ATOM     11  C   UNL A   1      29.970  27.040  23.038  1.00  0.00     0.049 A 
ATOM     12  C   UNL A   1      31.269  27.538  23.142  1.00  0.00     0.128 A 
BRANCH   8  13
ATOM     13  N   UNL A   1      29.834  25.340  26.263  1.00  0.00    -0.256 NA
ATOM     14  C   UNL A   1      30.578  24.285  26.453  1.00  0.00     0.121 C 
BRANCH  14  15
ATOM     15  C   UNL A   1      31.812  23.832  25.792  1.00  0.00     0.014 A 
ATOM     16  N   UNL A   1      33.887  23.076  25.268  1.00  0.00    -0.318 N 
ATOM     17  C   UNL A   1      33.261  23.400  24.075  1.00  0.00     0.021 A 
ATOM     18  C   UNL A   1      32.924  23.146  26.283  1.00  0.00     0.029 A 
ATOM     19  C   UNL A   1      33.854  23.129  22.735  1.00  0.00     0.065 C 
ATOM     20  C   UNL A   1      32.015  23.909  24.381  1.00  0.00     0.033 A 
ATOM     21  C   UNL A   1      33.185  22.604  27.642  1.00  0.00     0.065 C 
BRANCH  16  22
ATOM     22  C   UNL A   1      35.281  22.793  25.430  1.00  0.00     0.046 A 
ATOM     23  C   UNL A   1      37.659  19.855  24.859  1.00  0.00     0.044 C 
ATOM     24  C   UNL A   1      37.128  21.223  25.176  1.00  0.00    -0.049 A 
ATOM     25  C   UNL A   1      38.031  22.266  25.408  1.00  0.00     0.003 A 
ATOM     26  C   UNL A   1      35.748  21.489  25.194  1.00  0.00     0.030 A 
ATOM     27  C   UNL A   1      37.568  23.550  25.692  1.00  0.00     0.002 A 
ATOM     28  C   UNL A   1      36.197  23.809  25.716  1.00  0.00     0.026 A 
ENDBRANCH  16  22
ENDBRANCH  14  15
ENDBRANCH   8  13
BRANCH  12  29
ATOM     29  O   UNL A   1      31.952  27.398  21.963  1.00  0.00    -0.507 OA
ATOM     30  H   UNL A   1      32.760  27.854  21.833  1.00  0.00     0.293 HD
ENDBRANCH  12  29
ENDBRANCH   4   7
ENDBRANCH   2   3
ENDBRANCH   1   2
BRANCH   1  31
ATOM     31  C   UNL A   1      34.528  30.617  27.757  1.00  0.00     0.118 C 
BRANCH  31  32
ATOM     32  N   UNL A   1      35.348  31.472  28.629  1.00  0.00    -0.352 N 
ATOM     33  C   UNL A   1      36.526  31.160  29.296  1.00  0.00     0.251 C 
ATOM     34  H   UNL A   1      35.017  32.389  28.758  1.00  0.00     0.163 HD
ATOM     35  O   UNL A   1      37.112  31.993  29.985  1.00  0.00    -0.269 OA
BRANCH  33  36
ATOM     36  C   UNL A   1      37.127  29.826  29.077  1.00  0.00     0.039 A 
ATOM     37  C   UNL A   1      37.333  29.001  30.186  1.00  0.00     0.014 A 
ATOM     38  C   UNL A   1      37.798  29.592  27.889  1.00  0.00     0.014 A 
ATOM     39  C   UNL A   1      38.428  28.143  30.188  1.00  0.00     0.010 A 
ATOM     40  C   UNL A   1      38.996  28.921  27.972  1.00  0.00     0.010 A 
ATOM     41  C   UNL A   1      39.337  28.223  29.136  1.00  0.00    -0.014 A 
BRANCH  41  42
ATOM     42  C   UNL A   1      40.701  27.705  29.190  1.00  0.00     0.031 A 
ATOM     43  C   UNL A   1      40.983  26.325  28.738  1.00  0.00     0.074 A 
ATOM     44  C   UNL A   1      41.728  28.517  29.529  1.00  0.00     0.049 A 
ATOM     45  N   UNL A   1      42.035  25.652  29.055  1.00  0.00    -0.248 NA
ATOM     46  C   UNL A   1      40.062  25.573  27.896  1.00  0.00     0.031 C 
ATOM     47  C   UNL A   1      43.156  28.261  29.359  1.00  0.00     0.029 A 
ATOM     48  N   UNL A   1      41.675  29.666  30.318  1.00  0.00    -0.354 N 
ATOM     49  C   UNL A   1      42.086  24.543  28.243  1.00  0.00     0.074 A 
ATOM     50  C   UNL A   1      40.804  24.509  27.584  1.00  0.00     0.031 C 
ATOM     51  C   UNL A   1      43.838  29.022  30.228  1.00  0.00     0.029 A 
ATOM     52  C   UNL A   1      42.868  29.689  31.075  1.00  0.00     0.049 A 
ATOM     53  H   UNL A   1      40.950  30.331  30.343  1.00  0.00     0.167 HD
ATOM     54  C   UNL A   1      43.257  23.854  28.128  1.00  0.00     0.034 A 
ATOM     55  C   UNL A   1      42.813  29.607  32.438  1.00  0.00     0.034 A 
ATOM     56  C   UNL A   1      44.273  24.372  29.051  1.00  0.00     0.049 A 
ATOM     57  C   UNL A   1      43.422  28.332  33.001  1.00  0.00     0.074 A 
ATOM     58  C   UNL A   1      45.396  25.174  28.918  1.00  0.00     0.029 A 
ATOM     59  N   UNL A   1      44.035  24.283  30.410  1.00  0.00    -0.354 N 
ATOM     60  N   UNL A   1      43.990  27.399  32.284  1.00  0.00    -0.248 NA
ATOM     61  C   UNL A   1      43.357  27.973  34.419  1.00  0.00     0.031 C 
ATOM     62  C   UNL A   1      45.788  25.604  30.223  1.00  0.00     0.029 A 
ATOM     63  C   UNL A   1      44.923  25.043  31.145  1.00  0.00     0.049 A 
ATOM     64  H   UNL A   1      43.316  23.741  30.808  1.00  0.00     0.167 HD
ATOM     65  C   UNL A   1      44.263  26.315  33.078  1.00  0.00     0.074 A 
ATOM     66  C   UNL A   1      43.867  26.730  34.412  1.00  0.00     0.031 C 
ATOM     67  C   UNL A   1      44.739  25.132  32.588  1.00  0.00     0.034 A 
BRANCH  54  68
ATOM     68  C   UNL A   1      43.570  22.868  27.022  1.00  0.00     0.023 A 
ATOM     69  C   UNL A   1      42.953  21.603  27.056  1.00  0.00     0.031 A 
ATOM     70  C   UNL A   1      44.471  23.062  25.956  1.00  0.00     0.131 A 
ATOM     71  C   UNL A   1      43.306  20.584  26.149  1.00  0.00     0.055 A 
ATOM     72  C   UNL A   1      44.873  22.032  25.094  1.00  0.00     0.041 A 
ATOM     73  F   UNL A   1      44.957  24.266  25.641  1.00  0.00    -0.206 F 
ATOM     74  C   UNL A   1      44.297  20.778  25.194  1.00  0.00     0.022 A 
BRANCH  71  75
ATOM     75  S   UNL A   1      42.431  19.001  26.230  1.00  0.00     0.124 S 
ATOM     76  O   UNL A   1      43.267  18.143  25.398  1.00  0.00    -0.237 OA
ATOM     77  O   UNL A   1      42.435  18.720  27.661  1.00  0.00    -0.237 OA
ATOM     78  O   UNL A   1      41.116  19.314  25.669  1.00  0.00    -0.744 OA
ENDBRANCH  71  75
ENDBRANCH  54  68
BRANCH  55  79
ATOM     79  C   UNL A   1      41.636  30.346  32.988  1.00  0.00     0.023 A 
ATOM     80  C   UNL A   1      41.700  31.758  32.961  1.00  0.00     0.031 A 
ATOM     81  C   UNL A   1      40.373  29.752  33.107  1.00  0.00     0.131 A 
ATOM     82  C   UNL A   1      40.525  32.518  32.866  1.00  0.00     0.055 A 
ATOM     83  C   UNL A   1      39.203  30.522  33.089  1.00  0.00     0.041 A 
ATOM     84  F   UNL A   1      40.239  28.417  33.090  1.00  0.00    -0.206 F 
ATOM     85  C   UNL A   1      39.273  31.904  32.918  1.00  0.00     0.022 A 
BRANCH  82  86
ATOM     86  S   UNL A   1      40.663  34.269  32.393  1.00  0.00     0.124 S 
ATOM     87  O   UNL A   1      41.152  34.880  33.625  1.00  0.00    -0.237 OA
ATOM     88  O   UNL A   1      41.609  34.227  31.281  1.00  0.00    -0.237 OA
ATOM     89  O   UNL A   1      39.302  34.632  32.009  1.00  0.00    -0.744 OA
ENDBRANCH  82  86
ENDBRANCH  55  79
BRANCH  67  90
ATOM     90  C   UNL A   1      45.042  23.944  33.465  1.00  0.00     0.023 A 
ATOM     91  C   UNL A   1      46.362  23.561  33.749  1.00  0.00     0.031 A 
ATOM     92  C   UNL A   1      44.023  23.109  33.978  1.00  0.00     0.131 A 
ATOM     93  C   UNL A   1      46.625  22.443  34.560  1.00  0.00     0.055 A 
ATOM     94  C   UNL A   1      44.291  21.945  34.700  1.00  0.00     0.041 A 
ATOM     95  F   UNL A   1      42.724  23.415  33.842  1.00  0.00    -0.206 F 
ATOM     96  C   UNL A   1      45.600  21.610  35.007  1.00  0.00     0.022 A 
BRANCH  93  97
ATOM     97  S   UNL A   1      48.328  22.146  35.098  1.00  0.00     0.124 S 
ATOM     98  O   UNL A   1      48.226  22.232  36.551  1.00  0.00    -0.237 OA
ATOM     99  O   UNL A   1      48.577  20.812  34.557  1.00  0.00    -0.237 OA
ATOM    100  O   UNL A   1      49.085  23.221  34.461  1.00  0.00    -0.744 OA
ENDBRANCH  93  97
ENDBRANCH  67  90
ENDBRANCH  41  42
ENDBRANCH  33  36
ENDBRANCH  31  32
ENDBRANCH   1  31
TORSDOF 17
ENDMDL
MODEL 3
REMARK VINA RESULT:     -13.7      4.109     10.028
REMARK SMILES Cc1cccc(-n2c(C)cc(/C=N\c3ccc(O)c(C(=O)NCCCNC(=O)c4ccc(-c5c6nc(c(-c7cc(S(=O)(=O)[O-])ccc7F)c7ccc([nH]7)c(-c7cc(S(=O)(=O)[O-])ccc7F)c7nc(c(-c8cc(S(=O)(=O)[O-])ccc8F)c8ccc5[nH]8)C=C7)C=C6)cc4)c3)c2C)c1
REMARK SMILES IDX 24 1 23 2 22 3 20 4 21 5 19 7 14 8 15 9 92 10 16 11 17 12
REMARK SMILES IDX 13 13 12 14 11 15 7 16 8 17 93 18 9 19 10 20 94 21 6 22 1 23
REMARK SMILES IDX 2 24 3 25 95 26 4 27 5 28 18 29 25 31 26 32 27 33 28 35
REMARK SMILES IDX 29 36 30 37 91 38 31 39 90 40 32 41 33 42 34 43 84 44 35 45
REMARK SMILES IDX 89 46 83 47 85 48 36 49 88 50 82 51 81 52 37 54 69 55 49 56
REMARK SMILES IDX 68 57 50 58 53 59 67 60 86 61 51 62 52 63 66 65 87 66 54 67
REMARK SMILES IDX 38 68 39 69 47 70 40 71 46 72 48 73 45 74 41 75 42 76 43 77
REMARK SMILES IDX 44 78 70 79 71 80 79 81 72 82 78 83 80 84 77 85 73 86 74 87
REMARK SMILES IDX 75 88 76 89 55 90 56 91 64 92 57 93 63 94 65 95 62 96 58 97
REMARK SMILES IDX 59 98 60 99 61 100
REMARK H PARENT 22 6 18 30 26 34 85 53 53 64
REMARK Flexibility Score: inf
ROOT
ATOM      1  C   UNL A   1      32.666  31.389  27.262  1.00  0.00     0.042 C 
ENDROOT
BRANCH   1   2
ATOM      2  C   UNL A   1      32.095  30.576  26.127  1.00  0.00     0.118 C 
BRANCH   2   3
ATOM      3  N   UNL A   1      33.059  29.715  25.464  1.00  0.00    -0.352 N 
ATOM      4  C   UNL A   1      33.008  28.562  24.718  1.00  0.00     0.255 C 
ATOM      5  O   UNL A   1      34.093  28.140  24.306  1.00  0.00    -0.269 OA
ATOM      6  H   UNL A   1      33.982  30.038  25.577  1.00  0.00     0.163 HD
BRANCH   4   7
ATOM      7  C   UNL A   1      31.781  27.765  24.389  1.00  0.00     0.083 A 
ATOM      8  C   UNL A   1      30.090  26.221  25.260  1.00  0.00     0.064 A 
ATOM      9  C   UNL A   1      29.407  26.259  24.052  1.00  0.00     0.032 A 
ATOM     10  C   UNL A   1      31.160  27.106  25.469  1.00  0.00     0.046 A 
ATOM     11  C   UNL A   1      29.996  26.887  22.970  1.00  0.00     0.049 A 
ATOM     12  C   UNL A   1      31.255  27.466  23.130  1.00  0.00     0.128 A 
BRANCH   8  13
ATOM     13  N   UNL A   1      29.780  25.266  26.231  1.00  0.00    -0.256 NA
ATOM     14  C   UNL A   1      30.527  24.213  26.429  1.00  0.00     0.121 C 
BRANCH  14  15
ATOM     15  C   UNL A   1      31.760  23.758  25.768  1.00  0.00     0.014 A 
ATOM     16  N   UNL A   1      33.835  22.997  25.246  1.00  0.00    -0.318 N 
ATOM     17  C   UNL A   1      33.208  23.318  24.052  1.00  0.00     0.021 A 
ATOM     18  C   UNL A   1      32.872  23.071  26.262  1.00  0.00     0.029 A 
ATOM     19  C   UNL A   1      33.800  23.043  22.713  1.00  0.00     0.065 C 
ATOM     20  C   UNL A   1      31.963  23.830  24.358  1.00  0.00     0.033 A 
ATOM     21  C   UNL A   1      33.133  22.533  27.622  1.00  0.00     0.065 C 
BRANCH  16  22
ATOM     22  C   UNL A   1      35.229  22.713  25.409  1.00  0.00     0.046 A 
ATOM     23  C   UNL A   1      37.599  19.765  24.862  1.00  0.00     0.044 C 
ATOM     24  C   UNL A   1      37.071  21.137  25.167  1.00  0.00    -0.049 A 
ATOM     25  C   UNL A   1      37.977  22.181  25.387  1.00  0.00     0.003 A 
ATOM     26  C   UNL A   1      35.692  21.406  25.185  1.00  0.00     0.030 A 
ATOM     27  C   UNL A   1      37.517  23.468  25.659  1.00  0.00     0.002 A 
ATOM     28  C   UNL A   1      36.147  23.730  25.683  1.00  0.00     0.026 A 
ENDBRANCH  16  22
ENDBRANCH  14  15
ENDBRANCH   8  13
BRANCH  12  29
ATOM     29  O   UNL A   1      32.010  27.336  21.994  1.00  0.00    -0.507 OA
ATOM     30  H   UNL A   1      31.639  27.543  21.159  1.00  0.00     0.293 HD
ENDBRANCH  12  29
ENDBRANCH   4   7
ENDBRANCH   2   3
ENDBRANCH   1   2
BRANCH   1  31
ATOM     31  C   UNL A   1      33.987  30.831  27.745  1.00  0.00     0.118 C 
BRANCH  31  32
ATOM     32  N   UNL A   1      34.616  31.621  28.815  1.00  0.00    -0.352 N 
ATOM     33  C   UNL A   1      35.686  31.282  29.634  1.00  0.00     0.251 C 
ATOM     34  H   UNL A   1      34.226  32.510  28.972  1.00  0.00     0.163 HD
ATOM     35  O   UNL A   1      36.114  32.060  30.483  1.00  0.00    -0.269 OA
BRANCH  33  36
ATOM     36  C   UNL A   1      36.376  29.996  29.393  1.00  0.00     0.039 A 
ATOM     37  C   UNL A   1      36.886  29.300  30.493  1.00  0.00     0.014 A 
ATOM     38  C   UNL A   1      36.823  29.716  28.113  1.00  0.00     0.014 A 
ATOM     39  C   UNL A   1      38.049  28.553  30.332  1.00  0.00     0.010 A 
ATOM     40  C   UNL A   1      38.081  29.172  27.997  1.00  0.00     0.010 A 
ATOM     41  C   UNL A   1      38.719  28.620  29.113  1.00  0.00    -0.014 A 
BRANCH  41  42
ATOM     42  C   UNL A   1      40.116  28.240  28.924  1.00  0.00     0.031 A 
ATOM     43  C   UNL A   1      40.464  26.830  28.646  1.00  0.00     0.074 A 
ATOM     44  C   UNL A   1      41.081  29.187  28.873  1.00  0.00     0.049 A 
ATOM     45  N   UNL A   1      41.637  26.321  28.807  1.00  0.00    -0.248 NA
ATOM     46  C   UNL A   1      39.484  25.858  28.180  1.00  0.00     0.031 C 
ATOM     47  C   UNL A   1      42.458  29.028  28.412  1.00  0.00     0.029 A 
ATOM     48  N   UNL A   1      41.058  30.454  29.456  1.00  0.00    -0.354 N 
ATOM     49  C   UNL A   1      41.648  25.088  28.196  1.00  0.00     0.074 A 
ATOM     50  C   UNL A   1      40.268  24.823  27.876  1.00  0.00     0.031 C 
ATOM     51  C   UNL A   1      43.212  29.992  28.959  1.00  0.00     0.029 A 
ATOM     52  C   UNL A   1      42.375  30.720  29.894  1.00  0.00     0.049 A 
ATOM     53  H   UNL A   1      40.278  31.047  29.546  1.00  0.00     0.167 HD
ATOM     54  C   UNL A   1      42.843  24.493  27.918  1.00  0.00     0.034 A 
ATOM     55  C   UNL A   1      42.630  30.887  31.225  1.00  0.00     0.034 A 
ATOM     56  C   UNL A   1      43.963  25.260  28.476  1.00  0.00     0.049 A 
ATOM     57  C   UNL A   1      43.505  29.797  31.825  1.00  0.00     0.074 A 
ATOM     58  C   UNL A   1      44.919  26.116  27.953  1.00  0.00     0.029 A 
ATOM     59  N   UNL A   1      44.042  25.405  29.849  1.00  0.00    -0.354 N 
ATOM     60  N   UNL A   1      44.015  28.799  31.154  1.00  0.00    -0.248 NA
ATOM     61  C   UNL A   1      43.798  29.703  33.257  1.00  0.00     0.031 C 
ATOM     62  C   UNL A   1      45.530  26.813  29.040  1.00  0.00     0.029 A 
ATOM     63  C   UNL A   1      44.965  26.361  30.220  1.00  0.00     0.049 A 
ATOM     64  H   UNL A   1      43.502  24.886  30.489  1.00  0.00     0.167 HD
ATOM     65  C   UNL A   1      44.590  27.909  32.023  1.00  0.00     0.074 A 
ATOM     66  C   UNL A   1      44.447  28.529  33.329  1.00  0.00     0.031 C 
ATOM     67  C   UNL A   1      45.093  26.700  31.631  1.00  0.00     0.034 A 
BRANCH  54  68
ATOM     68  C   UNL A   1      43.029  23.350  26.943  1.00  0.00     0.023 A 
ATOM     69  C   UNL A   1      42.392  22.124  27.217  1.00  0.00     0.031 A 
ATOM     70  C   UNL A   1      43.827  23.358  25.781  1.00  0.00     0.131 A 
ATOM     71  C   UNL A   1      42.636  20.975  26.439  1.00  0.00     0.055 A 
ATOM     72  C   UNL A   1      44.123  22.204  25.045  1.00  0.00     0.041 A 
ATOM     73  F   UNL A   1      44.304  24.489  25.251  1.00  0.00    -0.206 F 
ATOM     74  C   UNL A   1      43.534  20.997  25.379  1.00  0.00     0.022 A 
BRANCH  71  75
ATOM     75  S   UNL A   1      41.740  19.450  26.829  1.00  0.00     0.124 S 
ATOM     76  O   UNL A   1      42.826  18.512  27.087  1.00  0.00    -0.237 OA
ATOM     77  O   UNL A   1      40.940  19.850  27.981  1.00  0.00    -0.237 OA
ATOM     78  O   UNL A   1      40.975  19.189  25.610  1.00  0.00    -0.744 OA
ENDBRANCH  71  75
ENDBRANCH  54  68
BRANCH  55  79
ATOM     79  C   UNL A   1      41.519  31.612  31.914  1.00  0.00     0.023 A 
ATOM     80  C   UNL A   1      40.734  30.863  32.820  1.00  0.00     0.031 A 
ATOM     81  C   UNL A   1      41.502  33.007  32.033  1.00  0.00     0.131 A 
ATOM     82  C   UNL A   1      40.118  31.494  33.911  1.00  0.00     0.055 A 
ATOM     83  C   UNL A   1      40.821  33.639  33.082  1.00  0.00     0.041 A 
ATOM     84  F   UNL A   1      42.261  33.773  31.235  1.00  0.00    -0.206 F 
ATOM     85  C   UNL A   1      40.168  32.881  34.054  1.00  0.00     0.022 A 
BRANCH  82  86
ATOM     86  S   UNL A   1      39.503  30.458  35.274  1.00  0.00     0.124 S 
ATOM     87  O   UNL A   1      40.480  29.375  35.301  1.00  0.00    -0.237 OA
ATOM     88  O   UNL A   1      39.532  31.374  36.412  1.00  0.00    -0.237 OA
ATOM     89  O   UNL A   1      38.159  30.081  34.843  1.00  0.00    -0.744 OA
ENDBRANCH  82  86
ENDBRANCH  55  79
BRANCH  67  90
ATOM     90  C   UNL A   1      45.729  25.727  32.590  1.00  0.00     0.023 A 
ATOM     91  C   UNL A   1      44.952  24.918  33.435  1.00  0.00     0.031 A 
ATOM     92  C   UNL A   1      47.130  25.634  32.748  1.00  0.00     0.131 A 
ATOM     93  C   UNL A   1      45.563  24.024  34.332  1.00  0.00     0.055 A 
ATOM     94  C   UNL A   1      47.731  24.817  33.708  1.00  0.00     0.041 A 
ATOM     95  F   UNL A   1      47.977  26.296  31.945  1.00  0.00    -0.206 F 
ATOM     96  C   UNL A   1      46.948  23.994  34.501  1.00  0.00     0.022 A 
BRANCH  93  97
ATOM     97  S   UNL A   1      44.522  22.832  35.211  1.00  0.00     0.124 S 
ATOM     98  O   UNL A   1      43.175  23.228  34.813  1.00  0.00    -0.237 OA
ATOM     99  O   UNL A   1      45.001  21.566  34.662  1.00  0.00    -0.237 OA
ATOM    100  O   UNL A   1      44.849  23.058  36.617  1.00  0.00    -0.744 OA
ENDBRANCH  93  97
ENDBRANCH  67  90
ENDBRANCH  41  42
ENDBRANCH  33  36
ENDBRANCH  31  32
ENDBRANCH   1  31
TORSDOF 17
ENDMDL
