MODEL 1
REMARK VINA RESULT:     -12.3      0.000      0.000
REMARK SMILES C[C@@H](C(=O)NCCCNC(=O)c1ccc(-c2c3nc(c(-c4cc(S(=O)(=O)[O-])ccc4F)c4ccc([nH]4)c(-c4cc(S(=O)(=O)[O-])ccc4F)c4nc(c(-c5cc(S(=O)(=O)[O-])ccc5F)c5ccc2[nH]5)C=C4)C=C3)cc1)c1ccc2c3cc(Cl)ccc3n(C(=O)c3cocn3)c2c1
REMARK SMILES IDX 7 1 6 2 5 3 3 4 4 5 2 7 1 8 75 9 76 10 95 11 77 12 94 13
REMARK SMILES IDX 78 14 86 15 79 16 85 17 80 18 84 19 81 20 83 21 82 22 87 23
REMARK SMILES IDX 88 24 89 25 90 26 93 27 91 28 92 29 8 30 9 31 10 32 11 34
REMARK SMILES IDX 12 35 13 36 74 37 14 38 73 39 15 40 16 41 17 42 67 43 18 44
REMARK SMILES IDX 72 45 66 46 68 47 19 48 71 49 65 50 64 51 20 53 52 54 32 55
REMARK SMILES IDX 51 56 33 57 36 58 50 59 69 60 34 61 35 62 49 64 70 65 37 66
REMARK SMILES IDX 21 67 22 68 30 69 23 70 29 71 31 72 28 73 24 74 25 75 26 76
REMARK SMILES IDX 27 77 53 78 54 79 62 80 55 81 61 82 63 83 60 84 56 85 57 86
REMARK SMILES IDX 58 87 59 88 38 89 39 90 47 91 40 92 46 93 48 94 45 95 41 96
REMARK SMILES IDX 42 97 43 98 44 99
REMARK H PARENT 5 6 9 33 68 52 36 63
REMARK Flexibility Score: inf
ROOT
ATOM      1  C   UNL A   1      31.910  28.703  27.287  1.00  0.00     0.042 C 
ENDROOT
BRANCH   1   2
ATOM      2  C   UNL A   1      31.470  27.559  26.376  1.00  0.00     0.117 C 
BRANCH   2   3
ATOM      3  N   UNL A   1      31.016  28.046  25.087  1.00  0.00    -0.356 N 
ATOM      4  C   UNL A   1      31.631  28.043  23.871  1.00  0.00     0.227 C 
ATOM      5  O   UNL A   1      31.043  28.623  22.956  1.00  0.00    -0.274 OA
ATOM      6  H   UNL A   1      30.114  28.443  25.092  1.00  0.00     0.163 HD
BRANCH   4   7
ATOM      7  C   UNL A   1      32.970  27.309  23.691  1.00  0.00     0.105 C 
ATOM      8  C   UNL A   1      33.733  27.756  22.442  1.00  0.00     0.023 C 
BRANCH   7   9
ATOM      9  C   UNL A   1      32.819  25.790  23.649  1.00  0.00    -0.034 A 
ATOM     10  C   UNL A   1      31.955  25.172  22.741  1.00  0.00     0.005 A 
ATOM     11  C   UNL A   1      33.610  24.997  24.497  1.00  0.00     0.032 A 
ATOM     12  C   UNL A   1      31.892  23.782  22.638  1.00  0.00     0.011 A 
ATOM     13  C   UNL A   1      33.523  23.592  24.412  1.00  0.00     0.058 A 
ATOM     14  C   UNL A   1      32.700  22.983  23.471  1.00  0.00     0.008 A 
ATOM     15  N   UNL A   1      34.198  22.589  25.123  1.00  0.00    -0.274 N 
ATOM     16  C   UNL A   1      32.876  21.578  23.589  1.00  0.00     0.009 A 
ATOM     17  C   UNL A   1      33.760  21.342  24.649  1.00  0.00     0.057 A 
ATOM     18  C   UNL A   1      32.311  20.490  22.890  1.00  0.00     0.031 A 
ATOM     19  C   UNL A   1      34.003  20.024  25.089  1.00  0.00     0.029 A 
ATOM     20  C   UNL A   1      32.605  19.190  23.291  1.00  0.00     0.041 A 
ATOM     21  C   UNL A   1      33.427  18.959  24.385  1.00  0.00     0.023 A 
ATOM     22  Cl  UNL A   1      31.912  17.862  22.443  1.00  0.00    -0.084 Cl
BRANCH  15  23
ATOM     23  C   UNL A   1      35.135  22.844  26.162  1.00  0.00     0.284 C 
ATOM     24  O   UNL A   1      34.658  23.135  27.262  1.00  0.00    -0.266 OA
BRANCH  23  25
ATOM     25  C   UNL A   1      36.586  22.826  25.999  1.00  0.00     0.167 A 
ATOM     26  C   UNL A   1      37.494  23.845  26.192  1.00  0.00     0.231 A 
ATOM     27  N   UNL A   1      37.291  21.660  25.729  1.00  0.00    -0.211 NA
ATOM     28  O   UNL A   1      38.752  23.345  26.025  1.00  0.00    -0.451 OA
ATOM     29  C   UNL A   1      38.549  22.025  25.769  1.00  0.00     0.308 A 
ENDBRANCH  23  25
ENDBRANCH  15  23
ENDBRANCH   7   9
ENDBRANCH   4   7
ENDBRANCH   2   3
ENDBRANCH   1   2
BRANCH   1  30
ATOM     30  C   UNL A   1      33.386  29.063  27.166  1.00  0.00     0.118 C 
BRANCH  30  31
ATOM     31  N   UNL A   1      33.617  30.499  27.202  1.00  0.00    -0.352 N 
ATOM     32  C   UNL A   1      34.676  31.190  27.742  1.00  0.00     0.251 C 
ATOM     33  H   UNL A   1      32.920  31.052  26.783  1.00  0.00     0.163 HD
ATOM     34  O   UNL A   1      34.616  32.411  27.848  1.00  0.00    -0.269 OA
BRANCH  32  35
ATOM     35  C   UNL A   1      35.865  30.451  28.217  1.00  0.00     0.039 A 
ATOM     36  C   UNL A   1      37.006  30.403  27.412  1.00  0.00     0.014 A 
ATOM     37  C   UNL A   1      35.856  29.828  29.467  1.00  0.00     0.014 A 
ATOM     38  C   UNL A   1      38.166  29.792  27.894  1.00  0.00     0.010 A 
ATOM     39  C   UNL A   1      37.032  29.287  29.974  1.00  0.00     0.010 A 
ATOM     40  C   UNL A   1      38.200  29.264  29.194  1.00  0.00    -0.014 A 
BRANCH  40  41
ATOM     41  C   UNL A   1      39.429  28.661  29.771  1.00  0.00     0.031 A 
ATOM     42  C   UNL A   1      40.135  29.362  30.898  1.00  0.00     0.074 A 
ATOM     43  C   UNL A   1      39.972  27.565  29.207  1.00  0.00     0.049 A 
ATOM     44  N   UNL A   1      41.317  29.135  31.409  1.00  0.00    -0.248 NA
ATOM     45  C   UNL A   1      39.427  30.502  31.494  1.00  0.00     0.031 C 
ATOM     46  C   UNL A   1      39.399  26.818  28.086  1.00  0.00     0.029 A 
ATOM     47  N   UNL A   1      41.149  26.910  29.476  1.00  0.00    -0.354 N 
ATOM     48  C   UNL A   1      41.508  30.124  32.367  1.00  0.00     0.074 A 
ATOM     49  C   UNL A   1      40.343  30.984  32.317  1.00  0.00     0.031 C 
ATOM     50  C   UNL A   1      40.228  25.815  27.757  1.00  0.00     0.029 A 
ATOM     51  C   UNL A   1      41.414  25.878  28.607  1.00  0.00     0.049 A 
ATOM     52  H   UNL A   1      41.744  27.156  30.221  1.00  0.00     0.167 HD
ATOM     53  C   UNL A   1      42.551  30.290  33.220  1.00  0.00     0.034 A 
ATOM     54  C   UNL A   1      42.504  25.094  28.482  1.00  0.00     0.034 A 
ATOM     55  C   UNL A   1      43.695  29.411  33.257  1.00  0.00     0.049 A 
ATOM     56  C   UNL A   1      43.662  25.296  29.425  1.00  0.00     0.074 A 
ATOM     57  C   UNL A   1      44.779  29.441  34.118  1.00  0.00     0.029 A 
ATOM     58  N   UNL A   1      43.910  28.349  32.387  1.00  0.00    -0.354 N 
ATOM     59  N   UNL A   1      43.815  26.208  30.357  1.00  0.00    -0.248 NA
ATOM     60  C   UNL A   1      44.787  24.361  29.306  1.00  0.00     0.031 C 
ATOM     61  C   UNL A   1      45.676  28.440  33.728  1.00  0.00     0.029 A 
ATOM     62  C   UNL A   1      45.120  27.735  32.670  1.00  0.00     0.049 A 
ATOM     63  H   UNL A   1      43.292  28.073  31.672  1.00  0.00     0.167 HD
ATOM     64  C   UNL A   1      45.042  25.938  30.955  1.00  0.00     0.074 A 
ATOM     65  C   UNL A   1      45.588  24.779  30.278  1.00  0.00     0.031 C 
ATOM     66  C   UNL A   1      45.654  26.584  31.980  1.00  0.00     0.034 A 
BRANCH  53  67
ATOM     67  C   UNL A   1      42.503  31.486  34.143  1.00  0.00     0.023 A 
ATOM     68  C   UNL A   1      41.765  31.463  35.340  1.00  0.00     0.031 A 
ATOM     69  C   UNL A   1      43.141  32.688  33.790  1.00  0.00     0.131 A 
ATOM     70  C   UNL A   1      41.590  32.643  36.078  1.00  0.00     0.055 A 
ATOM     71  C   UNL A   1      43.044  33.834  34.582  1.00  0.00     0.041 A 
ATOM     72  F   UNL A   1      43.846  32.779  32.652  1.00  0.00    -0.206 F 
ATOM     73  C   UNL A   1      42.245  33.823  35.721  1.00  0.00     0.022 A 
BRANCH  70  74
ATOM     74  S   UNL A   1      40.337  32.658  37.390  1.00  0.00     0.124 S 
ATOM     75  O   UNL A   1      39.831  34.024  37.299  1.00  0.00    -0.237 OA
ATOM     76  O   UNL A   1      39.420  31.607  36.963  1.00  0.00    -0.237 OA
ATOM     77  O   UNL A   1      41.104  32.365  38.600  1.00  0.00    -0.744 OA
ENDBRANCH  70  74
ENDBRANCH  53  67
BRANCH  54  78
ATOM     78  C   UNL A   1      42.560  24.072  27.401  1.00  0.00     0.023 A 
ATOM     79  C   UNL A   1      42.108  22.761  27.615  1.00  0.00     0.031 A 
ATOM     80  C   UNL A   1      43.057  24.402  26.127  1.00  0.00     0.131 A 
ATOM     81  C   UNL A   1      42.187  21.820  26.577  1.00  0.00     0.055 A 
ATOM     82  C   UNL A   1      43.094  23.474  25.087  1.00  0.00     0.041 A 
ATOM     83  F   UNL A   1      43.488  25.647  25.870  1.00  0.00    -0.206 F 
ATOM     84  C   UNL A   1      42.663  22.170  25.311  1.00  0.00     0.022 A 
BRANCH  81  85
ATOM     85  S   UNL A   1      41.686  20.108  26.914  1.00  0.00     0.124 S 
ATOM     86  O   UNL A   1      40.535  20.302  27.787  1.00  0.00    -0.237 OA
ATOM     87  O   UNL A   1      41.400  19.607  25.574  1.00  0.00    -0.237 OA
ATOM     88  O   UNL A   1      42.866  19.529  27.553  1.00  0.00    -0.744 OA
ENDBRANCH  81  85
ENDBRANCH  54  78
BRANCH  66  89
ATOM     89  C   UNL A   1      46.961  26.015  32.473  1.00  0.00     0.023 A 
ATOM     90  C   UNL A   1      47.015  25.043  33.486  1.00  0.00     0.031 A 
ATOM     91  C   UNL A   1      48.169  26.435  31.889  1.00  0.00     0.131 A 
ATOM     92  C   UNL A   1      48.257  24.543  33.906  1.00  0.00     0.055 A 
ATOM     93  C   UNL A   1      49.397  25.900  32.276  1.00  0.00     0.041 A 
ATOM     94  F   UNL A   1      48.171  27.362  30.918  1.00  0.00    -0.206 F 
ATOM     95  C   UNL A   1      49.447  24.952  33.295  1.00  0.00     0.022 A 
BRANCH  92  96
ATOM     96  S   UNL A   1      48.311  23.378  35.295  1.00  0.00     0.124 S 
ATOM     97  O   UNL A   1      48.911  22.199  34.676  1.00  0.00    -0.237 OA
ATOM     98  O   UNL A   1      49.143  24.083  36.265  1.00  0.00    -0.237 OA
ATOM     99  O   UNL A   1      46.907  23.231  35.676  1.00  0.00    -0.744 OA
ENDBRANCH  92  96
ENDBRANCH  66  89
ENDBRANCH  40  41
ENDBRANCH  32  35
ENDBRANCH  30  31
ENDBRANCH   1  30
TORSDOF 16
ENDMDL
MODEL 2
REMARK VINA RESULT:     -12.2      3.302      8.428
REMARK SMILES C[C@@H](C(=O)NCCCNC(=O)c1ccc(-c2c3nc(c(-c4cc(S(=O)(=O)[O-])ccc4F)c4ccc([nH]4)c(-c4cc(S(=O)(=O)[O-])ccc4F)c4nc(c(-c5cc(S(=O)(=O)[O-])ccc5F)c5ccc2[nH]5)C=C4)C=C3)cc1)c1ccc2c3cc(Cl)ccc3n(C(=O)c3cocn3)c2c1
REMARK SMILES IDX 7 1 6 2 5 3 3 4 4 5 2 7 1 8 75 9 76 10 95 11 77 12 94 13
REMARK SMILES IDX 78 14 86 15 79 16 85 17 80 18 84 19 81 20 83 21 82 22 87 23
REMARK SMILES IDX 88 24 89 25 90 26 93 27 91 28 92 29 8 30 9 31 10 32 11 34
REMARK SMILES IDX 12 35 13 36 74 37 14 38 73 39 15 40 16 41 17 42 67 43 18 44
REMARK SMILES IDX 72 45 66 46 68 47 19 48 71 49 65 50 64 51 20 53 52 54 32 55
REMARK SMILES IDX 51 56 33 57 36 58 50 59 69 60 34 61 35 62 49 64 70 65 37 66
REMARK SMILES IDX 21 67 22 68 30 69 23 70 29 71 31 72 28 73 24 74 25 75 26 76
REMARK SMILES IDX 27 77 53 78 54 79 62 80 55 81 61 82 63 83 60 84 56 85 57 86
REMARK SMILES IDX 58 87 59 88 38 89 39 90 47 91 40 92 46 93 48 94 45 95 41 96
REMARK SMILES IDX 42 97 43 98 44 99
REMARK H PARENT 5 6 9 33 68 52 36 63
REMARK Flexibility Score: inf
ROOT
ATOM      1  C   UNL A   1      31.861  30.684  26.517  1.00  0.00     0.042 C 
ENDROOT
BRANCH   1   2
ATOM      2  C   UNL A   1      32.292  29.305  26.024  1.00  0.00     0.117 C 
BRANCH   2   3
ATOM      3  N   UNL A   1      31.505  28.250  26.634  1.00  0.00    -0.356 N 
ATOM      4  C   UNL A   1      31.089  27.051  26.134  1.00  0.00     0.227 C 
ATOM      5  O   UNL A   1      30.336  26.389  26.849  1.00  0.00    -0.274 OA
ATOM      6  H   UNL A   1      31.225  28.428  27.561  1.00  0.00     0.163 HD
BRANCH   4   7
ATOM      7  C   UNL A   1      31.591  26.578  24.760  1.00  0.00     0.105 C 
ATOM      8  C   UNL A   1      30.522  25.836  23.956  1.00  0.00     0.023 C 
BRANCH   7   9
ATOM      9  C   UNL A   1      32.833  25.693  24.848  1.00  0.00    -0.034 A 
ATOM     10  C   UNL A   1      34.049  26.195  25.319  1.00  0.00     0.005 A 
ATOM     11  C   UNL A   1      32.733  24.334  24.507  1.00  0.00     0.032 A 
ATOM     12  C   UNL A   1      35.155  25.361  25.489  1.00  0.00     0.011 A 
ATOM     13  C   UNL A   1      33.860  23.499  24.653  1.00  0.00     0.058 A 
ATOM     14  C   UNL A   1      35.053  23.992  25.171  1.00  0.00     0.008 A 
ATOM     15  N   UNL A   1      34.023  22.129  24.399  1.00  0.00    -0.274 N 
ATOM     16  C   UNL A   1      35.968  22.909  25.253  1.00  0.00     0.009 A 
ATOM     17  C   UNL A   1      35.343  21.775  24.722  1.00  0.00     0.057 A 
ATOM     18  C   UNL A   1      37.302  22.828  25.707  1.00  0.00     0.031 A 
ATOM     19  C   UNL A   1      36.074  20.582  24.541  1.00  0.00     0.029 A 
ATOM     20  C   UNL A   1      37.997  21.629  25.582  1.00  0.00     0.041 A 
ATOM     21  C   UNL A   1      37.398  20.524  24.993  1.00  0.00     0.023 A 
ATOM     22  Cl  UNL A   1      39.626  21.529  26.131  1.00  0.00    -0.084 Cl
BRANCH  15  23
ATOM     23  C   UNL A   1      33.001  21.291  23.873  1.00  0.00     0.284 C 
ATOM     24  O   UNL A   1      32.298  21.785  22.989  1.00  0.00    -0.266 OA
BRANCH  23  25
ATOM     25  C   UNL A   1      32.716  19.935  24.333  1.00  0.00     0.167 A 
ATOM     26  C   UNL A   1      32.524  18.789  23.591  1.00  0.00     0.231 A 
ATOM     27  N   UNL A   1      32.728  19.586  25.677  1.00  0.00    -0.211 NA
ATOM     28  O   UNL A   1      32.392  17.734  24.446  1.00  0.00    -0.451 OA
ATOM     29  C   UNL A   1      32.544  18.289  25.678  1.00  0.00     0.308 A 
ENDBRANCH  23  25
ENDBRANCH  15  23
ENDBRANCH   7   9
ENDBRANCH   4   7
ENDBRANCH   2   3
ENDBRANCH   1   2
BRANCH   1  30
ATOM     30  C   UNL A   1      32.966  31.472  27.209  1.00  0.00     0.118 C 
BRANCH  30  31
ATOM     31  N   UNL A   1      32.646  32.885  27.346  1.00  0.00    -0.352 N 
ATOM     32  C   UNL A   1      33.189  33.816  28.200  1.00  0.00     0.251 C 
ATOM     33  H   UNL A   1      31.945  33.221  26.744  1.00  0.00     0.163 HD
ATOM     34  O   UNL A   1      32.667  34.921  28.309  1.00  0.00    -0.269 OA
BRANCH  32  35
ATOM     35  C   UNL A   1      34.379  33.464  29.003  1.00  0.00     0.039 A 
ATOM     36  C   UNL A   1      34.221  32.681  30.150  1.00  0.00     0.014 A 
ATOM     37  C   UNL A   1      35.649  33.888  28.607  1.00  0.00     0.014 A 
ATOM     38  C   UNL A   1      35.349  32.262  30.860  1.00  0.00     0.010 A 
ATOM     39  C   UNL A   1      36.773  33.408  29.271  1.00  0.00     0.010 A 
ATOM     40  C   UNL A   1      36.635  32.589  30.404  1.00  0.00    -0.014 A 
BRANCH  40  41
ATOM     41  C   UNL A   1      37.863  32.113  31.091  1.00  0.00     0.031 A 
ATOM     42  C   UNL A   1      38.656  30.987  30.488  1.00  0.00     0.074 A 
ATOM     43  C   UNL A   1      38.191  32.600  32.302  1.00  0.00     0.049 A 
ATOM     44  N   UNL A   1      39.626  30.281  31.006  1.00  0.00    -0.248 NA
ATOM     45  C   UNL A   1      38.267  30.577  29.132  1.00  0.00     0.031 C 
ATOM     46  C   UNL A   1      37.477  33.667  33.006  1.00  0.00     0.029 A 
ATOM     47  N   UNL A   1      39.187  32.235  33.174  1.00  0.00    -0.354 N 
ATOM     48  C   UNL A   1      39.943  29.320  30.052  1.00  0.00     0.074 A 
ATOM     49  C   UNL A   1      39.018  29.503  28.953  1.00  0.00     0.031 C 
ATOM     50  C   UNL A   1      38.052  33.864  34.204  1.00  0.00     0.029 A 
ATOM     51  C   UNL A   1      39.140  32.904  34.375  1.00  0.00     0.049 A 
ATOM     52  H   UNL A   1      39.871  31.560  32.959  1.00  0.00     0.167 HD
ATOM     53  C   UNL A   1      40.925  28.384  30.084  1.00  0.00     0.034 A 
ATOM     54  C   UNL A   1      39.862  32.739  35.501  1.00  0.00     0.034 A 
ATOM     55  C   UNL A   1      41.842  28.230  31.187  1.00  0.00     0.049 A 
ATOM     56  C   UNL A   1      40.940  31.687  35.530  1.00  0.00     0.074 A 
ATOM     57  C   UNL A   1      42.915  27.363  31.305  1.00  0.00     0.029 A 
ATOM     58  N   UNL A   1      41.789  28.956  32.372  1.00  0.00    -0.354 N 
ATOM     59  N   UNL A   1      41.261  30.811  34.606  1.00  0.00    -0.248 NA
ATOM     60  C   UNL A   1      41.758  31.607  36.746  1.00  0.00     0.031 C 
ATOM     61  C   UNL A   1      43.467  27.519  32.581  1.00  0.00     0.029 A 
ATOM     62  C   UNL A   1      42.788  28.536  33.236  1.00  0.00     0.049 A 
ATOM     63  H   UNL A   1      41.134  29.664  32.569  1.00  0.00     0.167 HD
ATOM     64  C   UNL A   1      42.337  30.094  35.119  1.00  0.00     0.074 A 
ATOM     65  C   UNL A   1      42.611  30.639  36.434  1.00  0.00     0.031 C 
ATOM     66  C   UNL A   1      43.043  29.085  34.547  1.00  0.00     0.034 A 
BRANCH  53  67
ATOM     67  C   UNL A   1      41.017  27.442  28.906  1.00  0.00     0.023 A 
ATOM     68  C   UNL A   1      42.050  27.548  27.957  1.00  0.00     0.031 A 
ATOM     69  C   UNL A   1      40.024  26.472  28.685  1.00  0.00     0.131 A 
ATOM     70  C   UNL A   1      42.004  26.784  26.782  1.00  0.00     0.055 A 
ATOM     71  C   UNL A   1      40.038  25.645  27.561  1.00  0.00     0.041 A 
ATOM     72  F   UNL A   1      39.002  26.332  29.545  1.00  0.00    -0.206 F 
ATOM     73  C   UNL A   1      41.019  25.814  26.588  1.00  0.00     0.022 A 
BRANCH  70  74
ATOM     74  S   UNL A   1      43.133  27.219  25.429  1.00  0.00     0.124 S 
ATOM     75  O   UNL A   1      43.503  25.901  24.919  1.00  0.00    -0.237 OA
ATOM     76  O   UNL A   1      42.285  28.026  24.558  1.00  0.00    -0.237 OA
ATOM     77  O   UNL A   1      44.210  27.943  26.101  1.00  0.00    -0.744 OA
ENDBRANCH  70  74
ENDBRANCH  53  67
BRANCH  54  78
ATOM     78  C   UNL A   1      39.564  33.570  36.699  1.00  0.00     0.023 A 
ATOM     79  C   UNL A   1      38.895  33.033  37.810  1.00  0.00     0.031 A 
ATOM     80  C   UNL A   1      39.959  34.920  36.753  1.00  0.00     0.131 A 
ATOM     81  C   UNL A   1      38.619  33.848  38.918  1.00  0.00     0.055 A 
ATOM     82  C   UNL A   1      39.718  35.714  37.874  1.00  0.00     0.041 A 
ATOM     83  F   UNL A   1      40.613  35.476  35.721  1.00  0.00    -0.206 F 
ATOM     84  C   UNL A   1      39.037  35.180  38.964  1.00  0.00     0.022 A 
BRANCH  81  85
ATOM     85  S   UNL A   1      37.667  33.150  40.297  1.00  0.00     0.124 S 
ATOM     86  O   UNL A   1      37.488  34.317  41.153  1.00  0.00    -0.237 OA
ATOM     87  O   UNL A   1      36.471  32.659  39.621  1.00  0.00    -0.237 OA
ATOM     88  O   UNL A   1      38.549  32.114  40.829  1.00  0.00    -0.744 OA
ENDBRANCH  81  85
ENDBRANCH  54  78
BRANCH  66  89
ATOM     89  C   UNL A   1      44.220  28.542  35.318  1.00  0.00     0.023 A 
ATOM     90  C   UNL A   1      44.079  27.510  36.261  1.00  0.00     0.031 A 
ATOM     91  C   UNL A   1      45.508  29.049  35.074  1.00  0.00     0.131 A 
ATOM     92  C   UNL A   1      45.207  27.037  36.949  1.00  0.00     0.055 A 
ATOM     93  C   UNL A   1      46.632  28.543  35.725  1.00  0.00     0.041 A 
ATOM     94  F   UNL A   1      45.695  30.036  34.184  1.00  0.00    -0.206 F 
ATOM     95  C   UNL A   1      46.486  27.535  36.674  1.00  0.00     0.022 A 
BRANCH  92  96
ATOM     96  S   UNL A   1      44.986  25.788  38.245  1.00  0.00     0.124 S 
ATOM     97  O   UNL A   1      44.184  24.780  37.559  1.00  0.00    -0.237 OA
ATOM     98  O   UNL A   1      46.361  25.408  38.554  1.00  0.00    -0.237 OA
ATOM     99  O   UNL A   1      44.292  26.514  39.308  1.00  0.00    -0.744 OA
ENDBRANCH  92  96
ENDBRANCH  66  89
ENDBRANCH  40  41
ENDBRANCH  32  35
ENDBRANCH  30  31
ENDBRANCH   1  30
TORSDOF 16
ENDMDL
MODEL 3
REMARK VINA RESULT:     -12.1      2.910      8.115
REMARK SMILES C[C@@H](C(=O)NCCCNC(=O)c1ccc(-c2c3nc(c(-c4cc(S(=O)(=O)[O-])ccc4F)c4ccc([nH]4)c(-c4cc(S(=O)(=O)[O-])ccc4F)c4nc(c(-c5cc(S(=O)(=O)[O-])ccc5F)c5ccc2[nH]5)C=C4)C=C3)cc1)c1ccc2c3cc(Cl)ccc3n(C(=O)c3cocn3)c2c1
REMARK SMILES IDX 7 1 6 2 5 3 3 4 4 5 2 7 1 8 75 9 76 10 95 11 77 12 94 13
REMARK SMILES IDX 78 14 86 15 79 16 85 17 80 18 84 19 81 20 83 21 82 22 87 23
REMARK SMILES IDX 88 24 89 25 90 26 93 27 91 28 92 29 8 30 9 31 10 32 11 34
REMARK SMILES IDX 12 35 13 36 74 37 14 38 73 39 15 40 16 41 17 42 67 43 18 44
REMARK SMILES IDX 72 45 66 46 68 47 19 48 71 49 65 50 64 51 20 53 52 54 32 55
REMARK SMILES IDX 51 56 33 57 36 58 50 59 69 60 34 61 35 62 49 64 70 65 37 66
REMARK SMILES IDX 21 67 22 68 30 69 23 70 29 71 31 72 28 73 24 74 25 75 26 76
REMARK SMILES IDX 27 77 53 78 54 79 62 80 55 81 61 82 63 83 60 84 56 85 57 86
REMARK SMILES IDX 58 87 59 88 38 89 39 90 47 91 40 92 46 93 48 94 45 95 41 96
REMARK SMILES IDX 42 97 43 98 44 99
REMARK H PARENT 5 6 9 33 68 52 36 63
REMARK Flexibility Score: inf
ROOT
ATOM      1  C   UNL A   1      32.336  30.853  26.242  1.00  0.00     0.042 C 
ENDROOT
BRANCH   1   2
ATOM      2  C   UNL A   1      32.812  29.449  25.881  1.00  0.00     0.117 C 
BRANCH   2   3
ATOM      3  N   UNL A   1      32.036  28.429  26.561  1.00  0.00    -0.356 N 
ATOM      4  C   UNL A   1      31.370  27.345  26.069  1.00  0.00     0.227 C 
ATOM      5  O   UNL A   1      30.701  26.699  26.877  1.00  0.00    -0.274 OA
ATOM      6  H   UNL A   1      31.981  28.537  27.538  1.00  0.00     0.163 HD
BRANCH   4   7
ATOM      7  C   UNL A   1      31.509  26.969  24.585  1.00  0.00     0.105 C 
ATOM      8  C   UNL A   1      30.352  27.486  23.727  1.00  0.00     0.023 C 
BRANCH   7   9
ATOM      9  C   UNL A   1      31.646  25.465  24.358  1.00  0.00    -0.034 A 
ATOM     10  C   UNL A   1      30.840  24.796  23.433  1.00  0.00     0.005 A 
ATOM     11  C   UNL A   1      32.640  24.754  25.049  1.00  0.00     0.032 A 
ATOM     12  C   UNL A   1      31.032  23.441  23.158  1.00  0.00     0.011 A 
ATOM     13  C   UNL A   1      32.815  23.379  24.790  1.00  0.00     0.058 A 
ATOM     14  C   UNL A   1      32.045  22.729  23.830  1.00  0.00     0.008 A 
ATOM     15  N   UNL A   1      33.724  22.455  25.324  1.00  0.00    -0.274 N 
ATOM     16  C   UNL A   1      32.493  21.383  23.757  1.00  0.00     0.009 A 
ATOM     17  C   UNL A   1      33.492  21.208  24.722  1.00  0.00     0.057 A 
ATOM     18  C   UNL A   1      32.087  20.291  22.960  1.00  0.00     0.031 A 
ATOM     19  C   UNL A   1      34.016  19.923  24.974  1.00  0.00     0.029 A 
ATOM     20  C   UNL A   1      32.654  19.038  23.173  1.00  0.00     0.041 A 
ATOM     21  C   UNL A   1      33.594  18.851  24.177  1.00  0.00     0.023 A 
ATOM     22  Cl  UNL A   1      32.156  17.704  22.205  1.00  0.00    -0.084 Cl
BRANCH  15  23
ATOM     23  C   UNL A   1      34.681  22.771  26.329  1.00  0.00     0.284 C 
ATOM     24  O   UNL A   1      34.227  23.039  27.443  1.00  0.00    -0.266 OA
BRANCH  23  25
ATOM     25  C   UNL A   1      36.124  22.837  26.114  1.00  0.00     0.167 A 
ATOM     26  C   UNL A   1      36.978  21.860  25.648  1.00  0.00     0.231 A 
ATOM     27  N   UNL A   1      36.844  24.017  26.247  1.00  0.00    -0.211 NA
ATOM     28  O   UNL A   1      38.222  22.400  25.508  1.00  0.00    -0.451 OA
ATOM     29  C   UNL A   1      38.058  23.701  25.868  1.00  0.00     0.308 A 
ENDBRANCH  23  25
ENDBRANCH  15  23
ENDBRANCH   7   9
ENDBRANCH   4   7
ENDBRANCH   2   3
ENDBRANCH   1   2
BRANCH   1  30
ATOM     30  C   UNL A   1      33.169  31.535  27.322  1.00  0.00     0.118 C 
BRANCH  30  31
ATOM     31  N   UNL A   1      32.825  32.938  27.492  1.00  0.00    -0.352 N 
ATOM     32  C   UNL A   1      33.341  33.853  28.378  1.00  0.00     0.251 C 
ATOM     33  H   UNL A   1      32.126  33.280  26.889  1.00  0.00     0.163 HD
ATOM     34  O   UNL A   1      32.800  34.948  28.510  1.00  0.00    -0.269 OA
BRANCH  32  35
ATOM     35  C   UNL A   1      34.525  33.498  29.189  1.00  0.00     0.039 A 
ATOM     36  C   UNL A   1      34.367  32.663  30.298  1.00  0.00     0.014 A 
ATOM     37  C   UNL A   1      35.791  33.971  28.835  1.00  0.00     0.014 A 
ATOM     38  C   UNL A   1      35.493  32.243  31.012  1.00  0.00     0.010 A 
ATOM     39  C   UNL A   1      36.914  33.492  29.500  1.00  0.00     0.010 A 
ATOM     40  C   UNL A   1      36.777  32.622  30.594  1.00  0.00    -0.014 A 
BRANCH  40  41
ATOM     41  C   UNL A   1      38.005  32.148  31.284  1.00  0.00     0.031 A 
ATOM     42  C   UNL A   1      38.816  31.042  30.669  1.00  0.00     0.074 A 
ATOM     43  C   UNL A   1      38.317  32.619  32.506  1.00  0.00     0.049 A 
ATOM     44  N   UNL A   1      39.789  30.338  31.184  1.00  0.00    -0.248 NA
ATOM     45  C   UNL A   1      38.443  30.650  29.303  1.00  0.00     0.031 C 
ATOM     46  C   UNL A   1      37.585  33.666  33.222  1.00  0.00     0.029 A 
ATOM     47  N   UNL A   1      39.310  32.250  33.381  1.00  0.00    -0.354 N 
ATOM     48  C   UNL A   1      40.126  29.397  30.217  1.00  0.00     0.074 A 
ATOM     49  C   UNL A   1      39.208  29.588  29.113  1.00  0.00     0.031 C 
ATOM     50  C   UNL A   1      38.147  33.848  34.427  1.00  0.00     0.029 A 
ATOM     51  C   UNL A   1      39.244  32.899  34.592  1.00  0.00     0.049 A 
ATOM     52  H   UNL A   1      40.003  31.587  33.160  1.00  0.00     0.167 HD
ATOM     53  C   UNL A   1      41.118  28.472  30.242  1.00  0.00     0.034 A 
ATOM     54  C   UNL A   1      39.959  32.723  35.721  1.00  0.00     0.034 A 
ATOM     55  C   UNL A   1      42.028  28.310  31.350  1.00  0.00     0.049 A 
ATOM     56  C   UNL A   1      41.049  31.683  35.742  1.00  0.00     0.074 A 
ATOM     57  C   UNL A   1      43.109  27.453  31.462  1.00  0.00     0.029 A 
ATOM     58  N   UNL A   1      41.956  29.015  32.546  1.00  0.00    -0.354 N 
ATOM     59  N   UNL A   1      41.388  30.826  34.806  1.00  0.00    -0.248 NA
ATOM     60  C   UNL A   1      41.857  31.591  36.964  1.00  0.00     0.031 C 
ATOM     61  C   UNL A   1      43.649  27.594  32.746  1.00  0.00     0.029 A 
ATOM     62  C   UNL A   1      42.953  28.592  33.412  1.00  0.00     0.049 A 
ATOM     63  H   UNL A   1      41.291  29.713  32.750  1.00  0.00     0.167 HD
ATOM     64  C   UNL A   1      42.467  30.113  35.317  1.00  0.00     0.074 A 
ATOM     65  C   UNL A   1      42.723  30.639  36.643  1.00  0.00     0.031 C 
ATOM     66  C   UNL A   1      43.190  29.122  34.734  1.00  0.00     0.034 A 
BRANCH  53  67
ATOM     67  C   UNL A   1      41.231  27.551  29.049  1.00  0.00     0.023 A 
ATOM     68  C   UNL A   1      42.219  27.738  28.064  1.00  0.00     0.031 A 
ATOM     69  C   UNL A   1      40.299  26.517  28.851  1.00  0.00     0.131 A 
ATOM     70  C   UNL A   1      42.182  26.985  26.882  1.00  0.00     0.055 A 
ATOM     71  C   UNL A   1      40.329  25.704  27.717  1.00  0.00     0.041 A 
ATOM     72  F   UNL A   1      39.322  26.297  29.745  1.00  0.00    -0.206 F 
ATOM     73  C   UNL A   1      41.259  25.951  26.711  1.00  0.00     0.022 A 
BRANCH  70  74
ATOM     74  S   UNL A   1      43.228  27.511  25.495  1.00  0.00     0.124 S 
ATOM     75  O   UNL A   1      43.732  26.231  25.004  1.00  0.00    -0.237 OA
ATOM     76  O   UNL A   1      42.278  28.199  24.628  1.00  0.00    -0.237 OA
ATOM     77  O   UNL A   1      44.231  28.366  26.127  1.00  0.00    -0.744 OA
ENDBRANCH  70  74
ENDBRANCH  53  67
BRANCH  54  78
ATOM     78  C   UNL A   1      39.640  33.530  36.931  1.00  0.00     0.023 A 
ATOM     79  C   UNL A   1      38.910  32.986  37.998  1.00  0.00     0.031 A 
ATOM     80  C   UNL A   1      40.079  34.863  37.040  1.00  0.00     0.131 A 
ATOM     81  C   UNL A   1      38.617  33.779  39.118  1.00  0.00     0.055 A 
ATOM     82  C   UNL A   1      39.820  35.634  38.173  1.00  0.00     0.041 A 
ATOM     83  F   UNL A   1      40.792  35.424  36.051  1.00  0.00    -0.206 F 
ATOM     84  C   UNL A   1      39.078  35.094  39.219  1.00  0.00     0.022 A 
BRANCH  81  85
ATOM     85  S   UNL A   1      37.587  33.076  40.437  1.00  0.00     0.124 S 
ATOM     86  O   UNL A   1      37.568  34.164  41.409  1.00  0.00    -0.237 OA
ATOM     87  O   UNL A   1      36.334  32.818  39.737  1.00  0.00    -0.237 OA
ATOM     88  O   UNL A   1      38.326  31.884  40.847  1.00  0.00    -0.744 OA
ENDBRANCH  81  85
ENDBRANCH  54  78
BRANCH  66  89
ATOM     89  C   UNL A   1      44.366  28.579  35.507  1.00  0.00     0.023 A 
ATOM     90  C   UNL A   1      44.262  27.433  36.313  1.00  0.00     0.031 A 
ATOM     91  C   UNL A   1      45.619  29.206  35.401  1.00  0.00     0.131 A 
ATOM     92  C   UNL A   1      45.388  26.967  37.008  1.00  0.00     0.055 A 
ATOM     93  C   UNL A   1      46.747  28.711  36.055  1.00  0.00     0.041 A 
ATOM     94  F   UNL A   1      45.771  30.304  34.643  1.00  0.00    -0.206 F 
ATOM     95  C   UNL A   1      46.634  27.588  36.870  1.00  0.00     0.022 A 
BRANCH  92  96
ATOM     96  S   UNL A   1      45.203  25.558  38.136  1.00  0.00     0.124 S 
ATOM     97  O   UNL A   1      43.760  25.340  38.112  1.00  0.00    -0.237 OA
ATOM     98  O   UNL A   1      46.014  24.530  37.490  1.00  0.00    -0.237 OA
ATOM     99  O   UNL A   1      45.734  26.058  39.403  1.00  0.00    -0.744 OA
ENDBRANCH  92  96
ENDBRANCH  66  89
ENDBRANCH  40  41
ENDBRANCH  32  35
ENDBRANCH  30  31
ENDBRANCH   1  30
TORSDOF 16
ENDMDL
