MODEL 1
REMARK VINA RESULT:     -11.4      0.000      0.000
REMARK SMILES CC1C[NH+]([C@@H](C(=O)NCCCNC(=O)c2ccc(-c3c4nc(c(-c5cc(S(=O)(=O)[O-])ccc5F)c5ccc([nH]5)c(-c5cc(S(=O)(=O)[O-])ccc5F)c5nc(c(-c6cc(S(=O)(=O)[O-])ccc6F)c6ccc3[nH]6)C=C5)C=C4)cc2)C2CCCCC2)C1
REMARK SMILES IDX 11 1 10 2 9 3 8 4 6 5 7 6 5 8 4 9 1 10 2 11 3 12 84 13 78 15
REMARK SMILES IDX 79 16 83 17 80 18 82 19 81 20 12 21 13 22 14 24 15 25 16 26
REMARK SMILES IDX 77 27 17 28 76 29 18 30 19 31 20 32 70 33 21 34 75 35 69 36
REMARK SMILES IDX 71 37 22 38 74 39 68 40 67 41 23 43 55 44 35 45 54 46 36 47
REMARK SMILES IDX 39 48 53 49 72 50 37 51 38 52 52 54 73 55 40 56 24 57 25 58
REMARK SMILES IDX 33 59 26 60 32 61 34 62 31 63 27 64 28 65 29 66 30 67 56 68
REMARK SMILES IDX 57 69 65 70 58 71 64 72 66 73 63 74 59 75 60 76 61 77 62 78
REMARK SMILES IDX 41 79 42 80 50 81 43 82 49 83 51 84 48 85 44 86 45 87 46 88
REMARK SMILES IDX 47 89
REMARK H PARENT 8 7 4 14 12 23 71 42 39 53
REMARK Flexibility Score: inf
ROOT
ATOM      1  C   UNL A   1      32.907  32.871  27.079  1.00  0.00     0.118 C 
ENDROOT
BRANCH   1   2
ATOM      2  C   UNL A   1      31.628  32.054  26.906  1.00  0.00     0.042 C 
BRANCH   2   3
ATOM      3  C   UNL A   1      31.808  30.530  26.848  1.00  0.00     0.118 C 
BRANCH   3   4
ATOM      4  N   UNL A   1      32.554  30.068  25.688  1.00  0.00    -0.351 N 
ATOM      5  C   UNL A   1      32.227  29.353  24.572  1.00  0.00     0.278 C 
ATOM      6  O   UNL A   1      33.157  29.186  23.775  1.00  0.00    -0.268 OA
ATOM      7  H   UNL A   1      33.504  30.328  25.713  1.00  0.00     0.163 HD
BRANCH   5   8
ATOM      8  C   UNL A   1      30.799  28.803  24.303  1.00  0.00     0.277 C 
BRANCH   8   9
ATOM      9  N   UNL A   1      30.697  27.398  23.818  1.00  0.00    -0.324 N 
ATOM     10  C   UNL A   1      30.796  24.473  25.640  1.00  0.00     0.020 C 
ATOM     11  C   UNL A   1      30.817  25.964  25.384  1.00  0.00     0.096 C 
ATOM     12  C   UNL A   1      31.761  26.483  24.284  1.00  0.00     0.271 C 
ATOM     13  C   UNL A   1      29.692  26.577  24.511  1.00  0.00     0.271 C 
ATOM     14  H   UNL A   1      30.604  27.606  22.824  1.00  0.00     0.348 HD
ENDBRANCH   8   9
BRANCH   8  15
ATOM     15  C   UNL A   1      30.019  29.748  23.305  1.00  0.00     0.057 C 
ATOM     16  C   UNL A   1      28.828  29.077  22.579  1.00  0.00     0.010 C 
ATOM     17  C   UNL A   1      29.528  31.027  24.027  1.00  0.00     0.010 C 
ATOM     18  C   UNL A   1      28.082  30.034  21.654  1.00  0.00     0.001 C 
ATOM     19  C   UNL A   1      28.734  31.962  23.113  1.00  0.00     0.001 C 
ATOM     20  C   UNL A   1      27.579  31.244  22.426  1.00  0.00     0.000 C 
ENDBRANCH   8  15
ENDBRANCH   5   8
ENDBRANCH   3   4
ENDBRANCH   2   3
ENDBRANCH   1   2
BRANCH   1  21
ATOM     21  N   UNL A   1      32.654  34.167  27.683  1.00  0.00    -0.352 N 
ATOM     22  C   UNL A   1      33.163  34.714  28.839  1.00  0.00     0.251 C 
ATOM     23  H   UNL A   1      32.022  34.740  27.191  1.00  0.00     0.163 HD
ATOM     24  O   UNL A   1      32.632  35.724  29.293  1.00  0.00    -0.269 OA
BRANCH  22  25
ATOM     25  C   UNL A   1      34.316  34.102  29.550  1.00  0.00     0.039 A 
ATOM     26  C   UNL A   1      35.610  34.400  29.107  1.00  0.00     0.014 A 
ATOM     27  C   UNL A   1      34.145  33.185  30.591  1.00  0.00     0.014 A 
ATOM     28  C   UNL A   1      36.723  33.821  29.731  1.00  0.00     0.010 A 
ATOM     29  C   UNL A   1      35.258  32.657  31.255  1.00  0.00     0.010 A 
ATOM     30  C   UNL A   1      36.560  32.960  30.828  1.00  0.00    -0.014 A 
BRANCH  30  31
ATOM     31  C   UNL A   1      37.736  32.351  31.515  1.00  0.00     0.031 A 
ATOM     32  C   UNL A   1      38.488  31.215  30.869  1.00  0.00     0.074 A 
ATOM     33  C   UNL A   1      38.105  32.785  32.736  1.00  0.00     0.049 A 
ATOM     34  N   UNL A   1      39.482  30.504  31.339  1.00  0.00    -0.248 NA
ATOM     35  C   UNL A   1      38.045  30.812  29.527  1.00  0.00     0.031 C 
ATOM     36  C   UNL A   1      37.451  33.861  33.484  1.00  0.00     0.029 A 
ATOM     37  N   UNL A   1      39.115  32.369  33.572  1.00  0.00    -0.354 N 
ATOM     38  C   UNL A   1      39.774  29.560  30.359  1.00  0.00     0.074 A 
ATOM     39  C   UNL A   1      38.815  29.759  29.292  1.00  0.00     0.031 C 
ATOM     40  C   UNL A   1      38.085  34.031  34.656  1.00  0.00     0.029 A 
ATOM     41  C   UNL A   1      39.161  33.050  34.767  1.00  0.00     0.049 A 
ATOM     42  H   UNL A   1      39.745  31.652  33.336  1.00  0.00     0.167 HD
ATOM     43  C   UNL A   1      40.760  28.627  30.339  1.00  0.00     0.034 A 
ATOM     44  C   UNL A   1      39.965  32.893  35.838  1.00  0.00     0.034 A 
ATOM     45  C   UNL A   1      41.723  28.446  31.398  1.00  0.00     0.049 A 
ATOM     46  C   UNL A   1      41.036  31.832  35.805  1.00  0.00     0.074 A 
ATOM     47  C   UNL A   1      42.791  27.565  31.454  1.00  0.00     0.029 A 
ATOM     48  N   UNL A   1      41.734  29.152  32.594  1.00  0.00    -0.354 N 
ATOM     49  N   UNL A   1      41.318  30.972  34.854  1.00  0.00    -0.248 NA
ATOM     50  C   UNL A   1      41.902  31.727  36.988  1.00  0.00     0.031 C 
ATOM     51  C   UNL A   1      43.407  27.696  32.703  1.00  0.00     0.029 A 
ATOM     52  C   UNL A   1      42.770  28.708  33.402  1.00  0.00     0.049 A 
ATOM     53  H   UNL A   1      41.098  29.865  32.833  1.00  0.00     0.167 HD
ATOM     54  C   UNL A   1      42.415  30.247  35.313  1.00  0.00     0.074 A 
ATOM     55  C   UNL A   1      42.748  30.776  36.619  1.00  0.00     0.031 C 
ATOM     56  C   UNL A   1      43.089  29.237  34.707  1.00  0.00     0.034 A 
BRANCH  43  57
ATOM     57  C   UNL A   1      40.826  27.713  29.137  1.00  0.00     0.023 A 
ATOM     58  C   UNL A   1      41.760  27.915  28.105  1.00  0.00     0.031 A 
ATOM     59  C   UNL A   1      39.929  26.637  29.008  1.00  0.00     0.131 A 
ATOM     60  C   UNL A   1      41.725  27.107  26.959  1.00  0.00     0.055 A 
ATOM     61  C   UNL A   1      39.953  25.786  27.902  1.00  0.00     0.041 A 
ATOM     62  F   UNL A   1      39.003  26.403  29.952  1.00  0.00    -0.206 F 
ATOM     63  C   UNL A   1      40.844  26.027  26.861  1.00  0.00     0.022 A 
BRANCH  60  64
ATOM     64  S   UNL A   1      42.751  27.575  25.538  1.00  0.00     0.124 S 
ATOM     65  O   UNL A   1      44.045  27.810  26.175  1.00  0.00    -0.237 OA
ATOM     66  O   UNL A   1      42.664  26.396  24.684  1.00  0.00    -0.237 OA
ATOM     67  O   UNL A   1      42.093  28.773  25.020  1.00  0.00    -0.744 OA
ENDBRANCH  60  64
ENDBRANCH  43  57
BRANCH  44  68
ATOM     68  C   UNL A   1      39.785  33.747  37.047  1.00  0.00     0.023 A 
ATOM     69  C   UNL A   1      39.106  33.267  38.178  1.00  0.00     0.031 A 
ATOM     70  C   UNL A   1      40.250  35.074  37.070  1.00  0.00     0.131 A 
ATOM     71  C   UNL A   1      38.872  34.120  39.268  1.00  0.00     0.055 A 
ATOM     72  C   UNL A   1      40.057  35.904  38.176  1.00  0.00     0.041 A 
ATOM     73  F   UNL A   1      40.909  35.581  36.015  1.00  0.00    -0.206 F 
ATOM     74  C   UNL A   1      39.353  35.431  39.279  1.00  0.00     0.022 A 
BRANCH  71  75
ATOM     75  S   UNL A   1      37.854  33.515  40.642  1.00  0.00     0.124 S 
ATOM     76  O   UNL A   1      38.755  32.565  41.284  1.00  0.00    -0.237 OA
ATOM     77  O   UNL A   1      37.583  34.743  41.380  1.00  0.00    -0.237 OA
ATOM     78  O   UNL A   1      36.697  32.923  39.973  1.00  0.00    -0.744 OA
ENDBRANCH  71  75
ENDBRANCH  44  68
BRANCH  56  79
ATOM     79  C   UNL A   1      44.286  28.675  35.436  1.00  0.00     0.023 A 
ATOM     80  C   UNL A   1      44.161  27.643  36.382  1.00  0.00     0.031 A 
ATOM     81  C   UNL A   1      45.569  29.193  35.186  1.00  0.00     0.131 A 
ATOM     82  C   UNL A   1      45.292  27.196  37.081  1.00  0.00     0.055 A 
ATOM     83  C   UNL A   1      46.699  28.706  35.844  1.00  0.00     0.041 A 
ATOM     84  F   UNL A   1      45.746  30.180  34.293  1.00  0.00    -0.206 F 
ATOM     85  C   UNL A   1      46.562  27.710  36.808  1.00  0.00     0.022 A 
BRANCH  82  86
ATOM     86  S   UNL A   1      45.073  25.986  38.415  1.00  0.00     0.124 S 
ATOM     87  O   UNL A   1      44.454  24.867  37.711  1.00  0.00    -0.237 OA
ATOM     88  O   UNL A   1      46.442  25.771  38.872  1.00  0.00    -0.237 OA
ATOM     89  O   UNL A   1      44.204  26.676  39.366  1.00  0.00    -0.744 OA
ENDBRANCH  82  86
ENDBRANCH  56  79
ENDBRANCH  30  31
ENDBRANCH  22  25
ENDBRANCH   1  21
TORSDOF 15
ENDMDL
MODEL 2
REMARK VINA RESULT:     -11.4      3.313      8.992
REMARK SMILES CC1C[NH+]([C@@H](C(=O)NCCCNC(=O)c2ccc(-c3c4nc(c(-c5cc(S(=O)(=O)[O-])ccc5F)c5ccc([nH]5)c(-c5cc(S(=O)(=O)[O-])ccc5F)c5nc(c(-c6cc(S(=O)(=O)[O-])ccc6F)c6ccc3[nH]6)C=C5)C=C4)cc2)C2CCCCC2)C1
REMARK SMILES IDX 11 1 10 2 9 3 8 4 6 5 7 6 5 8 4 9 1 10 2 11 3 12 84 13 78 15
REMARK SMILES IDX 79 16 83 17 80 18 82 19 81 20 12 21 13 22 14 24 15 25 16 26
REMARK SMILES IDX 77 27 17 28 76 29 18 30 19 31 20 32 70 33 21 34 75 35 69 36
REMARK SMILES IDX 71 37 22 38 74 39 68 40 67 41 23 43 55 44 35 45 54 46 36 47
REMARK SMILES IDX 39 48 53 49 72 50 37 51 38 52 52 54 73 55 40 56 24 57 25 58
REMARK SMILES IDX 33 59 26 60 32 61 34 62 31 63 27 64 28 65 29 66 30 67 56 68
REMARK SMILES IDX 57 69 65 70 58 71 64 72 66 73 63 74 59 75 60 76 61 77 62 78
REMARK SMILES IDX 41 79 42 80 50 81 43 82 49 83 51 84 48 85 44 86 45 87 46 88
REMARK SMILES IDX 47 89
REMARK H PARENT 8 7 4 14 12 23 71 42 39 53
REMARK Flexibility Score: inf
ROOT
ATOM      1  C   UNL A   1      33.773  29.278  26.232  1.00  0.00     0.118 C 
ENDROOT
BRANCH   1   2
ATOM      2  C   UNL A   1      33.205  28.228  27.185  1.00  0.00     0.042 C 
BRANCH   2   3
ATOM      3  C   UNL A   1      31.674  28.144  27.255  1.00  0.00     0.118 C 
BRANCH   3   4
ATOM      4  N   UNL A   1      31.141  26.826  26.946  1.00  0.00    -0.351 N 
ATOM      5  C   UNL A   1      31.063  26.077  25.808  1.00  0.00     0.278 C 
ATOM      6  O   UNL A   1      30.555  24.961  25.959  1.00  0.00    -0.268 OA
ATOM      7  H   UNL A   1      30.749  26.376  27.729  1.00  0.00     0.163 HD
BRANCH   5   8
ATOM      8  C   UNL A   1      31.586  26.567  24.429  1.00  0.00     0.277 C 
BRANCH   8   9
ATOM      9  N   UNL A   1      30.599  26.621  23.314  1.00  0.00    -0.324 N 
ATOM     10  C   UNL A   1      28.451  29.175  22.453  1.00  0.00     0.020 C 
ATOM     11  C   UNL A   1      29.526  28.454  23.237  1.00  0.00     0.096 C 
ATOM     12  C   UNL A   1      29.226  27.015  23.694  1.00  0.00     0.271 C 
ATOM     13  C   UNL A   1      30.701  27.811  22.457  1.00  0.00     0.271 C 
ATOM     14  H   UNL A   1      30.775  25.690  22.935  1.00  0.00     0.348 HD
ENDBRANCH   8   9
BRANCH   8  15
ATOM     15  C   UNL A   1      32.832  25.711  23.971  1.00  0.00     0.057 C 
ATOM     16  C   UNL A   1      33.758  25.252  25.123  1.00  0.00     0.010 C 
ATOM     17  C   UNL A   1      32.382  24.478  23.149  1.00  0.00     0.010 C 
ATOM     18  C   UNL A   1      34.927  24.398  24.640  1.00  0.00     0.001 C 
ATOM     19  C   UNL A   1      33.550  23.592  22.710  1.00  0.00     0.001 C 
ATOM     20  C   UNL A   1      34.424  23.176  23.886  1.00  0.00     0.000 C 
ENDBRANCH   8  15
ENDBRANCH   5   8
ENDBRANCH   3   4
ENDBRANCH   2   3
ENDBRANCH   1   2
BRANCH   1  21
ATOM     21  N   UNL A   1      33.645  30.625  26.758  1.00  0.00    -0.352 N 
ATOM     22  C   UNL A   1      34.360  31.254  27.752  1.00  0.00     0.251 C 
ATOM     23  H   UNL A   1      32.939  31.171  26.341  1.00  0.00     0.163 HD
ATOM     24  O   UNL A   1      33.929  32.311  28.206  1.00  0.00    -0.269 OA
BRANCH  22  25
ATOM     25  C   UNL A   1      35.618  30.675  28.293  1.00  0.00     0.039 A 
ATOM     26  C   UNL A   1      36.823  30.966  27.642  1.00  0.00     0.014 A 
ATOM     27  C   UNL A   1      35.625  29.796  29.379  1.00  0.00     0.014 A 
ATOM     28  C   UNL A   1      38.027  30.418  28.102  1.00  0.00     0.010 A 
ATOM     29  C   UNL A   1      36.834  29.300  29.878  1.00  0.00     0.010 A 
ATOM     30  C   UNL A   1      38.049  29.596  29.240  1.00  0.00    -0.014 A 
BRANCH  30  31
ATOM     31  C   UNL A   1      39.325  29.020  29.754  1.00  0.00     0.031 A 
ATOM     32  C   UNL A   1      40.026  29.653  30.929  1.00  0.00     0.074 A 
ATOM     33  C   UNL A   1      39.881  27.955  29.142  1.00  0.00     0.049 A 
ATOM     34  N   UNL A   1      41.179  29.350  31.471  1.00  0.00    -0.248 NA
ATOM     35  C   UNL A   1      39.349  30.795  31.561  1.00  0.00     0.031 C 
ATOM     36  C   UNL A   1      39.321  27.259  27.982  1.00  0.00     0.029 A 
ATOM     37  N   UNL A   1      41.047  27.275  29.402  1.00  0.00    -0.354 N 
ATOM     38  C   UNL A   1      41.374  30.270  32.497  1.00  0.00     0.074 A 
ATOM     39  C   UNL A   1      40.242  31.173  32.463  1.00  0.00     0.031 C 
ATOM     40  C   UNL A   1      40.132  26.245  27.642  1.00  0.00     0.029 A 
ATOM     41  C   UNL A   1      41.293  26.241  28.528  1.00  0.00     0.049 A 
ATOM     42  H   UNL A   1      41.650  27.507  30.145  1.00  0.00     0.167 HD
ATOM     43  C   UNL A   1      42.389  30.345  33.394  1.00  0.00     0.034 A 
ATOM     44  C   UNL A   1      42.340  25.396  28.437  1.00  0.00     0.034 A 
ATOM     45  C   UNL A   1      43.504  29.431  33.431  1.00  0.00     0.049 A 
ATOM     46  C   UNL A   1      43.471  25.515  29.429  1.00  0.00     0.074 A 
ATOM     47  C   UNL A   1      44.558  29.389  34.330  1.00  0.00     0.029 A 
ATOM     48  N   UNL A   1      43.719  28.399  32.528  1.00  0.00    -0.354 N 
ATOM     49  N   UNL A   1      43.619  26.371  30.413  1.00  0.00    -0.248 NA
ATOM     50  C   UNL A   1      44.569  24.548  29.300  1.00  0.00     0.031 C 
ATOM     51  C   UNL A   1      45.437  28.376  33.935  1.00  0.00     0.029 A 
ATOM     52  C   UNL A   1      44.899  27.736  32.830  1.00  0.00     0.049 A 
ATOM     53  H   UNL A   1      43.120  28.171  31.779  1.00  0.00     0.167 HD
ATOM     54  C   UNL A   1      44.813  26.023  31.039  1.00  0.00     0.074 A 
ATOM     55  C   UNL A   1      45.338  24.875  30.329  1.00  0.00     0.031 C 
ATOM     56  C   UNL A   1      45.418  26.598  32.110  1.00  0.00     0.034 A 
BRANCH  43  57
ATOM     57  C   UNL A   1      42.347  31.477  34.396  1.00  0.00     0.023 A 
ATOM     58  C   UNL A   1      41.452  31.471  35.480  1.00  0.00     0.031 A 
ATOM     59  C   UNL A   1      43.198  32.587  34.254  1.00  0.00     0.131 A 
ATOM     60  C   UNL A   1      41.372  32.585  36.330  1.00  0.00     0.055 A 
ATOM     61  C   UNL A   1      43.171  33.656  35.151  1.00  0.00     0.041 A 
ATOM     62  F   UNL A   1      44.063  32.659  33.229  1.00  0.00    -0.206 F 
ATOM     63  C   UNL A   1      42.244  33.667  36.189  1.00  0.00     0.022 A 
BRANCH  60  64
ATOM     64  S   UNL A   1      40.020  32.659  37.536  1.00  0.00     0.124 S 
ATOM     65  O   UNL A   1      39.486  33.997  37.296  1.00  0.00    -0.237 OA
ATOM     66  O   UNL A   1      39.170  31.548  37.126  1.00  0.00    -0.237 OA
ATOM     67  O   UNL A   1      40.696  32.487  38.821  1.00  0.00    -0.744 OA
ENDBRANCH  60  64
ENDBRANCH  43  57
BRANCH  44  68
ATOM     68  C   UNL A   1      42.387  24.367  27.359  1.00  0.00     0.023 A 
ATOM     69  C   UNL A   1      41.613  23.199  27.439  1.00  0.00     0.031 A 
ATOM     70  C   UNL A   1      43.245  24.516  26.254  1.00  0.00     0.131 A 
ATOM     71  C   UNL A   1      41.744  22.205  26.457  1.00  0.00     0.055 A 
ATOM     72  C   UNL A   1      43.335  23.547  25.254  1.00  0.00     0.041 A 
ATOM     73  F   UNL A   1      44.004  25.617  26.128  1.00  0.00    -0.206 F 
ATOM     74  C   UNL A   1      42.590  22.376  25.359  1.00  0.00     0.022 A 
BRANCH  71  75
ATOM     75  S   UNL A   1      40.849  20.643  26.678  1.00  0.00     0.124 S 
ATOM     76  O   UNL A   1      39.551  20.957  26.092  1.00  0.00    -0.237 OA
ATOM     77  O   UNL A   1      41.682  19.709  25.927  1.00  0.00    -0.237 OA
ATOM     78  O   UNL A   1      40.851  20.452  28.126  1.00  0.00    -0.744 OA
ENDBRANCH  71  75
ENDBRANCH  44  68
BRANCH  56  79
ATOM     79  C   UNL A   1      46.694  25.958  32.603  1.00  0.00     0.023 A 
ATOM     80  C   UNL A   1      46.687  24.937  33.569  1.00  0.00     0.031 A 
ATOM     81  C   UNL A   1      47.936  26.388  32.103  1.00  0.00     0.131 A 
ATOM     82  C   UNL A   1      47.900  24.416  34.043  1.00  0.00     0.055 A 
ATOM     83  C   UNL A   1      49.138  25.827  32.538  1.00  0.00     0.041 A 
ATOM     84  F   UNL A   1      48.001  27.361  31.179  1.00  0.00    -0.206 F 
ATOM     85  C   UNL A   1      49.125  24.844  33.523  1.00  0.00     0.022 A 
BRANCH  82  86
ATOM     86  S   UNL A   1      47.864  23.224  35.411  1.00  0.00     0.124 S 
ATOM     87  O   UNL A   1      49.115  22.499  35.216  1.00  0.00    -0.237 OA
ATOM     88  O   UNL A   1      47.807  24.093  36.582  1.00  0.00    -0.237 OA
ATOM     89  O   UNL A   1      46.652  22.448  35.158  1.00  0.00    -0.744 OA
ENDBRANCH  82  86
ENDBRANCH  56  79
ENDBRANCH  30  31
ENDBRANCH  22  25
ENDBRANCH   1  21
TORSDOF 15
ENDMDL
MODEL 3
REMARK VINA RESULT:     -11.4      3.874      9.079
REMARK SMILES CC1C[NH+]([C@@H](C(=O)NCCCNC(=O)c2ccc(-c3c4nc(c(-c5cc(S(=O)(=O)[O-])ccc5F)c5ccc([nH]5)c(-c5cc(S(=O)(=O)[O-])ccc5F)c5nc(c(-c6cc(S(=O)(=O)[O-])ccc6F)c6ccc3[nH]6)C=C5)C=C4)cc2)C2CCCCC2)C1
REMARK SMILES IDX 11 1 10 2 9 3 8 4 6 5 7 6 5 8 4 9 1 10 2 11 3 12 84 13 78 15
REMARK SMILES IDX 79 16 83 17 80 18 82 19 81 20 12 21 13 22 14 24 15 25 16 26
REMARK SMILES IDX 77 27 17 28 76 29 18 30 19 31 20 32 70 33 21 34 75 35 69 36
REMARK SMILES IDX 71 37 22 38 74 39 68 40 67 41 23 43 55 44 35 45 54 46 36 47
REMARK SMILES IDX 39 48 53 49 72 50 37 51 38 52 52 54 73 55 40 56 24 57 25 58
REMARK SMILES IDX 33 59 26 60 32 61 34 62 31 63 27 64 28 65 29 66 30 67 56 68
REMARK SMILES IDX 57 69 65 70 58 71 64 72 66 73 63 74 59 75 60 76 61 77 62 78
REMARK SMILES IDX 41 79 42 80 50 81 43 82 49 83 51 84 48 85 44 86 45 87 46 88
REMARK SMILES IDX 47 89
REMARK H PARENT 8 7 4 14 12 23 71 42 39 53
REMARK Flexibility Score: inf
ROOT
ATOM      1  C   UNL A   1      33.931  28.961  25.866  1.00  0.00     0.118 C 
ENDROOT
BRANCH   1   2
ATOM      2  C   UNL A   1      33.262  27.827  26.641  1.00  0.00     0.042 C 
BRANCH   2   3
ATOM      3  C   UNL A   1      31.737  27.924  26.788  1.00  0.00     0.118 C 
BRANCH   3   4
ATOM      4  N   UNL A   1      31.073  26.634  26.904  1.00  0.00    -0.351 N 
ATOM      5  C   UNL A   1      30.526  25.765  26.005  1.00  0.00     0.278 C 
ATOM      6  O   UNL A   1      30.073  24.728  26.501  1.00  0.00    -0.268 OA
ATOM      7  H   UNL A   1      31.002  26.320  27.834  1.00  0.00     0.163 HD
BRANCH   5   8
ATOM      8  C   UNL A   1      30.486  26.036  24.475  1.00  0.00     0.277 C 
BRANCH   8   9
ATOM      9  N   UNL A   1      31.786  25.986  23.748  1.00  0.00    -0.324 N 
ATOM     10  C   UNL A   1      33.427  23.249  22.446  1.00  0.00     0.020 C 
ATOM     11  C   UNL A   1      32.337  24.020  23.158  1.00  0.00     0.096 C 
ATOM     12  C   UNL A   1      32.768  25.006  24.259  1.00  0.00     0.271 C 
ATOM     13  C   UNL A   1      31.747  25.273  22.462  1.00  0.00     0.271 C 
ATOM     14  H   UNL A   1      31.997  26.984  23.783  1.00  0.00     0.348 HD
ENDBRANCH   8   9
BRANCH   8  15
ATOM     15  C   UNL A   1      29.783  27.418  24.174  1.00  0.00     0.057 C 
ATOM     16  C   UNL A   1      30.624  28.399  23.322  1.00  0.00     0.010 C 
ATOM     17  C   UNL A   1      28.405  27.201  23.501  1.00  0.00     0.010 C 
ATOM     18  C   UNL A   1      29.893  29.705  23.025  1.00  0.00     0.001 C 
ATOM     19  C   UNL A   1      27.695  28.511  23.154  1.00  0.00     0.001 C 
ATOM     20  C   UNL A   1      28.574  29.433  22.318  1.00  0.00     0.000 C 
ENDBRANCH   8  15
ENDBRANCH   5   8
ENDBRANCH   3   4
ENDBRANCH   2   3
ENDBRANCH   1   2
BRANCH   1  21
ATOM     21  N   UNL A   1      33.729  30.252  26.499  1.00  0.00    -0.352 N 
ATOM     22  C   UNL A   1      34.425  30.846  27.527  1.00  0.00     0.251 C 
ATOM     23  H   UNL A   1      32.982  30.782  26.138  1.00  0.00     0.163 HD
ATOM     24  O   UNL A   1      33.939  31.835  28.070  1.00  0.00    -0.269 OA
BRANCH  22  25
ATOM     25  C   UNL A   1      35.729  30.310  28.000  1.00  0.00     0.039 A 
ATOM     26  C   UNL A   1      35.787  29.708  29.262  1.00  0.00     0.014 A 
ATOM     27  C   UNL A   1      36.905  30.455  27.258  1.00  0.00     0.014 A 
ATOM     28  C   UNL A   1      37.002  29.216  29.756  1.00  0.00     0.010 A 
ATOM     29  C   UNL A   1      38.105  29.907  27.723  1.00  0.00     0.010 A 
ATOM     30  C   UNL A   1      38.171  29.290  28.982  1.00  0.00    -0.014 A 
BRANCH  30  31
ATOM     31  C   UNL A   1      39.468  28.753  29.487  1.00  0.00     0.031 A 
ATOM     32  C   UNL A   1      40.201  29.461  30.598  1.00  0.00     0.074 A 
ATOM     33  C   UNL A   1      40.013  27.657  28.922  1.00  0.00     0.049 A 
ATOM     34  N   UNL A   1      41.374  29.198  31.119  1.00  0.00    -0.248 NA
ATOM     35  C   UNL A   1      39.536  30.634  31.183  1.00  0.00     0.031 C 
ATOM     36  C   UNL A   1      39.420  26.890  27.825  1.00  0.00     0.029 A 
ATOM     37  N   UNL A   1      41.192  27.002  29.184  1.00  0.00    -0.354 N 
ATOM     38  C   UNL A   1      41.594  30.179  32.081  1.00  0.00     0.074 A 
ATOM     39  C   UNL A   1      40.455  31.072  32.031  1.00  0.00     0.031 C 
ATOM     40  C   UNL A   1      40.229  25.862  27.520  1.00  0.00     0.029 A 
ATOM     41  C   UNL A   1      41.418  25.919  28.366  1.00  0.00     0.049 A 
ATOM     42  H   UNL A   1      41.817  27.282  29.891  1.00  0.00     0.167 HD
ATOM     43  C   UNL A   1      42.637  30.315  32.939  1.00  0.00     0.034 A 
ATOM     44  C   UNL A   1      42.468  25.076  28.291  1.00  0.00     0.034 A 
ATOM     45  C   UNL A   1      43.761  29.411  32.994  1.00  0.00     0.049 A 
ATOM     46  C   UNL A   1      43.629  25.262  29.236  1.00  0.00     0.074 A 
ATOM     47  C   UNL A   1      44.843  29.430  33.859  1.00  0.00     0.029 A 
ATOM     48  N   UNL A   1      43.955  28.328  32.147  1.00  0.00    -0.354 N 
ATOM     49  N   UNL A   1      43.803  26.176  30.162  1.00  0.00    -0.248 NA
ATOM     50  C   UNL A   1      44.731  24.296  29.129  1.00  0.00     0.031 C 
ATOM     51  C   UNL A   1      45.718  28.400  33.495  1.00  0.00     0.029 A 
ATOM     52  C   UNL A   1      45.150  27.692  32.449  1.00  0.00     0.049 A 
ATOM     53  H   UNL A   1      43.334  28.052  31.434  1.00  0.00     0.167 HD
ATOM     54  C   UNL A   1      45.020  25.874  30.768  1.00  0.00     0.074 A 
ATOM     55  C   UNL A   1      45.531  24.689  30.111  1.00  0.00     0.031 C 
ATOM     56  C   UNL A   1      45.654  26.516  31.782  1.00  0.00     0.034 A 
BRANCH  43  57
ATOM     57  C   UNL A   1      42.619  31.504  33.872  1.00  0.00     0.023 A 
ATOM     58  C   UNL A   1      42.088  31.416  35.171  1.00  0.00     0.031 A 
ATOM     59  C   UNL A   1      43.117  32.749  33.451  1.00  0.00     0.131 A 
ATOM     60  C   UNL A   1      41.996  32.564  35.971  1.00  0.00     0.055 A 
ATOM     61  C   UNL A   1      43.098  33.870  34.282  1.00  0.00     0.041 A 
ATOM     62  F   UNL A   1      43.621  32.901  32.215  1.00  0.00    -0.206 F 
ATOM     63  C   UNL A   1      42.521  33.787  35.545  1.00  0.00     0.022 A 
BRANCH  60  64
ATOM     64  S   UNL A   1      41.056  32.469  37.519  1.00  0.00     0.124 S 
ATOM     65  O   UNL A   1      39.804  31.868  37.065  1.00  0.00    -0.237 OA
ATOM     66  O   UNL A   1      41.904  31.626  38.353  1.00  0.00    -0.237 OA
ATOM     67  O   UNL A   1      40.951  33.864  37.943  1.00  0.00    -0.744 OA
ENDBRANCH  60  64
ENDBRANCH  43  57
BRANCH  44  68
ATOM     68  C   UNL A   1      42.489  23.985  27.275  1.00  0.00     0.023 A 
ATOM     69  C   UNL A   1      41.872  22.749  27.528  1.00  0.00     0.031 A 
ATOM     70  C   UNL A   1      43.168  24.146  26.055  1.00  0.00     0.131 A 
ATOM     71  C   UNL A   1      41.983  21.708  26.593  1.00  0.00     0.055 A 
ATOM     72  C   UNL A   1      43.234  23.124  25.107  1.00  0.00     0.041 A 
ATOM     73  F   UNL A   1      43.772  25.310  25.762  1.00  0.00    -0.206 F 
ATOM     74  C   UNL A   1      42.650  21.891  25.380  1.00  0.00     0.022 A 
BRANCH  71  75
ATOM     75  S   UNL A   1      41.311  20.079  27.024  1.00  0.00     0.124 S 
ATOM     76  O   UNL A   1      40.313  19.884  25.979  1.00  0.00    -0.237 OA
ATOM     77  O   UNL A   1      42.497  19.233  26.944  1.00  0.00    -0.237 OA
ATOM     78  O   UNL A   1      40.777  20.277  28.369  1.00  0.00    -0.744 OA
ENDBRANCH  71  75
ENDBRANCH  44  68
BRANCH  56  79
ATOM     79  C   UNL A   1      46.951  25.915  32.269  1.00  0.00     0.023 A 
ATOM     80  C   UNL A   1      48.171  26.147  31.610  1.00  0.00     0.031 A 
ATOM     81  C   UNL A   1      46.958  25.086  33.406  1.00  0.00     0.131 A 
ATOM     82  C   UNL A   1      49.339  25.516  32.063  1.00  0.00     0.055 A 
ATOM     83  C   UNL A   1      48.135  24.506  33.884  1.00  0.00     0.041 A 
ATOM     84  F   UNL A   1      45.822  24.830  34.073  1.00  0.00    -0.206 F 
ATOM     85  C   UNL A   1      49.332  24.709  33.204  1.00  0.00     0.022 A 
BRANCH  82  86
ATOM     86  S   UNL A   1      50.862  25.699  31.092  1.00  0.00     0.124 S 
ATOM     87  O   UNL A   1      51.012  27.149  31.033  1.00  0.00    -0.237 OA
ATOM     88  O   UNL A   1      51.841  24.990  31.910  1.00  0.00    -0.237 OA
ATOM     89  O   UNL A   1      50.537  25.057  29.820  1.00  0.00    -0.744 OA
ENDBRANCH  82  86
ENDBRANCH  56  79
ENDBRANCH  30  31
ENDBRANCH  22  25
ENDBRANCH   1  21
TORSDOF 15
ENDMDL
