MODEL 1
REMARK VINA RESULT:     -11.7      0.000      0.000
REMARK SMILES [NH3+][C@H]1C=C[C@@H](C(=O)NC2(CC(=O)NCCCNC(=O)c3ccc(-c4c5nc(c(-c6cc(S(=O)(=O)[O-])ccc6F)c6ccc([nH]6)c(-c6cc(S(=O)(=O)[O-])ccc6F)c6nc(c(-c7cc(S(=O)(=O)[O-])ccc7F)c7ccc4[nH]7)C=C6)C=C5)cc3)CCCCC2)C1
REMARK SMILES IDX 14 1 13 2 11 3 12 4 10 6 9 7 83 8 87 9 84 10 86 11 85 12
REMARK SMILES IDX 8 13 6 14 7 15 5 17 2 18 3 19 88 20 4 21 1 22 15 26 16 27
REMARK SMILES IDX 17 28 18 29 19 31 20 32 21 33 82 34 22 35 81 36 23 37 24 38
REMARK SMILES IDX 25 39 75 40 26 41 80 42 74 43 76 44 27 45 79 46 73 47 72 48
REMARK SMILES IDX 28 50 60 51 40 52 59 53 41 54 44 55 58 56 77 57 42 58 43 59
REMARK SMILES IDX 57 61 78 62 45 63 29 64 30 65 38 66 31 67 37 68 39 69 36 70
REMARK SMILES IDX 32 71 33 72 34 73 35 74 61 75 62 76 70 77 63 78 69 79 71 80
REMARK SMILES IDX 68 81 64 82 65 83 66 84 67 85 46 86 47 87 55 88 48 89 54 90
REMARK SMILES IDX 56 91 53 92 49 93 50 94 51 95 52 96
REMARK H PARENT 13 5 8 16 1 23 1 24 1 25 17 30 76 49 44 60
REMARK Flexibility Score: inf
ROOT
ATOM      1  C   UNL A   1      33.560  21.544  26.319  1.00  0.00     0.117 C 
ENDROOT
BRANCH   1   2
ATOM      2  N   UNL A   1      32.423  22.155  26.985  1.00  0.00    -0.356 N 
ATOM      3  C   UNL A   1      31.630  23.194  26.611  1.00  0.00     0.222 C 
ATOM      4  O   UNL A   1      30.806  23.608  27.434  1.00  0.00    -0.275 OA
ATOM      5  H   UNL A   1      32.187  21.749  27.850  1.00  0.00     0.163 HD
BRANCH   3   6
ATOM      6  C   UNL A   1      31.686  23.820  25.224  1.00  0.00     0.128 C 
BRANCH   6   7
ATOM      7  C   UNL A   1      32.228  25.287  25.114  1.00  0.00     0.049 C 
ATOM      8  C   UNL A   1      31.602  25.967  23.861  1.00  0.00     0.029 C 
ATOM      9  C   UNL A   1      33.743  25.278  24.907  1.00  0.00     0.029 C 
ATOM     10  C   UNL A   1      32.099  25.401  22.524  1.00  0.00     0.002 C 
ATOM     11  C   UNL A   1      34.232  24.636  23.614  1.00  0.00     0.002 C 
ATOM     12  C   UNL A   1      33.621  25.359  22.424  1.00  0.00     0.000 C 
BRANCH   7  13
ATOM     13  N   UNL A   1      31.792  26.042  26.325  1.00  0.00    -0.350 N 
ATOM     14  C   UNL A   1      31.800  27.308  26.808  1.00  0.00     0.227 C 
ATOM     15  O   UNL A   1      31.082  27.471  27.809  1.00  0.00    -0.274 OA
ATOM     16  H   UNL A   1      31.368  25.434  26.972  1.00  0.00     0.164 HD
BRANCH  14  17
ATOM     17  C   UNL A   1      32.604  28.516  26.305  1.00  0.00     0.107 C 
ATOM     18  C   UNL A   1      33.820  30.481  27.154  1.00  0.00     0.205 C 
ATOM     19  C   UNL A   1      34.738  29.430  26.615  1.00  0.00     0.033 C 
ATOM     20  C   UNL A   1      32.432  29.814  27.103  1.00  0.00     0.087 C 
ATOM     21  C   UNL A   1      34.081  28.355  26.161  1.00  0.00    -0.012 C 
BRANCH  18  22
ATOM     22  N   UNL A   1      34.185  30.858  28.513  1.00  0.00    -0.352 N 
ATOM     23  H   UNL A   1      33.967  30.091  29.148  1.00  0.00     0.345 HD
ATOM     24  H   UNL A   1      33.659  31.688  28.788  1.00  0.00     0.345 HD
ATOM     25  H   UNL A   1      35.185  31.060  28.552  1.00  0.00     0.345 HD
ENDBRANCH  18  22
ENDBRANCH  14  17
ENDBRANCH   7  13
ENDBRANCH   6   7
ENDBRANCH   3   6
ENDBRANCH   1   2
BRANCH   1  26
ATOM     26  C   UNL A   1      34.873  22.152  26.813  1.00  0.00     0.042 C 
BRANCH  26  27
ATOM     27  C   UNL A   1      35.935  22.350  25.744  1.00  0.00     0.118 C 
BRANCH  27  28
ATOM     28  N   UNL A   1      36.935  21.297  25.771  1.00  0.00    -0.352 N 
ATOM     29  C   UNL A   1      38.300  21.347  25.921  1.00  0.00     0.251 C 
ATOM     30  H   UNL A   1      36.570  20.388  25.663  1.00  0.00     0.163 HD
ATOM     31  O   UNL A   1      38.943  20.327  25.676  1.00  0.00    -0.269 OA
BRANCH  29  32
ATOM     32  C   UNL A   1      39.014  22.583  26.344  1.00  0.00     0.039 A 
ATOM     33  C   UNL A   1      38.604  23.806  25.797  1.00  0.00     0.014 A 
ATOM     34  C   UNL A   1      40.117  22.566  27.201  1.00  0.00     0.014 A 
ATOM     35  C   UNL A   1      39.266  24.993  26.134  1.00  0.00     0.010 A 
ATOM     36  C   UNL A   1      40.714  23.759  27.614  1.00  0.00     0.010 A 
ATOM     37  C   UNL A   1      40.314  24.986  27.068  1.00  0.00    -0.014 A 
BRANCH  37  38
ATOM     38  C   UNL A   1      41.019  26.244  27.444  1.00  0.00     0.031 A 
ATOM     39  C   UNL A   1      42.414  26.516  26.932  1.00  0.00     0.074 A 
ATOM     40  C   UNL A   1      40.426  27.127  28.273  1.00  0.00     0.049 A 
ATOM     41  N   UNL A   1      43.205  27.531  27.177  1.00  0.00    -0.248 NA
ATOM     42  C   UNL A   1      43.008  25.496  26.055  1.00  0.00     0.031 C 
ATOM     43  C   UNL A   1      39.098  26.964  28.868  1.00  0.00     0.029 A 
ATOM     44  N   UNL A   1      40.857  28.337  28.760  1.00  0.00    -0.354 N 
ATOM     45  C   UNL A   1      44.392  27.261  26.502  1.00  0.00     0.074 A 
ATOM     46  C   UNL A   1      44.237  25.959  25.890  1.00  0.00     0.031 C 
ATOM     47  C   UNL A   1      38.811  28.046  29.610  1.00  0.00     0.029 A 
ATOM     48  C   UNL A   1      39.948  28.960  29.582  1.00  0.00     0.049 A 
ATOM     49  H   UNL A   1      41.736  28.722  28.540  1.00  0.00     0.167 HD
ATOM     50  C   UNL A   1      45.500  28.037  26.382  1.00  0.00     0.034 A 
ATOM     51  C   UNL A   1      40.021  30.133  30.244  1.00  0.00     0.034 A 
ATOM     52  C   UNL A   1      45.631  29.345  26.975  1.00  0.00     0.049 A 
ATOM     53  C   UNL A   1      41.265  30.975  30.099  1.00  0.00     0.074 A 
ATOM     54  C   UNL A   1      46.679  30.243  26.861  1.00  0.00     0.029 A 
ATOM     55  N   UNL A   1      44.688  29.943  27.801  1.00  0.00    -0.354 N 
ATOM     56  N   UNL A   1      42.353  30.730  29.405  1.00  0.00    -0.248 NA
ATOM     57  C   UNL A   1      41.282  32.256  30.815  1.00  0.00     0.031 C 
ATOM     58  C   UNL A   1      46.400  31.350  27.670  1.00  0.00     0.029 A 
ATOM     59  C   UNL A   1      45.144  31.181  28.229  1.00  0.00     0.049 A 
ATOM     60  H   UNL A   1      43.822  29.546  28.047  1.00  0.00     0.167 HD
ATOM     61  C   UNL A   1      43.169  31.845  29.578  1.00  0.00     0.074 A 
ATOM     62  C   UNL A   1      42.439  32.767  30.423  1.00  0.00     0.031 C 
ATOM     63  C   UNL A   1      44.410  32.087  29.081  1.00  0.00     0.034 A 
BRANCH  50  64
ATOM     64  C   UNL A   1      46.664  27.474  25.598  1.00  0.00     0.023 A 
ATOM     65  C   UNL A   1      46.990  27.944  24.313  1.00  0.00     0.031 A 
ATOM     66  C   UNL A   1      47.450  26.438  26.135  1.00  0.00     0.131 A 
ATOM     67  C   UNL A   1      48.017  27.328  23.579  1.00  0.00     0.055 A 
ATOM     68  C   UNL A   1      48.524  25.887  25.433  1.00  0.00     0.041 A 
ATOM     69  F   UNL A   1      47.178  25.934  27.349  1.00  0.00    -0.206 F 
ATOM     70  C   UNL A   1      48.803  26.320  24.141  1.00  0.00     0.022 A 
BRANCH  67  71
ATOM     71  S   UNL A   1      48.214  27.765  21.829  1.00  0.00     0.124 S 
ATOM     72  O   UNL A   1      48.475  26.459  21.227  1.00  0.00    -0.237 OA
ATOM     73  O   UNL A   1      46.928  28.371  21.510  1.00  0.00    -0.237 OA
ATOM     74  O   UNL A   1      49.353  28.681  21.831  1.00  0.00    -0.744 OA
ENDBRANCH  67  71
ENDBRANCH  50  64
BRANCH  51  75
ATOM     75  C   UNL A   1      38.892  30.591  31.106  1.00  0.00     0.023 A 
ATOM     76  C   UNL A   1      37.880  31.419  30.592  1.00  0.00     0.031 A 
ATOM     77  C   UNL A   1      38.835  30.251  32.469  1.00  0.00     0.131 A 
ATOM     78  C   UNL A   1      36.884  31.919  31.446  1.00  0.00     0.055 A 
ATOM     79  C   UNL A   1      37.812  30.708  33.302  1.00  0.00     0.041 A 
ATOM     80  F   UNL A   1      39.772  29.456  33.010  1.00  0.00    -0.206 F 
ATOM     81  C   UNL A   1      36.836  31.560  32.794  1.00  0.00     0.022 A 
BRANCH  78  82
ATOM     82  S   UNL A   1      35.701  33.127  30.786  1.00  0.00     0.124 S 
ATOM     83  O   UNL A   1      34.425  32.486  31.084  1.00  0.00    -0.237 OA
ATOM     84  O   UNL A   1      36.020  34.318  31.566  1.00  0.00    -0.237 OA
ATOM     85  O   UNL A   1      36.048  33.201  29.368  1.00  0.00    -0.744 OA
ENDBRANCH  78  82
ENDBRANCH  51  75
BRANCH  63  86
ATOM     86  C   UNL A   1      45.028  33.426  29.408  1.00  0.00     0.023 A 
ATOM     87  C   UNL A   1      44.835  34.550  28.587  1.00  0.00     0.031 A 
ATOM     88  C   UNL A   1      45.844  33.569  30.545  1.00  0.00     0.131 A 
ATOM     89  C   UNL A   1      45.501  35.751  28.878  1.00  0.00     0.055 A 
ATOM     90  C   UNL A   1      46.452  34.784  30.865  1.00  0.00     0.041 A 
ATOM     91  F   UNL A   1      46.066  32.528  31.363  1.00  0.00    -0.206 F 
ATOM     92  C   UNL A   1      46.295  35.879  30.021  1.00  0.00     0.022 A 
BRANCH  89  93
ATOM     93  S   UNL A   1      45.405  37.112  27.682  1.00  0.00     0.124 S 
ATOM     94  O   UNL A   1      45.651  38.275  28.526  1.00  0.00    -0.237 OA
ATOM     95  O   UNL A   1      46.465  36.772  26.739  1.00  0.00    -0.237 OA
ATOM     96  O   UNL A   1      44.047  37.006  27.151  1.00  0.00    -0.744 OA
ENDBRANCH  89  93
ENDBRANCH  63  86
ENDBRANCH  37  38
ENDBRANCH  29  32
ENDBRANCH  27  28
ENDBRANCH  26  27
ENDBRANCH   1  26
TORSDOF 17
ENDMDL
MODEL 2
REMARK VINA RESULT:     -11.7      4.621      9.562
REMARK SMILES [NH3+][C@H]1C=C[C@@H](C(=O)NC2(CC(=O)NCCCNC(=O)c3ccc(-c4c5nc(c(-c6cc(S(=O)(=O)[O-])ccc6F)c6ccc([nH]6)c(-c6cc(S(=O)(=O)[O-])ccc6F)c6nc(c(-c7cc(S(=O)(=O)[O-])ccc7F)c7ccc4[nH]7)C=C6)C=C5)cc3)CCCCC2)C1
REMARK SMILES IDX 14 1 13 2 11 3 12 4 10 6 9 7 83 8 87 9 84 10 86 11 85 12
REMARK SMILES IDX 8 13 6 14 7 15 5 17 2 18 3 19 88 20 4 21 1 22 15 26 16 27
REMARK SMILES IDX 17 28 18 29 19 31 20 32 21 33 82 34 22 35 81 36 23 37 24 38
REMARK SMILES IDX 25 39 75 40 26 41 80 42 74 43 76 44 27 45 79 46 73 47 72 48
REMARK SMILES IDX 28 50 60 51 40 52 59 53 41 54 44 55 58 56 77 57 42 58 43 59
REMARK SMILES IDX 57 61 78 62 45 63 29 64 30 65 38 66 31 67 37 68 39 69 36 70
REMARK SMILES IDX 32 71 33 72 34 73 35 74 61 75 62 76 70 77 63 78 69 79 71 80
REMARK SMILES IDX 68 81 64 82 65 83 66 84 67 85 46 86 47 87 55 88 48 89 54 90
REMARK SMILES IDX 56 91 53 92 49 93 50 94 51 95 52 96
REMARK H PARENT 13 5 8 16 1 23 1 24 1 25 17 30 76 49 44 60
REMARK Flexibility Score: inf
ROOT
ATOM      1  C   UNL A   1      31.601  28.311  27.095  1.00  0.00     0.117 C 
ENDROOT
BRANCH   1   2
ATOM      2  N   UNL A   1      30.999  26.991  27.160  1.00  0.00    -0.356 N 
ATOM      3  C   UNL A   1      30.745  26.082  26.182  1.00  0.00     0.222 C 
ATOM      4  O   UNL A   1      30.091  25.080  26.489  1.00  0.00    -0.275 OA
ATOM      5  H   UNL A   1      30.730  26.707  28.064  1.00  0.00     0.163 HD
BRANCH   3   6
ATOM      6  C   UNL A   1      31.270  26.229  24.760  1.00  0.00     0.128 C 
BRANCH   6   7
ATOM      7  C   UNL A   1      32.491  25.337  24.344  1.00  0.00     0.049 C 
ATOM      8  C   UNL A   1      33.733  26.248  24.119  1.00  0.00     0.029 C 
ATOM      9  C   UNL A   1      32.206  24.636  23.016  1.00  0.00     0.029 C 
ATOM     10  C   UNL A   1      33.634  27.153  22.884  1.00  0.00     0.002 C 
ATOM     11  C   UNL A   1      32.024  25.548  21.809  1.00  0.00     0.002 C 
ATOM     12  C   UNL A   1      33.276  26.388  21.613  1.00  0.00     0.000 C 
BRANCH   7  13
ATOM     13  N   UNL A   1      32.793  24.400  25.465  1.00  0.00    -0.350 N 
ATOM     14  C   UNL A   1      33.758  23.530  25.850  1.00  0.00     0.227 C 
ATOM     15  O   UNL A   1      33.651  23.145  27.027  1.00  0.00    -0.274 OA
ATOM     16  H   UNL A   1      32.068  24.420  26.131  1.00  0.00     0.164 HD
BRANCH  14  17
ATOM     17  C   UNL A   1      34.907  22.949  25.013  1.00  0.00     0.107 C 
ATOM     18  C   UNL A   1      37.314  22.457  25.165  1.00  0.00     0.205 C 
ATOM     19  C   UNL A   1      36.475  21.218  25.185  1.00  0.00     0.033 C 
ATOM     20  C   UNL A   1      36.281  23.598  25.219  1.00  0.00     0.087 C 
ATOM     21  C   UNL A   1      35.165  21.482  25.113  1.00  0.00    -0.012 C 
BRANCH  18  22
ATOM     22  N   UNL A   1      38.223  22.501  26.303  1.00  0.00    -0.352 N 
ATOM     23  H   UNL A   1      39.146  22.179  26.012  1.00  0.00     0.345 HD
ATOM     24  H   UNL A   1      37.869  21.896  27.043  1.00  0.00     0.345 HD
ATOM     25  H   UNL A   1      38.290  23.459  26.647  1.00  0.00     0.345 HD
ENDBRANCH  18  22
ENDBRANCH  14  17
ENDBRANCH   7  13
ENDBRANCH   6   7
ENDBRANCH   3   6
ENDBRANCH   1   2
BRANCH   1  26
ATOM     26  C   UNL A   1      33.124  28.212  27.015  1.00  0.00     0.042 C 
BRANCH  26  27
ATOM     27  C   UNL A   1      33.797  29.270  26.155  1.00  0.00     0.118 C 
BRANCH  27  28
ATOM     28  N   UNL A   1      33.680  30.596  26.737  1.00  0.00    -0.352 N 
ATOM     29  C   UNL A   1      34.385  31.208  27.745  1.00  0.00     0.251 C 
ATOM     30  H   UNL A   1      32.972  31.153  26.338  1.00  0.00     0.163 HD
ATOM     31  O   UNL A   1      33.936  32.257  28.206  1.00  0.00    -0.269 OA
BRANCH  29  32
ATOM     32  C   UNL A   1      35.644  30.639  28.302  1.00  0.00     0.039 A 
ATOM     33  C   UNL A   1      36.856  30.989  27.692  1.00  0.00     0.014 A 
ATOM     34  C   UNL A   1      35.660  29.718  29.352  1.00  0.00     0.014 A 
ATOM     35  C   UNL A   1      38.064  30.452  28.154  1.00  0.00     0.010 A 
ATOM     36  C   UNL A   1      36.871  29.261  29.877  1.00  0.00     0.010 A 
ATOM     37  C   UNL A   1      38.088  29.602  29.271  1.00  0.00    -0.014 A 
BRANCH  37  38
ATOM     38  C   UNL A   1      39.368  29.033  29.780  1.00  0.00     0.031 A 
ATOM     39  C   UNL A   1      40.055  29.655  30.972  1.00  0.00     0.074 A 
ATOM     40  C   UNL A   1      39.935  27.983  29.153  1.00  0.00     0.049 A 
ATOM     41  N   UNL A   1      41.190  29.330  31.539  1.00  0.00    -0.248 NA
ATOM     42  C   UNL A   1      39.392  30.815  31.587  1.00  0.00     0.031 C 
ATOM     43  C   UNL A   1      39.393  27.316  27.967  1.00  0.00     0.029 A 
ATOM     44  N   UNL A   1      41.089  27.288  29.422  1.00  0.00    -0.354 N 
ATOM     45  C   UNL A   1      41.385  30.255  32.561  1.00  0.00     0.074 A 
ATOM     46  C   UNL A   1      40.282  31.189  32.494  1.00  0.00     0.031 C 
ATOM     47  C   UNL A   1      40.195  26.291  27.633  1.00  0.00     0.029 A 
ATOM     48  C   UNL A   1      41.329  26.252  28.549  1.00  0.00     0.049 A 
ATOM     49  H   UNL A   1      41.688  27.511  30.170  1.00  0.00     0.167 HD
ATOM     50  C   UNL A   1      42.377  30.308  33.485  1.00  0.00     0.034 A 
ATOM     51  C   UNL A   1      42.349  25.372  28.489  1.00  0.00     0.034 A 
ATOM     52  C   UNL A   1      43.458  29.354  33.558  1.00  0.00     0.049 A 
ATOM     53  C   UNL A   1      43.444  25.454  29.524  1.00  0.00     0.074 A 
ATOM     54  C   UNL A   1      44.477  29.275  34.492  1.00  0.00     0.029 A 
ATOM     55  N   UNL A   1      43.667  28.319  32.656  1.00  0.00    -0.354 N 
ATOM     56  N   UNL A   1      43.578  26.299  30.522  1.00  0.00    -0.248 NA
ATOM     57  C   UNL A   1      44.515  24.455  29.434  1.00  0.00     0.031 C 
ATOM     58  C   UNL A   1      45.336  28.235  34.118  1.00  0.00     0.029 A 
ATOM     59  C   UNL A   1      44.814  27.616  32.994  1.00  0.00     0.049 A 
ATOM     60  H   UNL A   1      43.085  28.113  31.889  1.00  0.00     0.167 HD
ATOM     61  C   UNL A   1      44.733  25.909  31.194  1.00  0.00     0.074 A 
ATOM     62  C   UNL A   1      45.243  24.744  30.501  1.00  0.00     0.031 C 
ATOM     63  C   UNL A   1      45.318  26.462  32.288  1.00  0.00     0.034 A 
BRANCH  50  64
ATOM     64  C   UNL A   1      42.350  31.451  34.476  1.00  0.00     0.023 A 
ATOM     65  C   UNL A   1      41.445  31.479  35.553  1.00  0.00     0.031 A 
ATOM     66  C   UNL A   1      43.227  32.540  34.330  1.00  0.00     0.131 A 
ATOM     67  C   UNL A   1      41.385  32.603  36.391  1.00  0.00     0.055 A 
ATOM     68  C   UNL A   1      43.220  33.618  35.218  1.00  0.00     0.041 A 
ATOM     69  F   UNL A   1      44.102  32.582  33.312  1.00  0.00    -0.206 F 
ATOM     70  C   UNL A   1      42.283  33.662  36.247  1.00  0.00     0.022 A 
BRANCH  67  71
ATOM     71  S   UNL A   1      40.020  32.725  37.580  1.00  0.00     0.124 S 
ATOM     72  O   UNL A   1      39.516  34.070  37.313  1.00  0.00    -0.237 OA
ATOM     73  O   UNL A   1      39.152  31.625  37.177  1.00  0.00    -0.237 OA
ATOM     74  O   UNL A   1      40.678  32.560  38.875  1.00  0.00    -0.744 OA
ENDBRANCH  67  71
ENDBRANCH  50  64
BRANCH  51  75
ATOM     75  C   UNL A   1      42.396  24.335  27.417  1.00  0.00     0.023 A 
ATOM     76  C   UNL A   1      41.783  23.084  27.594  1.00  0.00     0.031 A 
ATOM     77  C   UNL A   1      43.099  24.560  26.220  1.00  0.00     0.131 A 
ATOM     78  C   UNL A   1      41.927  22.089  26.614  1.00  0.00     0.055 A 
ATOM     79  C   UNL A   1      43.193  23.585  25.225  1.00  0.00     0.041 A 
ATOM     80  F   UNL A   1      43.698  25.741  25.996  1.00  0.00    -0.206 F 
ATOM     81  C   UNL A   1      42.617  22.335  25.426  1.00  0.00     0.022 A 
BRANCH  78  82
ATOM     82  S   UNL A   1      41.274  20.431  26.958  1.00  0.00     0.124 S 
ATOM     83  O   UNL A   1      40.238  20.302  25.939  1.00  0.00    -0.237 OA
ATOM     84  O   UNL A   1      42.459  19.598  26.778  1.00  0.00    -0.237 OA
ATOM     85  O   UNL A   1      40.791  20.535  28.333  1.00  0.00    -0.744 OA
ENDBRANCH  78  82
ENDBRANCH  51  75
BRANCH  63  86
ATOM     86  C   UNL A   1      46.554  25.776  32.823  1.00  0.00     0.023 A 
ATOM     87  C   UNL A   1      47.828  26.023  32.286  1.00  0.00     0.031 A 
ATOM     88  C   UNL A   1      46.446  24.841  33.869  1.00  0.00     0.131 A 
ATOM     89  C   UNL A   1      48.936  25.297  32.751  1.00  0.00     0.055 A 
ATOM     90  C   UNL A   1      47.561  24.169  34.371  1.00  0.00     0.041 A 
ATOM     91  F   UNL A   1      45.252  24.563  34.417  1.00  0.00    -0.206 F 
ATOM     92  C   UNL A   1      48.812  24.384  33.801  1.00  0.00     0.022 A 
BRANCH  89  93
ATOM     93  S   UNL A   1      50.522  25.481  31.889  1.00  0.00     0.124 S 
ATOM     94  O   UNL A   1      51.418  25.848  32.980  1.00  0.00    -0.237 OA
ATOM     95  O   UNL A   1      50.721  24.153  31.318  1.00  0.00    -0.237 OA
ATOM     96  O   UNL A   1      50.262  26.541  30.916  1.00  0.00    -0.744 OA
ENDBRANCH  89  93
ENDBRANCH  63  86
ENDBRANCH  37  38
ENDBRANCH  29  32
ENDBRANCH  27  28
ENDBRANCH  26  27
ENDBRANCH   1  26
TORSDOF 17
ENDMDL
MODEL 3
REMARK VINA RESULT:     -11.6      0.627      7.572
REMARK SMILES [NH3+][C@H]1C=C[C@@H](C(=O)NC2(CC(=O)NCCCNC(=O)c3ccc(-c4c5nc(c(-c6cc(S(=O)(=O)[O-])ccc6F)c6ccc([nH]6)c(-c6cc(S(=O)(=O)[O-])ccc6F)c6nc(c(-c7cc(S(=O)(=O)[O-])ccc7F)c7ccc4[nH]7)C=C6)C=C5)cc3)CCCCC2)C1
REMARK SMILES IDX 14 1 13 2 11 3 12 4 10 6 9 7 83 8 87 9 84 10 86 11 85 12
REMARK SMILES IDX 8 13 6 14 7 15 5 17 2 18 3 19 88 20 4 21 1 22 15 26 16 27
REMARK SMILES IDX 17 28 18 29 19 31 20 32 21 33 82 34 22 35 81 36 23 37 24 38
REMARK SMILES IDX 25 39 75 40 26 41 80 42 74 43 76 44 27 45 79 46 73 47 72 48
REMARK SMILES IDX 28 50 60 51 40 52 59 53 41 54 44 55 58 56 77 57 42 58 43 59
REMARK SMILES IDX 57 61 78 62 45 63 29 64 30 65 38 66 31 67 37 68 39 69 36 70
REMARK SMILES IDX 32 71 33 72 34 73 35 74 61 75 62 76 70 77 63 78 69 79 71 80
REMARK SMILES IDX 68 81 64 82 65 83 66 84 67 85 46 86 47 87 55 88 48 89 54 90
REMARK SMILES IDX 56 91 53 92 49 93 50 94 51 95 52 96
REMARK H PARENT 13 5 8 16 1 23 1 24 1 25 17 30 76 49 44 60
REMARK Flexibility Score: inf
ROOT
ATOM      1  C   UNL A   1      33.083  21.415  26.186  1.00  0.00     0.117 C 
ENDROOT
BRANCH   1   2
ATOM      2  N   UNL A   1      31.928  22.013  26.830  1.00  0.00    -0.356 N 
ATOM      3  C   UNL A   1      31.122  23.036  26.437  1.00  0.00     0.222 C 
ATOM      4  O   UNL A   1      30.281  23.443  27.245  1.00  0.00    -0.275 OA
ATOM      5  H   UNL A   1      31.686  21.611  27.696  1.00  0.00     0.163 HD
BRANCH   3   6
ATOM      6  C   UNL A   1      31.187  23.650  25.046  1.00  0.00     0.128 C 
BRANCH   6   7
ATOM      7  C   UNL A   1      31.859  25.061  24.908  1.00  0.00     0.049 C 
ATOM      8  C   UNL A   1      31.262  25.789  23.668  1.00  0.00     0.029 C 
ATOM      9  C   UNL A   1      33.360  24.910  24.658  1.00  0.00     0.029 C 
ATOM     10  C   UNL A   1      31.665  25.172  22.322  1.00  0.00     0.002 C 
ATOM     11  C   UNL A   1      33.749  24.220  23.356  1.00  0.00     0.002 C 
ATOM     12  C   UNL A   1      33.173  24.989  22.179  1.00  0.00     0.000 C 
BRANCH   7  13
ATOM     13  N   UNL A   1      31.530  25.859  26.125  1.00  0.00    -0.350 N 
ATOM     14  C   UNL A   1      31.712  27.108  26.619  1.00  0.00     0.227 C 
ATOM     15  O   UNL A   1      31.022  27.361  27.621  1.00  0.00    -0.274 OA
ATOM     16  H   UNL A   1      31.025  25.310  26.767  1.00  0.00     0.164 HD
BRANCH  14  17
ATOM     17  C   UNL A   1      32.677  28.197  26.126  1.00  0.00     0.107 C 
ATOM     18  C   UNL A   1      33.605  30.371  26.813  1.00  0.00     0.205 C 
ATOM     19  C   UNL A   1      34.615  29.270  26.885  1.00  0.00     0.033 C 
ATOM     20  C   UNL A   1      32.292  29.640  26.474  1.00  0.00     0.087 C 
ATOM     21  C   UNL A   1      34.111  28.084  26.522  1.00  0.00    -0.012 C 
BRANCH  18  22
ATOM     22  N   UNL A   1      33.509  31.088  28.077  1.00  0.00    -0.352 N 
ATOM     23  H   UNL A   1      34.354  31.643  28.218  1.00  0.00     0.345 HD
ATOM     24  H   UNL A   1      33.411  30.419  28.841  1.00  0.00     0.345 HD
ATOM     25  H   UNL A   1      32.697  31.705  28.058  1.00  0.00     0.345 HD
ENDBRANCH  18  22
ENDBRANCH  14  17
ENDBRANCH   7  13
ENDBRANCH   6   7
ENDBRANCH   3   6
ENDBRANCH   1   2
BRANCH   1  26
ATOM     26  C   UNL A   1      34.367  21.752  26.944  1.00  0.00     0.042 C 
BRANCH  26  27
ATOM     27  C   UNL A   1      35.518  22.241  26.082  1.00  0.00     0.118 C 
BRANCH  27  28
ATOM     28  N   UNL A   1      36.521  21.209  25.880  1.00  0.00    -0.352 N 
ATOM     29  C   UNL A   1      37.889  21.285  25.771  1.00  0.00     0.251 C 
ATOM     30  H   UNL A   1      36.157  20.297  25.810  1.00  0.00     0.163 HD
ATOM     31  O   UNL A   1      38.490  20.289  25.372  1.00  0.00    -0.269 OA
BRANCH  29  32
ATOM     32  C   UNL A   1      38.651  22.523  26.097  1.00  0.00     0.039 A 
ATOM     33  C   UNL A   1      39.837  22.397  26.832  1.00  0.00     0.014 A 
ATOM     34  C   UNL A   1      38.196  23.801  25.766  1.00  0.00     0.014 A 
ATOM     35  C   UNL A   1      40.571  23.532  27.195  1.00  0.00     0.010 A 
ATOM     36  C   UNL A   1      38.979  24.926  26.041  1.00  0.00     0.010 A 
ATOM     37  C   UNL A   1      40.164  24.810  26.781  1.00  0.00    -0.014 A 
BRANCH  37  38
ATOM     38  C   UNL A   1      40.943  26.026  27.151  1.00  0.00     0.031 A 
ATOM     39  C   UNL A   1      40.317  27.097  28.012  1.00  0.00     0.074 A 
ATOM     40  C   UNL A   1      42.198  26.188  26.687  1.00  0.00     0.049 A 
ATOM     41  N   UNL A   1      40.817  28.240  28.409  1.00  0.00    -0.248 NA
ATOM     42  C   UNL A   1      38.935  26.864  28.458  1.00  0.00     0.031 C 
ATOM     43  C   UNL A   1      42.903  25.246  25.814  1.00  0.00     0.029 A 
ATOM     44  N   UNL A   1      43.108  27.199  26.881  1.00  0.00    -0.354 N 
ATOM     45  C   UNL A   1      39.807  28.869  29.131  1.00  0.00     0.074 A 
ATOM     46  C   UNL A   1      38.648  28.006  29.065  1.00  0.00     0.031 C 
ATOM     47  C   UNL A   1      44.142  25.707  25.578  1.00  0.00     0.029 A 
ATOM     48  C   UNL A   1      44.309  26.995  26.242  1.00  0.00     0.049 A 
ATOM     49  H   UNL A   1      42.917  27.995  27.427  1.00  0.00     0.167 HD
ATOM     50  C   UNL A   1      39.848  30.044  29.809  1.00  0.00     0.034 A 
ATOM     51  C   UNL A   1      45.418  27.760  26.192  1.00  0.00     0.034 A 
ATOM     52  C   UNL A   1      41.020  30.883  29.890  1.00  0.00     0.049 A 
ATOM     53  C   UNL A   1      45.438  29.065  26.948  1.00  0.00     0.074 A 
ATOM     54  C   UNL A   1      41.192  32.057  30.604  1.00  0.00     0.029 A 
ATOM     55  N   UNL A   1      42.217  30.643  29.230  1.00  0.00    -0.354 N 
ATOM     56  N   UNL A   1      44.493  29.613  27.678  1.00  0.00    -0.248 NA
ATOM     57  C   UNL A   1      46.680  29.846  26.886  1.00  0.00     0.031 C 
ATOM     58  C   UNL A   1      42.467  32.560  30.321  1.00  0.00     0.029 A 
ATOM     59  C   UNL A   1      43.121  31.662  29.493  1.00  0.00     0.049 A 
ATOM     60  H   UNL A   1      42.399  29.862  28.658  1.00  0.00     0.167 HD
ATOM     61  C   UNL A   1      45.041  30.787  28.187  1.00  0.00     0.074 A 
ATOM     62  C   UNL A   1      46.402  30.855  27.697  1.00  0.00     0.031 C 
ATOM     63  C   UNL A   1      44.472  31.724  28.989  1.00  0.00     0.034 A 
BRANCH  50  64
ATOM     64  C   UNL A   1      38.580  30.500  30.494  1.00  0.00     0.023 A 
ATOM     65  C   UNL A   1      37.652  31.342  29.855  1.00  0.00     0.031 A 
ATOM     66  C   UNL A   1      38.301  30.103  31.815  1.00  0.00     0.131 A 
ATOM     67  C   UNL A   1      36.536  31.822  30.560  1.00  0.00     0.055 A 
ATOM     68  C   UNL A   1      37.146  30.516  32.482  1.00  0.00     0.041 A 
ATOM     69  F   UNL A   1      39.156  29.315  32.486  1.00  0.00    -0.206 F 
ATOM     70  C   UNL A   1      36.264  31.394  31.861  1.00  0.00     0.022 A 
BRANCH  67  71
ATOM     71  S   UNL A   1      35.528  33.126  29.802  1.00  0.00     0.124 S 
ATOM     72  O   UNL A   1      35.768  32.894  28.379  1.00  0.00    -0.237 OA
ATOM     73  O   UNL A   1      34.190  32.810  30.285  1.00  0.00    -0.237 OA
ATOM     74  O   UNL A   1      36.108  34.359  30.331  1.00  0.00    -0.744 OA
ENDBRANCH  67  71
ENDBRANCH  50  64
BRANCH  51  75
ATOM     75  C   UNL A   1      46.606  27.325  25.400  1.00  0.00     0.023 A 
ATOM     76  C   UNL A   1      46.840  27.832  24.110  1.00  0.00     0.031 A 
ATOM     77  C   UNL A   1      47.496  26.358  25.897  1.00  0.00     0.131 A 
ATOM     78  C   UNL A   1      47.906  27.333  23.345  1.00  0.00     0.055 A 
ATOM     79  C   UNL A   1      48.586  25.905  25.153  1.00  0.00     0.041 A 
ATOM     80  F   UNL A   1      47.324  25.845  27.127  1.00  0.00    -0.206 F 
ATOM     81  C   UNL A   1      48.788  26.383  23.861  1.00  0.00     0.022 A 
BRANCH  78  82
ATOM     82  S   UNL A   1      48.068  27.881  21.622  1.00  0.00     0.124 S 
ATOM     83  O   UNL A   1      49.264  28.713  21.686  1.00  0.00    -0.237 OA
ATOM     84  O   UNL A   1      48.205  26.612  20.915  1.00  0.00    -0.237 OA
ATOM     85  O   UNL A   1      46.819  28.598  21.375  1.00  0.00    -0.744 OA
ENDBRANCH  78  82
ENDBRANCH  51  75
BRANCH  63  86
ATOM     86  C   UNL A   1      45.347  32.878  29.419  1.00  0.00     0.023 A 
ATOM     87  C   UNL A   1      45.354  34.100  28.726  1.00  0.00     0.031 A 
ATOM     88  C   UNL A   1      46.205  32.740  30.525  1.00  0.00     0.131 A 
ATOM     89  C   UNL A   1      46.248  35.114  29.104  1.00  0.00     0.055 A 
ATOM     90  C   UNL A   1      47.046  33.776  30.937  1.00  0.00     0.041 A 
ATOM     91  F   UNL A   1      46.243  31.594  31.223  1.00  0.00    -0.206 F 
ATOM     92  C   UNL A   1      47.082  34.965  30.215  1.00  0.00     0.022 A 
BRANCH  89  93
ATOM     93  S   UNL A   1      46.385  36.589  28.057  1.00  0.00     0.124 S 
ATOM     94  O   UNL A   1      45.446  36.286  26.982  1.00  0.00    -0.237 OA
ATOM     95  O   UNL A   1      45.988  37.656  28.969  1.00  0.00    -0.237 OA
ATOM     96  O   UNL A   1      47.793  36.601  27.664  1.00  0.00    -0.744 OA
ENDBRANCH  89  93
ENDBRANCH  63  86
ENDBRANCH  37  38
ENDBRANCH  29  32
ENDBRANCH  27  28
ENDBRANCH  26  27
ENDBRANCH   1  26
TORSDOF 17
ENDMDL
