MODEL 1
REMARK VINA RESULT:     -10.7      0.000      0.000
REMARK SMILES CC[C@@](C)([NH2+]CC(=O)N[C@@H](C)c1ccc(F)cc1)C(=O)NCCCNC(=O)c1ccc(-c2c3nc(c(-c4cc(S(=O)(=O)[O-])ccc4F)c4ccc([nH]4)c(-c4cc(S(=O)(=O)[O-])ccc4F)c4nc(c(-c5cc(S(=O)(=O)[O-])ccc5F)c5ccc2[nH]5)C=C4)C=C3)cc1
REMARK SMILES IDX 22 1 21 2 19 3 20 4 3 6 4 7 2 8 1 9 5 10 6 13 7 14 8 15 9 16
REMARK SMILES IDX 10 18 11 19 12 20 13 21 18 22 14 23 17 24 15 25 16 26 23 27
REMARK SMILES IDX 24 28 25 29 26 30 27 32 28 33 29 34 90 35 30 36 89 37 31 38
REMARK SMILES IDX 32 39 33 40 83 41 34 42 88 43 82 44 84 45 35 46 87 47 81 48
REMARK SMILES IDX 80 49 36 51 68 52 48 53 67 54 49 55 52 56 66 57 85 58 50 59
REMARK SMILES IDX 51 60 65 62 86 63 53 64 37 65 38 66 46 67 39 68 45 69 47 70
REMARK SMILES IDX 44 71 40 72 41 73 42 74 43 75 69 76 70 77 78 78 71 79 77 80
REMARK SMILES IDX 79 81 76 82 72 83 73 84 74 85 75 86 54 87 55 88 63 89 56 90
REMARK SMILES IDX 62 91 64 92 61 93 57 94 58 95 59 96 60 97
REMARK H PARENT 21 5 5 11 5 12 9 17 25 31 84 50 52 61
REMARK Flexibility Score: inf
ROOT
ATOM      1  C   UNL A   1      37.173  20.869  24.444  1.00  0.00     0.118 C 
ENDROOT
BRANCH   1   2
ATOM      2  N   UNL A   1      37.336  22.299  24.725  1.00  0.00    -0.351 N 
ATOM      3  C   UNL A   1      36.444  23.262  25.170  1.00  0.00     0.281 C 
ATOM      4  O   UNL A   1      36.971  24.135  25.872  1.00  0.00    -0.268 OA
ATOM      5  H   UNL A   1      38.247  22.637  24.569  1.00  0.00     0.163 HD
BRANCH   3   6
ATOM      6  C   UNL A   1      34.875  23.350  24.771  1.00  0.00     0.172 C 
ATOM      7  C   UNL A   1      33.953  22.215  24.288  1.00  0.00     0.090 C 
BRANCH   6   8
ATOM      8  C   UNL A   1      34.211  23.723  26.163  1.00  0.00     0.075 C 
ATOM      9  C   UNL A   1      32.930  22.903  26.498  1.00  0.00     0.011 C 
ENDBRANCH   6   8
BRANCH   6  10
ATOM     10  N   UNL A   1      34.795  24.380  23.737  1.00  0.00    -0.326 N 
ATOM     11  H   UNL A   1      35.535  24.187  23.062  1.00  0.00     0.347 HD
ATOM     12  H   UNL A   1      34.873  25.256  24.254  1.00  0.00     0.347 HD
BRANCH  10  13
ATOM     13  C   UNL A   1      33.527  24.525  22.970  1.00  0.00     0.362 C 
BRANCH  13  14
ATOM     14  C   UNL A   1      33.021  25.815  22.210  1.00  0.00     0.275 C 
ATOM     15  O   UNL A   1      33.474  25.917  21.048  1.00  0.00    -0.268 OA
ATOM     16  N   UNL A   1      32.267  26.900  22.518  1.00  0.00    -0.345 N 
ATOM     17  H   UNL A   1      32.215  27.470  21.717  1.00  0.00     0.164 HD
BRANCH  16  18
ATOM     18  C   UNL A   1      31.492  27.559  23.598  1.00  0.00     0.109 C 
ATOM     19  C   UNL A   1      30.489  26.637  24.315  1.00  0.00     0.036 C 
BRANCH  18  20
ATOM     20  C   UNL A   1      32.394  28.195  24.670  1.00  0.00    -0.026 A 
ATOM     21  C   UNL A   1      32.152  29.503  25.130  1.00  0.00     0.009 A 
ATOM     22  C   UNL A   1      33.390  27.447  25.329  1.00  0.00     0.009 A 
ATOM     23  C   UNL A   1      32.865  30.038  26.209  1.00  0.00     0.039 A 
ATOM     24  C   UNL A   1      34.062  27.960  26.440  1.00  0.00     0.039 A 
ATOM     25  C   UNL A   1      33.797  29.252  26.867  1.00  0.00     0.123 A 
ATOM     26  F   UNL A   1      34.428  29.732  27.947  1.00  0.00    -0.207 F 
ENDBRANCH  18  20
ENDBRANCH  16  18
ENDBRANCH  13  14
ENDBRANCH  10  13
ENDBRANCH   6  10
ENDBRANCH   3   6
ENDBRANCH   1   2
BRANCH   1  27
ATOM     27  C   UNL A   1      37.962  19.906  25.311  1.00  0.00     0.042 C 
BRANCH  27  28
ATOM     28  C   UNL A   1      39.317  20.413  25.771  1.00  0.00     0.118 C 
BRANCH  28  29
ATOM     29  N   UNL A   1      40.342  19.375  25.895  1.00  0.00    -0.352 N 
ATOM     30  C   UNL A   1      41.695  19.446  26.150  1.00  0.00     0.251 C 
ATOM     31  H   UNL A   1      40.003  18.458  25.773  1.00  0.00     0.163 HD
ATOM     32  O   UNL A   1      42.363  18.412  26.127  1.00  0.00    -0.269 OA
BRANCH  30  33
ATOM     33  C   UNL A   1      42.357  20.745  26.399  1.00  0.00     0.039 A 
ATOM     34  C   UNL A   1      42.712  21.554  25.315  1.00  0.00     0.014 A 
ATOM     35  C   UNL A   1      42.604  21.186  27.696  1.00  0.00     0.014 A 
ATOM     36  C   UNL A   1      43.187  22.849  25.540  1.00  0.00     0.010 A 
ATOM     37  C   UNL A   1      42.947  22.513  27.920  1.00  0.00     0.010 A 
ATOM     38  C   UNL A   1      43.239  23.365  26.845  1.00  0.00    -0.014 A 
BRANCH  38  39
ATOM     39  C   UNL A   1      43.601  24.780  27.123  1.00  0.00     0.031 A 
ATOM     40  C   UNL A   1      45.030  25.229  26.963  1.00  0.00     0.074 A 
ATOM     41  C   UNL A   1      42.671  25.631  27.605  1.00  0.00     0.049 A 
ATOM     42  N   UNL A   1      45.582  26.366  27.301  1.00  0.00    -0.248 NA
ATOM     43  C   UNL A   1      45.973  24.255  26.390  1.00  0.00     0.031 C 
ATOM     44  C   UNL A   1      41.265  25.301  27.852  1.00  0.00     0.029 A 
ATOM     45  N   UNL A   1      42.767  26.948  27.976  1.00  0.00    -0.354 N 
ATOM     46  C   UNL A   1      46.935  26.228  27.011  1.00  0.00     0.074 A 
ATOM     47  C   UNL A   1      47.131  24.878  26.533  1.00  0.00     0.031 C 
ATOM     48  C   UNL A   1      40.622  26.398  28.284  1.00  0.00     0.029 A 
ATOM     49  C   UNL A   1      41.577  27.495  28.398  1.00  0.00     0.049 A 
ATOM     50  H   UNL A   1      43.610  27.457  27.943  1.00  0.00     0.167 HD
ATOM     51  C   UNL A   1      47.919  27.154  27.105  1.00  0.00     0.034 A 
ATOM     52  C   UNL A   1      41.287  28.737  28.834  1.00  0.00     0.034 A 
ATOM     53  C   UNL A   1      47.700  28.513  27.526  1.00  0.00     0.049 A 
ATOM     54  C   UNL A   1      42.392  29.755  28.914  1.00  0.00     0.074 A 
ATOM     55  C   UNL A   1      48.612  29.550  27.596  1.00  0.00     0.029 A 
ATOM     56  N   UNL A   1      46.476  29.026  27.935  1.00  0.00    -0.354 N 
ATOM     57  N   UNL A   1      43.666  29.607  28.633  1.00  0.00    -0.248 NA
ATOM     58  C   UNL A   1      42.026  31.102  29.370  1.00  0.00     0.031 C 
ATOM     59  C   UNL A   1      47.953  30.678  28.091  1.00  0.00     0.029 A 
ATOM     60  C   UNL A   1      46.615  30.361  28.274  1.00  0.00     0.049 A 
ATOM     61  H   UNL A   1      45.636  28.516  27.979  1.00  0.00     0.167 HD
ATOM     62  C   UNL A   1      44.250  30.848  28.860  1.00  0.00     0.074 A 
ATOM     63  C   UNL A   1      43.190  31.734  29.297  1.00  0.00     0.031 C 
ATOM     64  C   UNL A   1      45.545  31.222  28.715  1.00  0.00     0.034 A 
BRANCH  51  65
ATOM     65  C   UNL A   1      49.317  26.727  26.740  1.00  0.00     0.023 A 
ATOM     66  C   UNL A   1      49.920  27.141  25.540  1.00  0.00     0.031 A 
ATOM     67  C   UNL A   1      50.056  25.896  27.599  1.00  0.00     0.131 A 
ATOM     68  C   UNL A   1      51.200  26.677  25.205  1.00  0.00     0.055 A 
ATOM     69  C   UNL A   1      51.357  25.495  27.293  1.00  0.00     0.041 A 
ATOM     70  F   UNL A   1      49.521  25.455  28.749  1.00  0.00    -0.206 F 
ATOM     71  C   UNL A   1      51.934  25.878  26.085  1.00  0.00     0.022 A 
BRANCH  68  72
ATOM     72  S   UNL A   1      51.859  27.059  23.560  1.00  0.00     0.124 S 
ATOM     73  O   UNL A   1      52.872  26.018  23.403  1.00  0.00    -0.237 OA
ATOM     74  O   UNL A   1      50.681  26.936  22.708  1.00  0.00    -0.237 OA
ATOM     75  O   UNL A   1      52.382  28.415  23.707  1.00  0.00    -0.744 OA
ENDBRANCH  68  72
ENDBRANCH  51  65
BRANCH  52  76
ATOM     76  C   UNL A   1      39.891  29.087  29.218  1.00  0.00     0.023 A 
ATOM     77  C   UNL A   1      39.508  29.138  30.568  1.00  0.00     0.031 A 
ATOM     78  C   UNL A   1      38.923  29.387  28.243  1.00  0.00     0.131 A 
ATOM     79  C   UNL A   1      38.185  29.461  30.907  1.00  0.00     0.055 A 
ATOM     80  C   UNL A   1      37.618  29.743  28.588  1.00  0.00     0.041 A 
ATOM     81  F   UNL A   1      39.243  29.363  26.940  1.00  0.00    -0.206 F 
ATOM     82  C   UNL A   1      37.241  29.776  29.927  1.00  0.00     0.022 A 
BRANCH  79  83
ATOM     83  S   UNL A   1      37.704  29.444  32.656  1.00  0.00     0.124 S 
ATOM     84  O   UNL A   1      37.613  28.013  32.925  1.00  0.00    -0.237 OA
ATOM     85  O   UNL A   1      38.817  30.146  33.286  1.00  0.00    -0.237 OA
ATOM     86  O   UNL A   1      36.433  30.163  32.666  1.00  0.00    -0.744 OA
ENDBRANCH  79  83
ENDBRANCH  52  76
BRANCH  64  87
ATOM     87  C   UNL A   1      45.887  32.659  29.002  1.00  0.00     0.023 A 
ATOM     88  C   UNL A   1      45.726  33.658  28.030  1.00  0.00     0.031 A 
ATOM     89  C   UNL A   1      46.325  33.035  30.284  1.00  0.00     0.131 A 
ATOM     90  C   UNL A   1      46.023  34.990  28.350  1.00  0.00     0.055 A 
ATOM     91  C   UNL A   1      46.578  34.366  30.609  1.00  0.00     0.041 A 
ATOM     92  F   UNL A   1      46.490  32.113  31.247  1.00  0.00    -0.206 F 
ATOM     93  C   UNL A   1      46.430  35.353  29.637  1.00  0.00     0.022 A 
BRANCH  90  94
ATOM     94  S   UNL A   1      45.891  36.248  27.051  1.00  0.00     0.124 S 
ATOM     95  O   UNL A   1      46.236  37.468  27.776  1.00  0.00    -0.237 OA
ATOM     96  O   UNL A   1      46.871  35.794  26.069  1.00  0.00    -0.237 OA
ATOM     97  O   UNL A   1      44.498  36.154  26.621  1.00  0.00    -0.744 OA
ENDBRANCH  90  94
ENDBRANCH  64  87
ENDBRANCH  38  39
ENDBRANCH  30  33
ENDBRANCH  28  29
ENDBRANCH  27  28
ENDBRANCH   1  27
TORSDOF 19
ENDMDL
MODEL 2
REMARK VINA RESULT:     -10.6      3.604      5.324
REMARK SMILES CC[C@@](C)([NH2+]CC(=O)N[C@@H](C)c1ccc(F)cc1)C(=O)NCCCNC(=O)c1ccc(-c2c3nc(c(-c4cc(S(=O)(=O)[O-])ccc4F)c4ccc([nH]4)c(-c4cc(S(=O)(=O)[O-])ccc4F)c4nc(c(-c5cc(S(=O)(=O)[O-])ccc5F)c5ccc2[nH]5)C=C4)C=C3)cc1
REMARK SMILES IDX 22 1 21 2 19 3 20 4 3 6 4 7 2 8 1 9 5 10 6 13 7 14 8 15 9 16
REMARK SMILES IDX 10 18 11 19 12 20 13 21 18 22 14 23 17 24 15 25 16 26 23 27
REMARK SMILES IDX 24 28 25 29 26 30 27 32 28 33 29 34 90 35 30 36 89 37 31 38
REMARK SMILES IDX 32 39 33 40 83 41 34 42 88 43 82 44 84 45 35 46 87 47 81 48
REMARK SMILES IDX 80 49 36 51 68 52 48 53 67 54 49 55 52 56 66 57 85 58 50 59
REMARK SMILES IDX 51 60 65 62 86 63 53 64 37 65 38 66 46 67 39 68 45 69 47 70
REMARK SMILES IDX 44 71 40 72 41 73 42 74 43 75 69 76 70 77 78 78 71 79 77 80
REMARK SMILES IDX 79 81 76 82 72 83 73 84 74 85 75 86 54 87 55 88 63 89 56 90
REMARK SMILES IDX 62 91 64 92 61 93 57 94 58 95 59 96 60 97
REMARK H PARENT 21 5 5 11 5 12 9 17 25 31 84 50 52 61
REMARK Flexibility Score: inf
ROOT
ATOM      1  C   UNL A   1      35.551  24.479  24.902  1.00  0.00     0.118 C 
ENDROOT
BRANCH   1   2
ATOM      2  N   UNL A   1      34.500  24.384  25.919  1.00  0.00    -0.351 N 
ATOM      3  C   UNL A   1      33.240  24.954  26.002  1.00  0.00     0.281 C 
ATOM      4  O   UNL A   1      32.413  24.241  26.587  1.00  0.00    -0.268 OA
ATOM      5  H   UNL A   1      34.731  23.807  26.682  1.00  0.00     0.163 HD
BRANCH   3   6
ATOM      6  C   UNL A   1      32.843  26.442  25.493  1.00  0.00     0.172 C 
ATOM      7  C   UNL A   1      31.551  27.230  25.780  1.00  0.00     0.090 C 
BRANCH   6   8
ATOM      8  C   UNL A   1      33.925  27.334  26.235  1.00  0.00     0.075 C 
ATOM      9  C   UNL A   1      33.323  28.482  27.097  1.00  0.00     0.011 C 
ENDBRANCH   6   8
BRANCH   6  10
ATOM     10  N   UNL A   1      32.953  26.396  24.037  1.00  0.00    -0.326 N 
ATOM     11  H   UNL A   1      33.658  25.694  23.811  1.00  0.00     0.347 HD
ATOM     12  H   UNL A   1      33.173  27.357  23.774  1.00  0.00     0.347 HD
BRANCH  10  13
ATOM     13  C   UNL A   1      31.739  26.071  23.238  1.00  0.00     0.362 C 
BRANCH  13  14
ATOM     14  C   UNL A   1      30.969  24.692  23.202  1.00  0.00     0.275 C 
ATOM     15  O   UNL A   1      29.795  24.766  23.629  1.00  0.00    -0.268 OA
ATOM     16  N   UNL A   1      31.275  23.407  22.892  1.00  0.00    -0.345 N 
ATOM     17  H   UNL A   1      30.466  22.862  23.023  1.00  0.00     0.164 HD
BRANCH  16  18
ATOM     18  C   UNL A   1      32.361  22.507  22.433  1.00  0.00     0.109 C 
ATOM     19  C   UNL A   1      33.737  23.185  22.299  1.00  0.00     0.036 C 
BRANCH  18  20
ATOM     20  C   UNL A   1      32.532  21.275  23.339  1.00  0.00    -0.026 A 
ATOM     21  C   UNL A   1      32.156  19.994  22.891  1.00  0.00     0.009 A 
ATOM     22  C   UNL A   1      33.201  21.362  24.576  1.00  0.00     0.009 A 
ATOM     23  C   UNL A   1      32.444  18.848  23.640  1.00  0.00     0.039 A 
ATOM     24  C   UNL A   1      33.539  20.214  25.296  1.00  0.00     0.039 A 
ATOM     25  C   UNL A   1      33.153  18.969  24.824  1.00  0.00     0.123 A 
ATOM     26  F   UNL A   1      33.499  17.869  25.508  1.00  0.00    -0.207 F 
ENDBRANCH  18  20
ENDBRANCH  16  18
ENDBRANCH  13  14
ENDBRANCH  10  13
ENDBRANCH   6  10
ENDBRANCH   3   6
ENDBRANCH   1   2
BRANCH   1  27
ATOM     27  C   UNL A   1      36.469  23.281  24.750  1.00  0.00     0.042 C 
BRANCH  27  28
ATOM     28  C   UNL A   1      36.756  22.520  26.033  1.00  0.00     0.118 C 
BRANCH  28  29
ATOM     29  N   UNL A   1      38.090  21.921  26.097  1.00  0.00    -0.352 N 
ATOM     30  C   UNL A   1      39.322  22.453  26.413  1.00  0.00     0.251 C 
ATOM     31  H   UNL A   1      38.111  20.962  25.873  1.00  0.00     0.163 HD
ATOM     32  O   UNL A   1      40.323  21.743  26.317  1.00  0.00    -0.269 OA
BRANCH  30  33
ATOM     33  C   UNL A   1      39.461  23.870  26.813  1.00  0.00     0.039 A 
ATOM     34  C   UNL A   1      39.267  24.228  28.151  1.00  0.00     0.014 A 
ATOM     35  C   UNL A   1      39.812  24.845  25.883  1.00  0.00     0.014 A 
ATOM     36  C   UNL A   1      39.554  25.531  28.570  1.00  0.00     0.010 A 
ATOM     37  C   UNL A   1      40.225  26.098  26.320  1.00  0.00     0.010 A 
ATOM     38  C   UNL A   1      40.106  26.457  27.670  1.00  0.00    -0.014 A 
BRANCH  38  39
ATOM     39  C   UNL A   1      40.559  27.806  28.100  1.00  0.00     0.031 A 
ATOM     40  C   UNL A   1      42.028  28.140  28.083  1.00  0.00     0.074 A 
ATOM     41  C   UNL A   1      39.666  28.691  28.590  1.00  0.00     0.049 A 
ATOM     42  N   UNL A   1      42.642  29.191  28.561  1.00  0.00    -0.248 NA
ATOM     43  C   UNL A   1      42.930  27.138  27.492  1.00  0.00     0.031 C 
ATOM     44  C   UNL A   1      38.222  28.467  28.706  1.00  0.00     0.029 A 
ATOM     45  N   UNL A   1      39.839  29.960  29.085  1.00  0.00    -0.354 N 
ATOM     46  C   UNL A   1      43.998  28.960  28.357  1.00  0.00     0.074 A 
ATOM     47  C   UNL A   1      44.121  27.644  27.773  1.00  0.00     0.031 C 
ATOM     48  C   UNL A   1      37.639  29.575  29.189  1.00  0.00     0.029 A 
ATOM     49  C   UNL A   1      38.668  30.570  29.469  1.00  0.00     0.049 A 
ATOM     50  H   UNL A   1      40.721  30.393  29.159  1.00  0.00     0.167 HD
ATOM     51  C   UNL A   1      45.044  29.785  28.604  1.00  0.00     0.034 A 
ATOM     52  C   UNL A   1      38.447  31.792  29.994  1.00  0.00     0.034 A 
ATOM     53  C   UNL A   1      44.903  31.117  29.130  1.00  0.00     0.049 A 
ATOM     54  C   UNL A   1      39.621  32.698  30.245  1.00  0.00     0.074 A 
ATOM     55  C   UNL A   1      45.888  32.060  29.358  1.00  0.00     0.029 A 
ATOM     56  N   UNL A   1      43.697  31.700  29.497  1.00  0.00    -0.354 N 
ATOM     57  N   UNL A   1      40.897  32.464  30.043  1.00  0.00    -0.248 NA
ATOM     58  C   UNL A   1      39.331  34.030  30.794  1.00  0.00     0.031 C 
ATOM     59  C   UNL A   1      45.286  33.196  29.906  1.00  0.00     0.029 A 
ATOM     60  C   UNL A   1      43.917  32.984  29.964  1.00  0.00     0.049 A 
ATOM     61  H   UNL A   1      42.817  31.263  29.434  1.00  0.00     0.167 HD
ATOM     62  C   UNL A   1      41.560  33.625  30.422  1.00  0.00     0.074 A 
ATOM     63  C   UNL A   1      40.544  34.561  30.861  1.00  0.00     0.031 C 
ATOM     64  C   UNL A   1      42.889  33.895  30.404  1.00  0.00     0.034 A 
BRANCH  51  65
ATOM     65  C   UNL A   1      46.426  29.268  28.302  1.00  0.00     0.023 A 
ATOM     66  C   UNL A   1      47.167  28.554  29.260  1.00  0.00     0.031 A 
ATOM     67  C   UNL A   1      47.012  29.492  27.045  1.00  0.00     0.131 A 
ATOM     68  C   UNL A   1      48.473  28.139  28.965  1.00  0.00     0.055 A 
ATOM     69  C   UNL A   1      48.286  29.015  26.733  1.00  0.00     0.041 A 
ATOM     70  F   UNL A   1      46.358  30.186  26.100  1.00  0.00    -0.206 F 
ATOM     71  C   UNL A   1      49.029  28.341  27.700  1.00  0.00     0.022 A 
BRANCH  68  72
ATOM     72  S   UNL A   1      49.472  27.409  30.290  1.00  0.00     0.124 S 
ATOM     73  O   UNL A   1      48.917  26.060  30.365  1.00  0.00    -0.237 OA
ATOM     74  O   UNL A   1      50.827  27.513  29.760  1.00  0.00    -0.237 OA
ATOM     75  O   UNL A   1      49.187  28.261  31.442  1.00  0.00    -0.744 OA
ENDBRANCH  68  72
ENDBRANCH  51  65
BRANCH  52  76
ATOM     76  C   UNL A   1      37.058  32.229  30.309  1.00  0.00     0.023 A 
ATOM     77  C   UNL A   1      36.220  32.740  29.305  1.00  0.00     0.031 A 
ATOM     78  C   UNL A   1      36.544  32.133  31.614  1.00  0.00     0.131 A 
ATOM     79  C   UNL A   1      34.918  33.155  29.625  1.00  0.00     0.055 A 
ATOM     80  C   UNL A   1      35.236  32.513  31.920  1.00  0.00     0.041 A 
ATOM     81  F   UNL A   1      37.302  31.640  32.606  1.00  0.00    -0.206 F 
ATOM     82  C   UNL A   1      34.417  33.033  30.923  1.00  0.00     0.022 A 
BRANCH  79  83
ATOM     83  S   UNL A   1      33.887  33.880  28.320  1.00  0.00     0.124 S 
ATOM     84  O   UNL A   1      33.276  32.694  27.730  1.00  0.00    -0.237 OA
ATOM     85  O   UNL A   1      32.997  34.750  29.081  1.00  0.00    -0.237 OA
ATOM     86  O   UNL A   1      34.852  34.574  27.471  1.00  0.00    -0.744 OA
ENDBRANCH  79  83
ENDBRANCH  52  76
BRANCH  64  87
ATOM     87  C   UNL A   1      43.323  35.266  30.844  1.00  0.00     0.023 A 
ATOM     88  C   UNL A   1      43.435  36.326  29.931  1.00  0.00     0.031 A 
ATOM     89  C   UNL A   1      43.570  35.523  32.204  1.00  0.00     0.131 A 
ATOM     90  C   UNL A   1      43.809  37.598  30.389  1.00  0.00     0.055 A 
ATOM     91  C   UNL A   1      43.899  36.799  32.659  1.00  0.00     0.041 A 
ATOM     92  F   UNL A   1      43.471  34.540  33.114  1.00  0.00    -0.206 F 
ATOM     93  C   UNL A   1      44.024  37.845  31.747  1.00  0.00     0.022 A 
BRANCH  90  94
ATOM     94  S   UNL A   1      44.034  38.928  29.177  1.00  0.00     0.124 S 
ATOM     95  O   UNL A   1      43.210  39.993  29.742  1.00  0.00    -0.237 OA
ATOM     96  O   UNL A   1      45.475  39.152  29.216  1.00  0.00    -0.237 OA
ATOM     97  O   UNL A   1      43.532  38.348  27.934  1.00  0.00    -0.744 OA
ENDBRANCH  90  94
ENDBRANCH  64  87
ENDBRANCH  38  39
ENDBRANCH  30  33
ENDBRANCH  28  29
ENDBRANCH  27  28
ENDBRANCH   1  27
TORSDOF 19
ENDMDL
MODEL 3
REMARK VINA RESULT:     -10.6      3.469      8.468
REMARK SMILES CC[C@@](C)([NH2+]CC(=O)N[C@@H](C)c1ccc(F)cc1)C(=O)NCCCNC(=O)c1ccc(-c2c3nc(c(-c4cc(S(=O)(=O)[O-])ccc4F)c4ccc([nH]4)c(-c4cc(S(=O)(=O)[O-])ccc4F)c4nc(c(-c5cc(S(=O)(=O)[O-])ccc5F)c5ccc2[nH]5)C=C4)C=C3)cc1
REMARK SMILES IDX 22 1 21 2 19 3 20 4 3 6 4 7 2 8 1 9 5 10 6 13 7 14 8 15 9 16
REMARK SMILES IDX 10 18 11 19 12 20 13 21 18 22 14 23 17 24 15 25 16 26 23 27
REMARK SMILES IDX 24 28 25 29 26 30 27 32 28 33 29 34 90 35 30 36 89 37 31 38
REMARK SMILES IDX 32 39 33 40 83 41 34 42 88 43 82 44 84 45 35 46 87 47 81 48
REMARK SMILES IDX 80 49 36 51 68 52 48 53 67 54 49 55 52 56 66 57 85 58 50 59
REMARK SMILES IDX 51 60 65 62 86 63 53 64 37 65 38 66 46 67 39 68 45 69 47 70
REMARK SMILES IDX 44 71 40 72 41 73 42 74 43 75 69 76 70 77 78 78 71 79 77 80
REMARK SMILES IDX 79 81 76 82 72 83 73 84 74 85 75 86 54 87 55 88 63 89 56 90
REMARK SMILES IDX 62 91 64 92 61 93 57 94 58 95 59 96 60 97
REMARK H PARENT 21 5 5 11 5 12 9 17 25 31 84 50 52 61
REMARK Flexibility Score: inf
ROOT
ATOM      1  C   UNL A   1      36.751  21.200  24.480  1.00  0.00     0.118 C 
ENDROOT
BRANCH   1   2
ATOM      2  N   UNL A   1      35.671  20.624  25.287  1.00  0.00    -0.351 N 
ATOM      3  C   UNL A   1      34.303  20.842  25.293  1.00  0.00     0.281 C 
ATOM      4  O   UNL A   1      33.644  19.837  25.591  1.00  0.00    -0.268 OA
ATOM      5  H   UNL A   1      35.974  19.958  25.946  1.00  0.00     0.163 HD
BRANCH   3   6
ATOM      6  C   UNL A   1      33.575  22.268  25.038  1.00  0.00     0.172 C 
ATOM      7  C   UNL A   1      34.081  23.674  25.413  1.00  0.00     0.090 C 
BRANCH   6   8
ATOM      8  C   UNL A   1      33.573  22.348  23.453  1.00  0.00     0.075 C 
ATOM      9  C   UNL A   1      32.270  21.813  22.789  1.00  0.00     0.011 C 
ENDBRANCH   6   8
BRANCH   6  10
ATOM     10  N   UNL A   1      32.260  22.150  25.665  1.00  0.00    -0.326 N 
ATOM     11  H   UNL A   1      32.188  21.203  26.036  1.00  0.00     0.347 HD
ATOM     12  H   UNL A   1      31.607  22.395  24.921  1.00  0.00     0.347 HD
BRANCH  10  13
ATOM     13  C   UNL A   1      31.911  23.083  26.773  1.00  0.00     0.362 C 
BRANCH  13  14
ATOM     14  C   UNL A   1      30.596  23.949  26.903  1.00  0.00     0.275 C 
ATOM     15  O   UNL A   1      29.632  23.319  27.391  1.00  0.00    -0.268 OA
ATOM     16  N   UNL A   1      30.208  25.201  26.549  1.00  0.00    -0.345 N 
ATOM     17  H   UNL A   1      29.272  25.318  26.828  1.00  0.00     0.164 HD
BRANCH  16  18
ATOM     18  C   UNL A   1      30.653  26.459  25.902  1.00  0.00     0.109 C 
ATOM     19  C   UNL A   1      31.511  27.368  26.801  1.00  0.00     0.036 C 
BRANCH  18  20
ATOM     20  C   UNL A   1      31.436  26.211  24.601  1.00  0.00    -0.026 A 
ATOM     21  C   UNL A   1      30.877  25.448  23.559  1.00  0.00     0.009 A 
ATOM     22  C   UNL A   1      32.663  26.857  24.350  1.00  0.00     0.009 A 
ATOM     23  C   UNL A   1      31.510  25.341  22.315  1.00  0.00     0.039 A 
ATOM     24  C   UNL A   1      33.266  26.796  23.092  1.00  0.00     0.039 A 
ATOM     25  C   UNL A   1      32.687  26.035  22.088  1.00  0.00     0.123 A 
ATOM     26  F   UNL A   1      33.257  25.998  20.876  1.00  0.00    -0.207 F 
ENDBRANCH  18  20
ENDBRANCH  16  18
ENDBRANCH  13  14
ENDBRANCH  10  13
ENDBRANCH   6  10
ENDBRANCH   3   6
ENDBRANCH   1   2
BRANCH   1  27
ATOM     27  C   UNL A   1      37.292  22.547  24.920  1.00  0.00     0.042 C 
BRANCH  27  28
ATOM     28  C   UNL A   1      38.176  22.517  26.154  1.00  0.00     0.118 C 
BRANCH  28  29
ATOM     29  N   UNL A   1      39.544  22.057  25.910  1.00  0.00    -0.352 N 
ATOM     30  C   UNL A   1      40.768  22.639  26.161  1.00  0.00     0.251 C 
ATOM     31  H   UNL A   1      39.600  21.168  25.488  1.00  0.00     0.163 HD
ATOM     32  O   UNL A   1      41.790  22.068  25.783  1.00  0.00    -0.269 OA
BRANCH  30  33
ATOM     33  C   UNL A   1      40.864  23.956  26.828  1.00  0.00     0.039 A 
ATOM     34  C   UNL A   1      41.349  24.029  28.137  1.00  0.00     0.014 A 
ATOM     35  C   UNL A   1      40.506  25.124  26.159  1.00  0.00     0.014 A 
ATOM     36  C   UNL A   1      41.598  25.277  28.717  1.00  0.00     0.010 A 
ATOM     37  C   UNL A   1      40.876  26.357  26.681  1.00  0.00     0.010 A 
ATOM     38  C   UNL A   1      41.431  26.451  27.965  1.00  0.00    -0.014 A 
BRANCH  38  39
ATOM     39  C   UNL A   1      41.816  27.789  28.489  1.00  0.00     0.031 A 
ATOM     40  C   UNL A   1      40.751  28.725  28.997  1.00  0.00     0.074 A 
ATOM     41  C   UNL A   1      43.101  28.193  28.422  1.00  0.00     0.049 A 
ATOM     42  N   UNL A   1      40.852  29.981  29.345  1.00  0.00    -0.248 NA
ATOM     43  C   UNL A   1      39.381  28.192  29.078  1.00  0.00     0.031 C 
ATOM     44  C   UNL A   1      44.217  27.397  27.904  1.00  0.00     0.029 A 
ATOM     45  N   UNL A   1      43.689  29.377  28.791  1.00  0.00    -0.354 N 
ATOM     46  C   UNL A   1      39.561  30.392  29.655  1.00  0.00     0.074 A 
ATOM     47  C   UNL A   1      38.685  29.273  29.390  1.00  0.00     0.031 C 
ATOM     48  C   UNL A   1      45.357  28.094  28.034  1.00  0.00     0.029 A 
ATOM     49  C   UNL A   1      45.051  29.405  28.594  1.00  0.00     0.049 A 
ATOM     50  H   UNL A   1      43.184  30.136  29.163  1.00  0.00     0.167 HD
ATOM     51  C   UNL A   1      39.147  31.584  30.147  1.00  0.00     0.034 A 
ATOM     52  C   UNL A   1      45.951  30.380  28.831  1.00  0.00     0.034 A 
ATOM     53  C   UNL A   1      40.037  32.671  30.463  1.00  0.00     0.049 A 
ATOM     54  C   UNL A   1      45.472  31.691  29.393  1.00  0.00     0.074 A 
ATOM     55  C   UNL A   1      39.732  33.896  31.025  1.00  0.00     0.029 A 
ATOM     56  N   UNL A   1      41.410  32.653  30.256  1.00  0.00    -0.354 N 
ATOM     57  N   UNL A   1      44.246  32.061  29.682  1.00  0.00    -0.248 NA
ATOM     58  C   UNL A   1      46.490  32.715  29.659  1.00  0.00     0.031 C 
ATOM     59  C   UNL A   1      40.912  34.639  31.116  1.00  0.00     0.029 A 
ATOM     60  C   UNL A   1      41.963  33.855  30.665  1.00  0.00     0.049 A 
ATOM     61  H   UNL A   1      41.914  31.899  29.875  1.00  0.00     0.167 HD
ATOM     62  C   UNL A   1      44.348  33.354  30.183  1.00  0.00     0.074 A 
ATOM     63  C   UNL A   1      45.756  33.699  30.160  1.00  0.00     0.031 C 
ATOM     64  C   UNL A   1      43.368  34.179  30.625  1.00  0.00     0.034 A 
BRANCH  51  65
ATOM     65  C   UNL A   1      37.669  31.770  30.377  1.00  0.00     0.023 A 
ATOM     66  C   UNL A   1      36.813  32.183  29.341  1.00  0.00     0.031 A 
ATOM     67  C   UNL A   1      37.109  31.532  31.643  1.00  0.00     0.131 A 
ATOM     68  C   UNL A   1      35.454  32.402  29.604  1.00  0.00     0.055 A 
ATOM     69  C   UNL A   1      35.742  31.683  31.882  1.00  0.00     0.041 A 
ATOM     70  F   UNL A   1      37.884  31.155  32.672  1.00  0.00    -0.206 F 
ATOM     71  C   UNL A   1      34.907  32.130  30.860  1.00  0.00     0.022 A 
BRANCH  68  72
ATOM     72  S   UNL A   1      34.424  33.134  28.304  1.00  0.00     0.124 S 
ATOM     73  O   UNL A   1      33.537  33.994  29.084  1.00  0.00    -0.237 OA
ATOM     74  O   UNL A   1      35.406  33.820  27.470  1.00  0.00    -0.237 OA
ATOM     75  O   UNL A   1      33.780  31.979  27.685  1.00  0.00    -0.744 OA
ENDBRANCH  68  72
ENDBRANCH  51  65
BRANCH  52  76
ATOM     76  C   UNL A   1      47.394  30.149  28.545  1.00  0.00     0.023 A 
ATOM     77  C   UNL A   1      48.217  29.496  29.477  1.00  0.00     0.031 A 
ATOM     78  C   UNL A   1      47.970  30.566  27.332  1.00  0.00     0.131 A 
ATOM     79  C   UNL A   1      49.576  29.297  29.190  1.00  0.00     0.055 A 
ATOM     80  C   UNL A   1      49.315  30.334  27.037  1.00  0.00     0.041 A 
ATOM     81  F   UNL A   1      47.223  31.185  26.404  1.00  0.00    -0.206 F 
ATOM     82  C   UNL A   1      50.127  29.700  27.972  1.00  0.00     0.022 A 
BRANCH  79  83
ATOM     83  S   UNL A   1      50.627  28.517  30.447  1.00  0.00     0.124 S 
ATOM     84  O   UNL A   1      50.570  29.494  31.529  1.00  0.00    -0.237 OA
ATOM     85  O   UNL A   1      49.936  27.255  30.684  1.00  0.00    -0.237 OA
ATOM     86  O   UNL A   1      51.922  28.398  29.781  1.00  0.00    -0.744 OA
ENDBRANCH  79  83
ENDBRANCH  52  76
BRANCH  64  87
ATOM     87  C   UNL A   1      43.781  35.527  31.151  1.00  0.00     0.023 A 
ATOM     88  C   UNL A   1      43.797  36.660  30.324  1.00  0.00     0.031 A 
ATOM     89  C   UNL A   1      44.107  35.682  32.510  1.00  0.00     0.131 A 
ATOM     90  C   UNL A   1      44.154  37.905  30.862  1.00  0.00     0.055 A 
ATOM     91  C   UNL A   1      44.419  36.930  33.047  1.00  0.00     0.041 A 
ATOM     92  F   UNL A   1      44.100  34.626  33.339  1.00  0.00    -0.206 F 
ATOM     93  C   UNL A   1      44.448  38.050  32.220  1.00  0.00     0.022 A 
BRANCH  90  94
ATOM     94  S   UNL A   1      44.253  39.337  29.754  1.00  0.00     0.124 S 
ATOM     95  O   UNL A   1      43.937  40.440  30.657  1.00  0.00    -0.237 OA
ATOM     96  O   UNL A   1      45.633  39.278  29.282  1.00  0.00    -0.237 OA
ATOM     97  O   UNL A   1      43.241  39.056  28.739  1.00  0.00    -0.744 OA
ENDBRANCH  90  94
ENDBRANCH  64  87
ENDBRANCH  38  39
ENDBRANCH  30  33
ENDBRANCH  28  29
ENDBRANCH  27  28
ENDBRANCH   1  27
TORSDOF 19
ENDMDL
