MODEL 1
REMARK VINA RESULT:     -12.7      0.000      0.000
REMARK SMILES CCCc1cc2c(cc1Cl)C=C(C(=O)NCCCNC(=O)c1ccc(-c3c4nc(c(-c5cc(S(=O)(=O)[O-])ccc5F)c5ccc([nH]5)c(-c5cc(S(=O)(=O)[O-])ccc5F)c5nc(c(-c6cc(S(=O)(=O)[O-])ccc6F)c6ccc3[nH]6)C=C5)C=C4)cc1)[C@H](C(F)(F)F)O2
REMARK SMILES IDX 17 1 16 2 15 3 13 4 14 5 12 7 4 8 5 9 9 10 6 11 8 12 10 13
REMARK SMILES IDX 7 14 90 15 11 16 85 17 3 18 2 19 1 20 86 21 87 22 88 23
REMARK SMILES IDX 89 24 18 25 19 26 20 27 21 29 22 30 23 31 84 32 24 33 83 34
REMARK SMILES IDX 25 35 26 36 27 37 77 38 28 39 82 40 76 41 78 42 29 43 81 44
REMARK SMILES IDX 75 45 74 46 30 48 62 49 42 50 61 51 43 52 46 53 60 54 79 55
REMARK SMILES IDX 44 56 45 57 59 59 80 60 47 61 31 62 32 63 40 64 33 65 39 66
REMARK SMILES IDX 41 67 38 68 34 69 35 70 36 71 37 72 63 73 64 74 72 75 65 76
REMARK SMILES IDX 71 77 73 78 70 79 66 80 67 81 68 82 69 83 48 84 49 85 57 86
REMARK SMILES IDX 50 87 56 88 58 89 55 90 51 91 52 92 53 93 54 94
REMARK H PARENT 15 6 19 28 78 47 46 58
REMARK Flexibility Score: inf
ROOT
ATOM      1  C   UNL A   1      31.124  30.226  25.392  1.00  0.00     0.042 C 
ENDROOT
BRANCH   1   2
ATOM      2  C   UNL A   1      31.702  28.916  24.879  1.00  0.00     0.118 C 
BRANCH   2   3
ATOM      3  N   UNL A   1      32.683  29.131  23.828  1.00  0.00    -0.352 N 
ATOM      4  C   UNL A   1      33.517  28.382  23.076  1.00  0.00     0.251 C 
ATOM      5  O   UNL A   1      34.162  29.015  22.233  1.00  0.00    -0.270 OA
ATOM      6  H   UNL A   1      32.762  30.087  23.604  1.00  0.00     0.163 HD
BRANCH   4   7
ATOM      7  C   UNL A   1      33.703  26.907  23.189  1.00  0.00     0.067 C 
ATOM      8  C   UNL A   1      34.467  22.258  25.006  1.00  0.00    -0.026 A 
ATOM      9  C   UNL A   1      34.438  22.815  23.714  1.00  0.00     0.052 A 
ATOM     10  C   UNL A   1      34.305  23.122  26.105  1.00  0.00     0.045 A 
ATOM     11  C   UNL A   1      34.246  24.184  23.537  1.00  0.00     0.128 A 
ATOM     12  C   UNL A   1      34.197  24.504  25.919  1.00  0.00     0.032 A 
ATOM     13  Cl  UNL A   1      34.174  22.545  27.728  1.00  0.00    -0.084 Cl
ATOM     14  C   UNL A   1      34.169  25.037  24.633  1.00  0.00     0.019 A 
ATOM     15  O   UNL A   1      34.152  24.642  22.253  1.00  0.00    -0.475 OA
ATOM     16  C   UNL A   1      34.060  26.472  24.412  1.00  0.00     0.025 C 
ATOM     17  C   UNL A   1      33.433  25.905  22.099  1.00  0.00     0.314 C 
BRANCH   8  18
ATOM     18  C   UNL A   1      34.655  20.764  25.139  1.00  0.00     0.037 C 
BRANCH  18  19
ATOM     19  C   UNL A   1      33.567  19.923  24.457  1.00  0.00     0.001 C 
ATOM     20  C   UNL A   1      32.154  20.224  24.931  1.00  0.00     0.004 C 
ENDBRANCH  18  19
ENDBRANCH   8  18
BRANCH  17  21
ATOM     21  C   UNL A   1      31.929  25.661  21.864  1.00  0.00     0.429 C 
ATOM     22  F   UNL A   1      31.601  25.676  20.551  1.00  0.00    -0.167 F 
ATOM     23  F   UNL A   1      31.571  24.445  22.346  1.00  0.00    -0.167 F 
ATOM     24  F   UNL A   1      31.147  26.580  22.474  1.00  0.00    -0.167 F 
ENDBRANCH  17  21
ENDBRANCH   4   7
ENDBRANCH   2   3
ENDBRANCH   1   2
BRANCH   1  25
ATOM     25  C   UNL A   1      31.850  30.741  26.627  1.00  0.00     0.118 C 
BRANCH  25  26
ATOM     26  N   UNL A   1      31.833  32.198  26.701  1.00  0.00    -0.352 N 
ATOM     27  C   UNL A   1      32.646  33.063  27.396  1.00  0.00     0.251 C 
ATOM     28  H   UNL A   1      31.127  32.631  26.168  1.00  0.00     0.163 HD
ATOM     29  O   UNL A   1      32.296  34.230  27.538  1.00  0.00    -0.269 OA
BRANCH  27  30
ATOM     30  C   UNL A   1      33.918  32.583  27.980  1.00  0.00     0.039 A 
ATOM     31  C   UNL A   1      34.142  31.221  28.167  1.00  0.00     0.014 A 
ATOM     32  C   UNL A   1      34.909  33.504  28.335  1.00  0.00     0.014 A 
ATOM     33  C   UNL A   1      35.246  30.794  28.890  1.00  0.00     0.010 A 
ATOM     34  C   UNL A   1      36.085  33.058  28.947  1.00  0.00     0.010 A 
ATOM     35  C   UNL A   1      36.243  31.703  29.276  1.00  0.00    -0.014 A 
BRANCH  35  36
ATOM     36  C   UNL A   1      37.451  31.194  29.981  1.00  0.00     0.031 A 
ATOM     37  C   UNL A   1      37.733  31.569  31.411  1.00  0.00     0.074 A 
ATOM     38  C   UNL A   1      38.266  30.336  29.333  1.00  0.00     0.049 A 
ATOM     39  N   UNL A   1      38.714  31.174  32.183  1.00  0.00    -0.248 NA
ATOM     40  C   UNL A   1      36.809  32.512  32.062  1.00  0.00     0.031 C 
ATOM     41  C   UNL A   1      38.086  29.903  27.945  1.00  0.00     0.029 A 
ATOM     42  N   UNL A   1      39.379  29.649  29.749  1.00  0.00    -0.354 N 
ATOM     43  C   UNL A   1      38.542  31.835  33.393  1.00  0.00     0.074 A 
ATOM     44  C   UNL A   1      37.379  32.683  33.247  1.00  0.00     0.031 C 
ATOM     45  C   UNL A   1      38.999  28.971  27.651  1.00  0.00     0.029 A 
ATOM     46  C   UNL A   1      39.893  28.802  28.792  1.00  0.00     0.049 A 
ATOM     47  H   UNL A   1      39.771  29.751  30.646  1.00  0.00     0.167 HD
ATOM     48  C   UNL A   1      39.280  31.731  34.523  1.00  0.00     0.034 A 
ATOM     49  C   UNL A   1      40.970  27.990  28.817  1.00  0.00     0.034 A 
ATOM     50  C   UNL A   1      40.413  30.850  34.659  1.00  0.00     0.049 A 
ATOM     51  C   UNL A   1      41.785  27.916  30.081  1.00  0.00     0.074 A 
ATOM     52  C   UNL A   1      41.190  30.633  35.784  1.00  0.00     0.029 A 
ATOM     53  N   UNL A   1      40.932  30.043  33.657  1.00  0.00    -0.354 N 
ATOM     54  N   UNL A   1      41.570  28.502  31.235  1.00  0.00    -0.248 NA
ATOM     55  C   UNL A   1      42.988  27.075  30.052  1.00  0.00     0.031 C 
ATOM     56  C   UNL A   1      42.226  29.766  35.439  1.00  0.00     0.029 A 
ATOM     57  C   UNL A   1      42.044  29.361  34.126  1.00  0.00     0.049 A 
ATOM     58  H   UNL A   1      40.565  29.966  32.746  1.00  0.00     0.167 HD
ATOM     59  C   UNL A   1      42.597  28.083  32.075  1.00  0.00     0.074 A 
ATOM     60  C   UNL A   1      43.412  27.167  31.306  1.00  0.00     0.031 C 
ATOM     61  C   UNL A   1      42.846  28.435  33.362  1.00  0.00     0.034 A 
BRANCH  48  62
ATOM     62  C   UNL A   1      38.913  32.567  35.726  1.00  0.00     0.023 A 
ATOM     63  C   UNL A   1      39.417  33.878  35.841  1.00  0.00     0.031 A 
ATOM     64  C   UNL A   1      38.227  32.022  36.825  1.00  0.00     0.131 A 
ATOM     65  C   UNL A   1      39.278  34.576  37.046  1.00  0.00     0.055 A 
ATOM     66  C   UNL A   1      38.047  32.743  38.008  1.00  0.00     0.041 A 
ATOM     67  F   UNL A   1      37.729  30.776  36.769  1.00  0.00    -0.206 F 
ATOM     68  C   UNL A   1      38.589  34.019  38.128  1.00  0.00     0.022 A 
BRANCH  65  69
ATOM     69  S   UNL A   1      40.064  36.193  37.288  1.00  0.00     0.124 S 
ATOM     70  O   UNL A   1      41.412  35.812  37.704  1.00  0.00    -0.237 OA
ATOM     71  O   UNL A   1      39.966  36.781  35.955  1.00  0.00    -0.237 OA
ATOM     72  O   UNL A   1      39.252  36.828  38.321  1.00  0.00    -0.744 OA
ENDBRANCH  65  69
ENDBRANCH  48  62
BRANCH  49  73
ATOM     73  C   UNL A   1      41.295  27.164  27.616  1.00  0.00     0.023 A 
ATOM     74  C   UNL A   1      41.045  25.779  27.598  1.00  0.00     0.031 A 
ATOM     75  C   UNL A   1      41.954  27.727  26.510  1.00  0.00     0.131 A 
ATOM     76  C   UNL A   1      41.523  24.995  26.539  1.00  0.00     0.055 A 
ATOM     77  C   UNL A   1      42.353  26.955  25.417  1.00  0.00     0.041 A 
ATOM     78  F   UNL A   1      42.228  29.041  26.483  1.00  0.00    -0.206 F 
ATOM     79  C   UNL A   1      42.157  25.577  25.439  1.00  0.00     0.022 A 
BRANCH  76  80
ATOM     80  S   UNL A   1      41.474  23.183  26.630  1.00  0.00     0.124 S 
ATOM     81  O   UNL A   1      42.329  22.799  25.513  1.00  0.00    -0.237 OA
ATOM     82  O   UNL A   1      42.023  22.937  27.961  1.00  0.00    -0.237 OA
ATOM     83  O   UNL A   1      40.056  22.869  26.479  1.00  0.00    -0.744 OA
ENDBRANCH  76  80
ENDBRANCH  49  73
BRANCH  61  84
ATOM     84  C   UNL A   1      44.045  27.835  34.057  1.00  0.00     0.023 A 
ATOM     85  C   UNL A   1      43.912  26.629  34.773  1.00  0.00     0.031 A 
ATOM     86  C   UNL A   1      45.266  28.526  34.144  1.00  0.00     0.131 A 
ATOM     87  C   UNL A   1      44.961  26.180  35.585  1.00  0.00     0.055 A 
ATOM     88  C   UNL A   1      46.331  28.041  34.905  1.00  0.00     0.041 A 
ATOM     89  F   UNL A   1      45.441  29.687  33.492  1.00  0.00    -0.206 F 
ATOM     90  C   UNL A   1      46.174  26.873  35.645  1.00  0.00     0.022 A 
BRANCH  87  91
ATOM     91  S   UNL A   1      44.753  24.742  36.672  1.00  0.00     0.124 S 
ATOM     92  O   UNL A   1      43.801  23.929  35.919  1.00  0.00    -0.237 OA
ATOM     93  O   UNL A   1      46.111  24.209  36.738  1.00  0.00    -0.237 OA
ATOM     94  O   UNL A   1      44.240  25.309  37.913  1.00  0.00    -0.744 OA
ENDBRANCH  87  91
ENDBRANCH  61  84
ENDBRANCH  35  36
ENDBRANCH  27  30
ENDBRANCH  25  26
ENDBRANCH   1  25
TORSDOF 16
ENDMDL
MODEL 2
REMARK VINA RESULT:     -12.7      5.260     10.276
REMARK SMILES CCCc1cc2c(cc1Cl)C=C(C(=O)NCCCNC(=O)c1ccc(-c3c4nc(c(-c5cc(S(=O)(=O)[O-])ccc5F)c5ccc([nH]5)c(-c5cc(S(=O)(=O)[O-])ccc5F)c5nc(c(-c6cc(S(=O)(=O)[O-])ccc6F)c6ccc3[nH]6)C=C5)C=C4)cc1)[C@H](C(F)(F)F)O2
REMARK SMILES IDX 17 1 16 2 15 3 13 4 14 5 12 7 4 8 5 9 9 10 6 11 8 12 10 13
REMARK SMILES IDX 7 14 90 15 11 16 85 17 3 18 2 19 1 20 86 21 87 22 88 23
REMARK SMILES IDX 89 24 18 25 19 26 20 27 21 29 22 30 23 31 84 32 24 33 83 34
REMARK SMILES IDX 25 35 26 36 27 37 77 38 28 39 82 40 76 41 78 42 29 43 81 44
REMARK SMILES IDX 75 45 74 46 30 48 62 49 42 50 61 51 43 52 46 53 60 54 79 55
REMARK SMILES IDX 44 56 45 57 59 59 80 60 47 61 31 62 32 63 40 64 33 65 39 66
REMARK SMILES IDX 41 67 38 68 34 69 35 70 36 71 37 72 63 73 64 74 72 75 65 76
REMARK SMILES IDX 71 77 73 78 70 79 66 80 67 81 68 82 69 83 48 84 49 85 57 86
REMARK SMILES IDX 50 87 56 88 58 89 55 90 51 91 52 92 53 93 54 94
REMARK H PARENT 15 6 19 28 78 47 46 58
REMARK Flexibility Score: inf
ROOT
ATOM      1  C   UNL A   1      35.790  22.719  23.971  1.00  0.00     0.042 C 
ENDROOT
BRANCH   1   2
ATOM      2  C   UNL A   1      34.291  22.838  23.743  1.00  0.00     0.118 C 
BRANCH   2   3
ATOM      3  N   UNL A   1      33.570  23.051  24.987  1.00  0.00    -0.352 N 
ATOM      4  C   UNL A   1      32.665  23.925  25.476  1.00  0.00     0.251 C 
ATOM      5  O   UNL A   1      32.275  23.679  26.623  1.00  0.00    -0.270 OA
ATOM      6  H   UNL A   1      33.808  22.370  25.658  1.00  0.00     0.163 HD
BRANCH   4   7
ATOM      7  C   UNL A   1      32.127  25.115  24.757  1.00  0.00     0.067 C 
ATOM      8  C   UNL A   1      29.016  28.522  22.704  1.00  0.00    -0.026 A 
ATOM      9  C   UNL A   1      30.400  28.281  22.622  1.00  0.00     0.052 A 
ATOM     10  C   UNL A   1      28.232  27.637  23.467  1.00  0.00     0.045 A 
ATOM     11  C   UNL A   1      30.971  27.198  23.288  1.00  0.00     0.128 A 
ATOM     12  C   UNL A   1      28.802  26.506  24.062  1.00  0.00     0.032 A 
ATOM     13  Cl  UNL A   1      26.552  27.906  23.766  1.00  0.00    -0.084 Cl
ATOM     14  C   UNL A   1      30.174  26.285  23.972  1.00  0.00     0.019 A 
ATOM     15  O   UNL A   1      32.330  27.071  23.227  1.00  0.00    -0.475 OA
ATOM     16  C   UNL A   1      30.792  25.115  24.580  1.00  0.00     0.025 C 
ATOM     17  C   UNL A   1      32.929  26.312  24.323  1.00  0.00     0.314 C 
BRANCH   8  18
ATOM     18  C   UNL A   1      28.453  29.724  21.980  1.00  0.00     0.037 C 
BRANCH  18  19
ATOM     19  C   UNL A   1      28.801  31.073  22.622  1.00  0.00     0.001 C 
ATOM     20  C   UNL A   1      27.709  31.643  23.515  1.00  0.00     0.004 C 
ENDBRANCH  18  19
ENDBRANCH   8  18
BRANCH  17  21
ATOM     21  C   UNL A   1      33.312  27.239  25.494  1.00  0.00     0.429 C 
ATOM     22  F   UNL A   1      34.417  26.814  26.150  1.00  0.00    -0.167 F 
ATOM     23  F   UNL A   1      33.582  28.486  25.035  1.00  0.00    -0.167 F 
ATOM     24  F   UNL A   1      32.329  27.353  26.416  1.00  0.00    -0.167 F 
ENDBRANCH  17  21
ENDBRANCH   4   7
ENDBRANCH   2   3
ENDBRANCH   1   2
BRANCH   1  25
ATOM     25  C   UNL A   1      36.138  22.395  25.417  1.00  0.00     0.118 C 
BRANCH  25  26
ATOM     26  N   UNL A   1      37.071  21.277  25.516  1.00  0.00    -0.352 N 
ATOM     27  C   UNL A   1      38.419  21.265  25.791  1.00  0.00     0.251 C 
ATOM     28  H   UNL A   1      36.672  20.391  25.360  1.00  0.00     0.163 HD
ATOM     29  O   UNL A   1      39.067  20.251  25.560  1.00  0.00    -0.269 OA
BRANCH  27  30
ATOM     30  C   UNL A   1      39.078  22.471  26.341  1.00  0.00     0.039 A 
ATOM     31  C   UNL A   1      38.549  23.738  26.104  1.00  0.00     0.014 A 
ATOM     32  C   UNL A   1      40.233  22.336  27.117  1.00  0.00     0.014 A 
ATOM     33  C   UNL A   1      39.275  24.867  26.454  1.00  0.00     0.010 A 
ATOM     34  C   UNL A   1      40.895  23.477  27.583  1.00  0.00     0.010 A 
ATOM     35  C   UNL A   1      40.449  24.756  27.214  1.00  0.00    -0.014 A 
BRANCH  35  36
ATOM     36  C   UNL A   1      41.156  25.995  27.637  1.00  0.00     0.031 A 
ATOM     37  C   UNL A   1      42.563  26.281  27.187  1.00  0.00     0.074 A 
ATOM     38  C   UNL A   1      40.490  26.895  28.390  1.00  0.00     0.049 A 
ATOM     39  N   UNL A   1      43.301  27.334  27.427  1.00  0.00    -0.248 NA
ATOM     40  C   UNL A   1      43.236  25.257  26.371  1.00  0.00     0.031 C 
ATOM     41  C   UNL A   1      39.121  26.721  28.883  1.00  0.00     0.029 A 
ATOM     42  N   UNL A   1      40.845  28.140  28.846  1.00  0.00    -0.354 N 
ATOM     43  C   UNL A   1      44.527  27.092  26.819  1.00  0.00     0.074 A 
ATOM     44  C   UNL A   1      44.447  25.777  26.223  1.00  0.00     0.031 C 
ATOM     45  C   UNL A   1      38.727  27.841  29.498  1.00  0.00     0.029 A 
ATOM     46  C   UNL A   1      39.840  28.783  29.533  1.00  0.00     0.049 A 
ATOM     47  H   UNL A   1      41.735  28.535  28.695  1.00  0.00     0.167 HD
ATOM     48  C   UNL A   1      45.611  27.901  26.755  1.00  0.00     0.034 A 
ATOM     49  C   UNL A   1      39.814  29.989  30.138  1.00  0.00     0.034 A 
ATOM     50  C   UNL A   1      45.655  29.225  27.324  1.00  0.00     0.049 A 
ATOM     51  C   UNL A   1      41.045  30.854  30.070  1.00  0.00     0.074 A 
ATOM     52  C   UNL A   1      46.690  30.142  27.262  1.00  0.00     0.029 A 
ATOM     53  N   UNL A   1      44.637  29.824  28.051  1.00  0.00    -0.354 N 
ATOM     54  N   UNL A   1      42.173  30.633  29.437  1.00  0.00    -0.248 NA
ATOM     55  C   UNL A   1      41.006  32.129  30.796  1.00  0.00     0.031 C 
ATOM     56  C   UNL A   1      46.333  31.255  28.021  1.00  0.00     0.029 A 
ATOM     57  C   UNL A   1      45.037  31.080  28.479  1.00  0.00     0.049 A 
ATOM     58  H   UNL A   1      43.759  29.417  28.236  1.00  0.00     0.167 HD
ATOM     59  C   UNL A   1      42.969  31.750  29.670  1.00  0.00     0.074 A 
ATOM     60  C   UNL A   1      42.178  32.660  30.473  1.00  0.00     0.031 C 
ATOM     61  C   UNL A   1      44.240  31.993  29.264  1.00  0.00     0.034 A 
BRANCH  48  62
ATOM     62  C   UNL A   1      46.855  27.417  26.047  1.00  0.00     0.023 A 
ATOM     63  C   UNL A   1      47.114  27.841  24.729  1.00  0.00     0.031 A 
ATOM     64  C   UNL A   1      47.676  26.417  26.596  1.00  0.00     0.131 A 
ATOM     65  C   UNL A   1      48.128  27.226  23.985  1.00  0.00     0.055 A 
ATOM     66  C   UNL A   1      48.719  25.843  25.866  1.00  0.00     0.041 A 
ATOM     67  F   UNL A   1      47.471  25.975  27.848  1.00  0.00    -0.206 F 
ATOM     68  C   UNL A   1      48.937  26.234  24.548  1.00  0.00     0.022 A 
BRANCH  65  69
ATOM     69  S   UNL A   1      48.374  27.622  22.232  1.00  0.00     0.124 S 
ATOM     70  O   UNL A   1      47.090  28.221  21.876  1.00  0.00    -0.237 OA
ATOM     71  O   UNL A   1      49.501  28.549  22.285  1.00  0.00    -0.237 OA
ATOM     72  O   UNL A   1      48.648  26.329  21.614  1.00  0.00    -0.744 OA
ENDBRANCH  65  69
ENDBRANCH  48  62
BRANCH  49  73
ATOM     73  C   UNL A   1      38.563  30.444  30.815  1.00  0.00     0.023 A 
ATOM     74  C   UNL A   1      37.530  31.066  30.089  1.00  0.00     0.031 A 
ATOM     75  C   UNL A   1      38.426  30.358  32.210  1.00  0.00     0.131 A 
ATOM     76  C   UNL A   1      36.451  31.648  30.766  1.00  0.00     0.055 A 
ATOM     77  C   UNL A   1      37.306  30.865  32.874  1.00  0.00     0.041 A 
ATOM     78  F   UNL A   1      39.389  29.787  32.951  1.00  0.00    -0.206 F 
ATOM     79  C   UNL A   1      36.321  31.532  32.152  1.00  0.00     0.022 A 
BRANCH  76  80
ATOM     80  S   UNL A   1      35.262  32.702  29.888  1.00  0.00     0.124 S 
ATOM     81  O   UNL A   1      34.650  31.761  28.958  1.00  0.00    -0.237 OA
ATOM     82  O   UNL A   1      34.406  33.159  30.980  1.00  0.00    -0.237 OA
ATOM     83  O   UNL A   1      36.099  33.735  29.285  1.00  0.00    -0.744 OA
ENDBRANCH  76  80
ENDBRANCH  49  73
BRANCH  61  84
ATOM     84  C   UNL A   1      44.889  33.298  29.661  1.00  0.00     0.023 A 
ATOM     85  C   UNL A   1      44.747  34.433  28.837  1.00  0.00     0.031 A 
ATOM     86  C   UNL A   1      45.768  33.380  30.755  1.00  0.00     0.131 A 
ATOM     87  C   UNL A   1      45.511  35.579  29.090  1.00  0.00     0.055 A 
ATOM     88  C   UNL A   1      46.479  34.546  31.040  1.00  0.00     0.041 A 
ATOM     89  F   UNL A   1      45.950  32.324  31.564  1.00  0.00    -0.206 F 
ATOM     90  C   UNL A   1      46.367  35.646  30.194  1.00  0.00     0.022 A 
BRANCH  87  91
ATOM     91  S   UNL A   1      45.502  36.981  27.940  1.00  0.00     0.124 S 
ATOM     92  O   UNL A   1      46.821  36.873  27.321  1.00  0.00    -0.237 OA
ATOM     93  O   UNL A   1      44.376  36.656  27.067  1.00  0.00    -0.237 OA
ATOM     94  O   UNL A   1      45.313  38.143  28.800  1.00  0.00    -0.744 OA
ENDBRANCH  87  91
ENDBRANCH  61  84
ENDBRANCH  35  36
ENDBRANCH  27  30
ENDBRANCH  25  26
ENDBRANCH   1  25
TORSDOF 16
ENDMDL
MODEL 3
REMARK VINA RESULT:     -12.6      1.662      2.065
REMARK SMILES CCCc1cc2c(cc1Cl)C=C(C(=O)NCCCNC(=O)c1ccc(-c3c4nc(c(-c5cc(S(=O)(=O)[O-])ccc5F)c5ccc([nH]5)c(-c5cc(S(=O)(=O)[O-])ccc5F)c5nc(c(-c6cc(S(=O)(=O)[O-])ccc6F)c6ccc3[nH]6)C=C5)C=C4)cc1)[C@H](C(F)(F)F)O2
REMARK SMILES IDX 17 1 16 2 15 3 13 4 14 5 12 7 4 8 5 9 9 10 6 11 8 12 10 13
REMARK SMILES IDX 7 14 90 15 11 16 85 17 3 18 2 19 1 20 86 21 87 22 88 23
REMARK SMILES IDX 89 24 18 25 19 26 20 27 21 29 22 30 23 31 84 32 24 33 83 34
REMARK SMILES IDX 25 35 26 36 27 37 77 38 28 39 82 40 76 41 78 42 29 43 81 44
REMARK SMILES IDX 75 45 74 46 30 48 62 49 42 50 61 51 43 52 46 53 60 54 79 55
REMARK SMILES IDX 44 56 45 57 59 59 80 60 47 61 31 62 32 63 40 64 33 65 39 66
REMARK SMILES IDX 41 67 38 68 34 69 35 70 36 71 37 72 63 73 64 74 72 75 65 76
REMARK SMILES IDX 71 77 73 78 70 79 66 80 67 81 68 82 69 83 48 84 49 85 57 86
REMARK SMILES IDX 50 87 56 88 58 89 55 90 51 91 52 92 53 93 54 94
REMARK H PARENT 15 6 19 28 78 47 46 58
REMARK Flexibility Score: inf
ROOT
ATOM      1  C   UNL A   1      31.475  31.277  26.193  1.00  0.00     0.042 C 
ENDROOT
BRANCH   1   2
ATOM      2  C   UNL A   1      31.647  29.837  25.736  1.00  0.00     0.118 C 
BRANCH   2   3
ATOM      3  N   UNL A   1      32.582  29.728  24.628  1.00  0.00    -0.352 N 
ATOM      4  C   UNL A   1      33.056  28.759  23.817  1.00  0.00     0.251 C 
ATOM      5  O   UNL A   1      33.835  29.152  22.942  1.00  0.00    -0.270 OA
ATOM      6  H   UNL A   1      32.979  30.602  24.410  1.00  0.00     0.163 HD
BRANCH   4   7
ATOM      7  C   UNL A   1      32.717  27.310  23.901  1.00  0.00     0.067 C 
ATOM      8  C   UNL A   1      32.570  22.453  25.277  1.00  0.00    -0.026 A 
ATOM      9  C   UNL A   1      32.055  23.182  24.189  1.00  0.00     0.052 A 
ATOM     10  C   UNL A   1      33.359  23.138  26.220  1.00  0.00     0.045 A 
ATOM     11  C   UNL A   1      32.316  24.544  24.061  1.00  0.00     0.128 A 
ATOM     12  C   UNL A   1      33.684  24.486  26.037  1.00  0.00     0.032 A 
ATOM     13  Cl  UNL A   1      33.925  22.393  27.672  1.00  0.00    -0.084 Cl
ATOM     14  C   UNL A   1      33.164  25.191  24.955  1.00  0.00     0.019 A 
ATOM     15  O   UNL A   1      31.719  25.202  23.023  1.00  0.00    -0.475 OA
ATOM     16  C   UNL A   1      33.488  26.594  24.741  1.00  0.00     0.025 C 
ATOM     17  C   UNL A   1      31.555  26.641  23.216  1.00  0.00     0.314 C 
BRANCH   8  18
ATOM     18  C   UNL A   1      32.236  20.982  25.378  1.00  0.00     0.037 C 
BRANCH  18  19
ATOM     19  C   UNL A   1      33.000  20.087  24.392  1.00  0.00     0.001 C 
ATOM     20  C   UNL A   1      34.467  19.884  24.738  1.00  0.00     0.004 C 
ENDBRANCH  18  19
ENDBRANCH   8  18
BRANCH  17  21
ATOM     21  C   UNL A   1      30.200  26.960  23.878  1.00  0.00     0.429 C 
ATOM     22  F   UNL A   1      30.272  26.966  25.229  1.00  0.00    -0.167 F 
ATOM     23  F   UNL A   1      29.774  28.192  23.501  1.00  0.00    -0.167 F 
ATOM     24  F   UNL A   1      29.231  26.079  23.541  1.00  0.00    -0.167 F 
ENDBRANCH  17  21
ENDBRANCH   4   7
ENDBRANCH   2   3
ENDBRANCH   1   2
BRANCH   1  25
ATOM     25  C   UNL A   1      32.647  31.767  27.033  1.00  0.00     0.118 C 
BRANCH  25  26
ATOM     26  N   UNL A   1      32.568  33.201  27.295  1.00  0.00    -0.352 N 
ATOM     27  C   UNL A   1      33.240  33.976  28.211  1.00  0.00     0.251 C 
ATOM     28  H   UNL A   1      31.932  33.690  26.724  1.00  0.00     0.163 HD
ATOM     29  O   UNL A   1      32.832  35.107  28.451  1.00  0.00    -0.269 OA
BRANCH  27  30
ATOM     30  C   UNL A   1      34.430  33.441  28.909  1.00  0.00     0.039 A 
ATOM     31  C   UNL A   1      35.713  33.735  28.451  1.00  0.00     0.014 A 
ATOM     32  C   UNL A   1      34.266  32.645  30.047  1.00  0.00     0.014 A 
ATOM     33  C   UNL A   1      36.808  33.075  28.989  1.00  0.00     0.010 A 
ATOM     34  C   UNL A   1      35.385  32.084  30.671  1.00  0.00     0.010 A 
ATOM     35  C   UNL A   1      36.664  32.253  30.118  1.00  0.00    -0.014 A 
BRANCH  35  36
ATOM     36  C   UNL A   1      37.875  31.626  30.713  1.00  0.00     0.031 A 
ATOM     37  C   UNL A   1      38.297  31.933  32.125  1.00  0.00     0.074 A 
ATOM     38  C   UNL A   1      38.564  30.724  29.982  1.00  0.00     0.049 A 
ATOM     39  N   UNL A   1      39.297  31.436  32.807  1.00  0.00    -0.248 NA
ATOM     40  C   UNL A   1      37.507  32.929  32.868  1.00  0.00     0.031 C 
ATOM     41  C   UNL A   1      38.242  30.349  28.603  1.00  0.00     0.029 A 
ATOM     42  N   UNL A   1      39.643  29.936  30.293  1.00  0.00    -0.354 N 
ATOM     43  C   UNL A   1      39.274  32.073  34.042  1.00  0.00     0.074 A 
ATOM     44  C   UNL A   1      38.179  33.017  34.008  1.00  0.00     0.031 C 
ATOM     45  C   UNL A   1      39.048  29.354  28.217  1.00  0.00     0.029 A 
ATOM     46  C   UNL A   1      40.010  29.079  29.279  1.00  0.00     0.049 A 
ATOM     47  H   UNL A   1      40.110  29.979  31.159  1.00  0.00     0.167 HD
ATOM     48  C   UNL A   1      40.086  31.875  35.108  1.00  0.00     0.034 A 
ATOM     49  C   UNL A   1      41.014  28.181  29.200  1.00  0.00     0.034 A 
ATOM     50  C   UNL A   1      41.148  30.900  35.134  1.00  0.00     0.049 A 
ATOM     51  C   UNL A   1      41.914  28.002  30.394  1.00  0.00     0.074 A 
ATOM     52  C   UNL A   1      41.988  30.587  36.188  1.00  0.00     0.029 A 
ATOM     53  N   UNL A   1      41.519  30.084  34.075  1.00  0.00    -0.354 N 
ATOM     54  N   UNL A   1      41.837  28.569  31.575  1.00  0.00    -0.248 NA
ATOM     55  C   UNL A   1      43.036  27.067  30.250  1.00  0.00     0.031 C 
ATOM     56  C   UNL A   1      42.918  29.649  35.742  1.00  0.00     0.029 A 
ATOM     57  C   UNL A   1      42.602  29.300  34.439  1.00  0.00     0.049 A 
ATOM     58  H   UNL A   1      41.078  30.065  33.194  1.00  0.00     0.167 HD
ATOM     59  C   UNL A   1      42.887  28.043  32.321  1.00  0.00     0.074 A 
ATOM     60  C   UNL A   1      43.561  27.086  31.468  1.00  0.00     0.031 C 
ATOM     61  C   UNL A   1      43.262  28.334  33.592  1.00  0.00     0.034 A 
BRANCH  48  62
ATOM     62  C   UNL A   1      39.884  32.702  36.355  1.00  0.00     0.023 A 
ATOM     63  C   UNL A   1      38.990  32.256  37.349  1.00  0.00     0.031 A 
ATOM     64  C   UNL A   1      40.426  33.993  36.483  1.00  0.00     0.131 A 
ATOM     65  C   UNL A   1      38.621  33.113  38.392  1.00  0.00     0.055 A 
ATOM     66  C   UNL A   1      40.092  34.826  37.553  1.00  0.00     0.041 A 
ATOM     67  F   UNL A   1      41.281  34.469  35.562  1.00  0.00    -0.206 F 
ATOM     68  C   UNL A   1      39.172  34.393  38.504  1.00  0.00     0.022 A 
BRANCH  65  69
ATOM     69  S   UNL A   1      37.342  32.637  39.587  1.00  0.00     0.124 S 
ATOM     70  O   UNL A   1      37.428  33.719  40.565  1.00  0.00    -0.237 OA
ATOM     71  O   UNL A   1      36.138  32.636  38.762  1.00  0.00    -0.237 OA
ATOM     72  O   UNL A   1      37.780  31.331  40.068  1.00  0.00    -0.744 OA
ENDBRANCH  65  69
ENDBRANCH  48  62
BRANCH  49  73
ATOM     73  C   UNL A   1      41.175  27.368  27.958  1.00  0.00     0.023 A 
ATOM     74  C   UNL A   1      40.821  26.005  27.931  1.00  0.00     0.031 A 
ATOM     75  C   UNL A   1      41.780  27.912  26.813  1.00  0.00     0.131 A 
ATOM     76  C   UNL A   1      41.149  25.219  26.819  1.00  0.00     0.055 A 
ATOM     77  C   UNL A   1      42.029  27.144  25.674  1.00  0.00     0.041 A 
ATOM     78  F   UNL A   1      42.150  29.202  26.792  1.00  0.00    -0.206 F 
ATOM     79  C   UNL A   1      41.732  25.784  25.682  1.00  0.00     0.022 A 
BRANCH  76  80
ATOM     80  S   UNL A   1      40.972  23.414  26.874  1.00  0.00     0.124 S 
ATOM     81  O   UNL A   1      39.560  23.237  26.552  1.00  0.00    -0.237 OA
ATOM     82  O   UNL A   1      41.913  22.991  25.840  1.00  0.00    -0.237 OA
ATOM     83  O   UNL A   1      41.358  23.070  28.239  1.00  0.00    -0.744 OA
ENDBRANCH  76  80
ENDBRANCH  49  73
BRANCH  61  84
ATOM     84  C   UNL A   1      44.457  27.618  34.176  1.00  0.00     0.023 A 
ATOM     85  C   UNL A   1      44.286  26.378  34.824  1.00  0.00     0.031 A 
ATOM     86  C   UNL A   1      45.723  28.225  34.233  1.00  0.00     0.131 A 
ATOM     87  C   UNL A   1      45.346  25.813  35.542  1.00  0.00     0.055 A 
ATOM     88  C   UNL A   1      46.795  27.627  34.898  1.00  0.00     0.041 A 
ATOM     89  F   UNL A   1      45.937  29.413  33.644  1.00  0.00    -0.206 F 
ATOM     90  C   UNL A   1      46.603  26.425  35.572  1.00  0.00     0.022 A 
BRANCH  87  91
ATOM     91  S   UNL A   1      45.106  24.324  36.549  1.00  0.00     0.124 S 
ATOM     92  O   UNL A   1      44.707  24.890  37.835  1.00  0.00    -0.237 OA
ATOM     93  O   UNL A   1      44.048  23.628  35.820  1.00  0.00    -0.237 OA
ATOM     94  O   UNL A   1      46.411  23.673  36.535  1.00  0.00    -0.744 OA
ENDBRANCH  87  91
ENDBRANCH  61  84
ENDBRANCH  35  36
ENDBRANCH  27  30
ENDBRANCH  25  26
ENDBRANCH   1  25
TORSDOF 16
ENDMDL
