MODEL 1
REMARK VINA RESULT:     -12.2      0.000      0.000
REMARK SMILES CO[C@@H]1C[NH2+][C@@H](O[C@@H]2C[C@@H](C(=O)NCCCNC(=O)c3ccc(-c4c5nc(c(-c6cc(S(=O)(=O)[O-])ccc6F)c6ccc([nH]6)c(-c6cc(S(=O)(=O)[O-])ccc6F)c6nc(c(-c7cc(S(=O)(=O)[O-])ccc7F)c7ccc4[nH]7)C=C6)C=C5)cc3)N(C(=O)OC(C)(C)C)C2)c2cc(Cl)ccc21
REMARK SMILES IDX 15 1 14 2 13 3 11 4 12 5 10 7 8 8 9 9 91 10 83 11 7 12 6 13
REMARK SMILES IDX 3 14 4 15 98 16 5 17 92 18 97 19 93 22 96 23 94 24 95 25
REMARK SMILES IDX 2 26 1 27 84 28 85 29 86 30 87 31 88 32 89 33 90 34 16 35
REMARK SMILES IDX 17 36 18 37 19 39 20 40 21 41 82 42 22 43 81 44 23 45 24 46
REMARK SMILES IDX 25 47 75 48 26 49 80 50 74 51 76 52 27 53 79 54 73 55 72 56
REMARK SMILES IDX 28 58 60 59 40 60 59 61 41 62 44 63 58 64 77 65 42 66 43 67
REMARK SMILES IDX 57 69 78 70 45 71 29 72 30 73 38 74 31 75 37 76 39 77 36 78
REMARK SMILES IDX 32 79 33 80 34 81 35 82 61 83 62 84 70 85 63 86 69 87 71 88
REMARK SMILES IDX 68 89 64 90 65 91 66 92 67 93 46 94 47 95 55 96 48 97 54 98
REMARK SMILES IDX 56 99 53 100 49 101 50 102 51 103 52 104
REMARK H PARENT 13 6 5 20 5 21 17 38 76 57 44 68
REMARK Flexibility Score: inf
ROOT
ATOM      1  C   UNL A   1      31.581  31.803  26.417  1.00  0.00     0.042 C 
ENDROOT
BRANCH   1   2
ATOM      2  C   UNL A   1      31.929  30.438  25.728  1.00  0.00     0.117 C 
BRANCH   2   3
ATOM      3  N   UNL A   1      31.601  29.127  26.379  1.00  0.00    -0.354 N 
ATOM      4  C   UNL A   1      31.770  27.765  26.105  1.00  0.00     0.243 C 
ATOM      5  O   UNL A   1      31.793  27.016  27.089  1.00  0.00    -0.273 OA
ATOM      6  H   UNL A   1      31.139  29.262  27.238  1.00  0.00     0.163 HD
BRANCH   4   7
ATOM      7  C   UNL A   1      31.929  27.163  24.660  1.00  0.00     0.180 C 
ATOM      8  C   UNL A   1      33.209  26.700  22.603  1.00  0.00     0.147 C 
ATOM      9  C   UNL A   1      33.366  27.079  24.097  1.00  0.00     0.069 C 
ATOM     10  C   UNL A   1      31.895  27.402  22.232  1.00  0.00     0.156 C 
ATOM     11  N   UNL A   1      31.185  27.650  23.490  1.00  0.00    -0.293 N 
BRANCH   8  12
ATOM     12  O   UNL A   1      33.399  25.417  21.994  1.00  0.00    -0.320 OA
BRANCH  12  13
ATOM     13  C   UNL A   1      33.239  24.068  22.440  1.00  0.00     0.354 C 
ATOM     14  C   UNL A   1      31.531  23.980  24.800  1.00  0.00     0.203 C 
ATOM     15  C   UNL A   1      31.001  24.062  23.336  1.00  0.00     0.300 C 
ATOM     16  C   UNL A   1      33.080  23.939  24.903  1.00  0.00    -0.002 A 
ATOM     17  N   UNL A   1      31.888  23.562  22.303  1.00  0.00    -0.315 N 
ATOM     18  C   UNL A   1      33.852  23.737  23.765  1.00  0.00     0.046 A 
ATOM     19  C   UNL A   1      33.852  24.367  25.988  1.00  0.00     0.009 A 
ATOM     20  H   UNL A   1      31.523  23.845  21.394  1.00  0.00     0.349 HD
ATOM     21  H   UNL A   1      31.926  22.546  22.392  1.00  0.00     0.349 HD
ATOM     22  C   UNL A   1      35.245  23.486  23.844  1.00  0.00     0.033 A 
ATOM     23  C   UNL A   1      35.247  24.261  26.080  1.00  0.00     0.021 A 
ATOM     24  C   UNL A   1      35.935  23.715  25.024  1.00  0.00     0.041 A 
ATOM     25  Cl  UNL A   1      37.636  23.527  25.108  1.00  0.00    -0.084 Cl
BRANCH  14  26
ATOM     26  O   UNL A   1      30.816  23.022  25.599  1.00  0.00    -0.371 OA
ATOM     27  C   UNL A   1      30.205  23.645  26.749  1.00  0.00     0.196 C 
ENDBRANCH  14  26
ENDBRANCH  12  13
ENDBRANCH   8  12
BRANCH  11  28
ATOM     28  C   UNL A   1      29.860  27.987  23.471  1.00  0.00     0.411 C 
ATOM     29  O   UNL A   1      28.959  27.194  23.209  1.00  0.00    -0.224 OA
BRANCH  28  30
ATOM     30  O   UNL A   1      29.682  29.293  23.752  1.00  0.00    -0.444 OA
BRANCH  30  31
ATOM     31  C   UNL A   1      28.811  30.122  22.950  1.00  0.00     0.106 C 
ATOM     32  C   UNL A   1      29.364  30.299  21.531  1.00  0.00     0.056 C 
ATOM     33  C   UNL A   1      27.374  29.596  22.947  1.00  0.00     0.056 C 
ATOM     34  C   UNL A   1      28.844  31.482  23.660  1.00  0.00     0.056 C 
ENDBRANCH  30  31
ENDBRANCH  28  30
ENDBRANCH  11  28
ENDBRANCH   4   7
ENDBRANCH   2   3
ENDBRANCH   1   2
BRANCH   1  35
ATOM     35  C   UNL A   1      32.337  32.169  27.696  1.00  0.00     0.118 C 
BRANCH  35  36
ATOM     36  N   UNL A   1      32.709  33.577  27.651  1.00  0.00    -0.352 N 
ATOM     37  C   UNL A   1      33.576  34.288  28.450  1.00  0.00     0.251 C 
ATOM     38  H   UNL A   1      32.273  34.101  26.940  1.00  0.00     0.163 HD
ATOM     39  O   UNL A   1      33.399  35.499  28.572  1.00  0.00    -0.269 OA
BRANCH  37  40
ATOM     40  C   UNL A   1      34.717  33.632  29.138  1.00  0.00     0.039 A 
ATOM     41  C   UNL A   1      36.032  34.038  28.901  1.00  0.00     0.014 A 
ATOM     42  C   UNL A   1      34.466  32.662  30.117  1.00  0.00     0.014 A 
ATOM     43  C   UNL A   1      37.091  33.400  29.549  1.00  0.00     0.010 A 
ATOM     44  C   UNL A   1      35.526  32.076  30.822  1.00  0.00     0.010 A 
ATOM     45  C   UNL A   1      36.854  32.418  30.525  1.00  0.00    -0.014 A 
BRANCH  45  46
ATOM     46  C   UNL A   1      38.001  31.784  31.239  1.00  0.00     0.031 A 
ATOM     47  C   UNL A   1      38.798  30.683  30.590  1.00  0.00     0.074 A 
ATOM     48  C   UNL A   1      38.341  32.220  32.470  1.00  0.00     0.049 A 
ATOM     49  N   UNL A   1      39.817  30.015  31.067  1.00  0.00    -0.248 NA
ATOM     50  C   UNL A   1      38.400  30.277  29.233  1.00  0.00     0.031 C 
ATOM     51  C   UNL A   1      37.645  33.281  33.199  1.00  0.00     0.029 A 
ATOM     52  N   UNL A   1      39.353  31.845  33.320  1.00  0.00    -0.354 N 
ATOM     53  C   UNL A   1      40.171  29.100  30.079  1.00  0.00     0.074 A 
ATOM     54  C   UNL A   1      39.234  29.273  28.993  1.00  0.00     0.031 C 
ATOM     55  C   UNL A   1      38.276  33.504  34.359  1.00  0.00     0.029 A 
ATOM     56  C   UNL A   1      39.372  32.549  34.504  1.00  0.00     0.049 A 
ATOM     57  H   UNL A   1      40.005  31.139  33.104  1.00  0.00     0.167 HD
ATOM     58  C   UNL A   1      41.197  28.214  30.076  1.00  0.00     0.034 A 
ATOM     59  C   UNL A   1      40.159  32.431  35.594  1.00  0.00     0.034 A 
ATOM     60  C   UNL A   1      42.139  28.076  31.159  1.00  0.00     0.049 A 
ATOM     61  C   UNL A   1      41.266  31.408  35.584  1.00  0.00     0.074 A 
ATOM     62  C   UNL A   1      43.235  27.234  31.230  1.00  0.00     0.029 A 
ATOM     63  N   UNL A   1      42.106  28.787  32.350  1.00  0.00    -0.354 N 
ATOM     64  N   UNL A   1      41.619  30.591  34.620  1.00  0.00    -0.248 NA
ATOM     65  C   UNL A   1      42.083  31.285  36.799  1.00  0.00     0.031 C 
ATOM     66  C   UNL A   1      43.812  27.376  32.490  1.00  0.00     0.029 A 
ATOM     67  C   UNL A   1      43.140  28.374  33.175  1.00  0.00     0.049 A 
ATOM     68  H   UNL A   1      41.445  29.482  32.576  1.00  0.00     0.167 HD
ATOM     69  C   UNL A   1      42.711  29.875  35.102  1.00  0.00     0.074 A 
ATOM     70  C   UNL A   1      42.977  30.375  36.435  1.00  0.00     0.031 C 
ATOM     71  C   UNL A   1      43.420  28.891  34.495  1.00  0.00     0.034 A 
BRANCH  58  72
ATOM     72  C   UNL A   1      41.390  27.318  28.874  1.00  0.00     0.023 A 
ATOM     73  C   UNL A   1      42.370  27.637  27.913  1.00  0.00     0.031 A 
ATOM     74  C   UNL A   1      40.512  26.257  28.596  1.00  0.00     0.131 A 
ATOM     75  C   UNL A   1      42.416  26.936  26.702  1.00  0.00     0.055 A 
ATOM     76  C   UNL A   1      40.596  25.526  27.409  1.00  0.00     0.041 A 
ATOM     77  F   UNL A   1      39.554  25.915  29.473  1.00  0.00    -0.206 F 
ATOM     78  C   UNL A   1      41.540  25.875  26.449  1.00  0.00     0.022 A 
BRANCH  75  79
ATOM     79  S   UNL A   1      43.550  27.428  25.374  1.00  0.00     0.124 S 
ATOM     80  O   UNL A   1      44.351  28.459  26.030  1.00  0.00    -0.237 OA
ATOM     81  O   UNL A   1      44.252  26.178  25.094  1.00  0.00    -0.237 OA
ATOM     82  O   UNL A   1      42.667  27.908  24.317  1.00  0.00    -0.744 OA
ENDBRANCH  75  79
ENDBRANCH  58  72
BRANCH  59  83
ATOM     83  C   UNL A   1      39.930  33.340  36.758  1.00  0.00     0.023 A 
ATOM     84  C   UNL A   1      39.280  32.877  37.918  1.00  0.00     0.031 A 
ATOM     85  C   UNL A   1      40.245  34.707  36.684  1.00  0.00     0.131 A 
ATOM     86  C   UNL A   1      38.885  33.784  38.909  1.00  0.00     0.055 A 
ATOM     87  C   UNL A   1      39.926  35.595  37.715  1.00  0.00     0.041 A 
ATOM     88  F   UNL A   1      40.856  35.203  35.598  1.00  0.00    -0.206 F 
ATOM     89  C   UNL A   1      39.222  35.137  38.825  1.00  0.00     0.022 A 
BRANCH  86  90
ATOM     90  S   UNL A   1      37.789  33.265  40.260  1.00  0.00     0.124 S 
ATOM     91  O   UNL A   1      36.557  32.944  39.548  1.00  0.00    -0.237 OA
ATOM     92  O   UNL A   1      38.517  32.125  40.811  1.00  0.00    -0.237 OA
ATOM     93  O   UNL A   1      37.730  34.438  41.126  1.00  0.00    -0.744 OA
ENDBRANCH  86  90
ENDBRANCH  59  83
BRANCH  71  94
ATOM     94  C   UNL A   1      44.581  28.263  35.232  1.00  0.00     0.023 A 
ATOM     95  C   UNL A   1      44.340  27.256  36.188  1.00  0.00     0.031 A 
ATOM     96  C   UNL A   1      45.882  28.786  35.134  1.00  0.00     0.131 A 
ATOM     97  C   UNL A   1      45.365  26.852  37.051  1.00  0.00     0.055 A 
ATOM     98  C   UNL A   1      46.916  28.335  35.956  1.00  0.00     0.041 A 
ATOM     99  F   UNL A   1      46.163  29.754  34.247  1.00  0.00    -0.206 F 
ATOM    100  C   UNL A   1      46.655  27.379  36.933  1.00  0.00     0.022 A 
BRANCH  97 101
ATOM    101  S   UNL A   1      45.037  25.716  38.428  1.00  0.00     0.124 S 
ATOM    102  O   UNL A   1      44.531  24.535  37.731  1.00  0.00    -0.237 OA
ATOM    103  O   UNL A   1      46.361  25.568  39.024  1.00  0.00    -0.237 OA
ATOM    104  O   UNL A   1      44.055  26.425  39.243  1.00  0.00    -0.744 OA
ENDBRANCH  97 101
ENDBRANCH  71  94
ENDBRANCH  45  46
ENDBRANCH  37  40
ENDBRANCH  35  36
ENDBRANCH   1  35
TORSDOF 19
ENDMDL
MODEL 2
REMARK VINA RESULT:     -11.8      3.597      7.874
REMARK SMILES CO[C@@H]1C[NH2+][C@@H](O[C@@H]2C[C@@H](C(=O)NCCCNC(=O)c3ccc(-c4c5nc(c(-c6cc(S(=O)(=O)[O-])ccc6F)c6ccc([nH]6)c(-c6cc(S(=O)(=O)[O-])ccc6F)c6nc(c(-c7cc(S(=O)(=O)[O-])ccc7F)c7ccc4[nH]7)C=C6)C=C5)cc3)N(C(=O)OC(C)(C)C)C2)c2cc(Cl)ccc21
REMARK SMILES IDX 15 1 14 2 13 3 11 4 12 5 10 7 8 8 9 9 91 10 83 11 7 12 6 13
REMARK SMILES IDX 3 14 4 15 98 16 5 17 92 18 97 19 93 22 96 23 94 24 95 25
REMARK SMILES IDX 2 26 1 27 84 28 85 29 86 30 87 31 88 32 89 33 90 34 16 35
REMARK SMILES IDX 17 36 18 37 19 39 20 40 21 41 82 42 22 43 81 44 23 45 24 46
REMARK SMILES IDX 25 47 75 48 26 49 80 50 74 51 76 52 27 53 79 54 73 55 72 56
REMARK SMILES IDX 28 58 60 59 40 60 59 61 41 62 44 63 58 64 77 65 42 66 43 67
REMARK SMILES IDX 57 69 78 70 45 71 29 72 30 73 38 74 31 75 37 76 39 77 36 78
REMARK SMILES IDX 32 79 33 80 34 81 35 82 61 83 62 84 70 85 63 86 69 87 71 88
REMARK SMILES IDX 68 89 64 90 65 91 66 92 67 93 46 94 47 95 55 96 48 97 54 98
REMARK SMILES IDX 56 99 53 100 49 101 50 102 51 103 52 104
REMARK H PARENT 13 6 5 20 5 21 17 38 76 57 44 68
REMARK Flexibility Score: inf
ROOT
ATOM      1  C   UNL A   1      32.794  30.802  26.942  1.00  0.00     0.042 C 
ENDROOT
BRANCH   1   2
ATOM      2  C   UNL A   1      32.594  29.574  25.988  1.00  0.00     0.117 C 
BRANCH   2   3
ATOM      3  N   UNL A   1      31.744  28.404  26.387  1.00  0.00    -0.354 N 
ATOM      4  C   UNL A   1      31.558  27.075  25.987  1.00  0.00     0.243 C 
ATOM      5  O   UNL A   1      31.121  26.307  26.852  1.00  0.00    -0.273 OA
ATOM      6  H   UNL A   1      31.151  28.635  27.139  1.00  0.00     0.163 HD
BRANCH   4   7
ATOM      7  C   UNL A   1      31.872  26.530  24.544  1.00  0.00     0.180 C 
ATOM      8  C   UNL A   1      33.336  26.226  22.583  1.00  0.00     0.147 C 
ATOM      9  C   UNL A   1      33.350  26.571  24.093  1.00  0.00     0.069 C 
ATOM     10  C   UNL A   1      32.003  26.839  22.128  1.00  0.00     0.156 C 
ATOM     11  N   UNL A   1      31.184  26.997  23.332  1.00  0.00    -0.293 N 
BRANCH   8  12
ATOM     12  O   UNL A   1      33.668  24.979  21.959  1.00  0.00    -0.320 OA
BRANCH  12  13
ATOM     13  C   UNL A   1      33.689  23.619  22.398  1.00  0.00     0.354 C 
ATOM     14  C   UNL A   1      31.841  23.246  24.621  1.00  0.00     0.203 C 
ATOM     15  C   UNL A   1      31.418  23.254  23.120  1.00  0.00     0.300 C 
ATOM     16  C   UNL A   1      33.365  23.449  24.843  1.00  0.00    -0.002 A 
ATOM     17  N   UNL A   1      32.450  22.907  22.161  1.00  0.00    -0.315 N 
ATOM     18  C   UNL A   1      34.244  23.379  23.769  1.00  0.00     0.046 A 
ATOM     19  C   UNL A   1      33.975  23.987  25.981  1.00  0.00     0.009 A 
ATOM     20  H   UNL A   1      32.115  23.135  21.225  1.00  0.00     0.349 HD
ATOM     21  H   UNL A   1      32.641  21.909  22.259  1.00  0.00     0.349 HD
ATOM     22  C   UNL A   1      35.649  23.352  23.955  1.00  0.00     0.033 A 
ATOM     23  C   UNL A   1      35.358  24.102  26.181  1.00  0.00     0.021 A 
ATOM     24  C   UNL A   1      36.202  23.678  25.183  1.00  0.00     0.041 A 
ATOM     25  Cl  UNL A   1      37.900  23.760  25.398  1.00  0.00    -0.084 Cl
BRANCH  14  26
ATOM     26  O   UNL A   1      31.228  22.182  25.368  1.00  0.00    -0.371 OA
ATOM     27  C   UNL A   1      32.016  20.973  25.309  1.00  0.00     0.196 C 
ENDBRANCH  14  26
ENDBRANCH  12  13
ENDBRANCH   8  12
BRANCH  11  28
ATOM     28  C   UNL A   1      29.842  27.234  23.218  1.00  0.00     0.411 C 
ATOM     29  O   UNL A   1      28.987  26.637  23.867  1.00  0.00    -0.224 OA
BRANCH  28  30
ATOM     30  O   UNL A   1      29.589  28.181  22.294  1.00  0.00    -0.444 OA
BRANCH  30  31
ATOM     31  C   UNL A   1      29.019  29.458  22.661  1.00  0.00     0.106 C 
ATOM     32  C   UNL A   1      27.516  29.336  22.939  1.00  0.00     0.056 C 
ATOM     33  C   UNL A   1      29.770  30.098  23.831  1.00  0.00     0.056 C 
ATOM     34  C   UNL A   1      29.216  30.321  21.409  1.00  0.00     0.056 C 
ENDBRANCH  30  31
ENDBRANCH  28  30
ENDBRANCH  11  28
ENDBRANCH   4   7
ENDBRANCH   2   3
ENDBRANCH   1   2
BRANCH   1  35
ATOM     35  C   UNL A   1      34.184  31.016  27.545  1.00  0.00     0.118 C 
BRANCH  35  36
ATOM     36  N   UNL A   1      34.136  32.127  28.488  1.00  0.00    -0.352 N 
ATOM     37  C   UNL A   1      34.796  32.301  29.683  1.00  0.00     0.251 C 
ATOM     38  H   UNL A   1      33.540  32.867  28.229  1.00  0.00     0.163 HD
ATOM     39  O   UNL A   1      34.286  33.030  30.531  1.00  0.00    -0.269 OA
BRANCH  37  40
ATOM     40  C   UNL A   1      36.104  31.651  29.953  1.00  0.00     0.039 A 
ATOM     41  C   UNL A   1      37.292  32.185  29.448  1.00  0.00     0.014 A 
ATOM     42  C   UNL A   1      36.160  30.545  30.811  1.00  0.00     0.014 A 
ATOM     43  C   UNL A   1      38.510  31.552  29.704  1.00  0.00     0.010 A 
ATOM     44  C   UNL A   1      37.392  29.956  31.127  1.00  0.00     0.010 A 
ATOM     45  C   UNL A   1      38.579  30.436  30.553  1.00  0.00    -0.014 A 
BRANCH  45  46
ATOM     46  C   UNL A   1      39.899  29.805  30.850  1.00  0.00     0.031 A 
ATOM     47  C   UNL A   1      40.721  30.258  32.028  1.00  0.00     0.074 A 
ATOM     48  C   UNL A   1      40.347  28.800  30.068  1.00  0.00     0.049 A 
ATOM     49  N   UNL A   1      41.891  29.830  32.428  1.00  0.00    -0.248 NA
ATOM     50  C   UNL A   1      40.161  31.333  32.862  1.00  0.00     0.031 C 
ATOM     51  C   UNL A   1      39.638  28.273  28.902  1.00  0.00     0.029 A 
ATOM     52  N   UNL A   1      41.487  28.036  30.136  1.00  0.00    -0.354 N 
ATOM     53  C   UNL A   1      42.215  30.591  33.547  1.00  0.00     0.074 A 
ATOM     54  C   UNL A   1      41.137  31.534  33.740  1.00  0.00     0.031 C 
ATOM     55  C   UNL A   1      40.330  27.246  28.394  1.00  0.00     0.029 A 
ATOM     56  C   UNL A   1      41.576  27.087  29.140  1.00  0.00     0.049 A 
ATOM     57  H   UNL A   1      42.175  28.153  30.829  1.00  0.00     0.167 HD
ATOM     58  C   UNL A   1      43.304  30.495  34.349  1.00  0.00     0.034 A 
ATOM     59  C   UNL A   1      42.553  26.205  28.841  1.00  0.00     0.034 A 
ATOM     60  C   UNL A   1      44.356  29.528  34.156  1.00  0.00     0.049 A 
ATOM     61  C   UNL A   1      43.775  26.147  29.722  1.00  0.00     0.074 A 
ATOM     62  C   UNL A   1      45.479  29.327  34.940  1.00  0.00     0.029 A 
ATOM     63  N   UNL A   1      44.423  28.606  33.122  1.00  0.00    -0.354 N 
ATOM     64  N   UNL A   1      44.038  26.836  30.807  1.00  0.00    -0.248 NA
ATOM     65  C   UNL A   1      44.832  25.197  29.347  1.00  0.00     0.031 C 
ATOM     66  C   UNL A   1      46.262  28.345  34.336  1.00  0.00     0.029 A 
ATOM     67  C   UNL A   1      45.587  27.861  33.228  1.00  0.00     0.049 A 
ATOM     68  H   UNL A   1      43.744  28.497  32.417  1.00  0.00     0.167 HD
ATOM     69  C   UNL A   1      45.276  26.388  31.257  1.00  0.00     0.074 A 
ATOM     70  C   UNL A   1      45.699  25.349  30.341  1.00  0.00     0.031 C 
ATOM     71  C   UNL A   1      45.996  26.808  32.328  1.00  0.00     0.034 A 
BRANCH  58  72
ATOM     72  C   UNL A   1      43.436  31.436  35.524  1.00  0.00     0.023 A 
ATOM     73  C   UNL A   1      44.171  32.631  35.386  1.00  0.00     0.031 A 
ATOM     74  C   UNL A   1      42.982  31.084  36.806  1.00  0.00     0.131 A 
ATOM     75  C   UNL A   1      44.472  33.400  36.516  1.00  0.00     0.055 A 
ATOM     76  C   UNL A   1      43.239  31.883  37.922  1.00  0.00     0.041 A 
ATOM     77  F   UNL A   1      42.284  29.953  36.996  1.00  0.00    -0.206 F 
ATOM     78  C   UNL A   1      44.002  33.039  37.782  1.00  0.00     0.022 A 
BRANCH  75  79
ATOM     79  S   UNL A   1      45.558  34.850  36.403  1.00  0.00     0.124 S 
ATOM     80  O   UNL A   1      44.643  35.872  35.898  1.00  0.00    -0.237 OA
ATOM     81  O   UNL A   1      45.981  35.023  37.790  1.00  0.00    -0.237 OA
ATOM     82  O   UNL A   1      46.601  34.436  35.471  1.00  0.00    -0.744 OA
ENDBRANCH  75  79
ENDBRANCH  58  72
BRANCH  59  83
ATOM     83  C   UNL A   1      42.376  25.294  27.668  1.00  0.00     0.023 A 
ATOM     84  C   UNL A   1      41.739  24.047  27.813  1.00  0.00     0.031 A 
ATOM     85  C   UNL A   1      42.942  25.601  26.420  1.00  0.00     0.131 A 
ATOM     86  C   UNL A   1      41.767  23.121  26.764  1.00  0.00     0.055 A 
ATOM     87  C   UNL A   1      42.892  24.707  25.347  1.00  0.00     0.041 A 
ATOM     88  F   UNL A   1      43.569  26.771  26.230  1.00  0.00    -0.206 F 
ATOM     89  C   UNL A   1      42.321  23.450  25.524  1.00  0.00     0.022 A 
BRANCH  86  90
ATOM     90  S   UNL A   1      41.224  21.408  27.022  1.00  0.00     0.124 S 
ATOM     91  O   UNL A   1      42.454  20.659  26.787  1.00  0.00    -0.237 OA
ATOM     92  O   UNL A   1      40.763  21.449  28.407  1.00  0.00    -0.237 OA
ATOM     93  O   UNL A   1      40.174  21.225  26.026  1.00  0.00    -0.744 OA
ENDBRANCH  86  90
ENDBRANCH  59  83
BRANCH  71  94
ATOM     94  C   UNL A   1      47.329  26.154  32.616  1.00  0.00     0.023 A 
ATOM     95  C   UNL A   1      48.448  26.469  31.819  1.00  0.00     0.031 A 
ATOM     96  C   UNL A   1      47.444  25.097  33.533  1.00  0.00     0.131 A 
ATOM     97  C   UNL A   1      49.608  25.692  31.908  1.00  0.00     0.055 A 
ATOM     98  C   UNL A   1      48.626  24.365  33.662  1.00  0.00     0.041 A 
ATOM     99  F   UNL A   1      46.405  24.750  34.309  1.00  0.00    -0.206 F 
ATOM    100  C   UNL A   1      49.708  24.648  32.833  1.00  0.00     0.022 A 
BRANCH  97 101
ATOM    101  S   UNL A   1      50.987  25.933  30.752  1.00  0.00     0.124 S 
ATOM    102  O   UNL A   1      52.119  25.418  31.520  1.00  0.00    -0.237 OA
ATOM    103  O   UNL A   1      50.580  25.112  29.616  1.00  0.00    -0.237 OA
ATOM    104  O   UNL A   1      51.001  27.373  30.516  1.00  0.00    -0.744 OA
ENDBRANCH  97 101
ENDBRANCH  71  94
ENDBRANCH  45  46
ENDBRANCH  37  40
ENDBRANCH  35  36
ENDBRANCH   1  35
TORSDOF 19
ENDMDL
MODEL 3
REMARK VINA RESULT:     -11.8      3.001      7.905
REMARK SMILES CO[C@@H]1C[NH2+][C@@H](O[C@@H]2C[C@@H](C(=O)NCCCNC(=O)c3ccc(-c4c5nc(c(-c6cc(S(=O)(=O)[O-])ccc6F)c6ccc([nH]6)c(-c6cc(S(=O)(=O)[O-])ccc6F)c6nc(c(-c7cc(S(=O)(=O)[O-])ccc7F)c7ccc4[nH]7)C=C6)C=C5)cc3)N(C(=O)OC(C)(C)C)C2)c2cc(Cl)ccc21
REMARK SMILES IDX 15 1 14 2 13 3 11 4 12 5 10 7 8 8 9 9 91 10 83 11 7 12 6 13
REMARK SMILES IDX 3 14 4 15 98 16 5 17 92 18 97 19 93 22 96 23 94 24 95 25
REMARK SMILES IDX 2 26 1 27 84 28 85 29 86 30 87 31 88 32 89 33 90 34 16 35
REMARK SMILES IDX 17 36 18 37 19 39 20 40 21 41 82 42 22 43 81 44 23 45 24 46
REMARK SMILES IDX 25 47 75 48 26 49 80 50 74 51 76 52 27 53 79 54 73 55 72 56
REMARK SMILES IDX 28 58 60 59 40 60 59 61 41 62 44 63 58 64 77 65 42 66 43 67
REMARK SMILES IDX 57 69 78 70 45 71 29 72 30 73 38 74 31 75 37 76 39 77 36 78
REMARK SMILES IDX 32 79 33 80 34 81 35 82 61 83 62 84 70 85 63 86 69 87 71 88
REMARK SMILES IDX 68 89 64 90 65 91 66 92 67 93 46 94 47 95 55 96 48 97 54 98
REMARK SMILES IDX 56 99 53 100 49 101 50 102 51 103 52 104
REMARK H PARENT 13 6 5 20 5 21 17 38 76 57 44 68
REMARK Flexibility Score: inf
ROOT
ATOM      1  C   UNL A   1      33.003  30.712  26.910  1.00  0.00     0.042 C 
ENDROOT
BRANCH   1   2
ATOM      2  C   UNL A   1      32.754  29.471  25.984  1.00  0.00     0.117 C 
BRANCH   2   3
ATOM      3  N   UNL A   1      31.845  28.353  26.400  1.00  0.00    -0.354 N 
ATOM      4  C   UNL A   1      31.592  27.030  26.021  1.00  0.00     0.243 C 
ATOM      5  O   UNL A   1      31.115  26.299  26.898  1.00  0.00    -0.273 OA
ATOM      6  H   UNL A   1      31.265  28.626  27.147  1.00  0.00     0.163 HD
BRANCH   4   7
ATOM      7  C   UNL A   1      31.877  26.446  24.588  1.00  0.00     0.180 C 
ATOM      8  C   UNL A   1      33.324  26.034  22.633  1.00  0.00     0.147 C 
ATOM      9  C   UNL A   1      33.355  26.402  24.138  1.00  0.00     0.069 C 
ATOM     10  C   UNL A   1      32.026  26.710  22.167  1.00  0.00     0.156 C 
ATOM     11  N   UNL A   1      31.216  26.929  23.367  1.00  0.00    -0.293 N 
BRANCH   8  12
ATOM     12  O   UNL A   1      33.591  24.762  22.030  1.00  0.00    -0.320 OA
BRANCH  12  13
ATOM     13  C   UNL A   1      33.504  23.408  22.479  1.00  0.00     0.354 C 
ATOM     14  C   UNL A   1      31.737  23.221  24.788  1.00  0.00     0.203 C 
ATOM     15  C   UNL A   1      31.246  23.263  23.309  1.00  0.00     0.300 C 
ATOM     16  C   UNL A   1      33.282  23.279  24.937  1.00  0.00    -0.002 A 
ATOM     17  N   UNL A   1      32.193  22.816  22.305  1.00  0.00    -0.315 N 
ATOM     18  C   UNL A   1      34.099  23.122  23.823  1.00  0.00     0.046 A 
ATOM     19  C   UNL A   1      33.993  23.761  26.041  1.00  0.00     0.009 A 
ATOM     20  H   UNL A   1      31.838  23.071  21.384  1.00  0.00     0.349 HD
ATOM     21  H   UNL A   1      32.294  21.805  22.402  1.00  0.00     0.349 HD
ATOM     22  C   UNL A   1      35.502  22.962  23.944  1.00  0.00     0.033 A 
ATOM     23  C   UNL A   1      35.389  23.745  26.174  1.00  0.00     0.021 A 
ATOM     24  C   UNL A   1      36.141  23.240  25.142  1.00  0.00     0.041 A 
ATOM     25  Cl  UNL A   1      37.847  23.161  25.276  1.00  0.00    -0.084 Cl
BRANCH  14  26
ATOM     26  O   UNL A   1      31.062  22.222  25.572  1.00  0.00    -0.371 OA
ATOM     27  C   UNL A   1      30.293  22.819  26.638  1.00  0.00     0.196 C 
ENDBRANCH  14  26
ENDBRANCH  12  13
ENDBRANCH   8  12
BRANCH  11  28
ATOM     28  C   UNL A   1      29.888  27.235  23.248  1.00  0.00     0.411 C 
ATOM     29  O   UNL A   1      29.005  26.714  23.926  1.00  0.00    -0.224 OA
BRANCH  28  30
ATOM     30  O   UNL A   1      29.681  28.153  22.284  1.00  0.00    -0.444 OA
BRANCH  30  31
ATOM     31  C   UNL A   1      29.193  29.477  22.597  1.00  0.00     0.106 C 
ATOM     32  C   UNL A   1      29.866  30.032  23.858  1.00  0.00     0.056 C 
ATOM     33  C   UNL A   1      29.329  30.427  21.406  1.00  0.00     0.056 C 
ATOM     34  C   UNL A   1      27.704  29.257  22.895  1.00  0.00     0.056 C 
ENDBRANCH  30  31
ENDBRANCH  28  30
ENDBRANCH  11  28
ENDBRANCH   4   7
ENDBRANCH   2   3
ENDBRANCH   1   2
BRANCH   1  35
ATOM     35  C   UNL A   1      34.331  30.780  27.668  1.00  0.00     0.118 C 
BRANCH  35  36
ATOM     36  N   UNL A   1      34.249  31.811  28.694  1.00  0.00    -0.352 N 
ATOM     37  C   UNL A   1      34.943  31.938  29.877  1.00  0.00     0.251 C 
ATOM     38  H   UNL A   1      33.597  32.527  28.514  1.00  0.00     0.163 HD
ATOM     39  O   UNL A   1      34.421  32.566  30.796  1.00  0.00    -0.269 OA
BRANCH  37  40
ATOM     40  C   UNL A   1      36.300  31.359  30.050  1.00  0.00     0.039 A 
ATOM     41  C   UNL A   1      37.424  31.979  29.499  1.00  0.00     0.014 A 
ATOM     42  C   UNL A   1      36.469  30.231  30.864  1.00  0.00     0.014 A 
ATOM     43  C   UNL A   1      38.688  31.411  29.664  1.00  0.00     0.010 A 
ATOM     44  C   UNL A   1      37.748  29.707  31.090  1.00  0.00     0.010 A 
ATOM     45  C   UNL A   1      38.871  30.274  30.469  1.00  0.00    -0.014 A 
BRANCH  45  46
ATOM     46  C   UNL A   1      40.239  29.714  30.669  1.00  0.00     0.031 A 
ATOM     47  C   UNL A   1      41.137  30.246  31.755  1.00  0.00     0.074 A 
ATOM     48  C   UNL A   1      40.665  28.702  29.885  1.00  0.00     0.049 A 
ATOM     49  N   UNL A   1      42.356  29.885  32.065  1.00  0.00    -0.248 NA
ATOM     50  C   UNL A   1      40.601  31.324  32.600  1.00  0.00     0.031 C 
ATOM     51  C   UNL A   1      39.885  28.102  28.802  1.00  0.00     0.029 A 
ATOM     52  N   UNL A   1      41.842  27.991  29.877  1.00  0.00    -0.354 N 
ATOM     53  C   UNL A   1      42.739  30.700  33.127  1.00  0.00     0.074 A 
ATOM     54  C   UNL A   1      41.638  31.601  33.381  1.00  0.00     0.031 C 
ATOM     55  C   UNL A   1      40.578  27.088  28.269  1.00  0.00     0.029 A 
ATOM     56  C   UNL A   1      41.890  27.012  28.908  1.00  0.00     0.049 A 
ATOM     57  H   UNL A   1      42.581  28.165  30.503  1.00  0.00     0.167 HD
ATOM     58  C   UNL A   1      43.896  30.681  33.832  1.00  0.00     0.034 A 
ATOM     59  C   UNL A   1      42.878  26.164  28.554  1.00  0.00     0.034 A 
ATOM     60  C   UNL A   1      44.972  29.755  33.580  1.00  0.00     0.049 A 
ATOM     61  C   UNL A   1      44.172  26.192  29.326  1.00  0.00     0.074 A 
ATOM     62  C   UNL A   1      46.167  29.633  34.269  1.00  0.00     0.029 A 
ATOM     63  N   UNL A   1      44.994  28.800  32.574  1.00  0.00    -0.354 N 
ATOM     64  N   UNL A   1      44.495  26.931  30.361  1.00  0.00    -0.248 NA
ATOM     65  C   UNL A   1      45.237  25.277  28.892  1.00  0.00     0.031 C 
ATOM     66  C   UNL A   1      46.940  28.666  33.631  1.00  0.00     0.029 A 
ATOM     67  C   UNL A   1      46.196  28.112  32.602  1.00  0.00     0.049 A 
ATOM     68  H   UNL A   1      44.262  28.635  31.935  1.00  0.00     0.167 HD
ATOM     69  C   UNL A   1      45.787  26.555  30.715  1.00  0.00     0.074 A 
ATOM     70  C   UNL A   1      46.178  25.504  29.800  1.00  0.00     0.031 C 
ATOM     71  C   UNL A   1      46.575  27.045  31.704  1.00  0.00     0.034 A 
BRANCH  58  72
ATOM     72  C   UNL A   1      44.084  31.670  34.961  1.00  0.00     0.023 A 
ATOM     73  C   UNL A   1      43.367  31.506  36.163  1.00  0.00     0.031 A 
ATOM     74  C   UNL A   1      44.835  32.845  34.794  1.00  0.00     0.131 A 
ATOM     75  C   UNL A   1      43.377  32.522  37.126  1.00  0.00     0.055 A 
ATOM     76  C   UNL A   1      44.885  33.832  35.781  1.00  0.00     0.041 A 
ATOM     77  F   UNL A   1      45.532  33.056  33.665  1.00  0.00    -0.206 F 
ATOM     78  C   UNL A   1      44.140  33.680  36.946  1.00  0.00     0.022 A 
BRANCH  75  79
ATOM     79  S   UNL A   1      42.333  32.422  38.607  1.00  0.00     0.124 S 
ATOM     80  O   UNL A   1      43.091  31.498  39.447  1.00  0.00    -0.237 OA
ATOM     81  O   UNL A   1      42.317  33.809  39.062  1.00  0.00    -0.237 OA
ATOM     82  O   UNL A   1      41.063  31.905  38.108  1.00  0.00    -0.744 OA
ENDBRANCH  75  79
ENDBRANCH  58  72
BRANCH  59  83
ATOM     83  C   UNL A   1      42.644  25.204  27.432  1.00  0.00     0.023 A 
ATOM     84  C   UNL A   1      42.049  23.950  27.667  1.00  0.00     0.031 A 
ATOM     85  C   UNL A   1      43.117  25.473  26.137  1.00  0.00     0.131 A 
ATOM     86  C   UNL A   1      42.028  22.984  26.654  1.00  0.00     0.055 A 
ATOM     87  C   UNL A   1      43.016  24.537  25.105  1.00  0.00     0.041 A 
ATOM     88  F   UNL A   1      43.702  26.648  25.860  1.00  0.00    -0.206 F 
ATOM     89  C   UNL A   1      42.489  23.275  25.368  1.00  0.00     0.022 A 
BRANCH  86  90
ATOM     90  S   UNL A   1      41.545  21.271  27.013  1.00  0.00     0.124 S 
ATOM     91  O   UNL A   1      42.417  20.936  28.134  1.00  0.00    -0.237 OA
ATOM     92  O   UNL A   1      40.129  21.424  27.338  1.00  0.00    -0.237 OA
ATOM     93  O   UNL A   1      41.821  20.566  25.766  1.00  0.00    -0.744 OA
ENDBRANCH  86  90
ENDBRANCH  59  83
BRANCH  71  94
ATOM     94  C   UNL A   1      47.957  26.463  31.896  1.00  0.00     0.023 A 
ATOM     95  C   UNL A   1      48.158  25.434  32.838  1.00  0.00     0.031 A 
ATOM     96  C   UNL A   1      49.088  27.045  31.300  1.00  0.00     0.131 A 
ATOM     97  C   UNL A   1      49.458  25.068  33.205  1.00  0.00     0.055 A 
ATOM     98  C   UNL A   1      50.382  26.633  31.624  1.00  0.00     0.041 A 
ATOM     99  F   UNL A   1      48.953  28.036  30.403  1.00  0.00    -0.206 F 
ATOM    100  C   UNL A   1      50.571  25.654  32.596  1.00  0.00     0.022 A 
BRANCH  97 101
ATOM    101  S   UNL A   1      49.753  23.902  34.565  1.00  0.00     0.124 S 
ATOM    102  O   UNL A   1      48.672  22.936  34.375  1.00  0.00    -0.237 OA
ATOM    103  O   UNL A   1      51.091  23.407  34.258  1.00  0.00    -0.237 OA
ATOM    104  O   UNL A   1      49.645  24.725  35.765  1.00  0.00    -0.744 OA
ENDBRANCH  97 101
ENDBRANCH  71  94
ENDBRANCH  45  46
ENDBRANCH  37  40
ENDBRANCH  35  36
ENDBRANCH   1  35
TORSDOF 19
ENDMDL
