MODEL 1
REMARK VINA RESULT:     -11.9      0.000      0.000
REMARK SMILES Cc1[nH]c2ccc(Br)cc2c(=O)c1CCC(=O)NCCCNC(=O)c1ccc(-c2c3nc(c(-c4cc(S(=O)(=O)[O-])ccc4F)c4ccc([nH]4)c(-c4cc(S(=O)(=O)[O-])ccc4F)c4nc(c(-c5cc(S(=O)(=O)[O-])ccc5F)c5ccc2[nH]5)C=C4)C=C3)cc1
REMARK SMILES IDX 20 1 19 2 18 3 16 4 17 5 15 7 14 8 13 9 1 10 2 11 3 12 4 13
REMARK SMILES IDX 11 15 5 16 10 17 12 18 6 19 9 20 7 21 8 22 21 23 22 24 23 25
REMARK SMILES IDX 24 27 25 28 26 29 87 30 27 31 86 32 28 33 29 34 30 35 80 36
REMARK SMILES IDX 31 37 85 38 79 39 81 40 32 41 84 42 78 43 77 44 33 46 65 47
REMARK SMILES IDX 45 48 64 49 46 50 49 51 63 52 82 53 47 54 48 55 62 57 83 58
REMARK SMILES IDX 50 59 34 60 35 61 43 62 36 63 42 64 44 65 41 66 37 67 38 68
REMARK SMILES IDX 39 69 40 70 66 71 67 72 75 73 68 74 74 75 76 76 73 77 69 78
REMARK SMILES IDX 70 79 71 80 72 81 51 82 52 83 60 84 53 85 59 86 61 87 58 88
REMARK SMILES IDX 54 89 55 90 56 91 57 92
REMARK H PARENT 18 6 3 14 22 26 81 45 49 56
REMARK Flexibility Score: inf
ROOT
ATOM      1  C   UNL A   1      31.678  28.242  26.499  1.00  0.00     0.042 C 
ENDROOT
BRANCH   1   2
ATOM      2  C   UNL A   1      32.354  26.883  26.279  1.00  0.00     0.117 C 
BRANCH   2   3
ATOM      3  N   UNL A   1      31.595  25.789  26.884  1.00  0.00    -0.356 N 
ATOM      4  C   UNL A   1      31.323  24.521  26.461  1.00  0.00     0.220 C 
ATOM      5  O   UNL A   1      30.630  23.802  27.186  1.00  0.00    -0.275 OA
ATOM      6  H   UNL A   1      31.206  26.010  27.761  1.00  0.00     0.163 HD
BRANCH   4   7
ATOM      7  C   UNL A   1      31.908  23.965  25.175  1.00  0.00     0.105 C 
BRANCH   7   8
ATOM      8  C   UNL A   1      30.919  23.960  24.001  1.00  0.00     0.051 C 
BRANCH   8   9
ATOM      9  C   UNL A   1      30.914  25.294  23.305  1.00  0.00     0.020 A 
ATOM     10  C   UNL A   1      32.716  24.721  21.674  1.00  0.00     0.064 C 
ATOM     11  C   UNL A   1      31.773  25.691  22.339  1.00  0.00     0.019 A 
ATOM     12  N   UNL A   1      31.841  26.999  21.909  1.00  0.00    -0.358 N 
ATOM     13  C   UNL A   1      30.946  27.976  22.350  1.00  0.00     0.050 A 
ATOM     14  H   UNL A   1      32.545  27.254  21.271  1.00  0.00     0.166 HD
ATOM     15  C   UNL A   1      29.861  26.257  23.752  1.00  0.00     0.192 A 
ATOM     16  C   UNL A   1      31.090  29.313  21.989  1.00  0.00     0.028 A 
ATOM     17  C   UNL A   1      29.892  27.624  23.202  1.00  0.00     0.047 A 
ATOM     18  O   UNL A   1      29.014  25.942  24.582  1.00  0.00    -0.289 OA
ATOM     19  C   UNL A   1      30.115  30.239  22.368  1.00  0.00     0.018 A 
ATOM     20  C   UNL A   1      28.908  28.540  23.572  1.00  0.00     0.030 A 
ATOM     21  C   UNL A   1      28.999  29.837  23.101  1.00  0.00     0.018 A 
ATOM     22  Br  UNL A   1      27.554  31.014  23.387  1.00  0.00    -0.051 Br
ENDBRANCH   8   9
ENDBRANCH   7   8
ENDBRANCH   4   7
ENDBRANCH   2   3
ENDBRANCH   1   2
BRANCH   1  23
ATOM     23  C   UNL A   1      32.166  29.397  25.619  1.00  0.00     0.118 C 
BRANCH  23  24
ATOM     24  N   UNL A   1      32.009  30.707  26.241  1.00  0.00    -0.352 N 
ATOM     25  C   UNL A   1      32.781  31.485  27.075  1.00  0.00     0.251 C 
ATOM     26  H   UNL A   1      31.152  31.133  26.011  1.00  0.00     0.163 HD
ATOM     27  O   UNL A   1      32.254  32.526  27.478  1.00  0.00    -0.269 OA
BRANCH  25  28
ATOM     28  C   UNL A   1      34.163  31.161  27.555  1.00  0.00     0.039 A 
ATOM     29  C   UNL A   1      34.688  29.881  27.687  1.00  0.00     0.014 A 
ATOM     30  C   UNL A   1      35.036  32.236  27.810  1.00  0.00     0.014 A 
ATOM     31  C   UNL A   1      35.981  29.688  28.219  1.00  0.00     0.010 A 
ATOM     32  C   UNL A   1      36.354  32.037  28.275  1.00  0.00     0.010 A 
ATOM     33  C   UNL A   1      36.829  30.757  28.573  1.00  0.00    -0.014 A 
BRANCH  33  34
ATOM     34  C   UNL A   1      38.152  30.514  29.268  1.00  0.00     0.031 A 
ATOM     35  C   UNL A   1      38.443  31.049  30.666  1.00  0.00     0.074 A 
ATOM     36  C   UNL A   1      39.097  29.721  28.712  1.00  0.00     0.049 A 
ATOM     37  N   UNL A   1      39.433  30.749  31.479  1.00  0.00    -0.248 NA
ATOM     38  C   UNL A   1      37.503  32.021  31.240  1.00  0.00     0.031 C 
ATOM     39  C   UNL A   1      39.012  29.123  27.383  1.00  0.00     0.029 A 
ATOM     40  N   UNL A   1      40.303  29.260  29.203  1.00  0.00    -0.354 N 
ATOM     41  C   UNL A   1      39.192  31.439  32.666  1.00  0.00     0.074 A 
ATOM     42  C   UNL A   1      37.986  32.206  32.461  1.00  0.00     0.031 C 
ATOM     43  C   UNL A   1      40.073  28.327  27.190  1.00  0.00     0.029 A 
ATOM     44  C   UNL A   1      40.967  28.410  28.346  1.00  0.00     0.049 A 
ATOM     45  H   UNL A   1      40.656  29.517  30.086  1.00  0.00     0.167 HD
ATOM     46  C   UNL A   1      39.897  31.452  33.824  1.00  0.00     0.034 A 
ATOM     47  C   UNL A   1      42.158  27.776  28.446  1.00  0.00     0.034 A 
ATOM     48  C   UNL A   1      41.160  30.797  34.033  1.00  0.00     0.049 A 
ATOM     49  C   UNL A   1      42.996  27.914  29.695  1.00  0.00     0.074 A 
ATOM     50  C   UNL A   1      41.957  30.827  35.167  1.00  0.00     0.029 A 
ATOM     51  N   UNL A   1      41.832  30.029  33.099  1.00  0.00    -0.354 N 
ATOM     52  N   UNL A   1      42.708  28.522  30.820  1.00  0.00    -0.248 NA
ATOM     53  C   UNL A   1      44.327  27.285  29.687  1.00  0.00     0.031 C 
ATOM     54  C   UNL A   1      43.141  30.143  34.893  1.00  0.00     0.029 A 
ATOM     55  C   UNL A   1      43.052  29.620  33.615  1.00  0.00     0.049 A 
ATOM     56  H   UNL A   1      41.493  29.807  32.201  1.00  0.00     0.167 HD
ATOM     57  C   UNL A   1      43.815  28.345  31.649  1.00  0.00     0.074 A 
ATOM     58  C   UNL A   1      44.764  27.541  30.914  1.00  0.00     0.031 C 
ATOM     59  C   UNL A   1      44.018  28.820  32.903  1.00  0.00     0.034 A 
BRANCH  46  60
ATOM     60  C   UNL A   1      39.332  32.219  34.996  1.00  0.00     0.023 A 
ATOM     61  C   UNL A   1      39.778  33.524  35.275  1.00  0.00     0.031 A 
ATOM     62  C   UNL A   1      38.475  31.592  35.917  1.00  0.00     0.131 A 
ATOM     63  C   UNL A   1      39.397  34.144  36.471  1.00  0.00     0.055 A 
ATOM     64  C   UNL A   1      38.077  32.226  37.094  1.00  0.00     0.041 A 
ATOM     65  F   UNL A   1      38.020  30.350  35.686  1.00  0.00    -0.206 F 
ATOM     66  C   UNL A   1      38.550  33.503  37.382  1.00  0.00     0.022 A 
BRANCH  63  67
ATOM     67  S   UNL A   1      40.030  35.783  36.921  1.00  0.00     0.124 S 
ATOM     68  O   UNL A   1      39.629  36.585  35.766  1.00  0.00    -0.237 OA
ATOM     69  O   UNL A   1      39.307  36.064  38.157  1.00  0.00    -0.237 OA
ATOM     70  O   UNL A   1      41.468  35.576  37.061  1.00  0.00    -0.744 OA
ENDBRANCH  63  67
ENDBRANCH  46  60
BRANCH  47  71
ATOM     71  C   UNL A   1      42.625  26.933  27.301  1.00  0.00     0.023 A 
ATOM     72  C   UNL A   1      42.194  25.601  27.175  1.00  0.00     0.031 A 
ATOM     73  C   UNL A   1      43.579  27.408  26.385  1.00  0.00     0.131 A 
ATOM     74  C   UNL A   1      42.788  24.761  26.226  1.00  0.00     0.055 A 
ATOM     75  C   UNL A   1      44.103  26.592  25.380  1.00  0.00     0.041 A 
ATOM     76  F   UNL A   1      44.019  28.673  26.460  1.00  0.00    -0.206 F 
ATOM     77  C   UNL A   1      43.728  25.253  25.315  1.00  0.00     0.022 A 
BRANCH  74  78
ATOM     78  S   UNL A   1      42.492  22.972  26.265  1.00  0.00     0.124 S 
ATOM     79  O   UNL A   1      42.971  22.553  24.956  1.00  0.00    -0.237 OA
ATOM     80  O   UNL A   1      43.311  22.557  27.403  1.00  0.00    -0.237 OA
ATOM     81  O   UNL A   1      41.049  22.867  26.476  1.00  0.00    -0.744 OA
ENDBRANCH  74  78
ENDBRANCH  47  71
BRANCH  59  82
ATOM     82  C   UNL A   1      45.328  28.533  33.601  1.00  0.00     0.023 A 
ATOM     83  C   UNL A   1      45.451  27.423  34.461  1.00  0.00     0.031 A 
ATOM     84  C   UNL A   1      46.399  29.443  33.540  1.00  0.00     0.131 A 
ATOM     85  C   UNL A   1      46.599  27.273  35.252  1.00  0.00     0.055 A 
ATOM     86  C   UNL A   1      47.558  29.266  34.299  1.00  0.00     0.041 A 
ATOM     87  F   UNL A   1      46.329  30.524  32.747  1.00  0.00    -0.206 F 
ATOM     88  C   UNL A   1      47.656  28.186  35.170  1.00  0.00     0.022 A 
BRANCH  85  89
ATOM     89  S   UNL A   1      46.732  25.939  36.476  1.00  0.00     0.124 S 
ATOM     90  O   UNL A   1      47.751  25.081  35.875  1.00  0.00    -0.237 OA
ATOM     91  O   UNL A   1      47.154  26.661  37.674  1.00  0.00    -0.237 OA
ATOM     92  O   UNL A   1      45.390  25.371  36.526  1.00  0.00    -0.744 OA
ENDBRANCH  85  89
ENDBRANCH  59  82
ENDBRANCH  33  34
ENDBRANCH  25  28
ENDBRANCH  23  24
ENDBRANCH   1  23
TORSDOF 15
ENDMDL
MODEL 2
REMARK VINA RESULT:     -11.8      1.797      2.179
REMARK SMILES Cc1[nH]c2ccc(Br)cc2c(=O)c1CCC(=O)NCCCNC(=O)c1ccc(-c2c3nc(c(-c4cc(S(=O)(=O)[O-])ccc4F)c4ccc([nH]4)c(-c4cc(S(=O)(=O)[O-])ccc4F)c4nc(c(-c5cc(S(=O)(=O)[O-])ccc5F)c5ccc2[nH]5)C=C4)C=C3)cc1
REMARK SMILES IDX 20 1 19 2 18 3 16 4 17 5 15 7 14 8 13 9 1 10 2 11 3 12 4 13
REMARK SMILES IDX 11 15 5 16 10 17 12 18 6 19 9 20 7 21 8 22 21 23 22 24 23 25
REMARK SMILES IDX 24 27 25 28 26 29 87 30 27 31 86 32 28 33 29 34 30 35 80 36
REMARK SMILES IDX 31 37 85 38 79 39 81 40 32 41 84 42 78 43 77 44 33 46 65 47
REMARK SMILES IDX 45 48 64 49 46 50 49 51 63 52 82 53 47 54 48 55 62 57 83 58
REMARK SMILES IDX 50 59 34 60 35 61 43 62 36 63 42 64 44 65 41 66 37 67 38 68
REMARK SMILES IDX 39 69 40 70 66 71 67 72 75 73 68 74 74 75 76 76 73 77 69 78
REMARK SMILES IDX 70 79 71 80 72 81 51 82 52 83 60 84 53 85 59 86 61 87 58 88
REMARK SMILES IDX 54 89 55 90 56 91 57 92
REMARK H PARENT 18 6 3 14 22 26 81 45 49 56
REMARK Flexibility Score: inf
ROOT
ATOM      1  C   UNL A   1      32.005  29.985  25.387  1.00  0.00     0.042 C 
ENDROOT
BRANCH   1   2
ATOM      2  C   UNL A   1      33.292  29.205  25.089  1.00  0.00     0.117 C 
BRANCH   2   3
ATOM      3  N   UNL A   1      33.334  27.927  25.799  1.00  0.00    -0.356 N 
ATOM      4  C   UNL A   1      33.456  26.641  25.359  1.00  0.00     0.220 C 
ATOM      5  O   UNL A   1      33.447  25.737  26.200  1.00  0.00    -0.275 OA
ATOM      6  H   UNL A   1      33.259  28.011  26.776  1.00  0.00     0.163 HD
BRANCH   4   7
ATOM      7  C   UNL A   1      33.672  26.314  23.893  1.00  0.00     0.105 C 
BRANCH   7   8
ATOM      8  C   UNL A   1      32.503  25.551  23.255  1.00  0.00     0.051 C 
BRANCH   8   9
ATOM      9  C   UNL A   1      31.207  26.284  23.474  1.00  0.00     0.020 A 
ATOM     10  C   UNL A   1      30.298  24.672  25.151  1.00  0.00     0.064 C 
ATOM     11  C   UNL A   1      30.170  25.860  24.232  1.00  0.00     0.019 A 
ATOM     12  N   UNL A   1      28.939  26.480  24.205  1.00  0.00    -0.358 N 
ATOM     13  C   UNL A   1      28.715  27.661  23.494  1.00  0.00     0.050 A 
ATOM     14  H   UNL A   1      28.193  26.077  24.704  1.00  0.00     0.166 HD
ATOM     15  C   UNL A   1      31.073  27.595  22.766  1.00  0.00     0.192 A 
ATOM     16  C   UNL A   1      27.443  28.218  23.392  1.00  0.00     0.028 A 
ATOM     17  C   UNL A   1      29.777  28.292  22.835  1.00  0.00     0.047 A 
ATOM     18  O   UNL A   1      31.996  28.067  22.110  1.00  0.00    -0.289 OA
ATOM     19  C   UNL A   1      27.281  29.453  22.757  1.00  0.00     0.018 A 
ATOM     20  C   UNL A   1      29.624  29.530  22.213  1.00  0.00     0.030 A 
ATOM     21  C   UNL A   1      28.379  30.131  22.230  1.00  0.00     0.018 A 
ATOM     22  Br  UNL A   1      28.216  31.906  21.614  1.00  0.00    -0.051 Br
ENDBRANCH   8   9
ENDBRANCH   7   8
ENDBRANCH   4   7
ENDBRANCH   2   3
ENDBRANCH   1   2
BRANCH   1  23
ATOM     23  C   UNL A   1      31.811  30.452  26.833  1.00  0.00     0.118 C 
BRANCH  23  24
ATOM     24  N   UNL A   1      32.113  31.865  27.032  1.00  0.00    -0.352 N 
ATOM     25  C   UNL A   1      33.187  32.568  27.534  1.00  0.00     0.251 C 
ATOM     26  H   UNL A   1      31.380  32.453  26.739  1.00  0.00     0.163 HD
ATOM     27  O   UNL A   1      33.031  33.789  27.632  1.00  0.00    -0.269 OA
BRANCH  25  28
ATOM     28  C   UNL A   1      34.485  31.983  27.999  1.00  0.00     0.039 A 
ATOM     29  C   UNL A   1      34.721  30.632  28.228  1.00  0.00     0.014 A 
ATOM     30  C   UNL A   1      35.585  32.852  28.131  1.00  0.00     0.014 A 
ATOM     31  C   UNL A   1      35.964  30.197  28.736  1.00  0.00     0.010 A 
ATOM     32  C   UNL A   1      36.848  32.401  28.572  1.00  0.00     0.010 A 
ATOM     33  C   UNL A   1      37.044  31.075  28.967  1.00  0.00    -0.014 A 
BRANCH  33  34
ATOM     34  C   UNL A   1      38.313  30.598  29.641  1.00  0.00     0.031 A 
ATOM     35  C   UNL A   1      38.713  31.062  31.037  1.00  0.00     0.074 A 
ATOM     36  C   UNL A   1      39.096  29.656  29.066  1.00  0.00     0.049 A 
ATOM     37  N   UNL A   1      39.646  30.587  31.833  1.00  0.00    -0.248 NA
ATOM     38  C   UNL A   1      37.966  32.180  31.631  1.00  0.00     0.031 C 
ATOM     39  C   UNL A   1      38.889  29.093  27.735  1.00  0.00     0.029 A 
ATOM     40  N   UNL A   1      40.210  28.988  29.536  1.00  0.00    -0.354 N 
ATOM     41  C   UNL A   1      39.547  31.299  33.027  1.00  0.00     0.074 A 
ATOM     42  C   UNL A   1      38.492  32.268  32.845  1.00  0.00     0.031 C 
ATOM     43  C   UNL A   1      39.791  28.125  27.522  1.00  0.00     0.029 A 
ATOM     44  C   UNL A   1      40.703  28.041  28.664  1.00  0.00     0.049 A 
ATOM     45  H   UNL A   1      40.615  29.171  30.414  1.00  0.00     0.167 HD
ATOM     46  C   UNL A   1      40.259  31.179  34.174  1.00  0.00     0.034 A 
ATOM     47  C   UNL A   1      41.766  27.208  28.742  1.00  0.00     0.034 A 
ATOM     48  C   UNL A   1      41.392  30.312  34.361  1.00  0.00     0.049 A 
ATOM     49  C   UNL A   1      42.632  27.186  29.979  1.00  0.00     0.074 A 
ATOM     50  C   UNL A   1      42.197  30.192  35.483  1.00  0.00     0.029 A 
ATOM     51  N   UNL A   1      41.905  29.446  33.412  1.00  0.00    -0.354 N 
ATOM     52  N   UNL A   1      42.471  27.827  31.111  1.00  0.00    -0.248 NA
ATOM     53  C   UNL A   1      43.832  26.334  29.947  1.00  0.00     0.031 C 
ATOM     54  C   UNL A   1      43.238  29.313  35.186  1.00  0.00     0.029 A 
ATOM     55  C   UNL A   1      43.041  28.824  33.907  1.00  0.00     0.049 A 
ATOM     56  H   UNL A   1      41.520  29.294  32.519  1.00  0.00     0.167 HD
ATOM     57  C   UNL A   1      43.541  27.451  31.922  1.00  0.00     0.074 A 
ATOM     58  C   UNL A   1      44.325  26.500  31.169  1.00  0.00     0.031 C 
ATOM     59  C   UNL A   1      43.842  27.874  33.176  1.00  0.00     0.034 A 
BRANCH  46  60
ATOM     60  C   UNL A   1      39.855  32.024  35.359  1.00  0.00     0.023 A 
ATOM     61  C   UNL A   1      39.006  31.500  36.351  1.00  0.00     0.031 A 
ATOM     62  C   UNL A   1      40.184  33.390  35.411  1.00  0.00     0.131 A 
ATOM     63  C   UNL A   1      38.481  32.350  37.332  1.00  0.00     0.055 A 
ATOM     64  C   UNL A   1      39.679  34.226  36.407  1.00  0.00     0.041 A 
ATOM     65  F   UNL A   1      40.996  33.930  34.488  1.00  0.00    -0.206 F 
ATOM     66  C   UNL A   1      38.812  33.710  37.366  1.00  0.00     0.022 A 
BRANCH  63  67
ATOM     67  S   UNL A   1      37.303  31.740  38.569  1.00  0.00     0.124 S 
ATOM     68  O   UNL A   1      36.201  32.689  38.423  1.00  0.00    -0.237 OA
ATOM     69  O   UNL A   1      37.029  30.388  38.092  1.00  0.00    -0.237 OA
ATOM     70  O   UNL A   1      38.036  31.831  39.827  1.00  0.00    -0.744 OA
ENDBRANCH  63  67
ENDBRANCH  46  60
BRANCH  47  71
ATOM     71  C   UNL A   1      42.061  26.305  27.586  1.00  0.00     0.023 A 
ATOM     72  C   UNL A   1      41.531  25.003  27.544  1.00  0.00     0.031 A 
ATOM     73  C   UNL A   1      42.951  26.689  26.568  1.00  0.00     0.131 A 
ATOM     74  C   UNL A   1      41.973  24.100  26.570  1.00  0.00     0.055 A 
ATOM     75  C   UNL A   1      43.319  25.812  25.545  1.00  0.00     0.041 A 
ATOM     76  F   UNL A   1      43.480  27.922  26.561  1.00  0.00    -0.206 F 
ATOM     77  C   UNL A   1      42.850  24.501  25.559  1.00  0.00     0.022 A 
BRANCH  74  78
ATOM     78  S   UNL A   1      41.563  22.338  26.695  1.00  0.00     0.124 S 
ATOM     79  O   UNL A   1      41.976  21.834  25.394  1.00  0.00    -0.237 OA
ATOM     80  O   UNL A   1      42.384  21.918  27.829  1.00  0.00    -0.237 OA
ATOM     81  O   UNL A   1      40.122  22.337  26.947  1.00  0.00    -0.744 OA
ENDBRANCH  74  78
ENDBRANCH  47  71
BRANCH  59  82
ATOM     82  C   UNL A   1      45.092  27.356  33.852  1.00  0.00     0.023 A 
ATOM     83  C   UNL A   1      45.034  26.218  34.683  1.00  0.00     0.031 A 
ATOM     84  C   UNL A   1      46.297  28.078  33.802  1.00  0.00     0.131 A 
ATOM     85  C   UNL A   1      46.148  25.861  35.457  1.00  0.00     0.055 A 
ATOM     86  C   UNL A   1      47.417  27.693  34.543  1.00  0.00     0.041 A 
ATOM     87  F   UNL A   1      46.402  29.177  33.038  1.00  0.00    -0.206 F 
ATOM     88  C   UNL A   1      47.341  26.588  35.386  1.00  0.00     0.022 A 
BRANCH  85  89
ATOM     89  S   UNL A   1      46.067  24.491  36.646  1.00  0.00     0.124 S 
ATOM     90  O   UNL A   1      45.546  23.405  35.819  1.00  0.00    -0.237 OA
ATOM     91  O   UNL A   1      47.463  24.351  37.051  1.00  0.00    -0.237 OA
ATOM     92  O   UNL A   1      45.160  24.975  37.680  1.00  0.00    -0.744 OA
ENDBRANCH  85  89
ENDBRANCH  59  82
ENDBRANCH  33  34
ENDBRANCH  25  28
ENDBRANCH  23  24
ENDBRANCH   1  23
TORSDOF 15
ENDMDL
MODEL 3
REMARK VINA RESULT:     -11.7      5.398      7.611
REMARK SMILES Cc1[nH]c2ccc(Br)cc2c(=O)c1CCC(=O)NCCCNC(=O)c1ccc(-c2c3nc(c(-c4cc(S(=O)(=O)[O-])ccc4F)c4ccc([nH]4)c(-c4cc(S(=O)(=O)[O-])ccc4F)c4nc(c(-c5cc(S(=O)(=O)[O-])ccc5F)c5ccc2[nH]5)C=C4)C=C3)cc1
REMARK SMILES IDX 20 1 19 2 18 3 16 4 17 5 15 7 14 8 13 9 1 10 2 11 3 12 4 13
REMARK SMILES IDX 11 15 5 16 10 17 12 18 6 19 9 20 7 21 8 22 21 23 22 24 23 25
REMARK SMILES IDX 24 27 25 28 26 29 87 30 27 31 86 32 28 33 29 34 30 35 80 36
REMARK SMILES IDX 31 37 85 38 79 39 81 40 32 41 84 42 78 43 77 44 33 46 65 47
REMARK SMILES IDX 45 48 64 49 46 50 49 51 63 52 82 53 47 54 48 55 62 57 83 58
REMARK SMILES IDX 50 59 34 60 35 61 43 62 36 63 42 64 44 65 41 66 37 67 38 68
REMARK SMILES IDX 39 69 40 70 66 71 67 72 75 73 68 74 74 75 76 76 73 77 69 78
REMARK SMILES IDX 70 79 71 80 72 81 51 82 52 83 60 84 53 85 59 86 61 87 58 88
REMARK SMILES IDX 54 89 55 90 56 91 57 92
REMARK H PARENT 18 6 3 14 22 26 81 45 49 56
REMARK Flexibility Score: inf
ROOT
ATOM      1  C   UNL A   1      35.456  22.340  24.347  1.00  0.00     0.042 C 
ENDROOT
BRANCH   1   2
ATOM      2  C   UNL A   1      35.059  23.813  24.511  1.00  0.00     0.117 C 
BRANCH   2   3
ATOM      3  N   UNL A   1      34.769  24.448  23.226  1.00  0.00    -0.356 N 
ATOM      4  C   UNL A   1      33.645  25.044  22.734  1.00  0.00     0.220 C 
ATOM      5  O   UNL A   1      33.681  25.493  21.584  1.00  0.00    -0.275 OA
ATOM      6  H   UNL A   1      35.528  24.444  22.598  1.00  0.00     0.163 HD
BRANCH   4   7
ATOM      7  C   UNL A   1      32.400  25.227  23.582  1.00  0.00     0.105 C 
BRANCH   7   8
ATOM      8  C   UNL A   1      31.286  24.220  23.264  1.00  0.00     0.051 C 
BRANCH   8   9
ATOM      9  C   UNL A   1      31.498  22.937  24.021  1.00  0.00     0.020 A 
ATOM     10  C   UNL A   1      30.459  23.735  26.147  1.00  0.00     0.064 C 
ATOM     11  C   UNL A   1      31.234  22.731  25.331  1.00  0.00     0.019 A 
ATOM     12  N   UNL A   1      31.660  21.602  25.998  1.00  0.00    -0.358 N 
ATOM     13  C   UNL A   1      32.280  20.538  25.340  1.00  0.00     0.050 A 
ATOM     14  H   UNL A   1      31.522  21.544  26.971  1.00  0.00     0.166 HD
ATOM     15  C   UNL A   1      32.068  21.802  23.230  1.00  0.00     0.192 A 
ATOM     16  C   UNL A   1      32.797  19.451  26.041  1.00  0.00     0.028 A 
ATOM     17  C   UNL A   1      32.422  20.565  23.948  1.00  0.00     0.047 A 
ATOM     18  O   UNL A   1      32.276  21.901  22.025  1.00  0.00    -0.289 OA
ATOM     19  C   UNL A   1      33.317  18.362  25.337  1.00  0.00     0.018 A 
ATOM     20  C   UNL A   1      32.927  19.476  23.240  1.00  0.00     0.030 A 
ATOM     21  C   UNL A   1      33.321  18.352  23.943  1.00  0.00     0.018 A 
ATOM     22  Br  UNL A   1      33.770  16.789  22.988  1.00  0.00    -0.051 Br
ENDBRANCH   8   9
ENDBRANCH   7   8
ENDBRANCH   4   7
ENDBRANCH   2   3
ENDBRANCH   1   2
BRANCH   1  23
ATOM     23  C   UNL A   1      35.812  21.583  25.630  1.00  0.00     0.118 C 
BRANCH  23  24
ATOM     24  N   UNL A   1      37.052  20.822  25.529  1.00  0.00    -0.352 N 
ATOM     25  C   UNL A   1      38.389  21.116  25.688  1.00  0.00     0.251 C 
ATOM     26  H   UNL A   1      36.898  19.880  25.292  1.00  0.00     0.163 HD
ATOM     27  O   UNL A   1      39.175  20.204  25.419  1.00  0.00    -0.269 OA
BRANCH  25  28
ATOM     28  C   UNL A   1      38.957  22.436  26.115  1.00  0.00     0.039 A 
ATOM     29  C   UNL A   1      38.274  23.646  26.102  1.00  0.00     0.014 A 
ATOM     30  C   UNL A   1      40.257  22.444  26.658  1.00  0.00     0.014 A 
ATOM     31  C   UNL A   1      38.931  24.843  26.458  1.00  0.00     0.010 A 
ATOM     32  C   UNL A   1      40.885  23.635  27.079  1.00  0.00     0.010 A 
ATOM     33  C   UNL A   1      40.267  24.877  26.909  1.00  0.00    -0.014 A 
BRANCH  33  34
ATOM     34  C   UNL A   1      40.983  26.190  27.150  1.00  0.00     0.031 A 
ATOM     35  C   UNL A   1      40.362  27.312  27.974  1.00  0.00     0.074 A 
ATOM     36  C   UNL A   1      42.253  26.379  26.725  1.00  0.00     0.049 A 
ATOM     37  N   UNL A   1      40.926  28.401  28.450  1.00  0.00    -0.248 NA
ATOM     38  C   UNL A   1      38.941  27.197  28.333  1.00  0.00     0.031 C 
ATOM     39  C   UNL A   1      43.016  25.432  25.917  1.00  0.00     0.029 A 
ATOM     40  N   UNL A   1      43.137  27.420  26.932  1.00  0.00    -0.354 N 
ATOM     41  C   UNL A   1      39.954  29.050  29.208  1.00  0.00     0.074 A 
ATOM     42  C   UNL A   1      38.749  28.261  29.101  1.00  0.00     0.031 C 
ATOM     43  C   UNL A   1      44.263  25.896  25.755  1.00  0.00     0.029 A 
ATOM     44  C   UNL A   1      44.381  27.216  26.376  1.00  0.00     0.049 A 
ATOM     45  H   UNL A   1      42.899  28.235  27.431  1.00  0.00     0.167 HD
ATOM     46  C   UNL A   1      40.031  30.198  29.926  1.00  0.00     0.034 A 
ATOM     47  C   UNL A   1      45.492  27.987  26.342  1.00  0.00     0.034 A 
ATOM     48  C   UNL A   1      41.171  31.075  29.967  1.00  0.00     0.049 A 
ATOM     49  C   UNL A   1      45.515  29.328  27.036  1.00  0.00     0.074 A 
ATOM     50  C   UNL A   1      41.289  32.288  30.627  1.00  0.00     0.029 A 
ATOM     51  N   UNL A   1      42.370  30.865  29.308  1.00  0.00    -0.354 N 
ATOM     52  N   UNL A   1      44.600  29.881  27.794  1.00  0.00    -0.248 NA
ATOM     53  C   UNL A   1      46.719  30.158  26.862  1.00  0.00     0.031 C 
ATOM     54  C   UNL A   1      42.526  32.846  30.307  1.00  0.00     0.029 A 
ATOM     55  C   UNL A   1      43.213  31.948  29.509  1.00  0.00     0.049 A 
ATOM     56  H   UNL A   1      42.590  30.067  28.776  1.00  0.00     0.167 HD
ATOM     57  C   UNL A   1      45.119  31.113  28.190  1.00  0.00     0.074 A 
ATOM     58  C   UNL A   1      46.443  31.213  27.619  1.00  0.00     0.031 C 
ATOM     59  C   UNL A   1      44.536  32.074  28.950  1.00  0.00     0.034 A 
BRANCH  46  60
ATOM     60  C   UNL A   1      38.833  30.611  30.746  1.00  0.00     0.023 A 
ATOM     61  C   UNL A   1      37.886  31.510  30.222  1.00  0.00     0.031 A 
ATOM     62  C   UNL A   1      38.724  30.234  32.096  1.00  0.00     0.131 A 
ATOM     63  C   UNL A   1      36.894  32.036  31.058  1.00  0.00     0.055 A 
ATOM     64  C   UNL A   1      37.717  30.741  32.918  1.00  0.00     0.041 A 
ATOM     65  F   UNL A   1      39.602  29.373  32.635  1.00  0.00    -0.206 F 
ATOM     66  C   UNL A   1      36.804  31.658  32.403  1.00  0.00     0.022 A 
BRANCH  63  67
ATOM     67  S   UNL A   1      35.717  33.276  30.453  1.00  0.00     0.124 S 
ATOM     68  O   UNL A   1      35.832  34.318  31.471  1.00  0.00    -0.237 OA
ATOM     69  O   UNL A   1      36.273  33.616  29.147  1.00  0.00    -0.237 OA
ATOM     70  O   UNL A   1      34.442  32.567  30.432  1.00  0.00    -0.744 OA
ENDBRANCH  63  67
ENDBRANCH  46  60
BRANCH  47  71
ATOM     71  C   UNL A   1      46.697  27.484  25.611  1.00  0.00     0.023 A 
ATOM     72  C   UNL A   1      47.005  27.966  24.327  1.00  0.00     0.031 A 
ATOM     73  C   UNL A   1      47.491  26.451  26.136  1.00  0.00     0.131 A 
ATOM     74  C   UNL A   1      48.008  27.349  23.570  1.00  0.00     0.055 A 
ATOM     75  C   UNL A   1      48.550  25.898  25.412  1.00  0.00     0.041 A 
ATOM     76  F   UNL A   1      47.241  25.959  27.359  1.00  0.00    -0.206 F 
ATOM     77  C   UNL A   1      48.795  26.329  24.111  1.00  0.00     0.022 A 
BRANCH  74  78
ATOM     78  S   UNL A   1      48.196  27.728  21.806  1.00  0.00     0.124 S 
ATOM     79  O   UNL A   1      46.916  28.341  21.486  1.00  0.00    -0.237 OA
ATOM     80  O   UNL A   1      49.347  28.629  21.814  1.00  0.00    -0.237 OA
ATOM     81  O   UNL A   1      48.444  26.421  21.198  1.00  0.00    -0.744 OA
ENDBRANCH  74  78
ENDBRANCH  47  71
BRANCH  59  82
ATOM     82  C   UNL A   1      45.281  33.362  29.217  1.00  0.00     0.023 A 
ATOM     83  C   UNL A   1      45.213  34.430  28.299  1.00  0.00     0.031 A 
ATOM     84  C   UNL A   1      46.179  33.472  30.293  1.00  0.00     0.131 A 
ATOM     85  C   UNL A   1      46.055  35.540  28.453  1.00  0.00     0.055 A 
ATOM     86  C   UNL A   1      46.986  34.600  30.465  1.00  0.00     0.041 A 
ATOM     87  F   UNL A   1      46.294  32.479  31.189  1.00  0.00    -0.206 F 
ATOM     88  C   UNL A   1      46.936  35.634  29.535  1.00  0.00     0.022 A 
BRANCH  85  89
ATOM     89  S   UNL A   1      46.100  36.867  27.214  1.00  0.00     0.124 S 
ATOM     90  O   UNL A   1      46.990  37.839  27.847  1.00  0.00    -0.237 OA
ATOM     91  O   UNL A   1      46.655  36.181  26.049  1.00  0.00    -0.237 OA
ATOM     92  O   UNL A   1      44.708  37.284  27.093  1.00  0.00    -0.744 OA
ENDBRANCH  85  89
ENDBRANCH  59  82
ENDBRANCH  33  34
ENDBRANCH  25  28
ENDBRANCH  23  24
ENDBRANCH   1  23
TORSDOF 15
ENDMDL
