MODEL 1
REMARK VINA RESULT:     -13.1      0.000      0.000
REMARK SMILES C[C@@H]1CCc2nc(NC(=O)[C@H]3CC=CC[C@@H]3C(=O)NCCCNC(=O)c3ccc(-c4c5nc(c(-c6cc(S(=O)(=O)[O-])ccc6F)c6ccc([nH]6)c(-c6cc(S(=O)(=O)[O-])ccc6F)c6nc(c(-c7cc(S(=O)(=O)[O-])ccc7F)c7ccc4[nH]7)C=C6)C=C5)cc3)sc2C1
REMARK SMILES IDX 21 1 20 2 19 3 17 4 18 5 16 7 11 8 12 9 13 10 15 11 14 12
REMARK SMILES IDX 9 13 8 14 10 16 7 17 1 18 2 19 3 20 91 21 4 22 90 23 5 24
REMARK SMILES IDX 89 25 6 26 22 27 23 28 24 29 25 31 26 32 27 33 88 34 28 35
REMARK SMILES IDX 87 36 29 37 30 38 31 39 81 40 32 41 86 42 80 43 82 44 33 45
REMARK SMILES IDX 85 46 79 47 78 48 34 50 66 51 46 52 65 53 47 54 50 55 64 56
REMARK SMILES IDX 83 57 48 58 49 59 63 61 84 62 51 63 35 64 36 65 44 66 37 67
REMARK SMILES IDX 43 68 45 69 42 70 38 71 39 72 40 73 41 74 67 75 68 76 76 77
REMARK SMILES IDX 69 78 75 79 77 80 74 81 70 82 71 83 72 84 73 85 52 86 53 87
REMARK SMILES IDX 61 88 54 89 60 90 62 91 59 92 55 93 56 94 57 95 58 96
REMARK H PARENT 19 6 8 15 23 30 82 49 50 60
REMARK Flexibility Score: inf
ROOT
ATOM      1  C   UNL A   1      31.564  31.854  26.508  1.00  0.00     0.042 C 
ENDROOT
BRANCH   1   2
ATOM      2  C   UNL A   1      31.519  30.326  26.314  1.00  0.00     0.117 C 
BRANCH   2   3
ATOM      3  N   UNL A   1      32.092  29.759  25.093  1.00  0.00    -0.356 N 
ATOM      4  C   UNL A   1      31.392  29.016  24.168  1.00  0.00     0.224 C 
ATOM      5  O   UNL A   1      31.451  29.352  22.982  1.00  0.00    -0.275 OA
ATOM      6  H   UNL A   1      33.048  29.921  24.920  1.00  0.00     0.163 HD
BRANCH   4   7
ATOM      7  C   UNL A   1      30.805  27.652  24.553  1.00  0.00     0.095 C 
ATOM      8  C   UNL A   1      31.661  26.727  25.396  1.00  0.00     0.095 C 
ATOM      9  C   UNL A   1      32.847  26.288  24.469  1.00  0.00     0.041 C 
ATOM     10  C   UNL A   1      32.412  25.858  23.082  1.00  0.00    -0.030 C 
ATOM     11  C   UNL A   1      30.182  26.817  23.458  1.00  0.00     0.041 C 
ATOM     12  C   UNL A   1      31.177  26.097  22.619  1.00  0.00    -0.030 C 
BRANCH   8  13
ATOM     13  C   UNL A   1      30.921  25.470  25.991  1.00  0.00     0.230 C 
ATOM     14  N   UNL A   1      31.394  24.193  26.201  1.00  0.00    -0.302 N 
ATOM     15  H   UNL A   1      30.725  23.599  26.612  1.00  0.00     0.172 HD
ATOM     16  O   UNL A   1      29.757  25.647  26.397  1.00  0.00    -0.274 OA
BRANCH  14  17
ATOM     17  C   UNL A   1      32.598  23.566  25.962  1.00  0.00     0.189 A 
ATOM     18  C   UNL A   1      37.178  21.293  24.328  1.00  0.00     0.008 C 
ATOM     19  C   UNL A   1      36.843  22.733  23.944  1.00  0.00    -0.009 C 
ATOM     20  C   UNL A   1      37.170  23.744  25.074  1.00  0.00     0.010 C 
ATOM     21  C   UNL A   1      35.371  22.830  23.490  1.00  0.00     0.052 C 
ATOM     22  C   UNL A   1      36.210  23.722  26.289  1.00  0.00     0.058 C 
ATOM     23  C   UNL A   1      34.460  22.903  24.668  1.00  0.00     0.030 A 
ATOM     24  C   UNL A   1      34.794  23.430  25.899  1.00  0.00     0.057 A 
ATOM     25  S   UNL A   1      32.813  22.424  24.703  1.00  0.00    -0.101 S 
ATOM     26  N   UNL A   1      33.690  23.766  26.683  1.00  0.00    -0.225 NA
ENDBRANCH  14  17
ENDBRANCH   8  13
ENDBRANCH   4   7
ENDBRANCH   2   3
ENDBRANCH   1   2
BRANCH   1  27
ATOM     27  C   UNL A   1      32.760  32.369  27.242  1.00  0.00     0.118 C 
BRANCH  27  28
ATOM     28  N   UNL A   1      32.532  33.730  27.683  1.00  0.00    -0.352 N 
ATOM     29  C   UNL A   1      33.134  34.359  28.752  1.00  0.00     0.251 C 
ATOM     30  H   UNL A   1      31.883  34.261  27.167  1.00  0.00     0.163 HD
ATOM     31  O   UNL A   1      32.567  35.256  29.342  1.00  0.00    -0.269 OA
BRANCH  29  32
ATOM     32  C   UNL A   1      34.468  33.874  29.144  1.00  0.00     0.039 A 
ATOM     33  C   UNL A   1      34.645  33.057  30.257  1.00  0.00     0.014 A 
ATOM     34  C   UNL A   1      35.537  34.202  28.311  1.00  0.00     0.014 A 
ATOM     35  C   UNL A   1      35.918  32.554  30.499  1.00  0.00     0.010 A 
ATOM     36  C   UNL A   1      36.693  33.489  28.394  1.00  0.00     0.010 A 
ATOM     37  C   UNL A   1      36.934  32.776  29.551  1.00  0.00    -0.014 A 
BRANCH  37  38
ATOM     38  C   UNL A   1      38.258  32.199  29.688  1.00  0.00     0.031 A 
ATOM     39  C   UNL A   1      38.313  30.785  29.267  1.00  0.00     0.074 A 
ATOM     40  C   UNL A   1      39.356  32.936  29.966  1.00  0.00     0.049 A 
ATOM     41  N   UNL A   1      38.276  29.750  30.034  1.00  0.00    -0.248 NA
ATOM     42  C   UNL A   1      38.129  30.471  27.838  1.00  0.00     0.031 C 
ATOM     43  C   UNL A   1      39.478  34.395  30.094  1.00  0.00     0.029 A 
ATOM     44  N   UNL A   1      40.643  32.528  30.106  1.00  0.00    -0.354 N 
ATOM     45  C   UNL A   1      38.397  28.661  29.184  1.00  0.00     0.074 A 
ATOM     46  C   UNL A   1      38.005  29.142  27.887  1.00  0.00     0.031 C 
ATOM     47  C   UNL A   1      40.783  34.751  30.065  1.00  0.00     0.029 A 
ATOM     48  C   UNL A   1      41.594  33.547  30.093  1.00  0.00     0.049 A 
ATOM     49  H   UNL A   1      40.887  31.579  30.210  1.00  0.00     0.167 HD
ATOM     50  C   UNL A   1      39.123  27.574  29.564  1.00  0.00     0.034 A 
ATOM     51  C   UNL A   1      42.949  33.407  30.094  1.00  0.00     0.034 A 
ATOM     52  C   UNL A   1      39.383  27.613  30.993  1.00  0.00     0.049 A 
ATOM     53  C   UNL A   1      43.225  32.051  30.638  1.00  0.00     0.074 A 
ATOM     54  C   UNL A   1      38.583  27.698  32.120  1.00  0.00     0.029 A 
ATOM     55  N   UNL A   1      40.639  28.005  31.410  1.00  0.00    -0.354 N 
ATOM     56  N   UNL A   1      42.939  31.708  31.865  1.00  0.00    -0.248 NA
ATOM     57  C   UNL A   1      43.308  30.945  29.695  1.00  0.00     0.031 C 
ATOM     58  C   UNL A   1      39.263  28.606  32.986  1.00  0.00     0.029 A 
ATOM     59  C   UNL A   1      40.487  28.942  32.405  1.00  0.00     0.049 A 
ATOM     60  H   UNL A   1      41.495  27.671  31.057  1.00  0.00     0.167 HD
ATOM     61  C   UNL A   1      42.372  30.446  31.767  1.00  0.00     0.074 A 
ATOM     62  C   UNL A   1      42.714  29.989  30.418  1.00  0.00     0.031 C 
ATOM     63  C   UNL A   1      41.431  30.019  32.664  1.00  0.00     0.034 A 
BRANCH  50  64
ATOM     64  C   UNL A   1      39.948  26.720  28.623  1.00  0.00     0.023 A 
ATOM     65  C   UNL A   1      41.060  27.342  28.025  1.00  0.00     0.031 A 
ATOM     66  C   UNL A   1      39.576  25.474  28.065  1.00  0.00     0.131 A 
ATOM     67  C   UNL A   1      41.652  26.810  26.870  1.00  0.00     0.055 A 
ATOM     68  C   UNL A   1      40.213  24.916  26.953  1.00  0.00     0.041 A 
ATOM     69  F   UNL A   1      38.532  24.759  28.495  1.00  0.00    -0.206 F 
ATOM     70  C   UNL A   1      41.233  25.602  26.324  1.00  0.00     0.022 A 
BRANCH  67  71
ATOM     71  S   UNL A   1      42.857  27.832  25.988  1.00  0.00     0.124 S 
ATOM     72  O   UNL A   1      42.741  29.098  26.706  1.00  0.00    -0.237 OA
ATOM     73  O   UNL A   1      44.091  27.082  26.196  1.00  0.00    -0.237 OA
ATOM     74  O   UNL A   1      42.353  27.840  24.617  1.00  0.00    -0.744 OA
ENDBRANCH  67  71
ENDBRANCH  50  64
BRANCH  51  75
ATOM     75  C   UNL A   1      43.947  34.212  29.331  1.00  0.00     0.023 A 
ATOM     76  C   UNL A   1      44.578  33.751  28.152  1.00  0.00     0.031 A 
ATOM     77  C   UNL A   1      44.102  35.586  29.631  1.00  0.00     0.131 A 
ATOM     78  C   UNL A   1      45.313  34.649  27.334  1.00  0.00     0.055 A 
ATOM     79  C   UNL A   1      44.824  36.465  28.820  1.00  0.00     0.041 A 
ATOM     80  F   UNL A   1      43.479  36.142  30.681  1.00  0.00    -0.206 F 
ATOM     81  C   UNL A   1      45.425  36.002  27.661  1.00  0.00     0.022 A 
BRANCH  78  82
ATOM     82  S   UNL A   1      46.072  34.089  25.770  1.00  0.00     0.124 S 
ATOM     83  O   UNL A   1      46.379  32.692  26.055  1.00  0.00    -0.237 OA
ATOM     84  O   UNL A   1      45.013  34.337  24.799  1.00  0.00    -0.237 OA
ATOM     85  O   UNL A   1      47.243  34.957  25.628  1.00  0.00    -0.744 OA
ENDBRANCH  78  82
ENDBRANCH  51  75
BRANCH  63  86
ATOM     86  C   UNL A   1      41.235  30.827  33.938  1.00  0.00     0.023 A 
ATOM     87  C   UNL A   1      42.075  30.784  35.078  1.00  0.00     0.031 A 
ATOM     88  C   UNL A   1      40.180  31.757  33.951  1.00  0.00     0.131 A 
ATOM     89  C   UNL A   1      41.825  31.635  36.176  1.00  0.00     0.055 A 
ATOM     90  C   UNL A   1      39.952  32.614  35.028  1.00  0.00     0.041 A 
ATOM     91  F   UNL A   1      39.359  31.869  32.894  1.00  0.00    -0.206 F 
ATOM     92  C   UNL A   1      40.768  32.549  36.149  1.00  0.00     0.022 A 
BRANCH  89  93
ATOM     93  S   UNL A   1      42.847  31.546  37.685  1.00  0.00     0.124 S 
ATOM     94  O   UNL A   1      41.891  31.773  38.761  1.00  0.00    -0.237 OA
ATOM     95  O   UNL A   1      43.410  30.201  37.607  1.00  0.00    -0.237 OA
ATOM     96  O   UNL A   1      43.822  32.623  37.500  1.00  0.00    -0.744 OA
ENDBRANCH  89  93
ENDBRANCH  63  86
ENDBRANCH  37  38
ENDBRANCH  29  32
ENDBRANCH  27  28
ENDBRANCH   1  27
TORSDOF 15
ENDMDL
MODEL 2
REMARK VINA RESULT:     -13.0      4.201      9.418
REMARK SMILES C[C@@H]1CCc2nc(NC(=O)[C@H]3CC=CC[C@@H]3C(=O)NCCCNC(=O)c3ccc(-c4c5nc(c(-c6cc(S(=O)(=O)[O-])ccc6F)c6ccc([nH]6)c(-c6cc(S(=O)(=O)[O-])ccc6F)c6nc(c(-c7cc(S(=O)(=O)[O-])ccc7F)c7ccc4[nH]7)C=C6)C=C5)cc3)sc2C1
REMARK SMILES IDX 21 1 20 2 19 3 17 4 18 5 16 7 11 8 12 9 13 10 15 11 14 12
REMARK SMILES IDX 9 13 8 14 10 16 7 17 1 18 2 19 3 20 91 21 4 22 90 23 5 24
REMARK SMILES IDX 89 25 6 26 22 27 23 28 24 29 25 31 26 32 27 33 88 34 28 35
REMARK SMILES IDX 87 36 29 37 30 38 31 39 81 40 32 41 86 42 80 43 82 44 33 45
REMARK SMILES IDX 85 46 79 47 78 48 34 50 66 51 46 52 65 53 47 54 50 55 64 56
REMARK SMILES IDX 83 57 48 58 49 59 63 61 84 62 51 63 35 64 36 65 44 66 37 67
REMARK SMILES IDX 43 68 45 69 42 70 38 71 39 72 40 73 41 74 67 75 68 76 76 77
REMARK SMILES IDX 69 78 75 79 77 80 74 81 70 82 71 83 72 84 73 85 52 86 53 87
REMARK SMILES IDX 61 88 54 89 60 90 62 91 59 92 55 93 56 94 57 95 58 96
REMARK H PARENT 19 6 8 15 23 30 82 49 50 60
REMARK Flexibility Score: inf
ROOT
ATOM      1  C   UNL A   1      37.880  19.777  24.998  1.00  0.00     0.042 C 
ENDROOT
BRANCH   1   2
ATOM      2  C   UNL A   1      36.862  20.839  24.538  1.00  0.00     0.117 C 
BRANCH   2   3
ATOM      3  N   UNL A   1      35.827  21.269  25.479  1.00  0.00    -0.356 N 
ATOM      4  C   UNL A   1      34.472  21.148  25.264  1.00  0.00     0.224 C 
ATOM      5  O   UNL A   1      33.788  20.603  26.135  1.00  0.00    -0.275 OA
ATOM      6  H   UNL A   1      36.122  21.674  26.327  1.00  0.00     0.163 HD
BRANCH   4   7
ATOM      7  C   UNL A   1      33.794  21.926  24.128  1.00  0.00     0.095 C 
ATOM      8  C   UNL A   1      34.061  23.415  24.033  1.00  0.00     0.095 C 
ATOM      9  C   UNL A   1      33.361  24.050  25.284  1.00  0.00     0.041 C 
ATOM     10  C   UNL A   1      31.948  23.549  25.514  1.00  0.00    -0.030 C 
ATOM     11  C   UNL A   1      32.312  21.719  23.917  1.00  0.00     0.041 C 
ATOM     12  C   UNL A   1      31.462  22.476  24.876  1.00  0.00    -0.030 C 
BRANCH   8  13
ATOM     13  C   UNL A   1      33.573  24.111  22.707  1.00  0.00     0.230 C 
ATOM     14  N   UNL A   1      33.149  25.405  22.500  1.00  0.00    -0.302 N 
ATOM     15  H   UNL A   1      32.921  25.589  21.560  1.00  0.00     0.172 HD
ATOM     16  O   UNL A   1      33.630  23.429  21.665  1.00  0.00    -0.274 OA
BRANCH  14  17
ATOM     17  C   UNL A   1      32.975  26.498  23.321  1.00  0.00     0.189 A 
ATOM     18  C   UNL A   1      31.799  30.351  26.869  1.00  0.00     0.008 C 
ATOM     19  C   UNL A   1      32.165  28.945  27.340  1.00  0.00    -0.009 C 
ATOM     20  C   UNL A   1      33.698  28.703  27.364  1.00  0.00     0.010 C 
ATOM     21  C   UNL A   1      31.428  27.893  26.485  1.00  0.00     0.052 C 
ATOM     22  C   UNL A   1      34.370  28.541  25.979  1.00  0.00     0.058 C 
ATOM     23  C   UNL A   1      32.137  27.675  25.191  1.00  0.00     0.030 A 
ATOM     24  C   UNL A   1      33.492  27.836  24.991  1.00  0.00     0.057 A 
ATOM     25  S   UNL A   1      31.429  27.110  23.734  1.00  0.00    -0.101 S 
ATOM     26  N   UNL A   1      33.973  27.188  23.853  1.00  0.00    -0.225 NA
ENDBRANCH  14  17
ENDBRANCH   8  13
ENDBRANCH   4   7
ENDBRANCH   2   3
ENDBRANCH   1   2
BRANCH   1  27
ATOM     27  C   UNL A   1      39.017  20.296  25.818  1.00  0.00     0.118 C 
BRANCH  27  28
ATOM     28  N   UNL A   1      40.090  19.323  25.863  1.00  0.00    -0.352 N 
ATOM     29  C   UNL A   1      41.440  19.592  25.927  1.00  0.00     0.251 C 
ATOM     30  H   UNL A   1      39.829  18.374  25.847  1.00  0.00     0.163 HD
ATOM     31  O   UNL A   1      42.251  18.809  25.475  1.00  0.00    -0.269 OA
BRANCH  29  32
ATOM     32  C   UNL A   1      41.835  20.870  26.544  1.00  0.00     0.039 A 
ATOM     33  C   UNL A   1      42.354  21.914  25.783  1.00  0.00     0.014 A 
ATOM     34  C   UNL A   1      41.595  21.021  27.909  1.00  0.00     0.014 A 
ATOM     35  C   UNL A   1      42.602  23.123  26.421  1.00  0.00     0.010 A 
ATOM     36  C   UNL A   1      41.575  22.269  28.451  1.00  0.00     0.010 A 
ATOM     37  C   UNL A   1      42.201  23.286  27.760  1.00  0.00    -0.014 A 
BRANCH  37  38
ATOM     38  C   UNL A   1      42.337  24.551  28.458  1.00  0.00     0.031 A 
ATOM     39  C   UNL A   1      41.225  25.482  28.180  1.00  0.00     0.074 A 
ATOM     40  C   UNL A   1      43.264  24.764  29.419  1.00  0.00     0.049 A 
ATOM     41  N   UNL A   1      41.232  26.462  27.342  1.00  0.00    -0.248 NA
ATOM     42  C   UNL A   1      39.883  25.143  28.686  1.00  0.00     0.031 C 
ATOM     43  C   UNL A   1      44.220  23.813  30.004  1.00  0.00     0.029 A 
ATOM     44  N   UNL A   1      43.489  25.884  30.153  1.00  0.00    -0.354 N 
ATOM     45  C   UNL A   1      39.986  27.058  27.469  1.00  0.00     0.074 A 
ATOM     46  C   UNL A   1      39.139  26.055  28.054  1.00  0.00     0.031 C 
ATOM     47  C   UNL A   1      44.747  24.331  31.137  1.00  0.00     0.029 A 
ATOM     48  C   UNL A   1      44.307  25.708  31.267  1.00  0.00     0.049 A 
ATOM     49  H   UNL A   1      43.100  26.758  29.915  1.00  0.00     0.167 HD
ATOM     50  C   UNL A   1      39.865  28.412  27.390  1.00  0.00     0.034 A 
ATOM     51  C   UNL A   1      44.592  26.629  32.230  1.00  0.00     0.034 A 
ATOM     52  C   UNL A   1      41.074  28.997  26.835  1.00  0.00     0.049 A 
ATOM     53  C   UNL A   1      44.327  27.960  31.623  1.00  0.00     0.074 A 
ATOM     54  C   UNL A   1      41.787  28.813  25.663  1.00  0.00     0.029 A 
ATOM     55  N   UNL A   1      41.957  29.603  27.707  1.00  0.00    -0.354 N 
ATOM     56  N   UNL A   1      45.016  28.431  30.619  1.00  0.00    -0.248 NA
ATOM     57  C   UNL A   1      42.989  28.516  31.764  1.00  0.00     0.031 C 
ATOM     58  C   UNL A   1      43.158  28.838  26.060  1.00  0.00     0.029 A 
ATOM     59  C   UNL A   1      43.222  29.144  27.421  1.00  0.00     0.049 A 
ATOM     60  H   UNL A   1      41.722  30.250  28.410  1.00  0.00     0.167 HD
ATOM     61  C   UNL A   1      44.076  28.979  29.759  1.00  0.00     0.074 A 
ATOM     62  C   UNL A   1      42.856  29.087  30.562  1.00  0.00     0.031 C 
ATOM     63  C   UNL A   1      44.284  29.010  28.407  1.00  0.00     0.034 A 
BRANCH  50  64
ATOM     64  C   UNL A   1      38.870  29.232  28.185  1.00  0.00     0.023 A 
ATOM     65  C   UNL A   1      38.993  29.181  29.586  1.00  0.00     0.031 A 
ATOM     66  C   UNL A   1      37.672  29.812  27.702  1.00  0.00     0.131 A 
ATOM     67  C   UNL A   1      37.929  29.557  30.421  1.00  0.00     0.055 A 
ATOM     68  C   UNL A   1      36.643  30.246  28.540  1.00  0.00     0.041 A 
ATOM     69  F   UNL A   1      37.382  29.919  26.402  1.00  0.00    -0.206 F 
ATOM     70  C   UNL A   1      36.750  30.085  29.908  1.00  0.00     0.022 A 
BRANCH  67  71
ATOM     71  S   UNL A   1      38.052  29.160  32.182  1.00  0.00     0.124 S 
ATOM     72  O   UNL A   1      38.473  27.763  32.133  1.00  0.00    -0.237 OA
ATOM     73  O   UNL A   1      39.053  30.121  32.633  1.00  0.00    -0.237 OA
ATOM     74  O   UNL A   1      36.696  29.390  32.674  1.00  0.00    -0.744 OA
ENDBRANCH  67  71
ENDBRANCH  50  64
BRANCH  51  75
ATOM     75  C   UNL A   1      44.718  26.399  33.699  1.00  0.00     0.023 A 
ATOM     76  C   UNL A   1      43.637  26.538  34.602  1.00  0.00     0.031 A 
ATOM     77  C   UNL A   1      45.882  25.775  34.204  1.00  0.00     0.131 A 
ATOM     78  C   UNL A   1      43.749  26.059  35.933  1.00  0.00     0.055 A 
ATOM     79  C   UNL A   1      45.985  25.303  35.516  1.00  0.00     0.041 A 
ATOM     80  F   UNL A   1      46.934  25.522  33.411  1.00  0.00    -0.206 F 
ATOM     81  C   UNL A   1      44.913  25.434  36.384  1.00  0.00     0.022 A 
BRANCH  78  82
ATOM     82  S   UNL A   1      42.340  26.163  37.091  1.00  0.00     0.124 S 
ATOM     83  O   UNL A   1      43.000  26.430  38.363  1.00  0.00    -0.237 OA
ATOM     84  O   UNL A   1      41.550  27.251  36.527  1.00  0.00    -0.237 OA
ATOM     85  O   UNL A   1      41.715  24.843  36.990  1.00  0.00    -0.744 OA
ENDBRANCH  78  82
ENDBRANCH  51  75
BRANCH  63  86
ATOM     86  C   UNL A   1      45.682  28.709  27.888  1.00  0.00     0.023 A 
ATOM     87  C   UNL A   1      46.748  29.639  27.807  1.00  0.00     0.031 A 
ATOM     88  C   UNL A   1      45.964  27.376  27.540  1.00  0.00     0.131 A 
ATOM     89  C   UNL A   1      48.023  29.221  27.370  1.00  0.00     0.055 A 
ATOM     90  C   UNL A   1      47.232  26.962  27.133  1.00  0.00     0.041 A 
ATOM     91  F   UNL A   1      45.007  26.436  27.617  1.00  0.00    -0.206 F 
ATOM     92  C   UNL A   1      48.265  27.885  27.037  1.00  0.00     0.022 A 
BRANCH  89  93
ATOM     93  S   UNL A   1      49.392  30.413  27.186  1.00  0.00     0.124 S 
ATOM     94  O   UNL A   1      50.314  29.740  26.280  1.00  0.00    -0.237 OA
ATOM     95  O   UNL A   1      48.715  31.590  26.647  1.00  0.00    -0.237 OA
ATOM     96  O   UNL A   1      49.890  30.573  28.554  1.00  0.00    -0.744 OA
ENDBRANCH  89  93
ENDBRANCH  63  86
ENDBRANCH  37  38
ENDBRANCH  29  32
ENDBRANCH  27  28
ENDBRANCH   1  27
TORSDOF 15
ENDMDL
MODEL 3
REMARK VINA RESULT:     -12.7      4.179      5.582
REMARK SMILES C[C@@H]1CCc2nc(NC(=O)[C@H]3CC=CC[C@@H]3C(=O)NCCCNC(=O)c3ccc(-c4c5nc(c(-c6cc(S(=O)(=O)[O-])ccc6F)c6ccc([nH]6)c(-c6cc(S(=O)(=O)[O-])ccc6F)c6nc(c(-c7cc(S(=O)(=O)[O-])ccc7F)c7ccc4[nH]7)C=C6)C=C5)cc3)sc2C1
REMARK SMILES IDX 21 1 20 2 19 3 17 4 18 5 16 7 11 8 12 9 13 10 15 11 14 12
REMARK SMILES IDX 9 13 8 14 10 16 7 17 1 18 2 19 3 20 91 21 4 22 90 23 5 24
REMARK SMILES IDX 89 25 6 26 22 27 23 28 24 29 25 31 26 32 27 33 88 34 28 35
REMARK SMILES IDX 87 36 29 37 30 38 31 39 81 40 32 41 86 42 80 43 82 44 33 45
REMARK SMILES IDX 85 46 79 47 78 48 34 50 66 51 46 52 65 53 47 54 50 55 64 56
REMARK SMILES IDX 83 57 48 58 49 59 63 61 84 62 51 63 35 64 36 65 44 66 37 67
REMARK SMILES IDX 43 68 45 69 42 70 38 71 39 72 40 73 41 74 67 75 68 76 76 77
REMARK SMILES IDX 69 78 75 79 77 80 74 81 70 82 71 83 72 84 73 85 52 86 53 87
REMARK SMILES IDX 61 88 54 89 60 90 62 91 59 92 55 93 56 94 57 95 58 96
REMARK H PARENT 19 6 8 15 23 30 82 49 50 60
REMARK Flexibility Score: inf
ROOT
ATOM      1  C   UNL A   1      34.455  30.126  26.958  1.00  0.00     0.042 C 
ENDROOT
BRANCH   1   2
ATOM      2  C   UNL A   1      33.176  29.334  26.623  1.00  0.00     0.117 C 
BRANCH   2   3
ATOM      3  N   UNL A   1      32.800  29.175  25.218  1.00  0.00    -0.356 N 
ATOM      4  C   UNL A   1      31.535  28.856  24.775  1.00  0.00     0.224 C 
ATOM      5  O   UNL A   1      31.020  29.573  23.913  1.00  0.00    -0.275 OA
ATOM      6  H   UNL A   1      33.503  29.306  24.540  1.00  0.00     0.163 HD
BRANCH   4   7
ATOM      7  C   UNL A   1      30.914  27.496  25.118  1.00  0.00     0.095 C 
ATOM      8  C   UNL A   1      31.831  26.414  25.650  1.00  0.00     0.095 C 
ATOM      9  C   UNL A   1      32.759  26.019  24.450  1.00  0.00     0.041 C 
ATOM     10  C   UNL A   1      32.014  25.805  23.147  1.00  0.00    -0.030 C 
ATOM     11  C   UNL A   1      30.006  26.855  24.093  1.00  0.00     0.041 C 
ATOM     12  C   UNL A   1      30.740  26.185  22.986  1.00  0.00    -0.030 C 
BRANCH   8  13
ATOM     13  C   UNL A   1      31.112  25.142  26.243  1.00  0.00     0.230 C 
ATOM     14  N   UNL A   1      31.602  23.870  26.438  1.00  0.00    -0.302 N 
ATOM     15  H   UNL A   1      30.944  23.265  26.851  1.00  0.00     0.172 HD
ATOM     16  O   UNL A   1      29.949  25.302  26.661  1.00  0.00    -0.274 OA
BRANCH  14  17
ATOM     17  C   UNL A   1      32.811  23.259  26.183  1.00  0.00     0.189 A 
ATOM     18  C   UNL A   1      37.384  21.020  24.484  1.00  0.00     0.008 C 
ATOM     19  C   UNL A   1      37.004  22.435  24.054  1.00  0.00    -0.009 C 
ATOM     20  C   UNL A   1      37.345  23.499  25.131  1.00  0.00     0.010 C 
ATOM     21  C   UNL A   1      35.516  22.482  23.647  1.00  0.00     0.052 C 
ATOM     22  C   UNL A   1      36.428  23.506  26.378  1.00  0.00     0.058 C 
ATOM     23  C   UNL A   1      34.644  22.584  24.853  1.00  0.00     0.030 A 
ATOM     24  C   UNL A   1      35.006  23.168  26.049  1.00  0.00     0.057 A 
ATOM     25  S   UNL A   1      33.010  22.072  24.964  1.00  0.00    -0.101 S 
ATOM     26  N   UNL A   1      33.923  23.512  26.857  1.00  0.00    -0.225 NA
ENDBRANCH  14  17
ENDBRANCH   8  13
ENDBRANCH   4   7
ENDBRANCH   2   3
ENDBRANCH   1   2
BRANCH   1  27
ATOM     27  C   UNL A   1      35.511  29.357  27.684  1.00  0.00     0.118 C 
BRANCH  27  28
ATOM     28  N   UNL A   1      35.629  29.829  29.049  1.00  0.00    -0.352 N 
ATOM     29  C   UNL A   1      36.571  29.437  29.975  1.00  0.00     0.251 C 
ATOM     30  H   UNL A   1      34.970  30.498  29.345  1.00  0.00     0.163 HD
ATOM     31  O   UNL A   1      36.325  29.475  31.164  1.00  0.00    -0.269 OA
BRANCH  29  32
ATOM     32  C   UNL A   1      37.861  28.958  29.451  1.00  0.00     0.039 A 
ATOM     33  C   UNL A   1      38.472  29.569  28.359  1.00  0.00     0.014 A 
ATOM     34  C   UNL A   1      38.485  27.919  30.140  1.00  0.00     0.014 A 
ATOM     35  C   UNL A   1      39.737  29.127  27.992  1.00  0.00     0.010 A 
ATOM     36  C   UNL A   1      39.813  27.694  29.952  1.00  0.00     0.010 A 
ATOM     37  C   UNL A   1      40.399  28.189  28.806  1.00  0.00    -0.014 A 
BRANCH  37  38
ATOM     38  C   UNL A   1      41.759  27.759  28.539  1.00  0.00     0.031 A 
ATOM     39  C   UNL A   1      41.821  26.506  27.760  1.00  0.00     0.074 A 
ATOM     40  C   UNL A   1      42.839  28.532  28.793  1.00  0.00     0.049 A 
ATOM     41  N   UNL A   1      42.017  25.319  28.222  1.00  0.00    -0.248 NA
ATOM     42  C   UNL A   1      41.365  26.529  26.359  1.00  0.00     0.031 C 
ATOM     43  C   UNL A   1      42.884  29.921  29.274  1.00  0.00     0.029 A 
ATOM     44  N   UNL A   1      44.151  28.259  28.581  1.00  0.00    -0.354 N 
ATOM     45  C   UNL A   1      42.031  24.492  27.110  1.00  0.00     0.074 A 
ATOM     46  C   UNL A   1      41.345  25.223  26.080  1.00  0.00     0.031 C 
ATOM     47  C   UNL A   1      44.126  30.427  29.098  1.00  0.00     0.029 A 
ATOM     48  C   UNL A   1      45.006  29.357  28.660  1.00  0.00     0.049 A 
ATOM     49  H   UNL A   1      44.476  27.350  28.385  1.00  0.00     0.167 HD
ATOM     50  C   UNL A   1      42.893  23.440  27.051  1.00  0.00     0.034 A 
ATOM     51  C   UNL A   1      46.337  29.384  28.374  1.00  0.00     0.034 A 
ATOM     52  C   UNL A   1      43.443  23.162  28.367  1.00  0.00     0.049 A 
ATOM     53  C   UNL A   1      46.813  27.980  28.482  1.00  0.00     0.074 A 
ATOM     54  C   UNL A   1      42.893  22.874  29.604  1.00  0.00     0.029 A 
ATOM     55  N   UNL A   1      44.729  23.588  28.632  1.00  0.00    -0.354 N 
ATOM     56  N   UNL A   1      46.815  27.318  29.608  1.00  0.00    -0.248 NA
ATOM     57  C   UNL A   1      46.773  27.154  27.284  1.00  0.00     0.031 C 
ATOM     58  C   UNL A   1      43.675  23.619  30.537  1.00  0.00     0.029 A 
ATOM     59  C   UNL A   1      44.725  24.231  29.848  1.00  0.00     0.049 A 
ATOM     60  H   UNL A   1      45.514  23.454  28.052  1.00  0.00     0.167 HD
ATOM     61  C   UNL A   1      46.327  26.059  29.289  1.00  0.00     0.074 A 
ATOM     62  C   UNL A   1      46.410  25.987  27.828  1.00  0.00     0.031 C 
ATOM     63  C   UNL A   1      45.626  25.317  30.201  1.00  0.00     0.034 A 
BRANCH  50  64
ATOM     64  C   UNL A   1      43.560  22.945  25.783  1.00  0.00     0.023 A 
ATOM     65  C   UNL A   1      43.619  21.550  25.610  1.00  0.00     0.031 A 
ATOM     66  C   UNL A   1      44.367  23.702  24.901  1.00  0.00     0.131 A 
ATOM     67  C   UNL A   1      44.529  20.970  24.713  1.00  0.00     0.055 A 
ATOM     68  C   UNL A   1      45.222  23.119  23.962  1.00  0.00     0.041 A 
ATOM     69  F   UNL A   1      44.448  25.035  24.941  1.00  0.00    -0.206 F 
ATOM     70  C   UNL A   1      45.337  21.745  23.889  1.00  0.00     0.022 A 
BRANCH  67  71
ATOM     71  S   UNL A   1      44.766  19.178  24.786  1.00  0.00     0.124 S 
ATOM     72  O   UNL A   1      43.564  18.757  25.500  1.00  0.00    -0.237 OA
ATOM     73  O   UNL A   1      44.831  18.829  23.370  1.00  0.00    -0.237 OA
ATOM     74  O   UNL A   1      46.018  19.033  25.524  1.00  0.00    -0.744 OA
ENDBRANCH  67  71
ENDBRANCH  50  64
BRANCH  51  75
ATOM     75  C   UNL A   1      47.097  30.464  27.677  1.00  0.00     0.023 A 
ATOM     76  C   UNL A   1      46.485  31.623  27.143  1.00  0.00     0.031 A 
ATOM     77  C   UNL A   1      48.509  30.480  27.760  1.00  0.00     0.131 A 
ATOM     78  C   UNL A   1      47.278  32.725  26.730  1.00  0.00     0.055 A 
ATOM     79  C   UNL A   1      49.283  31.570  27.354  1.00  0.00     0.041 A 
ATOM     80  F   UNL A   1      49.182  29.466  28.325  1.00  0.00    -0.206 F 
ATOM     81  C   UNL A   1      48.669  32.703  26.845  1.00  0.00     0.022 A 
BRANCH  78  82
ATOM     82  S   UNL A   1      46.504  34.257  26.106  1.00  0.00     0.124 S 
ATOM     83  O   UNL A   1      45.164  33.807  25.747  1.00  0.00    -0.237 OA
ATOM     84  O   UNL A   1      46.604  35.150  27.255  1.00  0.00    -0.237 OA
ATOM     85  O   UNL A   1      47.349  34.631  24.970  1.00  0.00    -0.744 OA
ENDBRANCH  78  82
ENDBRANCH  51  75
BRANCH  63  86
ATOM     86  C   UNL A   1      45.646  25.762  31.656  1.00  0.00     0.023 A 
ATOM     87  C   UNL A   1      46.694  25.519  32.577  1.00  0.00     0.031 A 
ATOM     88  C   UNL A   1      44.572  26.556  32.098  1.00  0.00     0.131 A 
ATOM     89  C   UNL A   1      46.625  26.043  33.885  1.00  0.00     0.055 A 
ATOM     90  C   UNL A   1      44.520  27.093  33.384  1.00  0.00     0.041 A 
ATOM     91  F   UNL A   1      43.556  26.847  31.270  1.00  0.00    -0.206 F 
ATOM     92  C   UNL A   1      45.543  26.831  34.286  1.00  0.00     0.022 A 
BRANCH  89  93
ATOM     93  S   UNL A   1      47.926  25.681  35.113  1.00  0.00     0.124 S 
ATOM     94  O   UNL A   1      49.109  26.329  34.562  1.00  0.00    -0.237 OA
ATOM     95  O   UNL A   1      47.383  26.276  36.332  1.00  0.00    -0.237 OA
ATOM     96  O   UNL A   1      47.983  24.218  35.126  1.00  0.00    -0.744 OA
ENDBRANCH  89  93
ENDBRANCH  63  86
ENDBRANCH  37  38
ENDBRANCH  29  32
ENDBRANCH  27  28
ENDBRANCH   1  27
TORSDOF 15
ENDMDL
