MODEL 1
REMARK VINA RESULT:     -11.7      0.000      0.000
REMARK SMILES CC[C@@H]1CC(=O)N(Cc2ccc(C(=O)NCCCNC(=O)c3ccc(-c4c5nc(c(-c6cc(S(=O)(=O)[O-])ccc6F)c6ccc([nH]6)c(-c6cc(S(=O)(=O)[O-])ccc6F)c6nc(c(-c7cc(S(=O)(=O)[O-])ccc7F)c7ccc4[nH]7)C=C6)C=C5)cc3)cn2)C1
REMARK SMILES IDX 17 1 16 2 15 3 13 4 14 5 12 7 9 8 10 9 86 10 11 11 85 12
REMARK SMILES IDX 8 13 7 14 3 15 4 16 87 17 5 18 6 19 2 20 1 21 18 22 19 23
REMARK SMILES IDX 20 24 21 26 22 27 23 28 84 29 24 30 83 31 25 32 26 33 27 34
REMARK SMILES IDX 77 35 28 36 82 37 76 38 78 39 29 40 81 41 75 42 74 43 30 45
REMARK SMILES IDX 62 46 42 47 61 48 43 49 46 50 60 51 79 52 44 53 45 54 59 56
REMARK SMILES IDX 80 57 47 58 31 59 32 60 40 61 33 62 39 63 41 64 38 65 34 66
REMARK SMILES IDX 35 67 36 68 37 69 63 70 64 71 72 72 65 73 71 74 73 75 70 76
REMARK SMILES IDX 66 77 67 78 68 79 69 80 48 81 49 82 57 83 50 84 56 85 58 86
REMARK SMILES IDX 55 87 51 88 52 89 53 90 54 91
REMARK H PARENT 15 6 19 25 78 44 46 55
REMARK Flexibility Score: inf
ROOT
ATOM      1  C   UNL A   1      31.756  32.029  26.761  1.00  0.00     0.042 C 
ENDROOT
BRANCH   1   2
ATOM      2  C   UNL A   1      31.869  30.511  26.882  1.00  0.00     0.118 C 
BRANCH   2   3
ATOM      3  N   UNL A   1      33.115  30.125  27.520  1.00  0.00    -0.352 N 
ATOM      4  C   UNL A   1      34.061  29.187  27.194  1.00  0.00     0.252 C 
ATOM      5  O   UNL A   1      35.081  29.131  27.878  1.00  0.00    -0.269 OA
ATOM      6  H   UNL A   1      33.319  30.630  28.340  1.00  0.00     0.163 HD
BRANCH   4   7
ATOM      7  C   UNL A   1      33.931  28.288  26.026  1.00  0.00     0.058 A 
ATOM      8  C   UNL A   1      33.584  26.851  23.687  1.00  0.00     0.060 A 
ATOM      9  C   UNL A   1      33.676  26.172  24.901  1.00  0.00     0.026 A 
ATOM     10  N   UNL A   1      33.720  28.196  23.608  1.00  0.00    -0.259 NA
ATOM     11  C   UNL A   1      33.862  26.899  26.076  1.00  0.00     0.017 A 
ATOM     12  C   UNL A   1      33.904  28.877  24.768  1.00  0.00     0.125 A 
BRANCH   8  13
ATOM     13  C   UNL A   1      33.283  26.097  22.410  1.00  0.00     0.175 C 
BRANCH  13  14
ATOM     14  N   UNL A   1      32.591  24.833  22.631  1.00  0.00    -0.336 N 
ATOM     15  C   UNL A   1      31.012  23.350  23.506  1.00  0.00     0.017 C 
ATOM     16  C   UNL A   1      32.151  22.551  22.863  1.00  0.00     0.105 C 
ATOM     17  C   UNL A   1      31.177  24.737  22.898  1.00  0.00     0.124 C 
ATOM     18  C   UNL A   1      33.208  23.595  22.585  1.00  0.00     0.223 C 
ATOM     19  O   UNL A   1      34.380  23.358  22.359  1.00  0.00    -0.275 OA
BRANCH  15  20
ATOM     20  C   UNL A   1      31.052  23.354  25.047  1.00  0.00     0.002 C 
ATOM     21  C   UNL A   1      32.074  22.435  25.704  1.00  0.00     0.004 C 
ENDBRANCH  15  20
ENDBRANCH  13  14
ENDBRANCH   8  13
ENDBRANCH   4   7
ENDBRANCH   2   3
ENDBRANCH   1   2
BRANCH   1  22
ATOM     22  C   UNL A   1      33.002  32.769  27.241  1.00  0.00     0.118 C 
BRANCH  22  23
ATOM     23  N   UNL A   1      32.683  34.100  27.740  1.00  0.00    -0.352 N 
ATOM     24  C   UNL A   1      33.140  34.759  28.854  1.00  0.00     0.251 C 
ATOM     25  H   UNL A   1      32.040  34.606  27.192  1.00  0.00     0.163 HD
ATOM     26  O   UNL A   1      32.545  35.762  29.239  1.00  0.00    -0.269 OA
BRANCH  24  27
ATOM     27  C   UNL A   1      34.323  34.263  29.591  1.00  0.00     0.039 A 
ATOM     28  C   UNL A   1      34.128  33.510  30.752  1.00  0.00     0.014 A 
ATOM     29  C   UNL A   1      35.619  34.563  29.162  1.00  0.00     0.014 A 
ATOM     30  C   UNL A   1      35.231  32.998  31.440  1.00  0.00     0.010 A 
ATOM     31  C   UNL A   1      36.713  33.988  29.803  1.00  0.00     0.010 A 
ATOM     32  C   UNL A   1      36.531  33.195  30.945  1.00  0.00    -0.014 A 
BRANCH  32  33
ATOM     33  C   UNL A   1      37.707  32.558  31.594  1.00  0.00     0.031 A 
ATOM     34  C   UNL A   1      38.419  31.414  30.925  1.00  0.00     0.074 A 
ATOM     35  C   UNL A   1      38.087  32.971  32.820  1.00  0.00     0.049 A 
ATOM     36  N   UNL A   1      39.403  30.678  31.373  1.00  0.00    -0.248 NA
ATOM     37  C   UNL A   1      37.941  31.031  29.588  1.00  0.00     0.031 C 
ATOM     38  C   UNL A   1      37.452  34.050  33.580  1.00  0.00     0.029 A 
ATOM     39  N   UNL A   1      39.089  32.530  33.649  1.00  0.00    -0.354 N 
ATOM     40  C   UNL A   1      39.659  29.740  30.378  1.00  0.00     0.074 A 
ATOM     41  C   UNL A   1      38.685  29.965  29.331  1.00  0.00     0.031 C 
ATOM     42  C   UNL A   1      38.093  34.203  34.749  1.00  0.00     0.029 A 
ATOM     43  C   UNL A   1      39.146  33.198  34.851  1.00  0.00     0.049 A 
ATOM     44  H   UNL A   1      39.709  31.805  33.406  1.00  0.00     0.167 HD
ATOM     45  C   UNL A   1      40.631  28.795  30.335  1.00  0.00     0.034 A 
ATOM     46  C   UNL A   1      39.940  33.009  35.923  1.00  0.00     0.034 A 
ATOM     47  C   UNL A   1      41.594  28.588  31.391  1.00  0.00     0.049 A 
ATOM     48  C   UNL A   1      40.975  31.914  35.874  1.00  0.00     0.074 A 
ATOM     49  C   UNL A   1      42.652  27.697  31.428  1.00  0.00     0.029 A 
ATOM     50  N   UNL A   1      41.607  29.268  32.601  1.00  0.00    -0.354 N 
ATOM     51  N   UNL A   1      41.240  31.071  34.902  1.00  0.00    -0.248 NA
ATOM     52  C   UNL A   1      41.822  31.748  37.063  1.00  0.00     0.031 C 
ATOM     53  C   UNL A   1      43.251  27.779  32.689  1.00  0.00     0.029 A 
ATOM     54  C   UNL A   1      42.627  28.785  33.408  1.00  0.00     0.049 A 
ATOM     55  H   UNL A   1      40.985  29.989  32.851  1.00  0.00     0.167 HD
ATOM     56  C   UNL A   1      42.303  30.294  35.354  1.00  0.00     0.074 A 
ATOM     57  C   UNL A   1      42.641  30.782  36.676  1.00  0.00     0.031 C 
ATOM     58  C   UNL A   1      42.943  29.271  34.732  1.00  0.00     0.034 A 
BRANCH  45  59
ATOM     59  C   UNL A   1      40.677  27.894  29.123  1.00  0.00     0.023 A 
ATOM     60  C   UNL A   1      41.598  28.103  28.081  1.00  0.00     0.031 A 
ATOM     61  C   UNL A   1      39.779  26.818  28.998  1.00  0.00     0.131 A 
ATOM     62  C   UNL A   1      41.550  27.300  26.931  1.00  0.00     0.055 A 
ATOM     63  C   UNL A   1      39.795  25.969  27.889  1.00  0.00     0.041 A 
ATOM     64  F   UNL A   1      38.862  26.580  29.948  1.00  0.00    -0.206 F 
ATOM     65  C   UNL A   1      40.674  26.218  26.840  1.00  0.00     0.022 A 
BRANCH  62  66
ATOM     66  S   UNL A   1      42.547  27.786  25.496  1.00  0.00     0.124 S 
ATOM     67  O   UNL A   1      43.850  28.030  26.111  1.00  0.00    -0.237 OA
ATOM     68  O   UNL A   1      42.458  26.612  24.637  1.00  0.00    -0.237 OA
ATOM     69  O   UNL A   1      41.870  28.981  24.996  1.00  0.00    -0.744 OA
ENDBRANCH  62  66
ENDBRANCH  45  59
BRANCH  46  70
ATOM     70  C   UNL A   1      39.776  33.852  37.143  1.00  0.00     0.023 A 
ATOM     71  C   UNL A   1      39.137  33.350  38.288  1.00  0.00     0.031 A 
ATOM     72  C   UNL A   1      40.217  35.188  37.169  1.00  0.00     0.131 A 
ATOM     73  C   UNL A   1      38.914  34.191  39.390  1.00  0.00     0.055 A 
ATOM     74  C   UNL A   1      40.048  36.001  38.290  1.00  0.00     0.041 A 
ATOM     75  F   UNL A   1      40.837  35.719  36.102  1.00  0.00    -0.206 F 
ATOM     76  C   UNL A   1      39.379  35.508  39.405  1.00  0.00     0.022 A 
BRANCH  73  77
ATOM     77  S   UNL A   1      37.916  33.565  40.770  1.00  0.00     0.124 S 
ATOM     78  O   UNL A   1      37.820  34.744  41.624  1.00  0.00    -0.237 OA
ATOM     79  O   UNL A   1      36.688  33.159  40.095  1.00  0.00    -0.237 OA
ATOM     80  O   UNL A   1      38.723  32.470  41.303  1.00  0.00    -0.744 OA
ENDBRANCH  73  77
ENDBRANCH  46  70
BRANCH  58  81
ATOM     81  C   UNL A   1      44.100  28.636  35.466  1.00  0.00     0.023 A 
ATOM     82  C   UNL A   1      43.909  27.596  36.392  1.00  0.00     0.031 A 
ATOM     83  C   UNL A   1      45.414  29.082  35.236  1.00  0.00     0.131 A 
ATOM     84  C   UNL A   1      45.006  27.073  37.092  1.00  0.00     0.055 A 
ATOM     85  C   UNL A   1      46.509  28.510  35.885  1.00  0.00     0.041 A 
ATOM     86  F   UNL A   1      45.656  30.077  34.367  1.00  0.00    -0.206 F 
ATOM     87  C   UNL A   1      46.307  27.508  36.829  1.00  0.00     0.022 A 
BRANCH  84  88
ATOM     88  S   UNL A   1      44.700  25.876  38.421  1.00  0.00     0.124 S 
ATOM     89  O   UNL A   1      46.038  25.691  38.973  1.00  0.00    -0.237 OA
ATOM     90  O   UNL A   1      43.752  26.587  39.272  1.00  0.00    -0.237 OA
ATOM     91  O   UNL A   1      44.153  24.717  37.718  1.00  0.00    -0.744 OA
ENDBRANCH  84  88
ENDBRANCH  58  81
ENDBRANCH  32  33
ENDBRANCH  24  27
ENDBRANCH  22  23
ENDBRANCH   1  22
TORSDOF 16
ENDMDL
MODEL 2
REMARK VINA RESULT:     -11.6      1.291      1.611
REMARK SMILES CC[C@@H]1CC(=O)N(Cc2ccc(C(=O)NCCCNC(=O)c3ccc(-c4c5nc(c(-c6cc(S(=O)(=O)[O-])ccc6F)c6ccc([nH]6)c(-c6cc(S(=O)(=O)[O-])ccc6F)c6nc(c(-c7cc(S(=O)(=O)[O-])ccc7F)c7ccc4[nH]7)C=C6)C=C5)cc3)cn2)C1
REMARK SMILES IDX 17 1 16 2 15 3 13 4 14 5 12 7 9 8 10 9 86 10 11 11 85 12
REMARK SMILES IDX 8 13 7 14 3 15 4 16 87 17 5 18 6 19 2 20 1 21 18 22 19 23
REMARK SMILES IDX 20 24 21 26 22 27 23 28 84 29 24 30 83 31 25 32 26 33 27 34
REMARK SMILES IDX 77 35 28 36 82 37 76 38 78 39 29 40 81 41 75 42 74 43 30 45
REMARK SMILES IDX 62 46 42 47 61 48 43 49 46 50 60 51 79 52 44 53 45 54 59 56
REMARK SMILES IDX 80 57 47 58 31 59 32 60 40 61 33 62 39 63 41 64 38 65 34 66
REMARK SMILES IDX 35 67 36 68 37 69 63 70 64 71 72 72 65 73 71 74 73 75 70 76
REMARK SMILES IDX 66 77 67 78 68 79 69 80 48 81 49 82 57 83 50 84 56 85 58 86
REMARK SMILES IDX 55 87 51 88 52 89 53 90 54 91
REMARK H PARENT 15 6 19 25 78 44 46 55
REMARK Flexibility Score: inf
ROOT
ATOM      1  C   UNL A   1      31.565  31.963  26.669  1.00  0.00     0.042 C 
ENDROOT
BRANCH   1   2
ATOM      2  C   UNL A   1      31.762  30.489  26.321  1.00  0.00     0.118 C 
BRANCH   2   3
ATOM      3  N   UNL A   1      31.209  30.177  25.015  1.00  0.00    -0.352 N 
ATOM      4  C   UNL A   1      31.093  28.997  24.326  1.00  0.00     0.252 C 
ATOM      5  O   UNL A   1      30.492  29.010  23.253  1.00  0.00    -0.269 OA
ATOM      6  H   UNL A   1      30.853  30.959  24.533  1.00  0.00     0.163 HD
BRANCH   4   7
ATOM      7  C   UNL A   1      31.602  27.710  24.846  1.00  0.00     0.058 A 
ATOM      8  C   UNL A   1      32.786  25.331  25.618  1.00  0.00     0.060 A 
ATOM      9  C   UNL A   1      31.443  25.555  25.913  1.00  0.00     0.026 A 
ATOM     10  N   UNL A   1      33.552  26.271  25.015  1.00  0.00    -0.259 NA
ATOM     11  C   UNL A   1      30.852  26.759  25.532  1.00  0.00     0.017 A 
ATOM     12  C   UNL A   1      32.952  27.435  24.659  1.00  0.00     0.125 A 
BRANCH   8  13
ATOM     13  C   UNL A   1      33.426  23.995  25.930  1.00  0.00     0.175 C 
BRANCH  13  14
ATOM     14  N   UNL A   1      32.904  22.899  25.125  1.00  0.00    -0.336 N 
ATOM     15  C   UNL A   1      32.158  20.742  24.621  1.00  0.00     0.017 C 
ATOM     16  C   UNL A   1      32.434  21.498  23.316  1.00  0.00     0.105 C 
ATOM     17  C   UNL A   1      32.054  21.860  25.650  1.00  0.00     0.124 C 
ATOM     18  C   UNL A   1      33.149  22.749  23.770  1.00  0.00     0.223 C 
ATOM     19  O   UNL A   1      33.808  23.476  23.051  1.00  0.00    -0.275 OA
BRANCH  15  20
ATOM     20  C   UNL A   1      33.235  19.695  24.969  1.00  0.00     0.002 C 
ATOM     21  C   UNL A   1      32.738  18.370  25.531  1.00  0.00     0.004 C 
ENDBRANCH  15  20
ENDBRANCH  13  14
ENDBRANCH   8  13
ENDBRANCH   4   7
ENDBRANCH   2   3
ENDBRANCH   1   2
BRANCH   1  22
ATOM     22  C   UNL A   1      32.804  32.610  27.283  1.00  0.00     0.118 C 
BRANCH  22  23
ATOM     23  N   UNL A   1      32.571  34.006  27.627  1.00  0.00    -0.352 N 
ATOM     24  C   UNL A   1      33.103  34.768  28.637  1.00  0.00     0.251 C 
ATOM     25  H   UNL A   1      31.933  34.477  27.043  1.00  0.00     0.163 HD
ATOM     26  O   UNL A   1      32.575  35.841  28.917  1.00  0.00    -0.269 OA
BRANCH  24  27
ATOM     27  C   UNL A   1      34.288  34.300  29.390  1.00  0.00     0.039 A 
ATOM     28  C   UNL A   1      34.097  33.617  30.594  1.00  0.00     0.014 A 
ATOM     29  C   UNL A   1      35.583  34.559  28.932  1.00  0.00     0.014 A 
ATOM     30  C   UNL A   1      35.202  33.132  31.299  1.00  0.00     0.010 A 
ATOM     31  C   UNL A   1      36.677  34.008  29.594  1.00  0.00     0.010 A 
ATOM     32  C   UNL A   1      36.498  33.284  30.781  1.00  0.00    -0.014 A 
BRANCH  32  33
ATOM     33  C   UNL A   1      37.673  32.671  31.453  1.00  0.00     0.031 A 
ATOM     34  C   UNL A   1      38.391  31.509  30.824  1.00  0.00     0.074 A 
ATOM     35  C   UNL A   1      38.048  33.123  32.667  1.00  0.00     0.049 A 
ATOM     36  N   UNL A   1      39.375  30.791  31.297  1.00  0.00    -0.248 NA
ATOM     37  C   UNL A   1      37.919  31.084  29.497  1.00  0.00     0.031 C 
ATOM     38  C   UNL A   1      37.406  34.223  33.391  1.00  0.00     0.029 A 
ATOM     39  N   UNL A   1      39.048  32.711  33.513  1.00  0.00    -0.354 N 
ATOM     40  C   UNL A   1      39.638  29.822  30.333  1.00  0.00     0.074 A 
ATOM     41  C   UNL A   1      38.667  30.012  29.276  1.00  0.00     0.031 C 
ATOM     42  C   UNL A   1      38.043  34.415  34.557  1.00  0.00     0.029 A 
ATOM     43  C   UNL A   1      39.098  33.416  34.695  1.00  0.00     0.049 A 
ATOM     44  H   UNL A   1      39.670  31.980  33.296  1.00  0.00     0.167 HD
ATOM     45  C   UNL A   1      40.612  28.879  30.323  1.00  0.00     0.034 A 
ATOM     46  C   UNL A   1      39.888  33.263  35.775  1.00  0.00     0.034 A 
ATOM     47  C   UNL A   1      41.571  28.708  31.388  1.00  0.00     0.049 A 
ATOM     48  C   UNL A   1      40.927  32.169  35.764  1.00  0.00     0.074 A 
ATOM     49  C   UNL A   1      42.632  27.821  31.457  1.00  0.00     0.029 A 
ATOM     50  N   UNL A   1      41.579  29.425  32.577  1.00  0.00    -0.354 N 
ATOM     51  N   UNL A   1      41.198  31.298  34.819  1.00  0.00    -0.248 NA
ATOM     52  C   UNL A   1      41.769  32.043  36.960  1.00  0.00     0.031 C 
ATOM     53  C   UNL A   1      43.226  27.944  32.717  1.00  0.00     0.029 A 
ATOM     54  C   UNL A   1      42.596  28.970  33.403  1.00  0.00     0.049 A 
ATOM     55  H   UNL A   1      40.953  30.152  32.802  1.00  0.00     0.167 HD
ATOM     56  C   UNL A   1      42.261  30.538  35.300  1.00  0.00     0.074 A 
ATOM     57  C   UNL A   1      42.592  31.068  36.607  1.00  0.00     0.031 C 
ATOM     58  C   UNL A   1      42.906  29.498  34.712  1.00  0.00     0.034 A 
BRANCH  45  59
ATOM     59  C   UNL A   1      40.665  27.942  29.139  1.00  0.00     0.023 A 
ATOM     60  C   UNL A   1      41.601  28.110  28.104  1.00  0.00     0.031 A 
ATOM     61  C   UNL A   1      39.760  26.870  29.036  1.00  0.00     0.131 A 
ATOM     62  C   UNL A   1      41.560  27.273  26.978  1.00  0.00     0.055 A 
ATOM     63  C   UNL A   1      39.782  25.987  27.954  1.00  0.00     0.041 A 
ATOM     64  F   UNL A   1      38.829  26.669  29.981  1.00  0.00    -0.206 F 
ATOM     65  C   UNL A   1      40.676  26.196  26.909  1.00  0.00     0.022 A 
BRANCH  62  66
ATOM     66  S   UNL A   1      42.580  27.706  25.542  1.00  0.00     0.124 S 
ATOM     67  O   UNL A   1      43.889  27.906  26.159  1.00  0.00    -0.237 OA
ATOM     68  O   UNL A   1      42.447  26.528  24.694  1.00  0.00    -0.237 OA
ATOM     69  O   UNL A   1      41.951  28.921  25.028  1.00  0.00    -0.744 OA
ENDBRANCH  62  66
ENDBRANCH  45  59
BRANCH  46  70
ATOM     70  C   UNL A   1      39.717  34.142  36.968  1.00  0.00     0.023 A 
ATOM     71  C   UNL A   1      39.134  33.655  38.149  1.00  0.00     0.031 A 
ATOM     72  C   UNL A   1      40.095  35.498  36.932  1.00  0.00     0.131 A 
ATOM     73  C   UNL A   1      38.902  34.526  39.225  1.00  0.00     0.055 A 
ATOM     74  C   UNL A   1      39.917  36.344  38.028  1.00  0.00     0.041 A 
ATOM     75  F   UNL A   1      40.659  36.016  35.829  1.00  0.00    -0.206 F 
ATOM     76  C   UNL A   1      39.303  35.862  39.178  1.00  0.00     0.022 A 
BRANCH  73  77
ATOM     77  S   UNL A   1      37.973  33.907  40.655  1.00  0.00     0.124 S 
ATOM     78  O   UNL A   1      37.618  35.146  41.337  1.00  0.00    -0.237 OA
ATOM     79  O   UNL A   1      36.876  33.188  40.015  1.00  0.00    -0.237 OA
ATOM     80  O   UNL A   1      38.944  33.065  41.352  1.00  0.00    -0.744 OA
ENDBRANCH  73  77
ENDBRANCH  46  70
BRANCH  58  81
ATOM     81  C   UNL A   1      44.062  28.889  35.470  1.00  0.00     0.023 A 
ATOM     82  C   UNL A   1      43.888  27.792  36.329  1.00  0.00     0.031 A 
ATOM     83  C   UNL A   1      45.357  29.420  35.329  1.00  0.00     0.131 A 
ATOM     84  C   UNL A   1      44.979  27.292  37.056  1.00  0.00     0.055 A 
ATOM     85  C   UNL A   1      46.452  28.875  36.002  1.00  0.00     0.041 A 
ATOM     86  F   UNL A   1      45.582  30.472  34.527  1.00  0.00    -0.206 F 
ATOM     87  C   UNL A   1      46.264  27.813  36.882  1.00  0.00     0.022 A 
BRANCH  84  88
ATOM     88  S   UNL A   1      44.681  26.010  38.304  1.00  0.00     0.124 S 
ATOM     89  O   UNL A   1      43.467  26.496  38.951  1.00  0.00    -0.237 OA
ATOM     90  O   UNL A   1      44.532  24.808  37.489  1.00  0.00    -0.237 OA
ATOM     91  O   UNL A   1      45.884  26.051  39.132  1.00  0.00    -0.744 OA
ENDBRANCH  84  88
ENDBRANCH  58  81
ENDBRANCH  32  33
ENDBRANCH  24  27
ENDBRANCH  22  23
ENDBRANCH   1  22
TORSDOF 16
ENDMDL
MODEL 3
REMARK VINA RESULT:     -11.5      5.893     11.020
REMARK SMILES CC[C@@H]1CC(=O)N(Cc2ccc(C(=O)NCCCNC(=O)c3ccc(-c4c5nc(c(-c6cc(S(=O)(=O)[O-])ccc6F)c6ccc([nH]6)c(-c6cc(S(=O)(=O)[O-])ccc6F)c6nc(c(-c7cc(S(=O)(=O)[O-])ccc7F)c7ccc4[nH]7)C=C6)C=C5)cc3)cn2)C1
REMARK SMILES IDX 17 1 16 2 15 3 13 4 14 5 12 7 9 8 10 9 86 10 11 11 85 12
REMARK SMILES IDX 8 13 7 14 3 15 4 16 87 17 5 18 6 19 2 20 1 21 18 22 19 23
REMARK SMILES IDX 20 24 21 26 22 27 23 28 84 29 24 30 83 31 25 32 26 33 27 34
REMARK SMILES IDX 77 35 28 36 82 37 76 38 78 39 29 40 81 41 75 42 74 43 30 45
REMARK SMILES IDX 62 46 42 47 61 48 43 49 46 50 60 51 79 52 44 53 45 54 59 56
REMARK SMILES IDX 80 57 47 58 31 59 32 60 40 61 33 62 39 63 41 64 38 65 34 66
REMARK SMILES IDX 35 67 36 68 37 69 63 70 64 71 72 72 65 73 71 74 73 75 70 76
REMARK SMILES IDX 66 77 67 78 68 79 69 80 48 81 49 82 57 83 50 84 56 85 58 86
REMARK SMILES IDX 55 87 51 88 52 89 53 90 54 91
REMARK H PARENT 15 6 19 25 78 44 46 55
REMARK Flexibility Score: inf
ROOT
ATOM      1  C   UNL A   1      35.841  21.527  24.642  1.00  0.00     0.042 C 
ENDROOT
BRANCH   1   2
ATOM      2  C   UNL A   1      35.110  21.322  25.967  1.00  0.00     0.118 C 
BRANCH   2   3
ATOM      3  N   UNL A   1      34.065  20.321  25.843  1.00  0.00    -0.352 N 
ATOM      4  C   UNL A   1      32.805  20.373  25.305  1.00  0.00     0.252 C 
ATOM      5  O   UNL A   1      32.153  19.331  25.256  1.00  0.00    -0.269 OA
ATOM      6  H   UNL A   1      34.306  19.442  26.215  1.00  0.00     0.163 HD
BRANCH   4   7
ATOM      7  C   UNL A   1      32.226  21.607  24.732  1.00  0.00     0.058 A 
ATOM      8  C   UNL A   1      31.357  23.895  23.441  1.00  0.00     0.060 A 
ATOM      9  C   UNL A   1      31.006  23.686  24.774  1.00  0.00     0.026 A 
ATOM     10  N   UNL A   1      32.063  22.980  22.735  1.00  0.00    -0.259 NA
ATOM     11  C   UNL A   1      31.437  22.527  25.418  1.00  0.00     0.017 A 
ATOM     12  C   UNL A   1      32.464  21.859  23.387  1.00  0.00     0.125 A 
BRANCH   8  13
ATOM     13  C   UNL A   1      30.988  25.188  22.748  1.00  0.00     0.175 C 
BRANCH  13  14
ATOM     14  N   UNL A   1      31.655  26.358  23.306  1.00  0.00    -0.336 N 
ATOM     15  C   UNL A   1      33.336  27.606  24.343  1.00  0.00     0.017 C 
ATOM     16  C   UNL A   1      32.036  28.417  24.341  1.00  0.00     0.105 C 
ATOM     17  C   UNL A   1      33.084  26.547  23.277  1.00  0.00     0.124 C 
ATOM     18  C   UNL A   1      30.992  27.418  23.900  1.00  0.00     0.223 C 
ATOM     19  O   UNL A   1      29.791  27.552  24.047  1.00  0.00    -0.275 OA
BRANCH  15  20
ATOM     20  C   UNL A   1      33.691  27.009  25.720  1.00  0.00     0.002 C 
ATOM     21  C   UNL A   1      34.034  25.525  25.750  1.00  0.00     0.004 C 
ENDBRANCH  15  20
ENDBRANCH  13  14
ENDBRANCH   8  13
ENDBRANCH   4   7
ENDBRANCH   2   3
ENDBRANCH   1   2
BRANCH   1  22
ATOM     22  C   UNL A   1      37.303  21.931  24.813  1.00  0.00     0.118 C 
BRANCH  22  23
ATOM     23  N   UNL A   1      38.086  20.876  25.441  1.00  0.00    -0.352 N 
ATOM     24  C   UNL A   1      39.275  20.945  26.124  1.00  0.00     0.251 C 
ATOM     25  H   UNL A   1      37.703  19.972  25.363  1.00  0.00     0.163 HD
ATOM     26  O   UNL A   1      39.901  19.910  26.338  1.00  0.00    -0.269 OA
BRANCH  24  27
ATOM     27  C   UNL A   1      39.805  22.247  26.585  1.00  0.00     0.039 A 
ATOM     28  C   UNL A   1      40.838  22.262  27.527  1.00  0.00     0.014 A 
ATOM     29  C   UNL A   1      39.267  23.450  26.120  1.00  0.00     0.014 A 
ATOM     30  C   UNL A   1      41.378  23.480  27.944  1.00  0.00     0.010 A 
ATOM     31  C   UNL A   1      39.859  24.659  26.477  1.00  0.00     0.010 A 
ATOM     32  C   UNL A   1      40.924  24.687  27.388  1.00  0.00    -0.014 A 
BRANCH  32  33
ATOM     33  C   UNL A   1      41.567  25.983  27.728  1.00  0.00     0.031 A 
ATOM     34  C   UNL A   1      40.792  27.054  28.444  1.00  0.00     0.074 A 
ATOM     35  C   UNL A   1      42.834  26.215  27.327  1.00  0.00     0.049 A 
ATOM     36  N   UNL A   1      41.153  28.274  28.746  1.00  0.00    -0.248 NA
ATOM     37  C   UNL A   1      39.419  26.715  28.849  1.00  0.00     0.031 C 
ATOM     38  C   UNL A   1      43.674  25.262  26.597  1.00  0.00     0.029 A 
ATOM     39  N   UNL A   1      43.634  27.322  27.463  1.00  0.00    -0.354 N 
ATOM     40  C   UNL A   1      40.052  28.854  29.369  1.00  0.00     0.074 A 
ATOM     41  C   UNL A   1      38.992  27.868  29.345  1.00  0.00     0.031 C 
ATOM     42  C   UNL A   1      44.876  25.815  26.373  1.00  0.00     0.029 A 
ATOM     43  C   UNL A   1      44.876  27.181  26.887  1.00  0.00     0.049 A 
ATOM     44  H   UNL A   1      43.346  28.140  27.929  1.00  0.00     0.167 HD
ATOM     45  C   UNL A   1      39.945  30.086  29.926  1.00  0.00     0.034 A 
ATOM     46  C   UNL A   1      45.893  28.057  26.767  1.00  0.00     0.034 A 
ATOM     47  C   UNL A   1      41.015  31.054  29.939  1.00  0.00     0.049 A 
ATOM     48  C   UNL A   1      45.729  29.441  27.345  1.00  0.00     0.074 A 
ATOM     49  C   UNL A   1      41.034  32.309  30.522  1.00  0.00     0.029 A 
ATOM     50  N   UNL A   1      42.251  30.884  29.328  1.00  0.00    -0.354 N 
ATOM     51  N   UNL A   1      44.700  29.953  27.980  1.00  0.00    -0.248 NA
ATOM     52  C   UNL A   1      46.864  30.360  27.196  1.00  0.00     0.031 C 
ATOM     53  C   UNL A   1      42.244  32.928  30.194  1.00  0.00     0.029 A 
ATOM     54  C   UNL A   1      43.021  32.028  29.483  1.00  0.00     0.049 A 
ATOM     55  H   UNL A   1      42.540  30.070  28.855  1.00  0.00     0.167 HD
ATOM     56  C   UNL A   1      45.077  31.247  28.329  1.00  0.00     0.074 A 
ATOM     57  C   UNL A   1      46.433  31.427  27.851  1.00  0.00     0.031 C 
ATOM     58  C   UNL A   1      44.367  32.200  28.987  1.00  0.00     0.034 A 
BRANCH  45  59
ATOM     59  C   UNL A   1      38.615  30.464  30.537  1.00  0.00     0.023 A 
ATOM     60  C   UNL A   1      37.660  31.209  29.824  1.00  0.00     0.031 A 
ATOM     61  C   UNL A   1      38.302  30.085  31.855  1.00  0.00     0.131 A 
ATOM     62  C   UNL A   1      36.475  31.616  30.456  1.00  0.00     0.055 A 
ATOM     63  C   UNL A   1      37.083  30.421  32.448  1.00  0.00     0.041 A 
ATOM     64  F   UNL A   1      39.181  29.392  32.594  1.00  0.00    -0.206 F 
ATOM     65  C   UNL A   1      36.167  31.204  31.753  1.00  0.00     0.022 A 
BRANCH  62  66
ATOM     66  S   UNL A   1      35.412  32.817  29.608  1.00  0.00     0.124 S 
ATOM     67  O   UNL A   1      36.347  33.913  29.359  1.00  0.00    -0.237 OA
ATOM     68  O   UNL A   1      34.971  32.075  28.433  1.00  0.00    -0.237 OA
ATOM     69  O   UNL A   1      34.371  33.109  30.591  1.00  0.00    -0.744 OA
ENDBRANCH  62  66
ENDBRANCH  45  59
BRANCH  46  70
ATOM     70  C   UNL A   1      47.143  27.671  26.052  1.00  0.00     0.023 A 
ATOM     71  C   UNL A   1      47.292  27.906  24.675  1.00  0.00     0.031 A 
ATOM     72  C   UNL A   1      48.195  27.021  26.724  1.00  0.00     0.131 A 
ATOM     73  C   UNL A   1      48.440  27.452  24.008  1.00  0.00     0.055 A 
ATOM     74  C   UNL A   1      49.361  26.626  26.067  1.00  0.00     0.041 A 
ATOM     75  F   UNL A   1      48.107  26.773  28.041  1.00  0.00    -0.206 F 
ATOM     76  C   UNL A   1      49.482  26.827  24.697  1.00  0.00     0.022 A 
BRANCH  73  77
ATOM     77  S   UNL A   1      48.508  27.601  22.201  1.00  0.00     0.124 S 
ATOM     78  O   UNL A   1      49.687  28.439  22.017  1.00  0.00    -0.237 OA
ATOM     79  O   UNL A   1      48.638  26.207  21.788  1.00  0.00    -0.237 OA
ATOM     80  O   UNL A   1      47.233  28.231  21.865  1.00  0.00    -0.744 OA
ENDBRANCH  73  77
ENDBRANCH  46  70
BRANCH  58  81
ATOM     81  C   UNL A   1      45.065  33.511  29.259  1.00  0.00     0.023 A 
ATOM     82  C   UNL A   1      44.960  34.602  28.379  1.00  0.00     0.031 A 
ATOM     83  C   UNL A   1      45.847  33.670  30.417  1.00  0.00     0.131 A 
ATOM     84  C   UNL A   1      45.668  35.784  28.642  1.00  0.00     0.055 A 
ATOM     85  C   UNL A   1      46.495  34.871  30.708  1.00  0.00     0.041 A 
ATOM     86  F   UNL A   1      45.989  32.660  31.290  1.00  0.00    -0.206 F 
ATOM     87  C   UNL A   1      46.417  35.933  29.812  1.00  0.00     0.022 A 
BRANCH  84  88
ATOM     88  S   UNL A   1      45.672  37.094  27.388  1.00  0.00     0.124 S 
ATOM     89  O   UNL A   1      44.302  37.037  26.888  1.00  0.00    -0.237 OA
ATOM     90  O   UNL A   1      46.016  38.277  28.171  1.00  0.00    -0.237 OA
ATOM     91  O   UNL A   1      46.696  36.660  26.441  1.00  0.00    -0.744 OA
ENDBRANCH  84  88
ENDBRANCH  58  81
ENDBRANCH  32  33
ENDBRANCH  24  27
ENDBRANCH  22  23
ENDBRANCH   1  22
TORSDOF 16
ENDMDL
