MODEL 1
REMARK VINA RESULT:     -13.4      0.000      0.000
REMARK SMILES Cc1c(CC(=O)NCCCNC(=O)c2ccc(-c3c4nc(c(-c5cc(S(=O)(=O)[O-])ccc5F)c5ccc([nH]5)c(-c5cc(S(=O)(=O)[O-])ccc5F)c5nc(c(-c6cc(S(=O)(=O)[O-])ccc6F)c6ccc3[nH]6)C=C5)C=C4)cc2)cc(-c2ccccc2)cc1-c1ccccc1
REMARK SMILES IDX 9 1 8 2 7 3 5 4 6 5 4 7 3 8 1 9 2 10 86 11 77 12 85 13 78 14
REMARK SMILES IDX 87 15 88 16 92 17 89 18 91 19 90 20 79 21 80 22 84 23 81 24
REMARK SMILES IDX 83 25 82 26 10 27 11 28 12 29 13 31 14 32 15 33 76 34 16 35
REMARK SMILES IDX 75 36 17 37 18 38 19 39 69 40 20 41 74 42 68 43 70 44 21 45
REMARK SMILES IDX 73 46 67 47 66 48 22 50 54 51 34 52 53 53 35 54 38 55 52 56
REMARK SMILES IDX 71 57 36 58 37 59 51 61 72 62 39 63 23 64 24 65 32 66 25 67
REMARK SMILES IDX 31 68 33 69 30 70 26 71 27 72 28 73 29 74 55 75 56 76 64 77
REMARK SMILES IDX 57 78 63 79 65 80 62 81 58 82 59 83 60 84 61 85 40 86 41 87
REMARK SMILES IDX 49 88 42 89 48 90 50 91 47 92 43 93 44 94 45 95 46 96
REMARK H PARENT 7 6 11 30 70 49 38 60
REMARK Flexibility Score: inf
ROOT
ATOM      1  C   UNL A   1      33.597  33.086  28.103  1.00  0.00     0.042 C 
ENDROOT
BRANCH   1   2
ATOM      2  C   UNL A   1      33.170  31.936  27.193  1.00  0.00     0.117 C 
BRANCH   2   3
ATOM      3  N   UNL A   1      34.187  30.900  27.077  1.00  0.00    -0.356 N 
ATOM      4  C   UNL A   1      34.052  29.541  27.116  1.00  0.00     0.224 C 
ATOM      5  O   UNL A   1      35.054  28.833  26.975  1.00  0.00    -0.275 OA
ATOM      6  H   UNL A   1      35.106  31.226  26.951  1.00  0.00     0.163 HD
BRANCH   4   7
ATOM      7  C   UNL A   1      32.684  28.905  27.339  1.00  0.00     0.135 C 
BRANCH   7   8
ATOM      8  C   UNL A   1      32.035  28.393  26.062  1.00  0.00    -0.035 A 
ATOM      9  C   UNL A   1      32.982  26.046  26.356  1.00  0.00     0.045 C 
ATOM     10  C   UNL A   1      32.218  27.080  25.560  1.00  0.00    -0.040 A 
ATOM     11  C   UNL A   1      31.654  26.735  24.302  1.00  0.00    -0.015 A 
ATOM     12  C   UNL A   1      31.237  29.307  25.338  1.00  0.00     0.013 A 
ATOM     13  C   UNL A   1      30.885  27.692  23.607  1.00  0.00     0.017 A 
ATOM     14  C   UNL A   1      30.651  28.977  24.112  1.00  0.00    -0.017 A 
BRANCH  11  15
ATOM     15  C   UNL A   1      31.886  25.433  23.649  1.00  0.00    -0.018 A 
ATOM     16  C   UNL A   1      33.005  25.249  22.818  1.00  0.00     0.009 A 
ATOM     17  C   UNL A   1      31.020  24.347  23.848  1.00  0.00     0.009 A 
ATOM     18  C   UNL A   1      33.258  24.016  22.215  1.00  0.00     0.001 A 
ATOM     19  C   UNL A   1      31.280  23.108  23.254  1.00  0.00     0.001 A 
ATOM     20  C   UNL A   1      32.397  22.945  22.437  1.00  0.00     0.000 A 
ENDBRANCH  11  15
BRANCH  14  21
ATOM     21  C   UNL A   1      29.827  29.948  23.375  1.00  0.00    -0.018 A 
ATOM     22  C   UNL A   1      29.372  31.129  23.984  1.00  0.00     0.009 A 
ATOM     23  C   UNL A   1      29.458  29.712  22.039  1.00  0.00     0.009 A 
ATOM     24  C   UNL A   1      28.576  32.040  23.285  1.00  0.00     0.001 A 
ATOM     25  C   UNL A   1      28.661  30.621  21.339  1.00  0.00     0.001 A 
ATOM     26  C   UNL A   1      28.220  31.785  21.963  1.00  0.00     0.000 A 
ENDBRANCH  14  21
ENDBRANCH   7   8
ENDBRANCH   4   7
ENDBRANCH   2   3
ENDBRANCH   1   2
BRANCH   1  27
ATOM     27  C   UNL A   1      35.016  32.939  28.635  1.00  0.00     0.118 C 
BRANCH  27  28
ATOM     28  N   UNL A   1      35.087  32.752  30.083  1.00  0.00    -0.352 N 
ATOM     29  C   UNL A   1      35.695  31.729  30.789  1.00  0.00     0.251 C 
ATOM     30  H   UNL A   1      34.644  33.443  30.626  1.00  0.00     0.163 HD
ATOM     31  O   UNL A   1      35.659  31.676  32.009  1.00  0.00    -0.269 OA
BRANCH  29  32
ATOM     32  C   UNL A   1      36.508  30.752  30.029  1.00  0.00     0.039 A 
ATOM     33  C   UNL A   1      36.721  29.502  30.617  1.00  0.00     0.014 A 
ATOM     34  C   UNL A   1      37.243  31.154  28.917  1.00  0.00     0.014 A 
ATOM     35  C   UNL A   1      37.827  28.750  30.232  1.00  0.00     0.010 A 
ATOM     36  C   UNL A   1      38.392  30.453  28.597  1.00  0.00     0.010 A 
ATOM     37  C   UNL A   1      38.717  29.285  29.298  1.00  0.00    -0.014 A 
BRANCH  37  38
ATOM     38  C   UNL A   1      40.079  28.782  29.139  1.00  0.00     0.031 A 
ATOM     39  C   UNL A   1      40.351  27.353  28.888  1.00  0.00     0.074 A 
ATOM     40  C   UNL A   1      41.124  29.636  29.213  1.00  0.00     0.049 A 
ATOM     41  N   UNL A   1      41.431  26.747  29.257  1.00  0.00    -0.248 NA
ATOM     42  C   UNL A   1      39.398  26.476  28.220  1.00  0.00     0.031 C 
ATOM     43  C   UNL A   1      42.515  29.367  28.863  1.00  0.00     0.029 A 
ATOM     44  N   UNL A   1      41.162  30.864  29.866  1.00  0.00    -0.354 N 
ATOM     45  C   UNL A   1      41.452  25.520  28.639  1.00  0.00     0.074 A 
ATOM     46  C   UNL A   1      40.133  25.370  28.063  1.00  0.00     0.031 C 
ATOM     47  C   UNL A   1      43.302  30.241  29.510  1.00  0.00     0.029 A 
ATOM     48  C   UNL A   1      42.455  31.020  30.393  1.00  0.00     0.049 A 
ATOM     49  H   UNL A   1      40.420  31.507  29.945  1.00  0.00     0.167 HD
ATOM     50  C   UNL A   1      42.618  24.820  28.549  1.00  0.00     0.034 A 
ATOM     51  C   UNL A   1      42.658  31.206  31.730  1.00  0.00     0.034 A 
ATOM     52  C   UNL A   1      43.733  25.521  29.182  1.00  0.00     0.049 A 
ATOM     53  C   UNL A   1      43.517  30.136  32.365  1.00  0.00     0.074 A 
ATOM     54  C   UNL A   1      44.769  26.287  28.672  1.00  0.00     0.029 A 
ATOM     55  N   UNL A   1      43.744  25.714  30.558  1.00  0.00    -0.354 N 
ATOM     56  N   UNL A   1      43.796  28.993  31.801  1.00  0.00    -0.248 NA
ATOM     57  C   UNL A   1      44.110  30.258  33.692  1.00  0.00     0.031 C 
ATOM     58  C   UNL A   1      45.380  26.977  29.750  1.00  0.00     0.029 A 
ATOM     59  C   UNL A   1      44.732  26.611  30.916  1.00  0.00     0.049 A 
ATOM     60  H   UNL A   1      43.132  25.272  31.191  1.00  0.00     0.167 HD
ATOM     61  C   UNL A   1      44.559  28.229  32.651  1.00  0.00     0.074 A 
ATOM     62  C   UNL A   1      44.749  29.080  33.812  1.00  0.00     0.031 C 
ATOM     63  C   UNL A   1      44.952  26.961  32.315  1.00  0.00     0.034 A 
BRANCH  50  64
ATOM     64  C   UNL A   1      42.802  23.653  27.607  1.00  0.00     0.023 A 
ATOM     65  C   UNL A   1      43.789  23.714  26.601  1.00  0.00     0.031 A 
ATOM     66  C   UNL A   1      42.023  22.482  27.620  1.00  0.00     0.131 A 
ATOM     67  C   UNL A   1      43.889  22.721  25.609  1.00  0.00     0.055 A 
ATOM     68  C   UNL A   1      42.074  21.525  26.597  1.00  0.00     0.041 A 
ATOM     69  F   UNL A   1      41.206  22.199  28.646  1.00  0.00    -0.206 F 
ATOM     70  C   UNL A   1      43.000  21.651  25.572  1.00  0.00     0.022 A 
BRANCH  67  71
ATOM     71  S   UNL A   1      45.208  22.842  24.368  1.00  0.00     0.124 S 
ATOM     72  O   UNL A   1      45.511  24.270  24.373  1.00  0.00    -0.237 OA
ATOM     73  O   UNL A   1      46.230  21.962  24.919  1.00  0.00    -0.237 OA
ATOM     74  O   UNL A   1      44.568  22.355  23.146  1.00  0.00    -0.744 OA
ENDBRANCH  67  71
ENDBRANCH  50  64
BRANCH  51  75
ATOM     75  C   UNL A   1      41.553  31.954  32.392  1.00  0.00     0.023 A 
ATOM     76  C   UNL A   1      40.510  31.185  32.956  1.00  0.00     0.031 A 
ATOM     77  C   UNL A   1      41.695  33.280  32.821  1.00  0.00     0.131 A 
ATOM     78  C   UNL A   1      39.769  31.679  34.037  1.00  0.00     0.055 A 
ATOM     79  C   UNL A   1      40.899  33.796  33.853  1.00  0.00     0.041 A 
ATOM     80  F   UNL A   1      42.683  34.051  32.344  1.00  0.00    -0.206 F 
ATOM     81  C   UNL A   1      39.964  32.981  34.498  1.00  0.00     0.022 A 
BRANCH  78  82
ATOM     82  S   UNL A   1      38.766  30.519  35.015  1.00  0.00     0.124 S 
ATOM     83  O   UNL A   1      39.759  29.913  35.892  1.00  0.00    -0.237 OA
ATOM     84  O   UNL A   1      37.791  31.393  35.666  1.00  0.00    -0.237 OA
ATOM     85  O   UNL A   1      38.184  29.635  34.006  1.00  0.00    -0.744 OA
ENDBRANCH  78  82
ENDBRANCH  51  75
BRANCH  63  86
ATOM     86  C   UNL A   1      45.653  25.958  33.215  1.00  0.00     0.023 A 
ATOM     87  C   UNL A   1      45.025  24.838  33.779  1.00  0.00     0.031 A 
ATOM     88  C   UNL A   1      47.043  26.071  33.483  1.00  0.00     0.131 A 
ATOM     89  C   UNL A   1      45.728  23.946  34.614  1.00  0.00     0.055 A 
ATOM     90  C   UNL A   1      47.755  25.147  34.253  1.00  0.00     0.041 A 
ATOM     91  F   UNL A   1      47.778  27.085  33.002  1.00  0.00    -0.206 F 
ATOM     92  C   UNL A   1      47.095  24.080  34.839  1.00  0.00     0.022 A 
BRANCH  89  93
ATOM     93  S   UNL A   1      44.800  22.630  35.445  1.00  0.00     0.124 S 
ATOM     94  O   UNL A   1      43.419  23.071  35.257  1.00  0.00    -0.237 OA
ATOM     95  O   UNL A   1      45.193  21.444  34.691  1.00  0.00    -0.237 OA
ATOM     96  O   UNL A   1      45.284  22.679  36.823  1.00  0.00    -0.744 OA
ENDBRANCH  89  93
ENDBRANCH  63  86
ENDBRANCH  37  38
ENDBRANCH  29  32
ENDBRANCH  27  28
ENDBRANCH   1  27
TORSDOF 16
ENDMDL
MODEL 2
REMARK VINA RESULT:     -13.3      2.110      2.489
REMARK SMILES Cc1c(CC(=O)NCCCNC(=O)c2ccc(-c3c4nc(c(-c5cc(S(=O)(=O)[O-])ccc5F)c5ccc([nH]5)c(-c5cc(S(=O)(=O)[O-])ccc5F)c5nc(c(-c6cc(S(=O)(=O)[O-])ccc6F)c6ccc3[nH]6)C=C5)C=C4)cc2)cc(-c2ccccc2)cc1-c1ccccc1
REMARK SMILES IDX 9 1 8 2 7 3 5 4 6 5 4 7 3 8 1 9 2 10 86 11 77 12 85 13 78 14
REMARK SMILES IDX 87 15 88 16 92 17 89 18 91 19 90 20 79 21 80 22 84 23 81 24
REMARK SMILES IDX 83 25 82 26 10 27 11 28 12 29 13 31 14 32 15 33 76 34 16 35
REMARK SMILES IDX 75 36 17 37 18 38 19 39 69 40 20 41 74 42 68 43 70 44 21 45
REMARK SMILES IDX 73 46 67 47 66 48 22 50 54 51 34 52 53 53 35 54 38 55 52 56
REMARK SMILES IDX 71 57 36 58 37 59 51 61 72 62 39 63 23 64 24 65 32 66 25 67
REMARK SMILES IDX 31 68 33 69 30 70 26 71 27 72 28 73 29 74 55 75 56 76 64 77
REMARK SMILES IDX 57 78 63 79 65 80 62 81 58 82 59 83 60 84 61 85 40 86 41 87
REMARK SMILES IDX 49 88 42 89 48 90 50 91 47 92 43 93 44 94 45 95 46 96
REMARK H PARENT 7 6 11 30 70 49 38 60
REMARK Flexibility Score: inf
ROOT
ATOM      1  C   UNL A   1      33.873  32.709  28.052  1.00  0.00     0.042 C 
ENDROOT
BRANCH   1   2
ATOM      2  C   UNL A   1      33.352  31.537  27.222  1.00  0.00     0.117 C 
BRANCH   2   3
ATOM      3  N   UNL A   1      34.364  30.514  26.994  1.00  0.00    -0.356 N 
ATOM      4  C   UNL A   1      34.236  29.153  26.977  1.00  0.00     0.224 C 
ATOM      5  O   UNL A   1      35.230  28.459  26.740  1.00  0.00    -0.275 OA
ATOM      6  H   UNL A   1      35.272  30.852  26.827  1.00  0.00     0.163 HD
BRANCH   4   7
ATOM      7  C   UNL A   1      32.887  28.499  27.254  1.00  0.00     0.135 C 
BRANCH   7   8
ATOM      8  C   UNL A   1      32.192  27.984  26.003  1.00  0.00    -0.035 A 
ATOM      9  C   UNL A   1      33.265  25.680  26.188  1.00  0.00     0.045 C 
ATOM     10  C   UNL A   1      32.409  26.692  25.461  1.00  0.00    -0.040 A 
ATOM     11  C   UNL A   1      31.791  26.347  24.228  1.00  0.00    -0.015 A 
ATOM     12  C   UNL A   1      31.312  28.872  25.347  1.00  0.00     0.013 A 
ATOM     13  C   UNL A   1      30.939  27.280  23.600  1.00  0.00     0.017 A 
ATOM     14  C   UNL A   1      30.673  28.540  24.148  1.00  0.00    -0.017 A 
BRANCH  11  15
ATOM     15  C   UNL A   1      32.047  25.072  23.532  1.00  0.00    -0.018 A 
ATOM     16  C   UNL A   1      33.082  24.980  22.584  1.00  0.00     0.009 A 
ATOM     17  C   UNL A   1      31.290  23.922  23.802  1.00  0.00     0.009 A 
ATOM     18  C   UNL A   1      33.359  23.775  21.936  1.00  0.00     0.001 A 
ATOM     19  C   UNL A   1      31.576  22.712  23.163  1.00  0.00     0.001 A 
ATOM     20  C   UNL A   1      32.609  22.641  22.230  1.00  0.00     0.000 A 
ENDBRANCH  11  15
BRANCH  14  21
ATOM     21  C   UNL A   1      29.763  29.485  23.481  1.00  0.00    -0.018 A 
ATOM     22  C   UNL A   1      29.632  30.810  23.930  1.00  0.00     0.009 A 
ATOM     23  C   UNL A   1      28.985  29.083  22.382  1.00  0.00     0.009 A 
ATOM     24  C   UNL A   1      28.754  31.699  23.303  1.00  0.00     0.001 A 
ATOM     25  C   UNL A   1      28.106  29.969  21.756  1.00  0.00     0.001 A 
ATOM     26  C   UNL A   1      27.990  31.278  22.218  1.00  0.00     0.000 A 
ENDBRANCH  14  21
ENDBRANCH   7   8
ENDBRANCH   4   7
ENDBRANCH   2   3
ENDBRANCH   1   2
BRANCH   1  27
ATOM     27  C   UNL A   1      35.295  32.507  28.557  1.00  0.00     0.118 C 
BRANCH  27  28
ATOM     28  N   UNL A   1      35.403  32.456  30.013  1.00  0.00    -0.352 N 
ATOM     29  C   UNL A   1      36.032  31.502  30.795  1.00  0.00     0.251 C 
ATOM     30  H   UNL A   1      34.972  33.194  30.501  1.00  0.00     0.163 HD
ATOM     31  O   UNL A   1      36.026  31.563  32.016  1.00  0.00    -0.269 OA
BRANCH  29  32
ATOM     32  C   UNL A   1      36.828  30.460  30.109  1.00  0.00     0.039 A 
ATOM     33  C   UNL A   1      36.979  29.235  30.765  1.00  0.00     0.014 A 
ATOM     34  C   UNL A   1      37.607  30.778  29.000  1.00  0.00     0.014 A 
ATOM     35  C   UNL A   1      38.066  28.426  30.451  1.00  0.00     0.010 A 
ATOM     36  C   UNL A   1      38.737  30.021  28.748  1.00  0.00     0.010 A 
ATOM     37  C   UNL A   1      39.001  28.880  29.516  1.00  0.00    -0.014 A 
BRANCH  37  38
ATOM     38  C   UNL A   1      40.347  28.321  29.422  1.00  0.00     0.031 A 
ATOM     39  C   UNL A   1      40.589  26.976  28.863  1.00  0.00     0.074 A 
ATOM     40  C   UNL A   1      41.406  29.047  29.845  1.00  0.00     0.049 A 
ATOM     41  N   UNL A   1      41.572  26.215  29.213  1.00  0.00    -0.248 NA
ATOM     42  C   UNL A   1      39.708  26.363  27.878  1.00  0.00     0.031 C 
ATOM     43  C   UNL A   1      42.821  28.758  29.629  1.00  0.00     0.029 A 
ATOM     44  N   UNL A   1      41.401  30.076  30.780  1.00  0.00    -0.354 N 
ATOM     45  C   UNL A   1      41.631  25.174  28.319  1.00  0.00     0.074 A 
ATOM     46  C   UNL A   1      40.407  25.272  27.552  1.00  0.00     0.031 C 
ATOM     47  C   UNL A   1      43.540  29.386  30.571  1.00  0.00     0.029 A 
ATOM     48  C   UNL A   1      42.606  29.998  31.498  1.00  0.00     0.049 A 
ATOM     49  H   UNL A   1      40.686  30.739  30.915  1.00  0.00     0.167 HD
ATOM     50  C   UNL A   1      42.764  24.424  28.216  1.00  0.00     0.034 A 
ATOM     51  C   UNL A   1      42.616  29.843  32.854  1.00  0.00     0.034 A 
ATOM     52  C   UNL A   1      43.803  24.862  29.146  1.00  0.00     0.049 A 
ATOM     53  C   UNL A   1      43.320  28.586  33.313  1.00  0.00     0.074 A 
ATOM     54  C   UNL A   1      44.937  25.641  28.985  1.00  0.00     0.029 A 
ATOM     55  N   UNL A   1      43.616  24.719  30.516  1.00  0.00    -0.354 N 
ATOM     56  N   UNL A   1      43.629  27.593  32.527  1.00  0.00    -0.248 NA
ATOM     57  C   UNL A   1      43.714  28.341  34.696  1.00  0.00     0.031 C 
ATOM     58  C   UNL A   1      45.410  26.004  30.272  1.00  0.00     0.029 A 
ATOM     59  C   UNL A   1      44.579  25.423  31.214  1.00  0.00     0.049 A 
ATOM     60  H   UNL A   1      42.897  24.191  30.931  1.00  0.00     0.167 HD
ATOM     61  C   UNL A   1      44.221  26.589  33.255  1.00  0.00     0.074 A 
ATOM     62  C   UNL A   1      44.273  27.121  34.606  1.00  0.00     0.031 C 
ATOM     63  C   UNL A   1      44.603  25.411  32.673  1.00  0.00     0.034 A 
BRANCH  50  64
ATOM     64  C   UNL A   1      43.034  23.505  27.047  1.00  0.00     0.023 A 
ATOM     65  C   UNL A   1      42.658  22.147  27.123  1.00  0.00     0.031 A 
ATOM     66  C   UNL A   1      43.684  23.887  25.859  1.00  0.00     0.131 A 
ATOM     67  C   UNL A   1      43.029  21.226  26.125  1.00  0.00     0.055 A 
ATOM     68  C   UNL A   1      44.113  22.963  24.897  1.00  0.00     0.041 A 
ATOM     69  F   UNL A   1      43.896  25.180  25.566  1.00  0.00    -0.206 F 
ATOM     70  C   UNL A   1      43.801  21.618  25.036  1.00  0.00     0.022 A 
BRANCH  67  71
ATOM     71  S   UNL A   1      42.479  19.502  26.267  1.00  0.00     0.124 S 
ATOM     72  O   UNL A   1      43.639  18.762  25.783  1.00  0.00    -0.237 OA
ATOM     73  O   UNL A   1      42.188  19.389  27.692  1.00  0.00    -0.237 OA
ATOM     74  O   UNL A   1      41.307  19.449  25.393  1.00  0.00    -0.744 OA
ENDBRANCH  67  71
ENDBRANCH  50  64
BRANCH  51  75
ATOM     75  C   UNL A   1      41.458  30.497  33.526  1.00  0.00     0.023 A 
ATOM     76  C   UNL A   1      41.512  31.901  33.668  1.00  0.00     0.031 A 
ATOM     77  C   UNL A   1      40.209  29.874  33.646  1.00  0.00     0.131 A 
ATOM     78  C   UNL A   1      40.332  32.653  33.739  1.00  0.00     0.055 A 
ATOM     79  C   UNL A   1      39.036  30.627  33.793  1.00  0.00     0.041 A 
ATOM     80  F   UNL A   1      40.089  28.547  33.493  1.00  0.00    -0.206 F 
ATOM     81  C   UNL A   1      39.089  32.023  33.793  1.00  0.00     0.022 A 
BRANCH  78  82
ATOM     82  S   UNL A   1      40.420  34.450  33.467  1.00  0.00     0.124 S 
ATOM     83  O   UNL A   1      41.812  34.743  33.783  1.00  0.00    -0.237 OA
ATOM     84  O   UNL A   1      40.044  34.590  32.061  1.00  0.00    -0.237 OA
ATOM     85  O   UNL A   1      39.430  34.986  34.399  1.00  0.00    -0.744 OA
ENDBRANCH  78  82
ENDBRANCH  51  75
BRANCH  63  86
ATOM     86  C   UNL A   1      45.115  24.169  33.382  1.00  0.00     0.023 A 
ATOM     87  C   UNL A   1      46.425  24.026  33.864  1.00  0.00     0.031 A 
ATOM     88  C   UNL A   1      44.245  23.083  33.663  1.00  0.00     0.131 A 
ATOM     89  C   UNL A   1      46.843  22.844  34.508  1.00  0.00     0.055 A 
ATOM     90  C   UNL A   1      44.642  21.941  34.365  1.00  0.00     0.041 A 
ATOM     91  F   UNL A   1      42.961  23.083  33.273  1.00  0.00    -0.206 F 
ATOM     92  C   UNL A   1      45.956  21.808  34.781  1.00  0.00     0.022 A 
BRANCH  89  93
ATOM     93  S   UNL A   1      48.595  22.672  34.938  1.00  0.00     0.124 S 
ATOM     94  O   UNL A   1      48.883  21.311  34.489  1.00  0.00    -0.237 OA
ATOM     95  O   UNL A   1      49.216  23.739  34.161  1.00  0.00    -0.237 OA
ATOM     96  O   UNL A   1      48.618  22.864  36.387  1.00  0.00    -0.744 OA
ENDBRANCH  89  93
ENDBRANCH  63  86
ENDBRANCH  37  38
ENDBRANCH  29  32
ENDBRANCH  27  28
ENDBRANCH   1  27
TORSDOF 16
ENDMDL
MODEL 3
REMARK VINA RESULT:     -13.3      3.975      9.886
REMARK SMILES Cc1c(CC(=O)NCCCNC(=O)c2ccc(-c3c4nc(c(-c5cc(S(=O)(=O)[O-])ccc5F)c5ccc([nH]5)c(-c5cc(S(=O)(=O)[O-])ccc5F)c5nc(c(-c6cc(S(=O)(=O)[O-])ccc6F)c6ccc3[nH]6)C=C5)C=C4)cc2)cc(-c2ccccc2)cc1-c1ccccc1
REMARK SMILES IDX 9 1 8 2 7 3 5 4 6 5 4 7 3 8 1 9 2 10 86 11 77 12 85 13 78 14
REMARK SMILES IDX 87 15 88 16 92 17 89 18 91 19 90 20 79 21 80 22 84 23 81 24
REMARK SMILES IDX 83 25 82 26 10 27 11 28 12 29 13 31 14 32 15 33 76 34 16 35
REMARK SMILES IDX 75 36 17 37 18 38 19 39 69 40 20 41 74 42 68 43 70 44 21 45
REMARK SMILES IDX 73 46 67 47 66 48 22 50 54 51 34 52 53 53 35 54 38 55 52 56
REMARK SMILES IDX 71 57 36 58 37 59 51 61 72 62 39 63 23 64 24 65 32 66 25 67
REMARK SMILES IDX 31 68 33 69 30 70 26 71 27 72 28 73 29 74 55 75 56 76 64 77
REMARK SMILES IDX 57 78 63 79 65 80 62 81 58 82 59 83 60 84 61 85 40 86 41 87
REMARK SMILES IDX 49 88 42 89 48 90 50 91 47 92 43 93 44 94 45 95 46 96
REMARK H PARENT 7 6 11 30 70 49 38 60
REMARK Flexibility Score: inf
ROOT
ATOM      1  C   UNL A   1      36.670  23.251  26.157  1.00  0.00     0.042 C 
ENDROOT
BRANCH   1   2
ATOM      2  C   UNL A   1      35.454  23.983  25.593  1.00  0.00     0.117 C 
BRANCH   2   3
ATOM      3  N   UNL A   1      34.273  23.848  26.435  1.00  0.00    -0.356 N 
ATOM      4  C   UNL A   1      32.964  24.114  26.147  1.00  0.00     0.224 C 
ATOM      5  O   UNL A   1      32.105  23.907  27.010  1.00  0.00    -0.275 OA
ATOM      6  H   UNL A   1      34.442  23.515  27.346  1.00  0.00     0.163 HD
BRANCH   4   7
ATOM      7  C   UNL A   1      32.569  24.665  24.781  1.00  0.00     0.135 C 
BRANCH   7   8
ATOM      8  C   UNL A   1      32.156  26.129  24.812  1.00  0.00    -0.035 A 
ATOM      9  C   UNL A   1      30.161  25.742  23.274  1.00  0.00     0.045 C 
ATOM     10  C   UNL A   1      31.073  26.654  24.063  1.00  0.00    -0.040 A 
ATOM     11  C   UNL A   1      30.837  28.056  24.078  1.00  0.00    -0.015 A 
ATOM     12  C   UNL A   1      32.930  26.997  25.613  1.00  0.00     0.013 A 
ATOM     13  C   UNL A   1      31.655  28.883  24.877  1.00  0.00     0.017 A 
ATOM     14  C   UNL A   1      32.696  28.375  25.662  1.00  0.00    -0.017 A 
BRANCH  11  15
ATOM     15  C   UNL A   1      29.808  28.705  23.245  1.00  0.00    -0.018 A 
ATOM     16  C   UNL A   1      28.447  28.424  23.459  1.00  0.00     0.009 A 
ATOM     17  C   UNL A   1      30.147  29.622  22.239  1.00  0.00     0.009 A 
ATOM     18  C   UNL A   1      27.456  29.049  22.700  1.00  0.00     0.001 A 
ATOM     19  C   UNL A   1      29.154  30.258  21.488  1.00  0.00     0.001 A 
ATOM     20  C   UNL A   1      27.810  29.970  21.718  1.00  0.00     0.000 A 
ENDBRANCH  11  15
BRANCH  14  21
ATOM     21  C   UNL A   1      33.520  29.259  26.502  1.00  0.00    -0.018 A 
ATOM     22  C   UNL A   1      33.039  30.503  26.942  1.00  0.00     0.009 A 
ATOM     23  C   UNL A   1      34.823  28.887  26.877  1.00  0.00     0.009 A 
ATOM     24  C   UNL A   1      33.832  31.346  27.725  1.00  0.00     0.001 A 
ATOM     25  C   UNL A   1      35.617  29.729  27.658  1.00  0.00     0.001 A 
ATOM     26  C   UNL A   1      35.122  30.959  28.082  1.00  0.00     0.000 A 
ENDBRANCH  14  21
ENDBRANCH   7   8
ENDBRANCH   4   7
ENDBRANCH   2   3
ENDBRANCH   1   2
BRANCH   1  27
ATOM     27  C   UNL A   1      37.973  23.619  25.458  1.00  0.00     0.118 C 
BRANCH  27  28
ATOM     28  N   UNL A   1      39.166  23.112  26.132  1.00  0.00    -0.352 N 
ATOM     29  C   UNL A   1      39.992  23.770  27.027  1.00  0.00     0.251 C 
ATOM     30  H   UNL A   1      39.416  22.183  25.922  1.00  0.00     0.163 HD
ATOM     31  O   UNL A   1      40.983  23.237  27.503  1.00  0.00    -0.269 OA
BRANCH  29  32
ATOM     32  C   UNL A   1      39.575  25.110  27.497  1.00  0.00     0.039 A 
ATOM     33  C   UNL A   1      40.068  26.216  26.798  1.00  0.00     0.014 A 
ATOM     34  C   UNL A   1      38.947  25.266  28.730  1.00  0.00     0.014 A 
ATOM     35  C   UNL A   1      40.137  27.449  27.439  1.00  0.00     0.010 A 
ATOM     36  C   UNL A   1      39.097  26.467  29.400  1.00  0.00     0.010 A 
ATOM     37  C   UNL A   1      39.749  27.539  28.778  1.00  0.00    -0.014 A 
BRANCH  37  38
ATOM     38  C   UNL A   1      40.158  28.647  29.637  1.00  0.00     0.031 A 
ATOM     39  C   UNL A   1      39.199  29.681  30.075  1.00  0.00     0.074 A 
ATOM     40  C   UNL A   1      41.440  28.735  30.055  1.00  0.00     0.049 A 
ATOM     41  N   UNL A   1      39.525  30.902  30.343  1.00  0.00    -0.248 NA
ATOM     42  C   UNL A   1      37.772  29.421  30.215  1.00  0.00     0.031 C 
ATOM     43  C   UNL A   1      41.979  29.625  31.080  1.00  0.00     0.029 A 
ATOM     44  N   UNL A   1      42.565  28.192  29.443  1.00  0.00    -0.354 N 
ATOM     45  C   UNL A   1      38.448  31.495  30.956  1.00  0.00     0.074 A 
ATOM     46  C   UNL A   1      37.359  30.556  30.788  1.00  0.00     0.031 C 
ATOM     47  C   UNL A   1      43.296  29.776  30.874  1.00  0.00     0.029 A 
ATOM     48  C   UNL A   1      43.626  29.091  29.639  1.00  0.00     0.049 A 
ATOM     49  H   UNL A   1      42.609  27.335  28.960  1.00  0.00     0.167 HD
ATOM     50  C   UNL A   1      38.615  32.645  31.667  1.00  0.00     0.034 A 
ATOM     51  C   UNL A   1      44.300  29.634  28.584  1.00  0.00     0.034 A 
ATOM     52  C   UNL A   1      40.001  33.109  31.651  1.00  0.00     0.049 A 
ATOM     53  C   UNL A   1      44.234  31.144  28.538  1.00  0.00     0.074 A 
ATOM     54  C   UNL A   1      41.032  33.014  32.571  1.00  0.00     0.029 A 
ATOM     55  N   UNL A   1      40.575  33.546  30.463  1.00  0.00    -0.354 N 
ATOM     56  N   UNL A   1      43.392  31.860  29.231  1.00  0.00    -0.248 NA
ATOM     57  C   UNL A   1      45.095  31.965  27.694  1.00  0.00     0.031 C 
ATOM     58  C   UNL A   1      42.241  33.357  31.917  1.00  0.00     0.029 A 
ATOM     59  C   UNL A   1      41.942  33.687  30.607  1.00  0.00     0.049 A 
ATOM     60  H   UNL A   1      40.077  33.730  29.634  1.00  0.00     0.167 HD
ATOM     61  C   UNL A   1      43.559  33.191  28.935  1.00  0.00     0.074 A 
ATOM     62  C   UNL A   1      44.657  33.203  27.985  1.00  0.00     0.031 C 
ATOM     63  C   UNL A   1      42.766  34.155  29.497  1.00  0.00     0.034 A 
BRANCH  50  64
ATOM     64  C   UNL A   1      37.580  33.165  32.638  1.00  0.00     0.023 A 
ATOM     65  C   UNL A   1      36.437  33.834  32.152  1.00  0.00     0.031 A 
ATOM     66  C   UNL A   1      37.675  33.069  34.039  1.00  0.00     0.131 A 
ATOM     67  C   UNL A   1      35.531  34.468  33.023  1.00  0.00     0.055 A 
ATOM     68  C   UNL A   1      36.813  33.754  34.906  1.00  0.00     0.041 A 
ATOM     69  F   UNL A   1      38.586  32.276  34.623  1.00  0.00    -0.206 F 
ATOM     70  C   UNL A   1      35.742  34.475  34.398  1.00  0.00     0.022 A 
BRANCH  67  71
ATOM     71  S   UNL A   1      34.061  35.277  32.331  1.00  0.00     0.124 S 
ATOM     72  O   UNL A   1      32.972  34.502  32.917  1.00  0.00    -0.237 OA
ATOM     73  O   UNL A   1      34.210  36.646  32.811  1.00  0.00    -0.237 OA
ATOM     74  O   UNL A   1      34.230  35.108  30.888  1.00  0.00    -0.744 OA
ENDBRANCH  67  71
ENDBRANCH  50  64
BRANCH  51  75
ATOM     75  C   UNL A   1      44.382  28.722  27.409  1.00  0.00     0.023 A 
ATOM     76  C   UNL A   1      45.206  27.582  27.541  1.00  0.00     0.031 A 
ATOM     77  C   UNL A   1      43.418  28.719  26.392  1.00  0.00     0.131 A 
ATOM     78  C   UNL A   1      44.939  26.424  26.800  1.00  0.00     0.055 A 
ATOM     79  C   UNL A   1      43.204  27.582  25.600  1.00  0.00     0.041 A 
ATOM     80  F   UNL A   1      42.587  29.760  26.235  1.00  0.00    -0.206 F 
ATOM     81  C   UNL A   1      43.933  26.413  25.834  1.00  0.00     0.022 A 
BRANCH  78  82
ATOM     82  S   UNL A   1      45.714  24.859  27.311  1.00  0.00     0.124 S 
ATOM     83  O   UNL A   1      46.780  24.707  26.328  1.00  0.00    -0.237 OA
ATOM     84  O   UNL A   1      46.146  25.135  28.679  1.00  0.00    -0.237 OA
ATOM     85  O   UNL A   1      44.622  23.891  27.220  1.00  0.00    -0.744 OA
ENDBRANCH  78  82
ENDBRANCH  51  75
BRANCH  63  86
ATOM     86  C   UNL A   1      42.735  35.630  29.139  1.00  0.00     0.023 A 
ATOM     87  C   UNL A   1      43.536  36.603  29.757  1.00  0.00     0.031 A 
ATOM     88  C   UNL A   1      41.918  36.103  28.079  1.00  0.00     0.131 A 
ATOM     89  C   UNL A   1      43.457  37.961  29.386  1.00  0.00     0.055 A 
ATOM     90  C   UNL A   1      41.893  37.438  27.664  1.00  0.00     0.041 A 
ATOM     91  F   UNL A   1      41.107  35.287  27.389  1.00  0.00    -0.206 F 
ATOM     92  C   UNL A   1      42.656  38.383  28.329  1.00  0.00     0.022 A 
BRANCH  89  93
ATOM     93  S   UNL A   1      44.391  39.174  30.355  1.00  0.00     0.124 S 
ATOM     94  O   UNL A   1      45.326  38.321  31.084  1.00  0.00    -0.237 OA
ATOM     95  O   UNL A   1      44.979  40.018  29.319  1.00  0.00    -0.237 OA
ATOM     96  O   UNL A   1      43.371  39.821  31.178  1.00  0.00    -0.744 OA
ENDBRANCH  89  93
ENDBRANCH  63  86
ENDBRANCH  37  38
ENDBRANCH  29  32
ENDBRANCH  27  28
ENDBRANCH   1  27
TORSDOF 16
ENDMDL
