MODEL 1
REMARK VINA RESULT:     -12.9      0.000      0.000
REMARK SMILES O=C(NCCCNC(=O)c1ccc(-c2ccc(F)c(C(F)(F)F)c2)cc1[N+](=O)[O-])c1ccc(-c2c3nc(c(-c4cc(S(=O)(=O)[O-])ccc4F)c4ccc([nH]4)c(-c4cc(S(=O)(=O)[O-])ccc4F)c4nc(c(-c5cc(S(=O)(=O)[O-])ccc5F)c5ccc2[nH]5)C=C4)C=C3)cc1
REMARK SMILES IDX 4 1 3 2 1 3 2 4 30 6 31 7 92 8 32 9 91 10 33 11 34 12 35 13
REMARK SMILES IDX 85 14 36 15 90 16 84 17 86 18 37 19 89 20 83 21 82 22 38 24
REMARK SMILES IDX 70 25 50 26 69 27 51 28 54 29 68 30 87 31 52 32 53 33 67 35
REMARK SMILES IDX 88 36 55 37 39 38 40 39 48 40 41 41 47 42 49 43 46 44 42 45
REMARK SMILES IDX 43 46 44 47 45 48 71 49 72 50 80 51 73 52 79 53 81 54 78 55
REMARK SMILES IDX 74 56 75 57 76 58 77 59 56 60 57 61 65 62 58 63 64 64 66 65
REMARK SMILES IDX 63 66 59 67 60 68 61 69 62 70 5 71 6 72 7 73 8 74 9 76 10 77
REMARK SMILES IDX 11 78 26 79 12 80 25 81 13 82 27 83 28 84 29 85 14 86 15 87
REMARK SMILES IDX 24 88 16 89 19 90 17 91 18 92 20 93 21 94 22 95 23 96
REMARK H PARENT 3 5 86 23 54 34 7 75
REMARK Flexibility Score: inf
ROOT
ATOM      1  C   UNL A   1      32.608  29.506  25.731  1.00  0.00     0.118 C 
ENDROOT
BRANCH   1   2
ATOM      2  N   UNL A   1      32.252  30.875  26.077  1.00  0.00    -0.352 N 
ATOM      3  O   UNL A   1      32.283  32.803  27.238  1.00  0.00    -0.269 OA
ATOM      4  C   UNL A   1      32.832  31.740  26.975  1.00  0.00     0.251 C 
ATOM      5  H   UNL A   1      31.475  31.238  25.592  1.00  0.00     0.163 HD
BRANCH   4   6
ATOM      6  C   UNL A   1      34.103  31.375  27.637  1.00  0.00     0.039 A 
ATOM      7  C   UNL A   1      34.372  30.049  27.983  1.00  0.00     0.014 A 
ATOM      8  C   UNL A   1      35.042  32.374  27.906  1.00  0.00     0.014 A 
ATOM      9  C   UNL A   1      35.493  29.748  28.745  1.00  0.00     0.010 A 
ATOM     10  C   UNL A   1      36.223  32.051  28.580  1.00  0.00     0.010 A 
ATOM     11  C   UNL A   1      36.442  30.740  29.035  1.00  0.00    -0.014 A 
BRANCH  11  12
ATOM     12  C   UNL A   1      37.684  30.375  29.761  1.00  0.00     0.031 A 
ATOM     13  C   UNL A   1      38.705  29.466  29.138  1.00  0.00     0.074 A 
ATOM     14  C   UNL A   1      37.878  30.870  30.999  1.00  0.00     0.049 A 
ATOM     15  N   UNL A   1      39.809  28.990  29.651  1.00  0.00    -0.248 NA
ATOM     16  C   UNL A   1      38.440  29.021  27.763  1.00  0.00     0.031 C 
ATOM     17  C   UNL A   1      36.949  31.757  31.704  1.00  0.00     0.029 A 
ATOM     18  N   UNL A   1      38.908  30.698  31.886  1.00  0.00    -0.354 N 
ATOM     19  C   UNL A   1      40.363  28.169  28.674  1.00  0.00     0.074 A 
ATOM     20  C   UNL A   1      39.448  28.189  27.551  1.00  0.00     0.031 C 
ATOM     21  C   UNL A   1      37.458  32.066  32.903  1.00  0.00     0.029 A 
ATOM     22  C   UNL A   1      38.708  31.339  33.085  1.00  0.00     0.049 A 
ATOM     23  H   UNL A   1      39.714  30.169  31.683  1.00  0.00     0.167 HD
ATOM     24  C   UNL A   1      41.527  27.472  28.714  1.00  0.00     0.034 A 
ATOM     25  C   UNL A   1      39.420  31.308  34.228  1.00  0.00     0.034 A 
ATOM     26  C   UNL A   1      42.418  27.470  29.852  1.00  0.00     0.049 A 
ATOM     27  C   UNL A   1      40.680  30.492  34.271  1.00  0.00     0.074 A 
ATOM     28  C   UNL A   1      43.644  26.842  29.988  1.00  0.00     0.029 A 
ATOM     29  N   UNL A   1      42.170  28.113  31.061  1.00  0.00    -0.354 N 
ATOM     30  N   UNL A   1      41.205  29.741  33.330  1.00  0.00    -0.248 NA
ATOM     31  C   UNL A   1      41.443  30.518  35.523  1.00  0.00     0.031 C 
ATOM     32  C   UNL A   1      44.100  27.042  31.297  1.00  0.00     0.029 A 
ATOM     33  C   UNL A   1      43.198  27.864  31.957  1.00  0.00     0.049 A 
ATOM     34  H   UNL A   1      41.378  28.666  31.252  1.00  0.00     0.167 HD
ATOM     35  C   UNL A   1      42.373  29.217  33.873  1.00  0.00     0.074 A 
ATOM     36  C   UNL A   1      42.478  29.746  35.219  1.00  0.00     0.031 C 
ATOM     37  C   UNL A   1      43.278  28.381  33.304  1.00  0.00     0.034 A 
BRANCH  24  38
ATOM     38  C   UNL A   1      41.864  26.614  27.516  1.00  0.00     0.023 A 
ATOM     39  C   UNL A   1      41.480  25.263  27.434  1.00  0.00     0.031 A 
ATOM     40  C   UNL A   1      42.627  27.141  26.457  1.00  0.00     0.131 A 
ATOM     41  C   UNL A   1      41.935  24.466  26.373  1.00  0.00     0.055 A 
ATOM     42  C   UNL A   1      43.002  26.364  25.358  1.00  0.00     0.041 A 
ATOM     43  F   UNL A   1      43.041  28.417  26.483  1.00  0.00    -0.206 F 
ATOM     44  C   UNL A   1      42.673  25.012  25.321  1.00  0.00     0.022 A 
BRANCH  41  45
ATOM     45  S   UNL A   1      41.698  22.669  26.477  1.00  0.00     0.124 S 
ATOM     46  O   UNL A   1      40.248  22.550  26.340  1.00  0.00    -0.237 OA
ATOM     47  O   UNL A   1      42.487  22.181  25.352  1.00  0.00    -0.237 OA
ATOM     48  O   UNL A   1      42.219  22.330  27.800  1.00  0.00    -0.744 OA
ENDBRANCH  41  45
ENDBRANCH  24  38
BRANCH  25  49
ATOM     49  C   UNL A   1      38.910  32.029  35.426  1.00  0.00     0.023 A 
ATOM     50  C   UNL A   1      38.283  31.347  36.478  1.00  0.00     0.031 A 
ATOM     51  C   UNL A   1      39.082  33.421  35.544  1.00  0.00     0.131 A 
ATOM     52  C   UNL A   1      37.835  32.063  37.599  1.00  0.00     0.055 A 
ATOM     53  C   UNL A   1      38.677  34.120  36.681  1.00  0.00     0.041 A 
ATOM     54  F   UNL A   1      39.689  34.115  34.568  1.00  0.00    -0.206 F 
ATOM     55  C   UNL A   1      38.042  33.441  37.715  1.00  0.00     0.022 A 
BRANCH  52  56
ATOM     56  S   UNL A   1      36.938  31.171  38.899  1.00  0.00     0.124 S 
ATOM     57  O   UNL A   1      37.871  31.257  40.017  1.00  0.00    -0.237 OA
ATOM     58  O   UNL A   1      35.717  31.960  39.020  1.00  0.00    -0.237 OA
ATOM     59  O   UNL A   1      36.760  29.835  38.334  1.00  0.00    -0.744 OA
ENDBRANCH  52  56
ENDBRANCH  25  49
BRANCH  37  60
ATOM     60  C   UNL A   1      44.486  28.021  34.132  1.00  0.00     0.023 A 
ATOM     61  C   UNL A   1      44.495  26.902  34.983  1.00  0.00     0.031 A 
ATOM     62  C   UNL A   1      45.649  28.809  34.057  1.00  0.00     0.131 A 
ATOM     63  C   UNL A   1      45.632  26.625  35.756  1.00  0.00     0.055 A 
ATOM     64  C   UNL A   1      46.794  28.497  34.790  1.00  0.00     0.041 A 
ATOM     65  F   UNL A   1      45.691  29.890  33.264  1.00  0.00    -0.206 F 
ATOM     66  C   UNL A   1      46.787  27.405  35.651  1.00  0.00     0.022 A 
BRANCH  63  67
ATOM     67  S   UNL A   1      45.565  25.262  36.952  1.00  0.00     0.124 S 
ATOM     68  O   UNL A   1      46.400  24.254  36.307  1.00  0.00    -0.237 OA
ATOM     69  O   UNL A   1      46.119  25.873  38.156  1.00  0.00    -0.237 OA
ATOM     70  O   UNL A   1      44.142  24.936  37.022  1.00  0.00    -0.744 OA
ENDBRANCH  63  67
ENDBRANCH  37  60
ENDBRANCH  11  12
ENDBRANCH   4   6
ENDBRANCH   1   2
BRANCH   1  71
ATOM     71  C   UNL A   1      31.401  28.589  25.596  1.00  0.00     0.042 C 
BRANCH  71  72
ATOM     72  C   UNL A   1      31.146  28.091  24.184  1.00  0.00     0.118 C 
BRANCH  72  73
ATOM     73  N   UNL A   1      32.156  28.540  23.235  1.00  0.00    -0.352 N 
ATOM     74  C   UNL A   1      33.237  27.883  22.715  1.00  0.00     0.258 C 
ATOM     75  H   UNL A   1      32.044  29.466  22.918  1.00  0.00     0.163 HD
ATOM     76  O   UNL A   1      34.051  28.468  22.012  1.00  0.00    -0.269 OA
BRANCH  74  77
ATOM     77  C   UNL A   1      33.461  26.465  23.034  1.00  0.00     0.117 A 
ATOM     78  C   UNL A   1      34.117  26.173  24.233  1.00  0.00     0.022 A 
ATOM     79  C   UNL A   1      33.094  25.416  22.194  1.00  0.00     0.282 A 
ATOM     80  C   UNL A   1      34.371  24.843  24.590  1.00  0.00     0.010 A 
ATOM     81  C   UNL A   1      33.312  24.082  22.563  1.00  0.00     0.095 A 
ATOM     82  C   UNL A   1      33.971  23.775  23.765  1.00  0.00    -0.012 A 
BRANCH  79  83
ATOM     83  N   UNL A   1      32.520  25.667  20.888  1.00  0.00     0.063 N 
ATOM     84  O   UNL A   1      31.407  26.212  20.864  1.00  0.00    -0.258 OA
ATOM     85  O   UNL A   1      33.154  25.286  19.898  1.00  0.00    -0.258 OA
ENDBRANCH  79  83
BRANCH  82  86
ATOM     86  C   UNL A   1      34.285  22.379  24.117  1.00  0.00    -0.017 A 
ATOM     87  C   UNL A   1      35.491  22.028  24.744  1.00  0.00     0.012 A 
ATOM     88  C   UNL A   1      33.376  21.346  23.814  1.00  0.00     0.025 A 
ATOM     89  C   UNL A   1      35.782  20.695  25.045  1.00  0.00     0.040 A 
ATOM     90  C   UNL A   1      33.654  20.005  24.121  1.00  0.00     0.092 A 
ATOM     91  C   UNL A   1      34.864  19.699  24.729  1.00  0.00     0.135 A 
ATOM     92  F   UNL A   1      35.167  18.426  25.015  1.00  0.00    -0.206 F 
BRANCH  90  93
ATOM     93  C   UNL A   1      32.689  18.908  23.791  1.00  0.00     0.419 C 
ATOM     94  F   UNL A   1      32.081  18.390  24.894  1.00  0.00    -0.166 F 
ATOM     95  F   UNL A   1      31.693  19.300  22.952  1.00  0.00    -0.166 F 
ATOM     96  F   UNL A   1      33.286  17.846  23.174  1.00  0.00    -0.166 F 
ENDBRANCH  90  93
ENDBRANCH  82  86
ENDBRANCH  74  77
ENDBRANCH  72  73
ENDBRANCH  71  72
ENDBRANCH   1  71
TORSDOF 16
ENDMDL
MODEL 2
REMARK VINA RESULT:     -12.9      5.375      8.067
REMARK SMILES O=C(NCCCNC(=O)c1ccc(-c2ccc(F)c(C(F)(F)F)c2)cc1[N+](=O)[O-])c1ccc(-c2c3nc(c(-c4cc(S(=O)(=O)[O-])ccc4F)c4ccc([nH]4)c(-c4cc(S(=O)(=O)[O-])ccc4F)c4nc(c(-c5cc(S(=O)(=O)[O-])ccc5F)c5ccc2[nH]5)C=C4)C=C3)cc1
REMARK SMILES IDX 4 1 3 2 1 3 2 4 30 6 31 7 92 8 32 9 91 10 33 11 34 12 35 13
REMARK SMILES IDX 85 14 36 15 90 16 84 17 86 18 37 19 89 20 83 21 82 22 38 24
REMARK SMILES IDX 70 25 50 26 69 27 51 28 54 29 68 30 87 31 52 32 53 33 67 35
REMARK SMILES IDX 88 36 55 37 39 38 40 39 48 40 41 41 47 42 49 43 46 44 42 45
REMARK SMILES IDX 43 46 44 47 45 48 71 49 72 50 80 51 73 52 79 53 81 54 78 55
REMARK SMILES IDX 74 56 75 57 76 58 77 59 56 60 57 61 65 62 58 63 64 64 66 65
REMARK SMILES IDX 63 66 59 67 60 68 61 69 62 70 5 71 6 72 7 73 8 74 9 76 10 77
REMARK SMILES IDX 11 78 26 79 12 80 25 81 13 82 27 83 28 84 29 85 14 86 15 87
REMARK SMILES IDX 24 88 16 89 19 90 17 91 18 92 20 93 21 94 22 95 23 96
REMARK H PARENT 3 5 86 23 54 34 7 75
REMARK Flexibility Score: inf
ROOT
ATOM      1  C   UNL A   1      36.199  22.408  25.843  1.00  0.00     0.118 C 
ENDROOT
BRANCH   1   2
ATOM      2  N   UNL A   1      37.197  21.346  25.850  1.00  0.00    -0.352 N 
ATOM      3  O   UNL A   1      39.247  20.417  25.825  1.00  0.00    -0.269 OA
ATOM      4  C   UNL A   1      38.561  21.415  26.011  1.00  0.00     0.251 C 
ATOM      5  H   UNL A   1      36.838  20.439  25.719  1.00  0.00     0.163 HD
BRANCH   4   6
ATOM      6  C   UNL A   1      39.198  22.697  26.383  1.00  0.00     0.039 A 
ATOM      7  C   UNL A   1      38.721  23.905  25.872  1.00  0.00     0.014 A 
ATOM      8  C   UNL A   1      40.282  22.687  27.265  1.00  0.00     0.014 A 
ATOM      9  C   UNL A   1      39.426  25.079  26.102  1.00  0.00     0.010 A 
ATOM     10  C   UNL A   1      40.926  23.886  27.581  1.00  0.00     0.010 A 
ATOM     11  C   UNL A   1      40.524  25.088  26.976  1.00  0.00    -0.014 A 
BRANCH  11  12
ATOM     12  C   UNL A   1      41.200  26.371  27.290  1.00  0.00     0.031 A 
ATOM     13  C   UNL A   1      42.589  26.655  26.792  1.00  0.00     0.074 A 
ATOM     14  C   UNL A   1      40.546  27.280  28.039  1.00  0.00     0.049 A 
ATOM     15  N   UNL A   1      43.354  27.689  27.026  1.00  0.00    -0.248 NA
ATOM     16  C   UNL A   1      43.203  25.634  25.933  1.00  0.00     0.031 C 
ATOM     17  C   UNL A   1      39.195  27.106  28.581  1.00  0.00     0.029 A 
ATOM     18  N   UNL A   1      40.922  28.522  28.481  1.00  0.00    -0.354 N 
ATOM     19  C   UNL A   1      44.551  27.437  26.363  1.00  0.00     0.074 A 
ATOM     20  C   UNL A   1      44.416  26.132  25.749  1.00  0.00     0.031 C 
ATOM     21  C   UNL A   1      38.850  28.204  29.264  1.00  0.00     0.029 A 
ATOM     22  C   UNL A   1      39.979  29.126  29.277  1.00  0.00     0.049 A 
ATOM     23  H   UNL A   1      41.783  28.940  28.248  1.00  0.00     0.167 HD
ATOM     24  C   UNL A   1      45.653  28.226  26.276  1.00  0.00     0.034 A 
ATOM     25  C   UNL A   1      40.030  30.270  29.985  1.00  0.00     0.034 A 
ATOM     26  C   UNL A   1      45.758  29.523  26.904  1.00  0.00     0.049 A 
ATOM     27  C   UNL A   1      41.275  31.106  29.916  1.00  0.00     0.074 A 
ATOM     28  C   UNL A   1      46.803  30.429  26.844  1.00  0.00     0.029 A 
ATOM     29  N   UNL A   1      44.790  30.093  27.724  1.00  0.00    -0.354 N 
ATOM     30  N   UNL A   1      42.390  30.868  29.265  1.00  0.00    -0.248 NA
ATOM     31  C   UNL A   1      41.271  32.363  30.673  1.00  0.00     0.031 C 
ATOM     32  C   UNL A   1      46.499  31.508  27.684  1.00  0.00     0.029 A 
ATOM     33  C   UNL A   1      45.229  31.317  28.206  1.00  0.00     0.049 A 
ATOM     34  H   UNL A   1      43.917  29.687  27.932  1.00  0.00     0.167 HD
ATOM     35  C   UNL A   1      43.217  31.956  29.520  1.00  0.00     0.074 A 
ATOM     36  C   UNL A   1      42.467  32.854  30.377  1.00  0.00     0.031 C 
ATOM     37  C   UNL A   1      44.478  32.192  29.078  1.00  0.00     0.034 A 
BRANCH  24  38
ATOM     38  C   UNL A   1      46.843  27.675  25.524  1.00  0.00     0.023 A 
ATOM     39  C   UNL A   1      47.142  28.072  24.207  1.00  0.00     0.031 A 
ATOM     40  C   UNL A   1      47.666  26.698  26.113  1.00  0.00     0.131 A 
ATOM     41  C   UNL A   1      48.169  27.433  23.496  1.00  0.00     0.055 A 
ATOM     42  C   UNL A   1      48.744  26.129  25.430  1.00  0.00     0.041 A 
ATOM     43  F   UNL A   1      47.424  26.262  27.360  1.00  0.00    -0.206 F 
ATOM     44  C   UNL A   1      48.987  26.480  24.106  1.00  0.00     0.022 A 
BRANCH  41  45
ATOM     45  S   UNL A   1      48.303  27.736  21.712  1.00  0.00     0.124 S 
ATOM     46  O   UNL A   1      48.642  26.407  21.207  1.00  0.00    -0.237 OA
ATOM     47  O   UNL A   1      46.972  28.226  21.374  1.00  0.00    -0.237 OA
ATOM     48  O   UNL A   1      49.377  28.723  21.611  1.00  0.00    -0.744 OA
ENDBRANCH  41  45
ENDBRANCH  24  38
BRANCH  25  49
ATOM     49  C   UNL A   1      38.882  30.640  30.857  1.00  0.00     0.023 A 
ATOM     50  C   UNL A   1      37.986  31.655  30.496  1.00  0.00     0.031 A 
ATOM     51  C   UNL A   1      38.650  29.944  32.059  1.00  0.00     0.131 A 
ATOM     52  C   UNL A   1      36.904  31.958  31.338  1.00  0.00     0.055 A 
ATOM     53  C   UNL A   1      37.547  30.217  32.868  1.00  0.00     0.041 A 
ATOM     54  F   UNL A   1      39.473  28.954  32.440  1.00  0.00    -0.206 F 
ATOM     55  C   UNL A   1      36.669  31.236  32.512  1.00  0.00     0.022 A 
BRANCH  52  56
ATOM     56  S   UNL A   1      35.819  33.343  30.897  1.00  0.00     0.124 S 
ATOM     57  O   UNL A   1      35.830  34.131  32.123  1.00  0.00    -0.237 OA
ATOM     58  O   UNL A   1      36.519  33.922  29.755  1.00  0.00    -0.237 OA
ATOM     59  O   UNL A   1      34.549  32.693  30.582  1.00  0.00    -0.744 OA
ENDBRANCH  52  56
ENDBRANCH  25  49
BRANCH  37  60
ATOM     60  C   UNL A   1      45.109  33.499  29.486  1.00  0.00     0.023 A 
ATOM     61  C   UNL A   1      44.965  34.665  28.713  1.00  0.00     0.031 A 
ATOM     62  C   UNL A   1      45.859  33.577  30.673  1.00  0.00     0.131 A 
ATOM     63  C   UNL A   1      45.596  35.850  29.118  1.00  0.00     0.055 A 
ATOM     64  C   UNL A   1      46.440  34.772  31.096  1.00  0.00     0.041 A 
ATOM     65  F   UNL A   1      46.030  32.492  31.445  1.00  0.00    -0.206 F 
ATOM     66  C   UNL A   1      46.318  35.915  30.313  1.00  0.00     0.022 A 
BRANCH  63  67
ATOM     67  S   UNL A   1      45.516  37.299  28.030  1.00  0.00     0.124 S 
ATOM     68  O   UNL A   1      46.914  37.466  27.645  1.00  0.00    -0.237 OA
ATOM     69  O   UNL A   1      44.613  36.850  26.975  1.00  0.00    -0.237 OA
ATOM     70  O   UNL A   1      44.982  38.350  28.895  1.00  0.00    -0.744 OA
ENDBRANCH  63  67
ENDBRANCH  37  60
ENDBRANCH  11  12
ENDBRANCH   4   6
ENDBRANCH   1   2
BRANCH   1  71
ATOM     71  C   UNL A   1      34.874  21.980  25.230  1.00  0.00     0.042 C 
BRANCH  71  72
ATOM     72  C   UNL A   1      34.653  22.473  23.810  1.00  0.00     0.118 C 
BRANCH  72  73
ATOM     73  N   UNL A   1      33.264  22.364  23.384  1.00  0.00    -0.352 N 
ATOM     74  C   UNL A   1      32.223  23.241  23.527  1.00  0.00     0.258 C 
ATOM     75  H   UNL A   1      33.037  21.526  22.920  1.00  0.00     0.163 HD
ATOM     76  O   UNL A   1      31.084  22.923  23.205  1.00  0.00    -0.269 OA
BRANCH  74  77
ATOM     77  C   UNL A   1      32.452  24.568  24.116  1.00  0.00     0.117 A 
ATOM     78  C   UNL A   1      32.378  24.675  25.507  1.00  0.00     0.022 A 
ATOM     79  C   UNL A   1      32.695  25.716  23.365  1.00  0.00     0.282 A 
ATOM     80  C   UNL A   1      32.577  25.913  26.130  1.00  0.00     0.010 A 
ATOM     81  C   UNL A   1      32.931  26.951  23.983  1.00  0.00     0.095 A 
ATOM     82  C   UNL A   1      32.858  27.071  25.381  1.00  0.00    -0.012 A 
BRANCH  79  83
ATOM     83  N   UNL A   1      32.664  25.685  21.917  1.00  0.00     0.063 N 
ATOM     84  O   UNL A   1      31.626  26.089  21.373  1.00  0.00    -0.258 OA
ATOM     85  O   UNL A   1      33.649  25.223  21.330  1.00  0.00    -0.258 OA
ENDBRANCH  79  83
BRANCH  82  86
ATOM     86  C   UNL A   1      33.015  28.383  26.034  1.00  0.00    -0.017 A 
ATOM     87  C   UNL A   1      31.969  29.318  26.072  1.00  0.00     0.012 A 
ATOM     88  C   UNL A   1      34.241  28.742  26.627  1.00  0.00     0.025 A 
ATOM     89  C   UNL A   1      32.146  30.568  26.672  1.00  0.00     0.040 A 
ATOM     90  C   UNL A   1      34.427  29.990  27.241  1.00  0.00     0.092 A 
ATOM     91  C   UNL A   1      33.371  30.892  27.246  1.00  0.00     0.135 A 
ATOM     92  F   UNL A   1      33.523  32.100  27.805  1.00  0.00    -0.206 F 
BRANCH  90  93
ATOM     93  C   UNL A   1      35.733  30.373  27.865  1.00  0.00     0.419 C 
ATOM     94  F   UNL A   1      35.830  29.985  29.166  1.00  0.00    -0.166 F 
ATOM     95  F   UNL A   1      36.811  29.844  27.226  1.00  0.00    -0.166 F 
ATOM     96  F   UNL A   1      35.943  31.722  27.872  1.00  0.00    -0.166 F 
ENDBRANCH  90  93
ENDBRANCH  82  86
ENDBRANCH  74  77
ENDBRANCH  72  73
ENDBRANCH  71  72
ENDBRANCH   1  71
TORSDOF 16
ENDMDL
MODEL 3
REMARK VINA RESULT:     -12.8      2.019      2.720
REMARK SMILES O=C(NCCCNC(=O)c1ccc(-c2ccc(F)c(C(F)(F)F)c2)cc1[N+](=O)[O-])c1ccc(-c2c3nc(c(-c4cc(S(=O)(=O)[O-])ccc4F)c4ccc([nH]4)c(-c4cc(S(=O)(=O)[O-])ccc4F)c4nc(c(-c5cc(S(=O)(=O)[O-])ccc5F)c5ccc2[nH]5)C=C4)C=C3)cc1
REMARK SMILES IDX 4 1 3 2 1 3 2 4 30 6 31 7 92 8 32 9 91 10 33 11 34 12 35 13
REMARK SMILES IDX 85 14 36 15 90 16 84 17 86 18 37 19 89 20 83 21 82 22 38 24
REMARK SMILES IDX 70 25 50 26 69 27 51 28 54 29 68 30 87 31 52 32 53 33 67 35
REMARK SMILES IDX 88 36 55 37 39 38 40 39 48 40 41 41 47 42 49 43 46 44 42 45
REMARK SMILES IDX 43 46 44 47 45 48 71 49 72 50 80 51 73 52 79 53 81 54 78 55
REMARK SMILES IDX 74 56 75 57 76 58 77 59 56 60 57 61 65 62 58 63 64 64 66 65
REMARK SMILES IDX 63 66 59 67 60 68 61 69 62 70 5 71 6 72 7 73 8 74 9 76 10 77
REMARK SMILES IDX 11 78 26 79 12 80 25 81 13 82 27 83 28 84 29 85 14 86 15 87
REMARK SMILES IDX 24 88 16 89 19 90 17 91 18 92 20 93 21 94 22 95 23 96
REMARK H PARENT 3 5 86 23 54 34 7 75
REMARK Flexibility Score: inf
ROOT
ATOM      1  C   UNL A   1      32.737  32.137  27.269  1.00  0.00     0.118 C 
ENDROOT
BRANCH   1   2
ATOM      2  N   UNL A   1      32.569  33.550  27.584  1.00  0.00    -0.352 N 
ATOM      3  O   UNL A   1      32.826  35.471  28.729  1.00  0.00    -0.269 OA
ATOM      4  C   UNL A   1      33.225  34.335  28.503  1.00  0.00     0.251 C 
ATOM      5  H   UNL A   1      31.878  34.013  27.058  1.00  0.00     0.163 HD
BRANCH   4   6
ATOM      6  C   UNL A   1      34.395  33.799  29.231  1.00  0.00     0.039 A 
ATOM      7  C   UNL A   1      35.689  34.213  28.907  1.00  0.00     0.014 A 
ATOM      8  C   UNL A   1      34.191  32.876  30.261  1.00  0.00     0.014 A 
ATOM      9  C   UNL A   1      36.782  33.583  29.488  1.00  0.00     0.010 A 
ATOM     10  C   UNL A   1      35.292  32.321  30.920  1.00  0.00     0.010 A 
ATOM     11  C   UNL A   1      36.597  32.646  30.515  1.00  0.00    -0.014 A 
BRANCH  11  12
ATOM     12  C   UNL A   1      37.781  32.061  31.195  1.00  0.00     0.031 A 
ATOM     13  C   UNL A   1      38.558  30.941  30.564  1.00  0.00     0.074 A 
ATOM     14  C   UNL A   1      38.143  32.550  32.396  1.00  0.00     0.049 A 
ATOM     15  N   UNL A   1      39.572  30.268  31.042  1.00  0.00    -0.248 NA
ATOM     16  C   UNL A   1      38.129  30.511  29.226  1.00  0.00     0.031 C 
ATOM     17  C   UNL A   1      37.455  33.632  33.105  1.00  0.00     0.029 A 
ATOM     18  N   UNL A   1      39.168  32.203  33.238  1.00  0.00    -0.354 N 
ATOM     19  C   UNL A   1      39.890  29.317  30.078  1.00  0.00     0.074 A 
ATOM     20  C   UNL A   1      38.934  29.484  29.002  1.00  0.00     0.031 C 
ATOM     21  C   UNL A   1      38.086  33.873  34.261  1.00  0.00     0.029 A 
ATOM     22  C   UNL A   1      39.172  32.913  34.414  1.00  0.00     0.049 A 
ATOM     23  H   UNL A   1      39.837  31.514  33.019  1.00  0.00     0.167 HD
ATOM     24  C   UNL A   1      40.890  28.399  30.092  1.00  0.00     0.034 A 
ATOM     25  C   UNL A   1      39.929  32.778  35.519  1.00  0.00     0.034 A 
ATOM     26  C   UNL A   1      41.828  28.256  31.182  1.00  0.00     0.049 A 
ATOM     27  C   UNL A   1      40.998  31.724  35.537  1.00  0.00     0.074 A 
ATOM     28  C   UNL A   1      42.908  27.397  31.285  1.00  0.00     0.029 A 
ATOM     29  N   UNL A   1      41.787  28.979  32.370  1.00  0.00    -0.354 N 
ATOM     30  N   UNL A   1      41.305  30.849  34.607  1.00  0.00    -0.248 NA
ATOM     31  C   UNL A   1      41.824  31.639  36.747  1.00  0.00     0.031 C 
ATOM     32  C   UNL A   1      43.471  27.546  32.559  1.00  0.00     0.029 A 
ATOM     33  C   UNL A   1      42.794  28.557  33.224  1.00  0.00     0.049 A 
ATOM     34  H   UNL A   1      41.135  29.689  32.575  1.00  0.00     0.167 HD
ATOM     35  C   UNL A   1      42.374  30.117  35.114  1.00  0.00     0.074 A 
ATOM     36  C   UNL A   1      42.662  30.662  36.427  1.00  0.00     0.031 C 
ATOM     37  C   UNL A   1      43.056  29.095  34.540  1.00  0.00     0.034 A 
BRANCH  24  38
ATOM     38  C   UNL A   1      40.976  27.448  28.919  1.00  0.00     0.023 A 
ATOM     39  C   UNL A   1      41.948  27.592  27.913  1.00  0.00     0.031 A 
ATOM     40  C   UNL A   1      40.039  26.408  28.778  1.00  0.00     0.131 A 
ATOM     41  C   UNL A   1      41.904  26.777  26.772  1.00  0.00     0.055 A 
ATOM     42  C   UNL A   1      40.055  25.542  27.682  1.00  0.00     0.041 A 
ATOM     43  F   UNL A   1      39.074  26.229  29.694  1.00  0.00    -0.206 F 
ATOM     44  C   UNL A   1      40.979  25.737  26.660  1.00  0.00     0.022 A 
BRANCH  41  45
ATOM     45  S   UNL A   1      42.958  27.209  25.359  1.00  0.00     0.124 S 
ATOM     46  O   UNL A   1      44.185  27.646  26.023  1.00  0.00    -0.237 OA
ATOM     47  O   UNL A   1      43.043  25.948  24.631  1.00  0.00    -0.237 OA
ATOM     48  O   UNL A   1      42.213  28.270  24.685  1.00  0.00    -0.744 OA
ENDBRANCH  41  45
ENDBRANCH  24  38
BRANCH  25  49
ATOM     49  C   UNL A   1      39.646  33.630  36.706  1.00  0.00     0.023 A 
ATOM     50  C   UNL A   1      38.995  33.117  37.837  1.00  0.00     0.031 A 
ATOM     51  C   UNL A   1      40.065  34.974  36.733  1.00  0.00     0.131 A 
ATOM     52  C   UNL A   1      38.767  33.950  38.943  1.00  0.00     0.055 A 
ATOM     53  C   UNL A   1      39.877  35.783  37.853  1.00  0.00     0.041 A 
ATOM     54  F   UNL A   1      40.704  35.506  35.678  1.00  0.00    -0.206 F 
ATOM     55  C   UNL A   1      39.217  35.273  38.966  1.00  0.00     0.022 A 
BRANCH  52  56
ATOM     56  S   UNL A   1      37.833  33.288  40.351  1.00  0.00     0.124 S 
ATOM     57  O   UNL A   1      37.761  34.449  41.231  1.00  0.00    -0.237 OA
ATOM     58  O   UNL A   1      36.582  32.882  39.720  1.00  0.00    -0.237 OA
ATOM     59  O   UNL A   1      38.671  32.191  40.830  1.00  0.00    -0.744 OA
ENDBRANCH  52  56
ENDBRANCH  25  49
BRANCH  37  60
ATOM     60  C   UNL A   1      44.214  28.526  35.322  1.00  0.00     0.023 A 
ATOM     61  C   UNL A   1      44.030  27.533  36.300  1.00  0.00     0.031 A 
ATOM     62  C   UNL A   1      45.520  28.981  35.073  1.00  0.00     0.131 A 
ATOM     63  C   UNL A   1      45.134  27.056  37.022  1.00  0.00     0.055 A 
ATOM     64  C   UNL A   1      46.620  28.465  35.759  1.00  0.00     0.041 A 
ATOM     65  F   UNL A   1      45.749  29.931  34.153  1.00  0.00    -0.206 F 
ATOM     66  C   UNL A   1      46.429  27.503  36.746  1.00  0.00     0.022 A 
BRANCH  63  67
ATOM     67  S   UNL A   1      44.851  25.882  38.376  1.00  0.00     0.124 S 
ATOM     68  O   UNL A   1      44.404  24.693  37.657  1.00  0.00    -0.237 OA
ATOM     69  O   UNL A   1      46.169  25.794  38.996  1.00  0.00    -0.237 OA
ATOM     70  O   UNL A   1      43.828  26.536  39.190  1.00  0.00    -0.744 OA
ENDBRANCH  63  67
ENDBRANCH  37  60
ENDBRANCH  11  12
ENDBRANCH   4   6
ENDBRANCH   1   2
BRANCH   1  71
ATOM     71  C   UNL A   1      31.560  31.551  26.503  1.00  0.00     0.042 C 
BRANCH  71  72
ATOM     72  C   UNL A   1      31.867  30.251  25.779  1.00  0.00     0.118 C 
BRANCH  72  73
ATOM     73  N   UNL A   1      31.036  30.050  24.600  1.00  0.00    -0.352 N 
ATOM     74  C   UNL A   1      30.950  28.983  23.750  1.00  0.00     0.258 C 
ATOM     75  H   UNL A   1      30.441  30.804  24.379  1.00  0.00     0.163 HD
ATOM     76  O   UNL A   1      30.270  29.042  22.732  1.00  0.00    -0.269 OA
BRANCH  74  77
ATOM     77  C   UNL A   1      31.714  27.757  24.024  1.00  0.00     0.117 A 
ATOM     78  C   UNL A   1      31.157  26.840  24.919  1.00  0.00     0.022 A 
ATOM     79  C   UNL A   1      32.966  27.488  23.476  1.00  0.00     0.282 A 
ATOM     80  C   UNL A   1      31.839  25.657  25.231  1.00  0.00     0.010 A 
ATOM     81  C   UNL A   1      33.637  26.290  23.755  1.00  0.00     0.095 A 
ATOM     82  C   UNL A   1      33.088  25.360  24.654  1.00  0.00    -0.012 A 
BRANCH  79  83
ATOM     83  N   UNL A   1      33.642  28.457  22.638  1.00  0.00     0.063 N 
ATOM     84  O   UNL A   1      33.976  28.078  21.506  1.00  0.00    -0.258 OA
ATOM     85  O   UNL A   1      33.874  29.571  23.119  1.00  0.00    -0.258 OA
ENDBRANCH  79  83
BRANCH  82  86
ATOM     86  C   UNL A   1      33.828  24.140  25.023  1.00  0.00    -0.017 A 
ATOM     87  C   UNL A   1      35.157  24.191  25.472  1.00  0.00     0.012 A 
ATOM     88  C   UNL A   1      33.218  22.876  24.914  1.00  0.00     0.025 A 
ATOM     89  C   UNL A   1      35.851  23.020  25.791  1.00  0.00     0.040 A 
ATOM     90  C   UNL A   1      33.902  21.695  25.241  1.00  0.00     0.092 A 
ATOM     91  C   UNL A   1      35.220  21.787  25.669  1.00  0.00     0.135 A 
ATOM     92  F   UNL A   1      35.907  20.677  25.968  1.00  0.00    -0.206 F 
BRANCH  90  93
ATOM     93  C   UNL A   1      33.254  20.350  25.118  1.00  0.00     0.419 C 
ATOM     94  F   UNL A   1      33.204  19.678  26.300  1.00  0.00    -0.166 F 
ATOM     95  F   UNL A   1      31.975  20.409  24.656  1.00  0.00    -0.166 F 
ATOM     96  F   UNL A   1      33.912  19.521  24.256  1.00  0.00    -0.166 F 
ENDBRANCH  90  93
ENDBRANCH  82  86
ENDBRANCH  74  77
ENDBRANCH  72  73
ENDBRANCH  71  72
ENDBRANCH   1  71
TORSDOF 16
ENDMDL
