MODEL 1
REMARK VINA RESULT:     -13.3      0.000      0.000
REMARK SMILES O=C(NCCCNC(=O)c1ccc(-c2c3nc(c(-c4cc(S(=O)(=O)[O-])ccc4F)c4ccc([nH]4)c(-c4cc(S(=O)(=O)[O-])ccc4F)c4nc(c(-c5cc(S(=O)(=O)[O-])ccc5F)c5ccc2[nH]5)C=C4)C=C3)cc1)C1=Cc2c(ccc(Cl)c2Sc2ccccc2)O[C@H]1C(F)(F)F
REMARK SMILES IDX 5 1 4 2 3 3 1 4 2 5 73 7 74 8 90 9 75 10 89 11 76 12 81 13
REMARK SMILES IDX 77 14 79 15 78 16 80 17 91 18 92 19 93 20 94 21 82 22 83 23
REMARK SMILES IDX 84 24 88 25 85 26 87 27 86 28 6 29 7 30 8 31 9 33 10 34
REMARK SMILES IDX 11 35 72 36 12 37 71 38 13 39 14 40 15 41 65 42 16 43 70 44
REMARK SMILES IDX 64 45 66 46 17 47 69 48 63 49 62 50 18 52 50 53 30 54 49 55
REMARK SMILES IDX 31 56 34 57 48 58 67 59 32 60 33 61 47 63 68 64 35 65 19 66
REMARK SMILES IDX 20 67 28 68 21 69 27 70 29 71 26 72 22 73 23 74 24 75 25 76
REMARK SMILES IDX 51 77 52 78 60 79 53 80 59 81 61 82 58 83 54 84 55 85 56 86
REMARK SMILES IDX 57 87 36 88 37 89 45 90 38 91 44 92 46 93 43 94 39 95 40 96
REMARK SMILES IDX 41 97 42 98
REMARK H PARENT 3 6 7 32 66 51 34 62
REMARK Flexibility Score: inf
ROOT
ATOM      1  C   UNL A   1      31.611  28.587  26.774  1.00  0.00     0.042 C 
ENDROOT
BRANCH   1   2
ATOM      2  C   UNL A   1      32.291  27.229  26.773  1.00  0.00     0.118 C 
BRANCH   2   3
ATOM      3  N   UNL A   1      31.374  26.110  26.886  1.00  0.00    -0.352 N 
ATOM      4  O   UNL A   1      30.616  24.000  26.747  1.00  0.00    -0.270 OA
ATOM      5  C   UNL A   1      31.543  24.790  26.588  1.00  0.00     0.251 C 
ATOM      6  H   UNL A   1      30.483  26.341  27.235  1.00  0.00     0.163 HD
BRANCH   5   7
ATOM      7  C   UNL A   1      32.828  24.290  26.067  1.00  0.00     0.067 C 
ATOM      8  C   UNL A   1      33.584  25.038  25.257  1.00  0.00     0.026 C 
ATOM      9  C   UNL A   1      33.166  22.842  26.194  1.00  0.00     0.314 C 
ATOM     10  C   UNL A   1      33.531  24.502  23.878  1.00  0.00     0.033 A 
ATOM     11  O   UNL A   1      33.448  22.248  24.881  1.00  0.00    -0.475 OA
ATOM     12  C   UNL A   1      33.422  23.088  23.782  1.00  0.00     0.129 A 
ATOM     13  C   UNL A   1      33.350  25.345  22.749  1.00  0.00     0.042 A 
ATOM     14  C   UNL A   1      33.117  22.495  22.567  1.00  0.00     0.049 A 
ATOM     15  C   UNL A   1      32.976  24.705  21.543  1.00  0.00     0.055 A 
ATOM     16  C   UNL A   1      32.861  23.304  21.460  1.00  0.00     0.025 A 
ATOM     17  Cl  UNL A   1      32.536  25.583  20.112  1.00  0.00    -0.083 Cl
BRANCH   9  18
ATOM     18  C   UNL A   1      34.360  22.642  27.146  1.00  0.00     0.429 C 
ATOM     19  F   UNL A   1      34.059  22.951  28.430  1.00  0.00    -0.167 F 
ATOM     20  F   UNL A   1      34.789  21.358  27.142  1.00  0.00    -0.167 F 
ATOM     21  F   UNL A   1      35.416  23.421  26.800  1.00  0.00    -0.167 F 
ENDBRANCH   9  18
BRANCH  13  22
ATOM     22  S   UNL A   1      33.378  27.169  22.800  1.00  0.00    -0.088 SA
BRANCH  22  23
ATOM     23  C   UNL A   1      31.697  27.681  23.099  1.00  0.00     0.012 A 
ATOM     24  C   UNL A   1      31.313  28.997  22.801  1.00  0.00     0.015 A 
ATOM     25  C   UNL A   1      30.725  26.752  23.488  1.00  0.00     0.015 A 
ATOM     26  C   UNL A   1      29.961  29.345  22.779  1.00  0.00     0.001 A 
ATOM     27  C   UNL A   1      29.373  27.107  23.475  1.00  0.00     0.001 A 
ATOM     28  C   UNL A   1      28.991  28.395  23.095  1.00  0.00     0.000 A 
ENDBRANCH  22  23
ENDBRANCH  13  22
ENDBRANCH   5   7
ENDBRANCH   2   3
ENDBRANCH   1   2
BRANCH   1  29
ATOM     29  C   UNL A   1      32.429  29.644  26.049  1.00  0.00     0.118 C 
BRANCH  29  30
ATOM     30  N   UNL A   1      32.179  31.006  26.523  1.00  0.00    -0.352 N 
ATOM     31  C   UNL A   1      32.952  31.875  27.262  1.00  0.00     0.251 C 
ATOM     32  H   UNL A   1      31.300  31.368  26.266  1.00  0.00     0.163 HD
ATOM     33  O   UNL A   1      32.469  32.947  27.625  1.00  0.00    -0.269 OA
BRANCH  31  34
ATOM     34  C   UNL A   1      34.325  31.508  27.674  1.00  0.00     0.039 A 
ATOM     35  C   UNL A   1      35.291  32.512  27.807  1.00  0.00     0.014 A 
ATOM     36  C   UNL A   1      34.659  30.191  27.974  1.00  0.00     0.014 A 
ATOM     37  C   UNL A   1      36.531  32.213  28.379  1.00  0.00     0.010 A 
ATOM     38  C   UNL A   1      35.832  29.921  28.665  1.00  0.00     0.010 A 
ATOM     39  C   UNL A   1      36.778  30.931  28.895  1.00  0.00    -0.014 A 
BRANCH  39  40
ATOM     40  C   UNL A   1      37.992  30.605  29.694  1.00  0.00     0.031 A 
ATOM     41  C   UNL A   1      38.998  29.625  29.150  1.00  0.00     0.074 A 
ATOM     42  C   UNL A   1      38.125  31.088  30.948  1.00  0.00     0.049 A 
ATOM     43  N   UNL A   1      39.986  29.024  29.760  1.00  0.00    -0.248 NA
ATOM     44  C   UNL A   1      38.837  29.234  27.739  1.00  0.00     0.031 C 
ATOM     45  C   UNL A   1      37.202  32.019  31.604  1.00  0.00     0.029 A 
ATOM     46  N   UNL A   1      39.077  30.845  31.908  1.00  0.00    -0.354 N 
ATOM     47  C   UNL A   1      40.544  28.164  28.819  1.00  0.00     0.074 A 
ATOM     48  C   UNL A   1      39.740  28.272  27.621  1.00  0.00     0.031 C 
ATOM     49  C   UNL A   1      37.649  32.288  32.841  1.00  0.00     0.029 A 
ATOM     50  C   UNL A   1      38.846  31.497  33.099  1.00  0.00     0.049 A 
ATOM     51  H   UNL A   1      39.853  30.259  31.759  1.00  0.00     0.167 HD
ATOM     52  C   UNL A   1      41.644  27.382  28.933  1.00  0.00     0.034 A 
ATOM     53  C   UNL A   1      39.505  31.442  34.274  1.00  0.00     0.034 A 
ATOM     54  C   UNL A   1      42.457  27.316  30.121  1.00  0.00     0.049 A 
ATOM     55  C   UNL A   1      40.700  30.526  34.389  1.00  0.00     0.074 A 
ATOM     56  C   UNL A   1      43.623  26.600  30.330  1.00  0.00     0.029 A 
ATOM     57  N   UNL A   1      42.190  27.996  31.302  1.00  0.00    -0.354 N 
ATOM     58  N   UNL A   1      41.230  29.743  33.478  1.00  0.00    -0.248 NA
ATOM     59  C   UNL A   1      41.382  30.484  35.689  1.00  0.00     0.031 C 
ATOM     60  C   UNL A   1      44.030  26.803  31.652  1.00  0.00     0.029 A 
ATOM     61  C   UNL A   1      43.155  27.694  32.250  1.00  0.00     0.049 A 
ATOM     62  H   UNL A   1      41.429  28.603  31.445  1.00  0.00     0.167 HD
ATOM     63  C   UNL A   1      42.324  29.138  34.091  1.00  0.00     0.074 A 
ATOM     64  C   UNL A   1      42.390  29.662  35.439  1.00  0.00     0.031 C 
ATOM     65  C   UNL A   1      43.198  28.230  33.589  1.00  0.00     0.034 A 
BRANCH  52  66
ATOM     66  C   UNL A   1      42.027  26.538  27.743  1.00  0.00     0.023 A 
ATOM     67  C   UNL A   1      41.569  25.217  27.604  1.00  0.00     0.031 A 
ATOM     68  C   UNL A   1      42.868  27.052  26.740  1.00  0.00     0.131 A 
ATOM     69  C   UNL A   1      42.012  24.431  26.530  1.00  0.00     0.055 A 
ATOM     70  C   UNL A   1      43.239  26.290  25.630  1.00  0.00     0.041 A 
ATOM     71  F   UNL A   1      43.353  28.300  26.828  1.00  0.00    -0.206 F 
ATOM     72  C   UNL A   1      42.822  24.966  25.527  1.00  0.00     0.022 A 
BRANCH  69  73
ATOM     73  S   UNL A   1      41.617  22.661  26.536  1.00  0.00     0.124 S 
ATOM     74  O   UNL A   1      40.158  22.687  26.441  1.00  0.00    -0.237 OA
ATOM     75  O   UNL A   1      42.325  22.175  25.358  1.00  0.00    -0.237 OA
ATOM     76  O   UNL A   1      42.142  22.197  27.818  1.00  0.00    -0.744 OA
ENDBRANCH  69  73
ENDBRANCH  52  66
BRANCH  53  77
ATOM     77  C   UNL A   1      39.052  32.241  35.451  1.00  0.00     0.023 A 
ATOM     78  C   UNL A   1      39.496  33.561  35.632  1.00  0.00     0.031 A 
ATOM     79  C   UNL A   1      38.236  31.681  36.451  1.00  0.00     0.131 A 
ATOM     80  C   UNL A   1      39.178  34.254  36.811  1.00  0.00     0.055 A 
ATOM     81  C   UNL A   1      37.869  32.397  37.593  1.00  0.00     0.041 A 
ATOM     82  F   UNL A   1      37.780  30.423  36.332  1.00  0.00    -0.206 F 
ATOM     83  C   UNL A   1      38.355  33.686  37.786  1.00  0.00     0.022 A 
BRANCH  80  84
ATOM     84  S   UNL A   1      39.959  35.865  37.105  1.00  0.00     0.124 S 
ATOM     85  O   UNL A   1      39.257  36.319  38.300  1.00  0.00    -0.237 OA
ATOM     86  O   UNL A   1      41.358  35.494  37.283  1.00  0.00    -0.237 OA
ATOM     87  O   UNL A   1      39.663  36.612  35.884  1.00  0.00    -0.744 OA
ENDBRANCH  80  84
ENDBRANCH  53  77
BRANCH  65  88
ATOM     88  C   UNL A   1      44.315  27.782  34.493  1.00  0.00     0.023 A 
ATOM     89  C   UNL A   1      44.219  26.601  35.249  1.00  0.00     0.031 A 
ATOM     90  C   UNL A   1      45.495  28.540  34.590  1.00  0.00     0.131 A 
ATOM     91  C   UNL A   1      45.269  26.234  36.103  1.00  0.00     0.055 A 
ATOM     92  C   UNL A   1      46.558  28.140  35.399  1.00  0.00     0.041 A 
ATOM     93  F   UNL A   1      45.636  29.677  33.889  1.00  0.00    -0.206 F 
ATOM     94  C   UNL A   1      46.445  26.985  36.169  1.00  0.00     0.022 A 
BRANCH  91  95
ATOM     95  S   UNL A   1      45.052  24.788  37.174  1.00  0.00     0.124 S 
ATOM     96  O   UNL A   1      44.684  25.404  38.445  1.00  0.00    -0.237 OA
ATOM     97  O   UNL A   1      43.993  24.049  36.495  1.00  0.00    -0.237 OA
ATOM     98  O   UNL A   1      46.364  24.145  37.153  1.00  0.00    -0.744 OA
ENDBRANCH  91  95
ENDBRANCH  65  88
ENDBRANCH  39  40
ENDBRANCH  31  34
ENDBRANCH  29  30
ENDBRANCH   1  29
TORSDOF 16
ENDMDL
MODEL 2
REMARK VINA RESULT:     -13.3      4.976      9.605
REMARK SMILES O=C(NCCCNC(=O)c1ccc(-c2c3nc(c(-c4cc(S(=O)(=O)[O-])ccc4F)c4ccc([nH]4)c(-c4cc(S(=O)(=O)[O-])ccc4F)c4nc(c(-c5cc(S(=O)(=O)[O-])ccc5F)c5ccc2[nH]5)C=C4)C=C3)cc1)C1=Cc2c(ccc(Cl)c2Sc2ccccc2)O[C@H]1C(F)(F)F
REMARK SMILES IDX 5 1 4 2 3 3 1 4 2 5 73 7 74 8 90 9 75 10 89 11 76 12 81 13
REMARK SMILES IDX 77 14 79 15 78 16 80 17 91 18 92 19 93 20 94 21 82 22 83 23
REMARK SMILES IDX 84 24 88 25 85 26 87 27 86 28 6 29 7 30 8 31 9 33 10 34
REMARK SMILES IDX 11 35 72 36 12 37 71 38 13 39 14 40 15 41 65 42 16 43 70 44
REMARK SMILES IDX 64 45 66 46 17 47 69 48 63 49 62 50 18 52 50 53 30 54 49 55
REMARK SMILES IDX 31 56 34 57 48 58 67 59 32 60 33 61 47 63 68 64 35 65 19 66
REMARK SMILES IDX 20 67 28 68 21 69 27 70 29 71 26 72 22 73 23 74 24 75 25 76
REMARK SMILES IDX 51 77 52 78 60 79 53 80 59 81 61 82 58 83 54 84 55 85 56 86
REMARK SMILES IDX 57 87 36 88 37 89 45 90 38 91 44 92 46 93 43 94 39 95 40 96
REMARK SMILES IDX 41 97 42 98
REMARK H PARENT 3 6 7 32 66 51 34 62
REMARK Flexibility Score: inf
ROOT
ATOM      1  C   UNL A   1      36.229  22.968  23.794  1.00  0.00     0.042 C 
ENDROOT
BRANCH   1   2
ATOM      2  C   UNL A   1      34.895  23.678  23.640  1.00  0.00     0.118 C 
BRANCH   2   3
ATOM      3  N   UNL A   1      33.851  22.853  23.059  1.00  0.00    -0.352 N 
ATOM      4  O   UNL A   1      31.810  21.972  22.745  1.00  0.00    -0.270 OA
ATOM      5  C   UNL A   1      32.525  22.760  23.359  1.00  0.00     0.251 C 
ATOM      6  H   UNL A   1      34.150  22.264  22.329  1.00  0.00     0.163 HD
BRANCH   5   7
ATOM      7  C   UNL A   1      31.928  23.588  24.422  1.00  0.00     0.067 C 
ATOM      8  C   UNL A   1      31.245  24.700  24.131  1.00  0.00     0.026 C 
ATOM      9  C   UNL A   1      32.319  23.364  25.844  1.00  0.00     0.314 C 
ATOM     10  C   UNL A   1      32.036  25.893  24.510  1.00  0.00     0.033 A 
ATOM     11  O   UNL A   1      32.849  24.595  26.446  1.00  0.00    -0.475 OA
ATOM     12  C   UNL A   1      32.847  25.737  25.667  1.00  0.00     0.129 A 
ATOM     13  C   UNL A   1      32.169  27.014  23.649  1.00  0.00     0.042 A 
ATOM     14  C   UNL A   1      33.810  26.687  25.974  1.00  0.00     0.049 A 
ATOM     15  C   UNL A   1      33.205  27.926  23.961  1.00  0.00     0.055 A 
ATOM     16  C   UNL A   1      34.010  27.758  25.104  1.00  0.00     0.025 A 
ATOM     17  Cl  UNL A   1      33.634  29.251  22.926  1.00  0.00    -0.083 Cl
BRANCH   9  18
ATOM     18  C   UNL A   1      31.128  22.831  26.661  1.00  0.00     0.429 C 
ATOM     19  F   UNL A   1      31.502  22.353  27.873  1.00  0.00    -0.167 F 
ATOM     20  F   UNL A   1      30.208  23.798  26.888  1.00  0.00    -0.167 F 
ATOM     21  F   UNL A   1      30.496  21.813  26.024  1.00  0.00    -0.167 F 
ENDBRANCH   9  18
BRANCH  13  22
ATOM     22  S   UNL A   1      31.238  27.246  22.096  1.00  0.00    -0.088 SA
BRANCH  22  23
ATOM     23  C   UNL A   1      29.930  28.398  22.470  1.00  0.00     0.012 A 
ATOM     24  C   UNL A   1      30.014  29.715  21.994  1.00  0.00     0.015 A 
ATOM     25  C   UNL A   1      28.760  27.969  23.106  1.00  0.00     0.015 A 
ATOM     26  C   UNL A   1      28.899  30.553  22.048  1.00  0.00     0.001 A 
ATOM     27  C   UNL A   1      27.648  28.815  23.168  1.00  0.00     0.001 A 
ATOM     28  C   UNL A   1      27.710  30.095  22.616  1.00  0.00     0.000 A 
ENDBRANCH  22  23
ENDBRANCH  13  22
ENDBRANCH   5   7
ENDBRANCH   2   3
ENDBRANCH   1   2
BRANCH   1  29
ATOM     29  C   UNL A   1      36.403  22.358  25.176  1.00  0.00     0.118 C 
BRANCH  29  30
ATOM     30  N   UNL A   1      37.420  21.306  25.229  1.00  0.00    -0.352 N 
ATOM     31  C   UNL A   1      38.693  21.289  25.756  1.00  0.00     0.251 C 
ATOM     32  H   UNL A   1      37.145  20.457  24.813  1.00  0.00     0.163 HD
ATOM     33  O   UNL A   1      39.401  20.298  25.581  1.00  0.00    -0.269 OA
BRANCH  31  34
ATOM     34  C   UNL A   1      39.236  22.465  26.472  1.00  0.00     0.039 A 
ATOM     35  C   UNL A   1      40.299  22.293  27.365  1.00  0.00     0.014 A 
ATOM     36  C   UNL A   1      38.736  23.743  26.239  1.00  0.00     0.014 A 
ATOM     37  C   UNL A   1      40.947  23.411  27.898  1.00  0.00     0.010 A 
ATOM     38  C   UNL A   1      39.461  24.850  26.657  1.00  0.00     0.010 A 
ATOM     39  C   UNL A   1      40.589  24.701  27.477  1.00  0.00    -0.014 A 
BRANCH  39  40
ATOM     40  C   UNL A   1      41.369  25.914  27.848  1.00  0.00     0.031 A 
ATOM     41  C   UNL A   1      40.704  27.012  28.637  1.00  0.00     0.074 A 
ATOM     42  C   UNL A   1      42.621  26.083  27.373  1.00  0.00     0.049 A 
ATOM     43  N   UNL A   1      41.108  28.234  28.861  1.00  0.00    -0.248 NA
ATOM     44  C   UNL A   1      39.383  26.703  29.207  1.00  0.00     0.031 C 
ATOM     45  C   UNL A   1      43.366  25.109  26.569  1.00  0.00     0.029 A 
ATOM     46  N   UNL A   1      43.486  27.146  27.476  1.00  0.00    -0.354 N 
ATOM     47  C   UNL A   1      40.082  28.848  29.572  1.00  0.00     0.074 A 
ATOM     48  C   UNL A   1      39.009  27.882  29.678  1.00  0.00     0.031 C 
ATOM     49  C   UNL A   1      44.579  25.607  26.280  1.00  0.00     0.029 A 
ATOM     50  C   UNL A   1      44.678  26.961  26.810  1.00  0.00     0.049 A 
ATOM     51  H   UNL A   1      43.273  27.964  27.980  1.00  0.00     0.167 HD
ATOM     52  C   UNL A   1      40.049  30.089  30.113  1.00  0.00     0.034 A 
ATOM     53  C   UNL A   1      45.718  27.798  26.622  1.00  0.00     0.034 A 
ATOM     54  C   UNL A   1      41.142  31.024  30.032  1.00  0.00     0.049 A 
ATOM     55  C   UNL A   1      45.637  29.192  27.196  1.00  0.00     0.074 A 
ATOM     56  C   UNL A   1      41.240  32.287  30.590  1.00  0.00     0.029 A 
ATOM     57  N   UNL A   1      42.331  30.796  29.353  1.00  0.00    -0.354 N 
ATOM     58  N   UNL A   1      44.668  29.743  27.890  1.00  0.00    -0.248 NA
ATOM     59  C   UNL A   1      46.784  30.077  26.957  1.00  0.00     0.031 C 
ATOM     60  C   UNL A   1      42.462  32.844  30.201  1.00  0.00     0.029 A 
ATOM     61  C   UNL A   1      43.155  31.905  29.455  1.00  0.00     0.049 A 
ATOM     62  H   UNL A   1      42.556  29.968  28.871  1.00  0.00     0.167 HD
ATOM     63  C   UNL A   1      45.106  31.029  28.194  1.00  0.00     0.074 A 
ATOM     64  C   UNL A   1      46.431  31.164  27.625  1.00  0.00     0.031 C 
ATOM     65  C   UNL A   1      44.473  32.015  28.879  1.00  0.00     0.034 A 
BRANCH  52  66
ATOM     66  C   UNL A   1      38.791  30.501  30.838  1.00  0.00     0.023 A 
ATOM     67  C   UNL A   1      37.708  31.080  30.155  1.00  0.00     0.031 A 
ATOM     68  C   UNL A   1      38.675  30.327  32.228  1.00  0.00     0.131 A 
ATOM     69  C   UNL A   1      36.589  31.531  30.869  1.00  0.00     0.055 A 
ATOM     70  C   UNL A   1      37.523  30.703  32.923  1.00  0.00     0.041 A 
ATOM     71  F   UNL A   1      39.684  29.799  32.938  1.00  0.00    -0.206 F 
ATOM     72  C   UNL A   1      36.476  31.322  32.245  1.00  0.00     0.022 A 
BRANCH  69  73
ATOM     73  S   UNL A   1      35.342  32.510  29.989  1.00  0.00     0.124 S 
ATOM     74  O   UNL A   1      34.306  32.650  31.011  1.00  0.00    -0.237 OA
ATOM     75  O   UNL A   1      36.074  33.726  29.652  1.00  0.00    -0.237 OA
ATOM     76  O   UNL A   1      34.978  31.664  28.855  1.00  0.00    -0.744 OA
ENDBRANCH  69  73
ENDBRANCH  52  66
BRANCH  53  77
ATOM     77  C   UNL A   1      46.917  27.374  25.838  1.00  0.00     0.023 A 
ATOM     78  C   UNL A   1      47.100  27.816  24.518  1.00  0.00     0.031 A 
ATOM     79  C   UNL A   1      47.855  26.466  26.362  1.00  0.00     0.131 A 
ATOM     80  C   UNL A   1      48.153  27.303  23.746  1.00  0.00     0.055 A 
ATOM     81  C   UNL A   1      48.939  26.007  25.610  1.00  0.00     0.041 A 
ATOM     82  F   UNL A   1      47.733  26.009  27.619  1.00  0.00    -0.206 F 
ATOM     83  C   UNL A   1      49.082  26.412  24.286  1.00  0.00     0.022 A 
BRANCH  80  84
ATOM     84  S   UNL A   1      48.217  27.724  21.982  1.00  0.00     0.124 S 
ATOM     85  O   UNL A   1      46.927  28.378  21.788  1.00  0.00    -0.237 OA
ATOM     86  O   UNL A   1      49.391  28.587  21.920  1.00  0.00    -0.237 OA
ATOM     87  O   UNL A   1      48.362  26.425  21.328  1.00  0.00    -0.744 OA
ENDBRANCH  80  84
ENDBRANCH  53  77
BRANCH  65  88
ATOM     88  C   UNL A   1      45.226  33.303  29.079  1.00  0.00     0.023 A 
ATOM     89  C   UNL A   1      45.105  34.372  28.176  1.00  0.00     0.031 A 
ATOM     90  C   UNL A   1      46.068  33.465  30.194  1.00  0.00     0.131 A 
ATOM     91  C   UNL A   1      45.846  35.544  28.381  1.00  0.00     0.055 A 
ATOM     92  C   UNL A   1      46.760  34.654  30.422  1.00  0.00     0.041 A 
ATOM     93  F   UNL A   1      46.218  32.473  31.086  1.00  0.00    -0.206 F 
ATOM     94  C   UNL A   1      46.658  35.699  29.507  1.00  0.00     0.022 A 
BRANCH  91  95
ATOM     95  S   UNL A   1      45.782  36.845  27.120  1.00  0.00     0.124 S 
ATOM     96  O   UNL A   1      46.435  36.201  25.986  1.00  0.00    -0.237 OA
ATOM     97  O   UNL A   1      44.348  37.077  26.981  1.00  0.00    -0.237 OA
ATOM     98  O   UNL A   1      46.530  37.946  27.724  1.00  0.00    -0.744 OA
ENDBRANCH  91  95
ENDBRANCH  65  88
ENDBRANCH  39  40
ENDBRANCH  31  34
ENDBRANCH  29  30
ENDBRANCH   1  29
TORSDOF 16
ENDMDL
MODEL 3
REMARK VINA RESULT:     -13.0      2.219      3.544
REMARK SMILES O=C(NCCCNC(=O)c1ccc(-c2c3nc(c(-c4cc(S(=O)(=O)[O-])ccc4F)c4ccc([nH]4)c(-c4cc(S(=O)(=O)[O-])ccc4F)c4nc(c(-c5cc(S(=O)(=O)[O-])ccc5F)c5ccc2[nH]5)C=C4)C=C3)cc1)C1=Cc2c(ccc(Cl)c2Sc2ccccc2)O[C@H]1C(F)(F)F
REMARK SMILES IDX 5 1 4 2 3 3 1 4 2 5 73 7 74 8 90 9 75 10 89 11 76 12 81 13
REMARK SMILES IDX 77 14 79 15 78 16 80 17 91 18 92 19 93 20 94 21 82 22 83 23
REMARK SMILES IDX 84 24 88 25 85 26 87 27 86 28 6 29 7 30 8 31 9 33 10 34
REMARK SMILES IDX 11 35 72 36 12 37 71 38 13 39 14 40 15 41 65 42 16 43 70 44
REMARK SMILES IDX 64 45 66 46 17 47 69 48 63 49 62 50 18 52 50 53 30 54 49 55
REMARK SMILES IDX 31 56 34 57 48 58 67 59 32 60 33 61 47 63 68 64 35 65 19 66
REMARK SMILES IDX 20 67 28 68 21 69 27 70 29 71 26 72 22 73 23 74 24 75 25 76
REMARK SMILES IDX 51 77 52 78 60 79 53 80 59 81 61 82 58 83 54 84 55 85 56 86
REMARK SMILES IDX 57 87 36 88 37 89 45 90 38 91 44 92 46 93 43 94 39 95 40 96
REMARK SMILES IDX 41 97 42 98
REMARK H PARENT 3 6 7 32 66 51 34 62
REMARK Flexibility Score: inf
ROOT
ATOM      1  C   UNL A   1      31.872  28.320  26.708  1.00  0.00     0.042 C 
ENDROOT
BRANCH   1   2
ATOM      2  C   UNL A   1      32.436  26.959  26.340  1.00  0.00     0.118 C 
BRANCH   2   3
ATOM      3  N   UNL A   1      31.772  25.848  26.996  1.00  0.00    -0.352 N 
ATOM      4  O   UNL A   1      30.804  23.836  27.243  1.00  0.00    -0.270 OA
ATOM      5  C   UNL A   1      31.372  24.639  26.507  1.00  0.00     0.251 C 
ATOM      6  H   UNL A   1      31.579  25.989  27.951  1.00  0.00     0.163 HD
BRANCH   5   7
ATOM      7  C   UNL A   1      31.603  24.278  25.097  1.00  0.00     0.067 C 
ATOM      8  C   UNL A   1      31.912  23.025  24.746  1.00  0.00     0.026 C 
ATOM      9  C   UNL A   1      31.783  25.351  24.077  1.00  0.00     0.314 C 
ATOM     10  C   UNL A   1      33.336  22.949  24.346  1.00  0.00     0.033 A 
ATOM     11  O   UNL A   1      33.063  25.201  23.372  1.00  0.00    -0.475 OA
ATOM     12  C   UNL A   1      33.844  24.107  23.696  1.00  0.00     0.129 A 
ATOM     13  C   UNL A   1      34.191  21.909  24.799  1.00  0.00     0.042 A 
ATOM     14  C   UNL A   1      35.209  24.252  23.500  1.00  0.00     0.049 A 
ATOM     15  C   UNL A   1      35.580  22.126  24.639  1.00  0.00     0.055 A 
ATOM     16  C   UNL A   1      36.075  23.280  24.002  1.00  0.00     0.025 A 
ATOM     17  Cl  UNL A   1      36.778  21.055  25.293  1.00  0.00    -0.083 Cl
BRANCH   9  18
ATOM     18  C   UNL A   1      30.613  25.357  23.077  1.00  0.00     0.429 C 
ATOM     19  F   UNL A   1      30.005  24.150  22.981  1.00  0.00    -0.167 F 
ATOM     20  F   UNL A   1      29.659  26.249  23.433  1.00  0.00    -0.167 F 
ATOM     21  F   UNL A   1      31.022  25.683  21.824  1.00  0.00    -0.167 F 
ENDBRANCH   9  18
BRANCH  13  22
ATOM     22  S   UNL A   1      33.634  20.438  25.726  1.00  0.00    -0.088 SA
BRANCH  22  23
ATOM     23  C   UNL A   1      33.665  19.084  24.567  1.00  0.00     0.012 A 
ATOM     24  C   UNL A   1      34.678  18.117  24.663  1.00  0.00     0.015 A 
ATOM     25  C   UNL A   1      32.617  18.895  23.661  1.00  0.00     0.015 A 
ATOM     26  C   UNL A   1      34.577  16.923  23.946  1.00  0.00     0.001 A 
ATOM     27  C   UNL A   1      32.525  17.702  22.937  1.00  0.00     0.001 A 
ATOM     28  C   UNL A   1      33.490  16.708  23.100  1.00  0.00     0.000 A 
ENDBRANCH  22  23
ENDBRANCH  13  22
ENDBRANCH   5   7
ENDBRANCH   2   3
ENDBRANCH   1   2
BRANCH   1  29
ATOM     29  C   UNL A   1      32.512  29.447  25.913  1.00  0.00     0.118 C 
BRANCH  29  30
ATOM     30  N   UNL A   1      32.220  30.780  26.443  1.00  0.00    -0.352 N 
ATOM     31  C   UNL A   1      32.962  31.637  27.226  1.00  0.00     0.251 C 
ATOM     32  H   UNL A   1      31.332  31.127  26.196  1.00  0.00     0.163 HD
ATOM     33  O   UNL A   1      32.446  32.677  27.631  1.00  0.00    -0.269 OA
BRANCH  31  34
ATOM     34  C   UNL A   1      34.343  31.293  27.633  1.00  0.00     0.039 A 
ATOM     35  C   UNL A   1      35.294  32.311  27.758  1.00  0.00     0.014 A 
ATOM     36  C   UNL A   1      34.698  29.982  27.935  1.00  0.00     0.014 A 
ATOM     37  C   UNL A   1      36.541  32.032  28.325  1.00  0.00     0.010 A 
ATOM     38  C   UNL A   1      35.879  29.731  28.620  1.00  0.00     0.010 A 
ATOM     39  C   UNL A   1      36.810  30.756  28.843  1.00  0.00    -0.014 A 
BRANCH  39  40
ATOM     40  C   UNL A   1      38.032  30.451  29.637  1.00  0.00     0.031 A 
ATOM     41  C   UNL A   1      39.043  29.474  29.098  1.00  0.00     0.074 A 
ATOM     42  C   UNL A   1      38.169  30.950  30.884  1.00  0.00     0.049 A 
ATOM     43  N   UNL A   1      40.041  28.889  29.708  1.00  0.00    -0.248 NA
ATOM     44  C   UNL A   1      38.876  29.064  27.694  1.00  0.00     0.031 C 
ATOM     45  C   UNL A   1      37.243  31.881  31.536  1.00  0.00     0.029 A 
ATOM     46  N   UNL A   1      39.131  30.728  31.841  1.00  0.00    -0.354 N 
ATOM     47  C   UNL A   1      40.600  28.023  28.774  1.00  0.00     0.074 A 
ATOM     48  C   UNL A   1      39.787  28.109  27.581  1.00  0.00     0.031 C 
ATOM     49  C   UNL A   1      37.696  32.169  32.767  1.00  0.00     0.029 A 
ATOM     50  C   UNL A   1      38.902  31.392  33.025  1.00  0.00     0.049 A 
ATOM     51  H   UNL A   1      39.911  30.147  31.693  1.00  0.00     0.167 HD
ATOM     52  C   UNL A   1      41.708  27.252  28.890  1.00  0.00     0.034 A 
ATOM     53  C   UNL A   1      39.570  31.357  34.196  1.00  0.00     0.034 A 
ATOM     54  C   UNL A   1      42.530  27.208  30.073  1.00  0.00     0.049 A 
ATOM     55  C   UNL A   1      40.774  30.454  34.314  1.00  0.00     0.074 A 
ATOM     56  C   UNL A   1      43.704  26.505  30.281  1.00  0.00     0.029 A 
ATOM     57  N   UNL A   1      42.266  27.900  31.247  1.00  0.00    -0.354 N 
ATOM     58  N   UNL A   1      41.304  29.664  33.409  1.00  0.00    -0.248 NA
ATOM     59  C   UNL A   1      41.465  30.433  35.609  1.00  0.00     0.031 C 
ATOM     60  C   UNL A   1      44.119  26.727  31.598  1.00  0.00     0.029 A 
ATOM     61  C   UNL A   1      43.240  27.619  32.191  1.00  0.00     0.049 A 
ATOM     62  H   UNL A   1      41.500  28.502  31.388  1.00  0.00     0.167 HD
ATOM     63  C   UNL A   1      42.408  29.077  34.020  1.00  0.00     0.074 A 
ATOM     64  C   UNL A   1      42.479  29.618  35.362  1.00  0.00     0.031 C 
ATOM     65  C   UNL A   1      43.287  28.171  33.523  1.00  0.00     0.034 A 
BRANCH  52  66
ATOM     66  C   UNL A   1      42.090  26.397  27.707  1.00  0.00     0.023 A 
ATOM     67  C   UNL A   1      41.617  25.081  27.571  1.00  0.00     0.031 A 
ATOM     68  C   UNL A   1      42.946  26.895  26.708  1.00  0.00     0.131 A 
ATOM     69  C   UNL A   1      42.059  24.284  26.505  1.00  0.00     0.055 A 
ATOM     70  C   UNL A   1      43.317  26.123  25.605  1.00  0.00     0.041 A 
ATOM     71  F   UNL A   1      43.446  28.138  26.794  1.00  0.00    -0.206 F 
ATOM     72  C   UNL A   1      42.884  24.804  25.506  1.00  0.00     0.022 A 
BRANCH  69  73
ATOM     73  S   UNL A   1      41.641  22.519  26.517  1.00  0.00     0.124 S 
ATOM     74  O   UNL A   1      42.389  22.034  25.359  1.00  0.00    -0.237 OA
ATOM     75  O   UNL A   1      42.132  22.087  27.820  1.00  0.00    -0.237 OA
ATOM     76  O   UNL A   1      40.189  22.509  26.361  1.00  0.00    -0.744 OA
ENDBRANCH  69  73
ENDBRANCH  52  66
BRANCH  53  77
ATOM     77  C   UNL A   1      39.118  32.167  35.367  1.00  0.00     0.023 A 
ATOM     78  C   UNL A   1      39.543  33.496  35.523  1.00  0.00     0.031 A 
ATOM     79  C   UNL A   1      38.323  31.609  36.384  1.00  0.00     0.131 A 
ATOM     80  C   UNL A   1      39.228  34.201  36.695  1.00  0.00     0.055 A 
ATOM     81  C   UNL A   1      37.957  32.336  37.519  1.00  0.00     0.041 A 
ATOM     82  F   UNL A   1      37.885  30.343  36.289  1.00  0.00    -0.206 F 
ATOM     83  C   UNL A   1      38.425  33.635  37.688  1.00  0.00     0.022 A 
BRANCH  80  84
ATOM     84  S   UNL A   1      39.987  35.827  36.957  1.00  0.00     0.124 S 
ATOM     85  O   UNL A   1      41.392  35.473  37.131  1.00  0.00    -0.237 OA
ATOM     86  O   UNL A   1      39.648  36.521  35.719  1.00  0.00    -0.237 OA
ATOM     87  O   UNL A   1      39.316  36.326  38.155  1.00  0.00    -0.744 OA
ENDBRANCH  80  84
ENDBRANCH  53  77
BRANCH  65  88
ATOM     88  C   UNL A   1      44.415  27.744  34.425  1.00  0.00     0.023 A 
ATOM     89  C   UNL A   1      44.290  26.639  35.284  1.00  0.00     0.031 A 
ATOM     90  C   UNL A   1      45.633  28.446  34.416  1.00  0.00     0.131 A 
ATOM     91  C   UNL A   1      45.352  26.291  36.130  1.00  0.00     0.055 A 
ATOM     92  C   UNL A   1      46.706  28.061  35.220  1.00  0.00     0.041 A 
ATOM     93  F   UNL A   1      45.803  29.509  33.613  1.00  0.00    -0.206 F 
ATOM     94  C   UNL A   1      46.565  26.983  36.091  1.00  0.00     0.022 A 
BRANCH  91  95
ATOM     95  S   UNL A   1      45.106  24.955  37.330  1.00  0.00     0.124 S 
ATOM     96  O   UNL A   1      43.651  24.862  37.385  1.00  0.00    -0.237 OA
ATOM     97  O   UNL A   1      45.792  23.834  36.697  1.00  0.00    -0.237 OA
ATOM     98  O   UNL A   1      45.742  25.463  38.545  1.00  0.00    -0.744 OA
ENDBRANCH  91  95
ENDBRANCH  65  88
ENDBRANCH  39  40
ENDBRANCH  31  34
ENDBRANCH  29  30
ENDBRANCH   1  29
TORSDOF 16
ENDMDL
