MODEL 1
REMARK VINA RESULT:     -11.6      0.000      0.000
REMARK SMILES O=C(Cc1ccccc1C(=O)NCCCNC(=O)c1ccc(-c2c3nc(c(-c4cc(S(=O)(=O)[O-])ccc4F)c4ccc([nH]4)c(-c4cc(S(=O)(=O)[O-])ccc4F)c4nc(c(-c5cc(S(=O)(=O)[O-])ccc5F)c5ccc2[nH]5)C=C4)C=C3)cc1)Nc1cccc(OC[C@@H]2CCCO2)c1
REMARK SMILES IDX 10 1 11 2 12 3 9 5 4 6 5 7 6 8 8 9 7 10 3 11 2 12 1 13 82 14
REMARK SMILES IDX 83 16 84 17 95 18 85 19 87 20 86 21 88 22 89 23 90 24 91 25
REMARK SMILES IDX 94 26 92 27 93 28 13 29 14 30 15 31 16 32 17 33 18 35 19 36
REMARK SMILES IDX 20 37 81 38 21 39 80 40 22 41 23 42 24 43 74 44 25 45 79 46
REMARK SMILES IDX 73 47 75 48 26 49 78 50 72 51 71 52 27 54 59 55 39 56 58 57
REMARK SMILES IDX 40 58 43 59 57 60 76 61 41 62 42 63 56 65 77 66 44 67 28 68
REMARK SMILES IDX 29 69 37 70 30 71 36 72 38 73 35 74 31 75 32 76 33 77 34 78
REMARK SMILES IDX 60 79 61 80 69 81 62 82 68 83 70 84 67 85 63 86 64 87 65 88
REMARK SMILES IDX 66 89 45 90 46 91 54 92 47 93 53 94 55 95 52 96 48 97 49 98
REMARK SMILES IDX 50 99 51 100
REMARK H PARENT 12 4 82 15 16 34 75 53 43 64
REMARK Flexibility Score: inf
ROOT
ATOM      1  C   UNL A   1      31.253  26.664  25.879  1.00  0.00     0.251 C 
ATOM      2  O   UNL A   1      31.215  25.434  25.961  1.00  0.00    -0.269 OA
ATOM      3  N   UNL A   1      31.263  27.388  27.044  1.00  0.00    -0.352 N 
ATOM      4  H   UNL A   1      30.469  27.322  27.622  1.00  0.00     0.163 HD
ENDROOT
BRANCH   1   5
ATOM      5  C   UNL A   1      31.026  27.281  24.532  1.00  0.00     0.043 A 
ATOM      6  C   UNL A   1      31.888  27.391  23.423  1.00  0.00    -0.026 A 
ATOM      7  C   UNL A   1      31.383  27.999  22.241  1.00  0.00     0.005 A 
ATOM      8  C   UNL A   1      30.064  28.418  22.120  1.00  0.00     0.000 A 
ATOM      9  C   UNL A   1      29.682  27.700  24.375  1.00  0.00     0.014 A 
ATOM     10  C   UNL A   1      29.204  28.254  23.187  1.00  0.00     0.001 A 
BRANCH   6  11
ATOM     11  C   UNL A   1      33.337  27.005  23.323  1.00  0.00     0.136 C 
BRANCH  11  12
ATOM     12  C   UNL A   1      33.780  25.558  23.278  1.00  0.00     0.228 C 
ATOM     13  O   UNL A   1      33.956  25.070  22.160  1.00  0.00    -0.274 OA
ATOM     14  N   UNL A   1      34.029  24.889  24.457  1.00  0.00    -0.326 N 
ATOM     15  H   UNL A   1      33.677  25.282  25.288  1.00  0.00     0.169 HD
BRANCH  14  16
ATOM     16  C   UNL A   1      34.755  23.676  24.561  1.00  0.00     0.044 A 
ATOM     17  C   UNL A   1      36.111  23.741  24.877  1.00  0.00     0.026 A 
ATOM     18  C   UNL A   1      34.154  22.421  24.391  1.00  0.00     0.072 A 
ATOM     19  C   UNL A   1      36.816  22.569  25.158  1.00  0.00     0.006 A 
ATOM     20  C   UNL A   1      34.820  21.253  24.758  1.00  0.00     0.121 A 
ATOM     21  C   UNL A   1      36.160  21.337  25.135  1.00  0.00     0.046 A 
BRANCH  20  22
ATOM     22  O   UNL A   1      34.268  20.011  24.880  1.00  0.00    -0.491 OA
BRANCH  22  23
ATOM     23  C   UNL A   1      32.923  19.759  24.453  1.00  0.00     0.261 C 
BRANCH  23  24
ATOM     24  C   UNL A   1      32.516  18.275  24.390  1.00  0.00     0.156 C 
ATOM     25  C   UNL A   1      32.680  17.486  25.674  1.00  0.00     0.038 C 
ATOM     26  O   UNL A   1      33.243  17.533  23.384  1.00  0.00    -0.375 OA
ATOM     27  C   UNL A   1      32.765  16.068  25.186  1.00  0.00     0.031 C 
ATOM     28  C   UNL A   1      33.619  16.266  23.953  1.00  0.00     0.161 C 
ENDBRANCH  23  24
ENDBRANCH  22  23
ENDBRANCH  20  22
ENDBRANCH  14  16
ENDBRANCH  11  12
ENDBRANCH   6  11
ENDBRANCH   1   5
BRANCH   3  29
ATOM     29  C   UNL A   1      32.340  28.238  27.497  1.00  0.00     0.118 C 
BRANCH  29  30
ATOM     30  C   UNL A   1      33.690  27.879  26.914  1.00  0.00     0.042 C 
BRANCH  30  31
ATOM     31  C   UNL A   1      34.352  29.068  26.238  1.00  0.00     0.118 C 
BRANCH  31  32
ATOM     32  N   UNL A   1      33.908  30.365  26.741  1.00  0.00    -0.352 N 
ATOM     33  C   UNL A   1      34.447  31.163  27.727  1.00  0.00     0.251 C 
ATOM     34  H   UNL A   1      33.099  30.724  26.309  1.00  0.00     0.163 HD
ATOM     35  O   UNL A   1      33.867  32.184  28.066  1.00  0.00    -0.269 OA
BRANCH  33  36
ATOM     36  C   UNL A   1      35.692  30.752  28.411  1.00  0.00     0.039 A 
ATOM     37  C   UNL A   1      35.609  29.844  29.469  1.00  0.00     0.014 A 
ATOM     38  C   UNL A   1      36.935  31.216  27.983  1.00  0.00     0.014 A 
ATOM     39  C   UNL A   1      36.779  29.328  30.026  1.00  0.00     0.010 A 
ATOM     40  C   UNL A   1      38.090  30.602  28.441  1.00  0.00     0.010 A 
ATOM     41  C   UNL A   1      38.027  29.659  29.476  1.00  0.00    -0.014 A 
BRANCH  41  42
ATOM     42  C   UNL A   1      39.287  29.054  29.973  1.00  0.00     0.031 A 
ATOM     43  C   UNL A   1      39.978  29.658  31.166  1.00  0.00     0.074 A 
ATOM     44  C   UNL A   1      39.849  28.034  29.292  1.00  0.00     0.049 A 
ATOM     45  N   UNL A   1      41.146  29.374  31.680  1.00  0.00    -0.248 NA
ATOM     46  C   UNL A   1      39.287  30.774  31.834  1.00  0.00     0.031 C 
ATOM     47  C   UNL A   1      39.304  27.424  28.075  1.00  0.00     0.029 A 
ATOM     48  N   UNL A   1      41.006  27.334  29.518  1.00  0.00    -0.354 N 
ATOM     49  C   UNL A   1      41.346  30.303  32.698  1.00  0.00     0.074 A 
ATOM     50  C   UNL A   1      40.212  31.201  32.677  1.00  0.00     0.031 C 
ATOM     51  C   UNL A   1      40.109  26.423  27.684  1.00  0.00     0.029 A 
ATOM     52  C   UNL A   1      41.247  26.345  28.592  1.00  0.00     0.049 A 
ATOM     53  H   UNL A   1      41.609  27.523  30.273  1.00  0.00     0.167 HD
ATOM     54  C   UNL A   1      42.368  30.379  33.584  1.00  0.00     0.034 A 
ATOM     55  C   UNL A   1      42.274  25.480  28.488  1.00  0.00     0.034 A 
ATOM     56  C   UNL A   1      43.453  29.432  33.618  1.00  0.00     0.049 A 
ATOM     57  C   UNL A   1      43.360  25.537  29.531  1.00  0.00     0.074 A 
ATOM     58  C   UNL A   1      44.498  29.347  34.519  1.00  0.00     0.029 A 
ATOM     59  N   UNL A   1      43.627  28.396  32.707  1.00  0.00    -0.354 N 
ATOM     60  N   UNL A   1      43.501  26.378  30.531  1.00  0.00    -0.248 NA
ATOM     61  C   UNL A   1      44.411  24.517  29.448  1.00  0.00     0.031 C 
ATOM     62  C   UNL A   1      45.331  28.294  34.124  1.00  0.00     0.029 A 
ATOM     63  C   UNL A   1      44.769  27.677  33.016  1.00  0.00     0.049 A 
ATOM     64  H   UNL A   1      43.025  28.201  31.953  1.00  0.00     0.167 HD
ATOM     65  C   UNL A   1      44.643  25.968  31.212  1.00  0.00     0.074 A 
ATOM     66  C   UNL A   1      45.135  24.792  30.522  1.00  0.00     0.031 C 
ATOM     67  C   UNL A   1      45.237  26.510  32.307  1.00  0.00     0.034 A 
BRANCH  54  68
ATOM     68  C   UNL A   1      42.356  31.527  34.568  1.00  0.00     0.023 A 
ATOM     69  C   UNL A   1      42.801  32.814  34.213  1.00  0.00     0.031 A 
ATOM     70  C   UNL A   1      41.935  31.323  35.893  1.00  0.00     0.131 A 
ATOM     71  C   UNL A   1      42.896  33.818  35.189  1.00  0.00     0.055 A 
ATOM     72  C   UNL A   1      41.948  32.352  36.838  1.00  0.00     0.041 A 
ATOM     73  F   UNL A   1      41.520  30.113  36.301  1.00  0.00    -0.206 F 
ATOM     74  C   UNL A   1      42.447  33.604  36.492  1.00  0.00     0.022 A 
BRANCH  71  75
ATOM     75  S   UNL A   1      43.755  35.359  34.763  1.00  0.00     0.124 S 
ATOM     76  O   UNL A   1      44.315  35.748  36.055  1.00  0.00    -0.237 OA
ATOM     77  O   UNL A   1      44.714  34.919  33.757  1.00  0.00    -0.237 OA
ATOM     78  O   UNL A   1      42.684  36.223  34.270  1.00  0.00    -0.744 OA
ENDBRANCH  71  75
ENDBRANCH  54  68
BRANCH  55  79
ATOM     79  C   UNL A   1      42.325  24.487  27.377  1.00  0.00     0.023 A 
ATOM     80  C   UNL A   1      41.621  23.275  27.457  1.00  0.00     0.031 A 
ATOM     81  C   UNL A   1      43.108  24.716  26.232  1.00  0.00     0.131 A 
ATOM     82  C   UNL A   1      41.758  22.314  26.442  1.00  0.00     0.055 A 
ATOM     83  C   UNL A   1      43.199  23.780  25.199  1.00  0.00     0.041 A 
ATOM     84  F   UNL A   1      43.792  25.864  26.096  1.00  0.00    -0.206 F 
ATOM     85  C   UNL A   1      42.533  22.564  25.308  1.00  0.00     0.022 A 
BRANCH  82  86
ATOM     86  S   UNL A   1      40.977  20.692  26.670  1.00  0.00     0.124 S 
ATOM     87  O   UNL A   1      41.965  19.801  26.071  1.00  0.00    -0.237 OA
ATOM     88  O   UNL A   1      40.846  20.622  28.121  1.00  0.00    -0.237 OA
ATOM     89  O   UNL A   1      39.719  20.814  25.937  1.00  0.00    -0.744 OA
ENDBRANCH  82  86
ENDBRANCH  55  79
BRANCH  67  90
ATOM     90  C   UNL A   1      46.453  25.798  32.839  1.00  0.00     0.023 A 
ATOM     91  C   UNL A   1      47.728  26.002  32.285  1.00  0.00     0.031 A 
ATOM     92  C   UNL A   1      46.328  24.882  33.899  1.00  0.00     0.131 A 
ATOM     93  C   UNL A   1      48.817  25.250  32.747  1.00  0.00     0.055 A 
ATOM     94  C   UNL A   1      47.428  24.185  34.399  1.00  0.00     0.041 A 
ATOM     95  F   UNL A   1      45.132  24.649  34.463  1.00  0.00    -0.206 F 
ATOM     96  C   UNL A   1      48.678  24.355  33.811  1.00  0.00     0.022 A 
BRANCH  93  97
ATOM     97  S   UNL A   1      50.395  25.377  31.863  1.00  0.00     0.124 S 
ATOM     98  O   UNL A   1      49.975  25.248  30.471  1.00  0.00    -0.237 OA
ATOM     99  O   UNL A   1      50.872  26.696  32.265  1.00  0.00    -0.237 OA
ATOM    100  O   UNL A   1      51.171  24.252  32.384  1.00  0.00    -0.744 OA
ENDBRANCH  93  97
ENDBRANCH  67  90
ENDBRANCH  41  42
ENDBRANCH  33  36
ENDBRANCH  31  32
ENDBRANCH  30  31
ENDBRANCH  29  30
ENDBRANCH   3  29
TORSDOF 19
ENDMDL
MODEL 2
REMARK VINA RESULT:     -11.2      2.116      2.553
REMARK SMILES O=C(Cc1ccccc1C(=O)NCCCNC(=O)c1ccc(-c2c3nc(c(-c4cc(S(=O)(=O)[O-])ccc4F)c4ccc([nH]4)c(-c4cc(S(=O)(=O)[O-])ccc4F)c4nc(c(-c5cc(S(=O)(=O)[O-])ccc5F)c5ccc2[nH]5)C=C4)C=C3)cc1)Nc1cccc(OC[C@@H]2CCCO2)c1
REMARK SMILES IDX 10 1 11 2 12 3 9 5 4 6 5 7 6 8 8 9 7 10 3 11 2 12 1 13 82 14
REMARK SMILES IDX 83 16 84 17 95 18 85 19 87 20 86 21 88 22 89 23 90 24 91 25
REMARK SMILES IDX 94 26 92 27 93 28 13 29 14 30 15 31 16 32 17 33 18 35 19 36
REMARK SMILES IDX 20 37 81 38 21 39 80 40 22 41 23 42 24 43 74 44 25 45 79 46
REMARK SMILES IDX 73 47 75 48 26 49 78 50 72 51 71 52 27 54 59 55 39 56 58 57
REMARK SMILES IDX 40 58 43 59 57 60 76 61 41 62 42 63 56 65 77 66 44 67 28 68
REMARK SMILES IDX 29 69 37 70 30 71 36 72 38 73 35 74 31 75 32 76 33 77 34 78
REMARK SMILES IDX 60 79 61 80 69 81 62 82 68 83 70 84 67 85 63 86 64 87 65 88
REMARK SMILES IDX 66 89 45 90 46 91 54 92 47 93 53 94 55 95 52 96 48 97 49 98
REMARK SMILES IDX 50 99 51 100
REMARK H PARENT 12 4 82 15 16 34 75 53 43 64
REMARK Flexibility Score: inf
ROOT
ATOM      1  C   UNL A   1      32.106  29.706  25.487  1.00  0.00     0.251 C 
ATOM      2  O   UNL A   1      31.588  30.770  25.831  1.00  0.00    -0.269 OA
ATOM      3  N   UNL A   1      33.474  29.612  25.527  1.00  0.00    -0.352 N 
ATOM      4  H   UNL A   1      33.983  30.204  24.929  1.00  0.00     0.163 HD
ENDROOT
BRANCH   1   5
ATOM      5  C   UNL A   1      31.234  28.692  24.809  1.00  0.00     0.043 A 
ATOM      6  C   UNL A   1      30.832  27.410  25.230  1.00  0.00    -0.026 A 
ATOM      7  C   UNL A   1      29.953  26.674  24.389  1.00  0.00     0.005 A 
ATOM      8  C   UNL A   1      29.427  27.199  23.214  1.00  0.00     0.000 A 
ATOM      9  C   UNL A   1      30.668  29.210  23.618  1.00  0.00     0.014 A 
ATOM     10  C   UNL A   1      29.773  28.480  22.834  1.00  0.00     0.001 A 
BRANCH   6  11
ATOM     11  C   UNL A   1      31.263  26.649  26.452  1.00  0.00     0.136 C 
BRANCH  11  12
ATOM     12  C   UNL A   1      32.073  25.373  26.358  1.00  0.00     0.228 C 
ATOM     13  O   UNL A   1      31.682  24.421  27.037  1.00  0.00    -0.274 OA
ATOM     14  N   UNL A   1      33.141  25.311  25.489  1.00  0.00    -0.326 N 
ATOM     15  H   UNL A   1      33.498  26.161  25.143  1.00  0.00     0.169 HD
BRANCH  14  16
ATOM     16  C   UNL A   1      33.762  24.113  25.055  1.00  0.00     0.044 A 
ATOM     17  C   UNL A   1      35.136  23.973  25.246  1.00  0.00     0.026 A 
ATOM     18  C   UNL A   1      33.044  23.058  24.476  1.00  0.00     0.072 A 
ATOM     19  C   UNL A   1      35.751  22.746  24.993  1.00  0.00     0.006 A 
ATOM     20  C   UNL A   1      33.626  21.803  24.307  1.00  0.00     0.121 A 
ATOM     21  C   UNL A   1      34.990  21.658  24.563  1.00  0.00     0.046 A 
BRANCH  20  22
ATOM     22  O   UNL A   1      32.976  20.645  23.996  1.00  0.00    -0.491 OA
BRANCH  22  23
ATOM     23  C   UNL A   1      32.640  19.694  25.014  1.00  0.00     0.261 C 
BRANCH  23  24
ATOM     24  C   UNL A   1      32.578  18.225  24.555  1.00  0.00     0.156 C 
ATOM     25  C   UNL A   1      32.731  17.181  25.642  1.00  0.00     0.038 C 
ATOM     26  O   UNL A   1      33.582  17.903  23.565  1.00  0.00    -0.375 OA
ATOM     27  C   UNL A   1      33.190  15.970  24.882  1.00  0.00     0.031 C 
ATOM     28  C   UNL A   1      34.143  16.622  23.903  1.00  0.00     0.161 C 
ENDBRANCH  23  24
ENDBRANCH  22  23
ENDBRANCH  20  22
ENDBRANCH  14  16
ENDBRANCH  11  12
ENDBRANCH   6  11
ENDBRANCH   1   5
BRANCH   3  29
ATOM     29  C   UNL A   1      34.231  28.720  26.375  1.00  0.00     0.118 C 
BRANCH  29  30
ATOM     30  C   UNL A   1      34.621  29.325  27.706  1.00  0.00     0.042 C 
BRANCH  30  31
ATOM     31  C   UNL A   1      35.058  30.773  27.567  1.00  0.00     0.118 C 
BRANCH  31  32
ATOM     32  N   UNL A   1      34.488  31.669  28.570  1.00  0.00    -0.352 N 
ATOM     33  C   UNL A   1      34.960  32.011  29.820  1.00  0.00     0.251 C 
ATOM     34  H   UNL A   1      33.637  32.092  28.315  1.00  0.00     0.163 HD
ATOM     35  O   UNL A   1      34.280  32.716  30.552  1.00  0.00    -0.269 OA
BRANCH  33  36
ATOM     36  C   UNL A   1      36.255  31.478  30.291  1.00  0.00     0.039 A 
ATOM     37  C   UNL A   1      36.269  30.275  31.001  1.00  0.00     0.014 A 
ATOM     38  C   UNL A   1      37.452  32.129  29.996  1.00  0.00     0.014 A 
ATOM     39  C   UNL A   1      37.489  29.679  31.321  1.00  0.00     0.010 A 
ATOM     40  C   UNL A   1      38.657  31.472  30.191  1.00  0.00     0.010 A 
ATOM     41  C   UNL A   1      38.690  30.244  30.866  1.00  0.00    -0.014 A 
BRANCH  41  42
ATOM     42  C   UNL A   1      40.001  29.589  31.098  1.00  0.00     0.031 A 
ATOM     43  C   UNL A   1      40.899  30.096  32.194  1.00  0.00     0.074 A 
ATOM     44  C   UNL A   1      40.414  28.614  30.262  1.00  0.00     0.049 A 
ATOM     45  N   UNL A   1      42.129  29.761  32.481  1.00  0.00    -0.248 NA
ATOM     46  C   UNL A   1      40.359  31.170  33.045  1.00  0.00     0.031 C 
ATOM     47  C   UNL A   1      39.656  28.100  29.116  1.00  0.00     0.029 A 
ATOM     48  N   UNL A   1      41.575  27.885  30.239  1.00  0.00    -0.354 N 
ATOM     49  C   UNL A   1      42.522  30.612  33.511  1.00  0.00     0.074 A 
ATOM     50  C   UNL A   1      41.424  31.523  33.746  1.00  0.00     0.031 C 
ATOM     51  C   UNL A   1      40.358  27.120  28.526  1.00  0.00     0.029 A 
ATOM     52  C   UNL A   1      41.631  26.963  29.218  1.00  0.00     0.049 A 
ATOM     53  H   UNL A   1      42.302  28.011  30.890  1.00  0.00     0.167 HD
ATOM     54  C   UNL A   1      43.681  30.611  34.213  1.00  0.00     0.034 A 
ATOM     55  C   UNL A   1      42.604  26.094  28.881  1.00  0.00     0.034 A 
ATOM     56  C   UNL A   1      44.733  29.650  33.995  1.00  0.00     0.049 A 
ATOM     57  C   UNL A   1      43.852  26.062  29.725  1.00  0.00     0.074 A 
ATOM     58  C   UNL A   1      45.912  29.486  34.697  1.00  0.00     0.029 A 
ATOM     59  N   UNL A   1      44.724  28.680  32.999  1.00  0.00    -0.354 N 
ATOM     60  N   UNL A   1      44.181  26.827  30.742  1.00  0.00    -0.248 NA
ATOM     61  C   UNL A   1      44.848  25.037  29.393  1.00  0.00     0.031 C 
ATOM     62  C   UNL A   1      46.640  28.454  34.093  1.00  0.00     0.029 A 
ATOM     63  C   UNL A   1      45.884  27.927  33.058  1.00  0.00     0.049 A 
ATOM     64  H   UNL A   1      43.998  28.548  32.347  1.00  0.00     0.167 HD
ATOM     65  C   UNL A   1      45.411  26.354  31.188  1.00  0.00     0.074 A 
ATOM     66  C   UNL A   1      45.750  25.225  30.345  1.00  0.00     0.031 C 
ATOM     67  C   UNL A   1      46.196  26.808  32.200  1.00  0.00     0.034 A 
BRANCH  54  68
ATOM     68  C   UNL A   1      43.865  31.684  35.261  1.00  0.00     0.023 A 
ATOM     69  C   UNL A   1      43.500  31.480  36.605  1.00  0.00     0.031 A 
ATOM     70  C   UNL A   1      44.373  32.945  34.905  1.00  0.00     0.131 A 
ATOM     71  C   UNL A   1      43.565  32.543  37.519  1.00  0.00     0.055 A 
ATOM     72  C   UNL A   1      44.520  33.972  35.841  1.00  0.00     0.041 A 
ATOM     73  F   UNL A   1      44.719  33.210  33.635  1.00  0.00    -0.206 F 
ATOM     74  C   UNL A   1      44.099  33.780  37.154  1.00  0.00     0.022 A 
BRANCH  71  75
ATOM     75  S   UNL A   1      42.804  32.327  39.152  1.00  0.00     0.124 S 
ATOM     76  O   UNL A   1      43.663  31.302  39.741  1.00  0.00    -0.237 OA
ATOM     77  O   UNL A   1      42.913  33.660  39.731  1.00  0.00    -0.237 OA
ATOM     78  O   UNL A   1      41.445  31.889  38.841  1.00  0.00    -0.744 OA
ENDBRANCH  71  75
ENDBRANCH  54  68
BRANCH  55  79
ATOM     79  C   UNL A   1      42.441  25.183  27.712  1.00  0.00     0.023 A 
ATOM     80  C   UNL A   1      41.636  24.036  27.794  1.00  0.00     0.031 A 
ATOM     81  C   UNL A   1      43.119  25.424  26.503  1.00  0.00     0.131 A 
ATOM     82  C   UNL A   1      41.571  23.144  26.713  1.00  0.00     0.055 A 
ATOM     83  C   UNL A   1      43.008  24.561  25.410  1.00  0.00     0.041 A 
ATOM     84  F   UNL A   1      43.892  26.513  26.363  1.00  0.00    -0.206 F 
ATOM     85  C   UNL A   1      42.244  23.405  25.517  1.00  0.00     0.022 A 
BRANCH  82  86
ATOM     86  S   UNL A   1      40.666  21.586  26.925  1.00  0.00     0.124 S 
ATOM     87  O   UNL A   1      41.382  20.700  26.013  1.00  0.00    -0.237 OA
ATOM     88  O   UNL A   1      40.847  21.323  28.349  1.00  0.00    -0.237 OA
ATOM     89  O   UNL A   1      39.303  21.927  26.524  1.00  0.00    -0.744 OA
ENDBRANCH  82  86
ENDBRANCH  55  79
BRANCH  67  90
ATOM     90  C   UNL A   1      47.466  26.043  32.467  1.00  0.00     0.023 A 
ATOM     91  C   UNL A   1      47.533  25.047  33.455  1.00  0.00     0.031 A 
ATOM     92  C   UNL A   1      48.633  26.336  31.739  1.00  0.00     0.131 A 
ATOM     93  C   UNL A   1      48.757  24.425  33.736  1.00  0.00     0.055 A 
ATOM     94  C   UNL A   1      49.833  25.667  31.977  1.00  0.00     0.041 A 
ATOM     95  F   UNL A   1      48.623  27.280  30.784  1.00  0.00    -0.206 F 
ATOM     96  C   UNL A   1      49.904  24.717  32.992  1.00  0.00     0.022 A 
BRANCH  93  97
ATOM     97  S   UNL A   1      48.855  23.309  35.162  1.00  0.00     0.124 S 
ATOM     98  O   UNL A   1      47.448  23.132  35.506  1.00  0.00    -0.237 OA
ATOM     99  O   UNL A   1      49.526  22.143  34.599  1.00  0.00    -0.237 OA
ATOM    100  O   UNL A   1      49.642  24.066  36.135  1.00  0.00    -0.744 OA
ENDBRANCH  93  97
ENDBRANCH  67  90
ENDBRANCH  41  42
ENDBRANCH  33  36
ENDBRANCH  31  32
ENDBRANCH  30  31
ENDBRANCH  29  30
ENDBRANCH   3  29
TORSDOF 19
ENDMDL
MODEL 3
REMARK VINA RESULT:     -11.1      4.367      7.830
REMARK SMILES O=C(Cc1ccccc1C(=O)NCCCNC(=O)c1ccc(-c2c3nc(c(-c4cc(S(=O)(=O)[O-])ccc4F)c4ccc([nH]4)c(-c4cc(S(=O)(=O)[O-])ccc4F)c4nc(c(-c5cc(S(=O)(=O)[O-])ccc5F)c5ccc2[nH]5)C=C4)C=C3)cc1)Nc1cccc(OC[C@@H]2CCCO2)c1
REMARK SMILES IDX 10 1 11 2 12 3 9 5 4 6 5 7 6 8 8 9 7 10 3 11 2 12 1 13 82 14
REMARK SMILES IDX 83 16 84 17 95 18 85 19 87 20 86 21 88 22 89 23 90 24 91 25
REMARK SMILES IDX 94 26 92 27 93 28 13 29 14 30 15 31 16 32 17 33 18 35 19 36
REMARK SMILES IDX 20 37 81 38 21 39 80 40 22 41 23 42 24 43 74 44 25 45 79 46
REMARK SMILES IDX 73 47 75 48 26 49 78 50 72 51 71 52 27 54 59 55 39 56 58 57
REMARK SMILES IDX 40 58 43 59 57 60 76 61 41 62 42 63 56 65 77 66 44 67 28 68
REMARK SMILES IDX 29 69 37 70 30 71 36 72 38 73 35 74 31 75 32 76 33 77 34 78
REMARK SMILES IDX 60 79 61 80 69 81 62 82 68 83 70 84 67 85 63 86 64 87 65 88
REMARK SMILES IDX 66 89 45 90 46 91 54 92 47 93 53 94 55 95 52 96 48 97 49 98
REMARK SMILES IDX 50 99 51 100
REMARK H PARENT 12 4 82 15 16 34 75 53 43 64
REMARK Flexibility Score: inf
ROOT
ATOM      1  C   UNL A   1      35.219  34.556  33.461  1.00  0.00     0.251 C 
ATOM      2  O   UNL A   1      34.786  35.682  33.715  1.00  0.00    -0.269 OA
ATOM      3  N   UNL A   1      34.352  33.638  32.925  1.00  0.00    -0.352 N 
ATOM      4  H   UNL A   1      33.589  33.360  33.482  1.00  0.00     0.163 HD
ENDROOT
BRANCH   1   5
ATOM      5  C   UNL A   1      36.574  34.193  33.989  1.00  0.00     0.043 A 
ATOM      6  C   UNL A   1      37.848  34.339  33.407  1.00  0.00    -0.026 A 
ATOM      7  C   UNL A   1      38.981  33.941  34.167  1.00  0.00     0.005 A 
ATOM      8  C   UNL A   1      38.882  33.483  35.476  1.00  0.00     0.000 A 
ATOM      9  C   UNL A   1      36.503  33.742  35.330  1.00  0.00     0.014 A 
ATOM     10  C   UNL A   1      37.637  33.398  36.067  1.00  0.00     0.001 A 
BRANCH   6  11
ATOM     11  C   UNL A   1      38.196  34.813  32.023  1.00  0.00     0.136 C 
BRANCH  11  12
ATOM     12  C   UNL A   1      39.172  34.063  31.141  1.00  0.00     0.228 C 
ATOM     13  O   UNL A   1      38.693  33.456  30.181  1.00  0.00    -0.274 OA
ATOM     14  N   UNL A   1      40.523  34.149  31.400  1.00  0.00    -0.326 N 
ATOM     15  H   UNL A   1      40.798  34.483  32.285  1.00  0.00     0.169 HD
BRANCH  14  16
ATOM     16  C   UNL A   1      41.546  33.792  30.487  1.00  0.00     0.044 A 
ATOM     17  C   UNL A   1      42.379  34.798  29.999  1.00  0.00     0.026 A 
ATOM     18  C   UNL A   1      41.769  32.468  30.084  1.00  0.00     0.072 A 
ATOM     19  C   UNL A   1      43.501  34.464  29.239  1.00  0.00     0.006 A 
ATOM     20  C   UNL A   1      42.933  32.113  29.405  1.00  0.00     0.121 A 
ATOM     21  C   UNL A   1      43.793  33.124  28.978  1.00  0.00     0.046 A 
BRANCH  20  22
ATOM     22  O   UNL A   1      43.384  30.845  29.182  1.00  0.00    -0.491 OA
BRANCH  22  23
ATOM     23  C   UNL A   1      43.090  30.165  27.955  1.00  0.00     0.261 C 
BRANCH  23  24
ATOM     24  C   UNL A   1      43.957  28.927  27.660  1.00  0.00     0.156 C 
ATOM     25  C   UNL A   1      45.080  28.652  28.640  1.00  0.00     0.038 C 
ATOM     26  O   UNL A   1      44.584  28.977  26.357  1.00  0.00    -0.375 OA
ATOM     27  C   UNL A   1      46.030  27.815  27.834  1.00  0.00     0.031 C 
ATOM     28  C   UNL A   1      45.943  28.528  26.502  1.00  0.00     0.161 C 
ENDBRANCH  23  24
ENDBRANCH  22  23
ENDBRANCH  20  22
ENDBRANCH  14  16
ENDBRANCH  11  12
ENDBRANCH   6  11
ENDBRANCH   1   5
BRANCH   3  29
ATOM     29  C   UNL A   1      34.461  33.043  31.613  1.00  0.00     0.118 C 
BRANCH  29  30
ATOM     30  C   UNL A   1      34.728  34.043  30.509  1.00  0.00     0.042 C 
BRANCH  30  31
ATOM     31  C   UNL A   1      35.352  33.390  29.287  1.00  0.00     0.118 C 
BRANCH  31  32
ATOM     32  N   UNL A   1      34.425  32.575  28.507  1.00  0.00    -0.352 N 
ATOM     33  C   UNL A   1      34.541  31.270  28.077  1.00  0.00     0.251 C 
ATOM     34  H   UNL A   1      33.589  33.026  28.248  1.00  0.00     0.163 HD
ATOM     35  O   UNL A   1      33.683  30.793  27.348  1.00  0.00    -0.269 OA
BRANCH  33  36
ATOM     36  C   UNL A   1      35.730  30.474  28.449  1.00  0.00     0.039 A 
ATOM     37  C   UNL A   1      36.869  30.548  27.643  1.00  0.00     0.014 A 
ATOM     38  C   UNL A   1      35.743  29.699  29.608  1.00  0.00     0.014 A 
ATOM     39  C   UNL A   1      38.047  29.927  28.058  1.00  0.00     0.010 A 
ATOM     40  C   UNL A   1      36.945  29.200  30.086  1.00  0.00     0.010 A 
ATOM     41  C   UNL A   1      38.109  29.298  29.311  1.00  0.00    -0.014 A 
BRANCH  41  42
ATOM     42  C   UNL A   1      39.369  28.715  29.832  1.00  0.00     0.031 A 
ATOM     43  C   UNL A   1      39.997  29.296  31.071  1.00  0.00     0.074 A 
ATOM     44  C   UNL A   1      39.988  27.739  29.137  1.00  0.00     0.049 A 
ATOM     45  N   UNL A   1      41.155  29.030  31.617  1.00  0.00    -0.248 NA
ATOM     46  C   UNL A   1      39.247  30.365  31.752  1.00  0.00     0.031 C 
ATOM     47  C   UNL A   1      39.508  27.157  27.879  1.00  0.00     0.029 A 
ATOM     48  N   UNL A   1      41.158  27.068  29.380  1.00  0.00    -0.354 N 
ATOM     49  C   UNL A   1      41.288  29.927  32.674  1.00  0.00     0.074 A 
ATOM     50  C   UNL A   1      40.128  30.789  32.643  1.00  0.00     0.031 C 
ATOM     51  C   UNL A   1      40.357  26.197  27.482  1.00  0.00     0.029 A 
ATOM     52  C   UNL A   1      41.464  26.122  28.428  1.00  0.00     0.049 A 
ATOM     53  H   UNL A   1      41.728  27.247  30.163  1.00  0.00     0.167 HD
ATOM     54  C   UNL A   1      42.275  30.002  33.600  1.00  0.00     0.034 A 
ATOM     55  C   UNL A   1      42.522  25.293  28.331  1.00  0.00     0.034 A 
ATOM     56  C   UNL A   1      43.389  29.089  33.639  1.00  0.00     0.049 A 
ATOM     57  C   UNL A   1      43.568  25.346  29.416  1.00  0.00     0.074 A 
ATOM     58  C   UNL A   1      44.403  29.003  34.574  1.00  0.00     0.029 A 
ATOM     59  N   UNL A   1      43.628  28.093  32.699  1.00  0.00    -0.354 N 
ATOM     60  N   UNL A   1      43.646  26.154  30.449  1.00  0.00    -0.248 NA
ATOM     61  C   UNL A   1      44.654  24.363  29.334  1.00  0.00     0.031 C 
ATOM     62  C   UNL A   1      45.283  27.992  34.173  1.00  0.00     0.029 A 
ATOM     63  C   UNL A   1      44.782  27.399  33.024  1.00  0.00     0.049 A 
ATOM     64  H   UNL A   1      43.060  27.907  31.916  1.00  0.00     0.167 HD
ATOM     65  C   UNL A   1      44.775  25.754  31.156  1.00  0.00     0.074 A 
ATOM     66  C   UNL A   1      45.330  24.620  30.444  1.00  0.00     0.031 C 
ATOM     67  C   UNL A   1      45.312  26.274  32.291  1.00  0.00     0.034 A 
BRANCH  54  68
ATOM     68  C   UNL A   1      42.191  31.112  34.622  1.00  0.00     0.023 A 
ATOM     69  C   UNL A   1      42.505  32.445  34.299  1.00  0.00     0.031 A 
ATOM     70  C   UNL A   1      41.832  30.827  35.951  1.00  0.00     0.131 A 
ATOM     71  C   UNL A   1      42.540  33.422  35.306  1.00  0.00     0.055 A 
ATOM     72  C   UNL A   1      41.783  31.823  36.931  1.00  0.00     0.041 A 
ATOM     73  F   UNL A   1      41.542  29.572  36.329  1.00  0.00    -0.206 F 
ATOM     74  C   UNL A   1      42.155  33.126  36.615  1.00  0.00     0.022 A 
BRANCH  71  75
ATOM     75  S   UNL A   1      43.241  35.047  34.909  1.00  0.00     0.124 S 
ATOM     76  O   UNL A   1      42.875  35.820  36.094  1.00  0.00    -0.237 OA
ATOM     77  O   UNL A   1      44.659  34.751  34.754  1.00  0.00    -0.237 OA
ATOM     78  O   UNL A   1      42.544  35.431  33.684  1.00  0.00    -0.744 OA
ENDBRANCH  71  75
ENDBRANCH  54  68
BRANCH  55  79
ATOM     79  C   UNL A   1      42.645  24.344  27.188  1.00  0.00     0.023 A 
ATOM     80  C   UNL A   1      42.056  23.070  27.239  1.00  0.00     0.031 A 
ATOM     81  C   UNL A   1      43.385  24.680  26.041  1.00  0.00     0.131 A 
ATOM     82  C   UNL A   1      42.263  22.159  26.192  1.00  0.00     0.055 A 
ATOM     83  C   UNL A   1      43.543  23.788  24.977  1.00  0.00     0.041 A 
ATOM     84  F   UNL A   1      43.959  25.889  25.933  1.00  0.00    -0.206 F 
ATOM     85  C   UNL A   1      42.993  22.514  25.056  1.00  0.00     0.022 A 
BRANCH  82  86
ATOM     86  S   UNL A   1      41.637  20.466  26.377  1.00  0.00     0.124 S 
ATOM     87  O   UNL A   1      42.392  19.756  25.351  1.00  0.00    -0.237 OA
ATOM     88  O   UNL A   1      41.992  20.163  27.760  1.00  0.00    -0.237 OA
ATOM     89  O   UNL A   1      40.206  20.602  26.119  1.00  0.00    -0.744 OA
ENDBRANCH  82  86
ENDBRANCH  55  79
BRANCH  67  90
ATOM     90  C   UNL A   1      46.531  25.581  32.842  1.00  0.00     0.023 A 
ATOM     91  C   UNL A   1      46.429  24.578  33.821  1.00  0.00     0.031 A 
ATOM     92  C   UNL A   1      47.814  25.949  32.399  1.00  0.00     0.131 A 
ATOM     93  C   UNL A   1      47.591  24.024  34.375  1.00  0.00     0.055 A 
ATOM     94  C   UNL A   1      48.965  25.347  32.907  1.00  0.00     0.041 A 
ATOM     95  F   UNL A   1      47.967  26.902  31.466  1.00  0.00    -0.206 F 
ATOM     96  C   UNL A   1      48.858  24.391  33.913  1.00  0.00     0.022 A 
BRANCH  93  97
ATOM     97  S   UNL A   1      47.427  22.900  35.788  1.00  0.00     0.124 S 
ATOM     98  O   UNL A   1      47.941  21.648  35.241  1.00  0.00    -0.237 OA
ATOM     99  O   UNL A   1      48.259  23.544  36.798  1.00  0.00    -0.237 OA
ATOM    100  O   UNL A   1      45.992  22.910  36.069  1.00  0.00    -0.744 OA
ENDBRANCH  93  97
ENDBRANCH  67  90
ENDBRANCH  41  42
ENDBRANCH  33  36
ENDBRANCH  31  32
ENDBRANCH  30  31
ENDBRANCH  29  30
ENDBRANCH   3  29
TORSDOF 19
ENDMDL
