MODEL 1
REMARK VINA RESULT:     -11.8      0.000      0.000
REMARK SMILES CCc1ccc(C[NH+]2CCC(Oc3ccccc3OC)(C(=O)NCCCNC(=O)c3ccc(-c4c5nc(c(-c6cc(S(=O)(=O)[O-])ccc6F)c6ccc([nH]6)c(-c6cc(S(=O)(=O)[O-])ccc6F)c6nc(c(-c7cc(S(=O)(=O)[O-])ccc7F)c7ccc4[nH]7)C=C6)C=C5)cc3)CC2)nc1
REMARK SMILES IDX 25 1 24 2 23 3 21 4 22 5 11 7 8 8 9 9 94 10 10 12 93 13 7 14
REMARK SMILES IDX 6 15 3 16 4 17 96 18 5 19 95 20 2 21 1 22 12 23 13 24 14 25
REMARK SMILES IDX 18 26 15 27 17 28 16 29 19 30 20 31 26 32 27 33 28 34 29 36
REMARK SMILES IDX 30 37 31 38 92 39 32 40 91 41 33 42 34 43 35 44 85 45 36 46
REMARK SMILES IDX 90 47 84 48 86 49 37 50 89 51 83 52 82 53 38 55 70 56 50 57
REMARK SMILES IDX 69 58 51 59 54 60 68 61 87 62 52 63 53 64 67 66 88 67 55 68
REMARK SMILES IDX 39 69 40 70 48 71 41 72 47 73 49 74 46 75 42 76 43 77 44 78
REMARK SMILES IDX 45 79 71 80 72 81 80 82 73 83 79 84 81 85 78 86 74 87 75 88
REMARK SMILES IDX 76 89 77 90 56 91 57 92 65 93 58 94 64 95 66 96 63 97 59 98
REMARK SMILES IDX 60 99 61 100 62 101
REMARK H PARENT 23 6 8 11 27 35 86 54 54 65
REMARK Flexibility Score: inf
ROOT
ATOM      1  C   UNL A   1      32.128  28.859  26.908  1.00  0.00     0.042 C 
ENDROOT
BRANCH   1   2
ATOM      2  C   UNL A   1      32.623  27.483  27.334  1.00  0.00     0.118 C 
BRANCH   2   3
ATOM      3  N   UNL A   1      31.659  26.424  27.093  1.00  0.00    -0.353 N 
ATOM      4  C   UNL A   1      31.795  25.192  26.514  1.00  0.00     0.264 C 
ATOM      5  O   UNL A   1      30.874  24.405  26.764  1.00  0.00    -0.270 OA
ATOM      6  H   UNL A   1      30.745  26.629  27.399  1.00  0.00     0.163 HD
BRANCH   4   7
ATOM      7  C   UNL A   1      33.002  24.801  25.589  1.00  0.00     0.197 C 
ATOM      8  N   UNL A   1      32.353  25.835  22.904  1.00  0.00    -0.330 N 
ATOM      9  C   UNL A   1      32.713  26.751  23.991  1.00  0.00     0.267 C 
ATOM     10  C   UNL A   1      31.639  24.657  23.416  1.00  0.00     0.267 C 
ATOM     11  H   UNL A   1      33.220  25.505  22.482  1.00  0.00     0.348 HD
ATOM     12  C   UNL A   1      33.637  26.052  24.974  1.00  0.00     0.120 C 
ATOM     13  C   UNL A   1      32.487  23.892  24.447  1.00  0.00     0.120 C 
BRANCH   8  14
ATOM     14  C   UNL A   1      31.593  26.524  21.830  1.00  0.00     0.319 C 
BRANCH  14  15
ATOM     15  C   UNL A   1      30.611  27.591  22.288  1.00  0.00     0.095 A 
ATOM     16  C   UNL A   1      28.633  29.463  22.739  1.00  0.00    -0.030 A 
ATOM     17  C   UNL A   1      28.500  28.179  23.270  1.00  0.00     0.007 A 
ATOM     18  C   UNL A   1      29.796  29.738  22.027  1.00  0.00     0.115 A 
ATOM     19  C   UNL A   1      29.495  27.232  23.044  1.00  0.00     0.030 A 
ATOM     20  N   UNL A   1      30.788  28.848  21.814  1.00  0.00    -0.255 NA
BRANCH  16  21
ATOM     21  C   UNL A   1      27.532  30.478  22.872  1.00  0.00     0.034 C 
ATOM     22  C   UNL A   1      27.848  31.578  23.874  1.00  0.00     0.009 C 
ENDBRANCH  16  21
ENDBRANCH  14  15
ENDBRANCH   8  14
BRANCH   7  23
ATOM     23  O   UNL A   1      33.911  24.147  26.504  1.00  0.00    -0.473 OA
BRANCH  23  24
ATOM     24  C   UNL A   1      34.888  23.325  26.032  1.00  0.00     0.162 A 
ATOM     25  C   UNL A   1      36.007  23.955  25.477  1.00  0.00     0.050 A 
ATOM     26  C   UNL A   1      34.754  21.936  25.920  1.00  0.00     0.160 A 
ATOM     27  C   UNL A   1      37.016  23.205  24.875  1.00  0.00     0.004 A 
ATOM     28  C   UNL A   1      35.779  21.185  25.338  1.00  0.00     0.050 A 
ATOM     29  C   UNL A   1      36.904  21.817  24.809  1.00  0.00     0.004 A 
BRANCH  26  30
ATOM     30  O   UNL A   1      33.703  21.212  26.412  1.00  0.00    -0.493 OA
ATOM     31  C   UNL A   1      33.226  20.236  25.493  1.00  0.00     0.278 C 
ENDBRANCH  26  30
ENDBRANCH  23  24
ENDBRANCH   7  23
ENDBRANCH   4   7
ENDBRANCH   2   3
ENDBRANCH   1   2
BRANCH   1  32
ATOM     32  C   UNL A   1      33.179  29.697  26.192  1.00  0.00     0.118 C 
BRANCH  32  33
ATOM     33  N   UNL A   1      33.047  31.117  26.489  1.00  0.00    -0.352 N 
ATOM     34  C   UNL A   1      33.726  31.905  27.387  1.00  0.00     0.251 C 
ATOM     35  H   UNL A   1      32.362  31.586  25.961  1.00  0.00     0.163 HD
ATOM     36  O   UNL A   1      33.297  33.030  27.627  1.00  0.00    -0.269 OA
BRANCH  34  37
ATOM     37  C   UNL A   1      34.942  31.411  28.073  1.00  0.00     0.039 A 
ATOM     38  C   UNL A   1      34.879  30.193  28.757  1.00  0.00     0.014 A 
ATOM     39  C   UNL A   1      36.125  32.153  28.091  1.00  0.00     0.014 A 
ATOM     40  C   UNL A   1      36.014  29.695  29.404  1.00  0.00     0.010 A 
ATOM     41  C   UNL A   1      37.277  31.621  28.670  1.00  0.00     0.010 A 
ATOM     42  C   UNL A   1      37.233  30.388  29.338  1.00  0.00    -0.014 A 
BRANCH  42  43
ATOM     43  C   UNL A   1      38.465  29.850  29.972  1.00  0.00     0.031 A 
ATOM     44  C   UNL A   1      38.910  30.364  31.315  1.00  0.00     0.074 A 
ATOM     45  C   UNL A   1      39.210  28.939  29.316  1.00  0.00     0.049 A 
ATOM     46  N   UNL A   1      39.999  30.089  31.989  1.00  0.00    -0.248 NA
ATOM     47  C   UNL A   1      38.028  31.340  31.970  1.00  0.00     0.031 C 
ATOM     48  C   UNL A   1      38.899  28.384  27.997  1.00  0.00     0.029 A 
ATOM     49  N   UNL A   1      40.389  28.324  29.663  1.00  0.00    -0.354 N 
ATOM     50  C   UNL A   1      39.936  30.864  33.143  1.00  0.00     0.074 A 
ATOM     51  C   UNL A   1      38.736  31.667  33.042  1.00  0.00     0.031 C 
ATOM     52  C   UNL A   1      39.846  27.494  27.659  1.00  0.00     0.029 A 
ATOM     53  C   UNL A   1      40.857  27.450  28.710  1.00  0.00     0.049 A 
ATOM     54  H   UNL A   1      40.853  28.494  30.513  1.00  0.00     0.167 HD
ATOM     55  C   UNL A   1      40.787  30.886  34.199  1.00  0.00     0.034 A 
ATOM     56  C   UNL A   1      41.981  26.705  28.680  1.00  0.00     0.034 A 
ATOM     57  C   UNL A   1      41.977  30.073  34.288  1.00  0.00     0.049 A 
ATOM     58  C   UNL A   1      42.929  26.770  29.850  1.00  0.00     0.074 A 
ATOM     59  C   UNL A   1      42.891  29.991  35.325  1.00  0.00     0.029 A 
ATOM     60  N   UNL A   1      42.421  29.202  33.301  1.00  0.00    -0.354 N 
ATOM     61  N   UNL A   1      42.843  27.490  30.945  1.00  0.00    -0.248 NA
ATOM     62  C   UNL A   1      44.121  25.915  29.782  1.00  0.00     0.031 C 
ATOM     63  C   UNL A   1      43.917  29.122  34.940  1.00  0.00     0.029 A 
ATOM     64  C   UNL A   1      43.607  28.600  33.695  1.00  0.00     0.049 A 
ATOM     65  H   UNL A   1      41.961  29.036  32.447  1.00  0.00     0.167 HD
ATOM     66  C   UNL A   1      43.955  27.150  31.710  1.00  0.00     0.074 A 
ATOM     67  C   UNL A   1      44.687  26.152  30.956  1.00  0.00     0.031 C 
ATOM     68  C   UNL A   1      44.335  27.615  32.927  1.00  0.00     0.034 A 
BRANCH  55  69
ATOM     69  C   UNL A   1      40.468  31.839  35.327  1.00  0.00     0.023 A 
ATOM     70  C   UNL A   1      39.428  31.580  36.238  1.00  0.00     0.031 A 
ATOM     71  C   UNL A   1      41.189  33.036  35.479  1.00  0.00     0.131 A 
ATOM     72  C   UNL A   1      39.087  32.538  37.204  1.00  0.00     0.055 A 
ATOM     73  C   UNL A   1      40.900  33.948  36.498  1.00  0.00     0.041 A 
ATOM     74  F   UNL A   1      42.180  33.351  34.628  1.00  0.00    -0.206 F 
ATOM     75  C   UNL A   1      39.832  33.708  37.359  1.00  0.00     0.022 A 
BRANCH  72  76
ATOM     76  S   UNL A   1      37.562  32.299  38.158  1.00  0.00     0.124 S 
ATOM     77  O   UNL A   1      36.602  33.071  37.374  1.00  0.00    -0.237 OA
ATOM     78  O   UNL A   1      37.394  30.851  38.127  1.00  0.00    -0.237 OA
ATOM     79  O   UNL A   1      37.884  32.864  39.466  1.00  0.00    -0.744 OA
ENDBRANCH  72  76
ENDBRANCH  55  69
BRANCH  56  80
ATOM     80  C   UNL A   1      42.278  25.839  27.505  1.00  0.00     0.023 A 
ATOM     81  C   UNL A   1      41.842  24.505  27.463  1.00  0.00     0.031 A 
ATOM     82  C   UNL A   1      43.032  26.322  26.420  1.00  0.00     0.131 A 
ATOM     83  C   UNL A   1      42.199  23.686  26.380  1.00  0.00     0.055 A 
ATOM     84  C   UNL A   1      43.341  25.518  25.321  1.00  0.00     0.041 A 
ATOM     85  F   UNL A   1      43.467  27.591  26.408  1.00  0.00    -0.206 F 
ATOM     86  C   UNL A   1      42.934  24.187  25.303  1.00  0.00     0.022 A 
BRANCH  83  87
ATOM     87  S   UNL A   1      41.751  21.930  26.435  1.00  0.00     0.124 S 
ATOM     88  O   UNL A   1      40.326  21.977  26.130  1.00  0.00    -0.237 OA
ATOM     89  O   UNL A   1      42.611  21.365  25.400  1.00  0.00    -0.237 OA
ATOM     90  O   UNL A   1      42.085  21.537  27.802  1.00  0.00    -0.744 OA
ENDBRANCH  83  87
ENDBRANCH  56  80
BRANCH  68  91
ATOM     91  C   UNL A   1      45.576  27.011  33.534  1.00  0.00     0.023 A 
ATOM     92  C   UNL A   1      45.532  25.829  34.294  1.00  0.00     0.031 A 
ATOM     93  C   UNL A   1      46.823  27.637  33.359  1.00  0.00     0.131 A 
ATOM     94  C   UNL A   1      46.700  25.341  34.897  1.00  0.00     0.055 A 
ATOM     95  C   UNL A   1      47.994  27.113  33.911  1.00  0.00     0.041 A 
ATOM     96  F   UNL A   1      46.924  28.769  32.644  1.00  0.00    -0.206 F 
ATOM     97  C   UNL A   1      47.934  25.967  34.696  1.00  0.00     0.022 A 
BRANCH  94  98
ATOM     98  S   UNL A   1      46.573  23.924  36.023  1.00  0.00     0.124 S 
ATOM     99  O   UNL A   1      46.826  24.544  37.320  1.00  0.00    -0.237 OA
ATOM    100  O   UNL A   1      45.208  23.464  35.793  1.00  0.00    -0.237 OA
ATOM    101  O   UNL A   1      47.621  23.019  35.554  1.00  0.00    -0.744 OA
ENDBRANCH  94  98
ENDBRANCH  68  91
ENDBRANCH  42  43
ENDBRANCH  34  37
ENDBRANCH  32  33
ENDBRANCH   1  32
TORSDOF 19
ENDMDL
MODEL 2
REMARK VINA RESULT:     -11.8      1.411      7.441
REMARK SMILES CCc1ccc(C[NH+]2CCC(Oc3ccccc3OC)(C(=O)NCCCNC(=O)c3ccc(-c4c5nc(c(-c6cc(S(=O)(=O)[O-])ccc6F)c6ccc([nH]6)c(-c6cc(S(=O)(=O)[O-])ccc6F)c6nc(c(-c7cc(S(=O)(=O)[O-])ccc7F)c7ccc4[nH]7)C=C6)C=C5)cc3)CC2)nc1
REMARK SMILES IDX 25 1 24 2 23 3 21 4 22 5 11 7 8 8 9 9 94 10 10 12 93 13 7 14
REMARK SMILES IDX 6 15 3 16 4 17 96 18 5 19 95 20 2 21 1 22 12 23 13 24 14 25
REMARK SMILES IDX 18 26 15 27 17 28 16 29 19 30 20 31 26 32 27 33 28 34 29 36
REMARK SMILES IDX 30 37 31 38 92 39 32 40 91 41 33 42 34 43 35 44 85 45 36 46
REMARK SMILES IDX 90 47 84 48 86 49 37 50 89 51 83 52 82 53 38 55 70 56 50 57
REMARK SMILES IDX 69 58 51 59 54 60 68 61 87 62 52 63 53 64 67 66 88 67 55 68
REMARK SMILES IDX 39 69 40 70 48 71 41 72 47 73 49 74 46 75 42 76 43 77 44 78
REMARK SMILES IDX 45 79 71 80 72 81 80 82 73 83 79 84 81 85 78 86 74 87 75 88
REMARK SMILES IDX 76 89 77 90 56 91 57 92 65 93 58 94 64 95 66 96 63 97 59 98
REMARK SMILES IDX 60 99 61 100 62 101
REMARK H PARENT 23 6 8 11 27 35 86 54 54 65
REMARK Flexibility Score: inf
ROOT
ATOM      1  C   UNL A   1      31.830  28.585  26.638  1.00  0.00     0.042 C 
ENDROOT
BRANCH   1   2
ATOM      2  C   UNL A   1      32.521  27.252  26.894  1.00  0.00     0.118 C 
BRANCH   2   3
ATOM      3  N   UNL A   1      31.609  26.122  26.892  1.00  0.00    -0.353 N 
ATOM      4  C   UNL A   1      31.777  24.825  26.490  1.00  0.00     0.264 C 
ATOM      5  O   UNL A   1      30.929  24.039  26.930  1.00  0.00    -0.270 OA
ATOM      6  H   UNL A   1      30.711  26.324  27.242  1.00  0.00     0.163 HD
BRANCH   4   7
ATOM      7  C   UNL A   1      32.932  24.360  25.533  1.00  0.00     0.197 C 
ATOM      8  N   UNL A   1      32.310  25.492  22.881  1.00  0.00    -0.330 N 
ATOM      9  C   UNL A   1      32.762  26.357  23.976  1.00  0.00     0.267 C 
ATOM     10  C   UNL A   1      31.518  24.363  23.388  1.00  0.00     0.267 C 
ATOM     11  H   UNL A   1      33.141  25.105  22.435  1.00  0.00     0.348 HD
ATOM     12  C   UNL A   1      33.649  25.570  24.927  1.00  0.00     0.120 C 
ATOM     13  C   UNL A   1      32.325  23.516  24.386  1.00  0.00     0.120 C 
BRANCH   8  14
ATOM     14  C   UNL A   1      31.585  26.258  21.836  1.00  0.00     0.319 C 
BRANCH  14  15
ATOM     15  C   UNL A   1      30.658  27.355  22.336  1.00  0.00     0.095 A 
ATOM     16  C   UNL A   1      28.762  29.288  22.873  1.00  0.00    -0.030 A 
ATOM     17  C   UNL A   1      28.610  28.008  23.407  1.00  0.00     0.007 A 
ATOM     18  C   UNL A   1      29.902  29.527  22.113  1.00  0.00     0.115 A 
ATOM     19  C   UNL A   1      29.564  27.030  23.139  1.00  0.00     0.030 A 
ATOM     20  N   UNL A   1      30.855  28.607  21.857  1.00  0.00    -0.255 NA
BRANCH  16  21
ATOM     21  C   UNL A   1      27.702  30.338  23.054  1.00  0.00     0.034 C 
ATOM     22  C   UNL A   1      28.172  31.533  23.871  1.00  0.00     0.009 C 
ENDBRANCH  16  21
ENDBRANCH  14  15
ENDBRANCH   8  14
BRANCH   7  23
ATOM     23  O   UNL A   1      33.805  23.621  26.417  1.00  0.00    -0.473 OA
BRANCH  23  24
ATOM     24  C   UNL A   1      34.888  22.962  25.919  1.00  0.00     0.162 A 
ATOM     25  C   UNL A   1      35.982  23.759  25.564  1.00  0.00     0.050 A 
ATOM     26  C   UNL A   1      34.894  21.601  25.596  1.00  0.00     0.160 A 
ATOM     27  C   UNL A   1      37.100  23.193  24.952  1.00  0.00     0.004 A 
ATOM     28  C   UNL A   1      36.027  21.033  25.005  1.00  0.00     0.050 A 
ATOM     29  C   UNL A   1      37.124  21.828  24.676  1.00  0.00     0.004 A 
BRANCH  26  30
ATOM     30  O   UNL A   1      33.881  20.728  25.883  1.00  0.00    -0.493 OA
ATOM     31  C   UNL A   1      33.734  19.711  24.898  1.00  0.00     0.278 C 
ENDBRANCH  26  30
ENDBRANCH  23  24
ENDBRANCH   7  23
ENDBRANCH   4   7
ENDBRANCH   2   3
ENDBRANCH   1   2
BRANCH   1  32
ATOM     32  C   UNL A   1      32.630  29.533  25.755  1.00  0.00     0.118 C 
BRANCH  32  33
ATOM     33  N   UNL A   1      32.369  30.931  26.070  1.00  0.00    -0.352 N 
ATOM     34  C   UNL A   1      32.959  31.762  26.991  1.00  0.00     0.251 C 
ATOM     35  H   UNL A   1      31.654  31.347  25.536  1.00  0.00     0.163 HD
ATOM     36  O   UNL A   1      32.428  32.841  27.240  1.00  0.00    -0.269 OA
BRANCH  34  37
ATOM     37  C   UNL A   1      34.202  31.366  27.694  1.00  0.00     0.039 A 
ATOM     38  C   UNL A   1      35.218  32.314  27.848  1.00  0.00     0.014 A 
ATOM     39  C   UNL A   1      34.396  30.063  28.159  1.00  0.00     0.014 A 
ATOM     40  C   UNL A   1      36.397  31.973  28.517  1.00  0.00     0.010 A 
ATOM     41  C   UNL A   1      35.538  29.746  28.893  1.00  0.00     0.010 A 
ATOM     42  C   UNL A   1      36.554  30.695  29.076  1.00  0.00    -0.014 A 
BRANCH  42  43
ATOM     43  C   UNL A   1      37.776  30.329  29.839  1.00  0.00     0.031 A 
ATOM     44  C   UNL A   1      38.778  29.374  29.248  1.00  0.00     0.074 A 
ATOM     45  C   UNL A   1      37.956  30.813  31.084  1.00  0.00     0.049 A 
ATOM     46  N   UNL A   1      39.856  28.862  29.788  1.00  0.00    -0.248 NA
ATOM     47  C   UNL A   1      38.516  28.911  27.878  1.00  0.00     0.031 C 
ATOM     48  C   UNL A   1      37.042  31.723  31.777  1.00  0.00     0.029 A 
ATOM     49  N   UNL A   1      38.964  30.601  31.993  1.00  0.00    -0.354 N 
ATOM     50  C   UNL A   1      40.394  28.012  28.828  1.00  0.00     0.074 A 
ATOM     51  C   UNL A   1      39.488  28.028  27.700  1.00  0.00     0.031 C 
ATOM     52  C   UNL A   1      37.543  32.010  32.989  1.00  0.00     0.029 A 
ATOM     53  C   UNL A   1      38.785  31.270  33.181  1.00  0.00     0.049 A 
ATOM     54  H   UNL A   1      39.740  30.024  31.810  1.00  0.00     0.167 HD
ATOM     55  C   UNL A   1      41.550  27.301  28.874  1.00  0.00     0.034 A 
ATOM     56  C   UNL A   1      39.532  31.276  34.304  1.00  0.00     0.034 A 
ATOM     57  C   UNL A   1      42.448  27.302  30.004  1.00  0.00     0.049 A 
ATOM     58  C   UNL A   1      40.794  30.454  34.345  1.00  0.00     0.074 A 
ATOM     59  C   UNL A   1      43.660  26.647  30.144  1.00  0.00     0.029 A 
ATOM     60  N   UNL A   1      42.231  27.989  31.192  1.00  0.00    -0.354 N 
ATOM     61  N   UNL A   1      41.302  29.673  33.419  1.00  0.00    -0.248 NA
ATOM     62  C   UNL A   1      41.586  30.522  35.579  1.00  0.00     0.031 C 
ATOM     63  C   UNL A   1      44.143  26.886  31.435  1.00  0.00     0.029 A 
ATOM     64  C   UNL A   1      43.273  27.753  32.077  1.00  0.00     0.049 A 
ATOM     65  H   UNL A   1      41.452  28.560  31.379  1.00  0.00     0.167 HD
ATOM     66  C   UNL A   1      42.491  29.182  33.950  1.00  0.00     0.074 A 
ATOM     67  C   UNL A   1      42.629  29.765  35.269  1.00  0.00     0.031 C 
ATOM     68  C   UNL A   1      43.392  28.331  33.396  1.00  0.00     0.034 A 
BRANCH  55  69
ATOM     69  C   UNL A   1      41.888  26.450  27.672  1.00  0.00     0.023 A 
ATOM     70  C   UNL A   1      41.491  25.103  27.590  1.00  0.00     0.031 A 
ATOM     71  C   UNL A   1      42.641  26.977  26.609  1.00  0.00     0.131 A 
ATOM     72  C   UNL A   1      41.916  24.311  26.513  1.00  0.00     0.055 A 
ATOM     73  C   UNL A   1      42.989  26.206  25.497  1.00  0.00     0.041 A 
ATOM     74  F   UNL A   1      43.068  28.251  26.639  1.00  0.00    -0.206 F 
ATOM     75  C   UNL A   1      42.640  24.859  25.452  1.00  0.00     0.022 A 
BRANCH  72  76
ATOM     76  S   UNL A   1      41.637  22.520  26.593  1.00  0.00     0.124 S 
ATOM     77  O   UNL A   1      42.335  22.169  27.827  1.00  0.00    -0.237 OA
ATOM     78  O   UNL A   1      40.183  22.429  26.633  1.00  0.00    -0.237 OA
ATOM     79  O   UNL A   1      42.262  22.021  25.370  1.00  0.00    -0.744 OA
ENDBRANCH  72  76
ENDBRANCH  55  69
BRANCH  56  80
ATOM     80  C   UNL A   1      39.106  32.080  35.485  1.00  0.00     0.023 A 
ATOM     81  C   UNL A   1      39.563  33.395  35.665  1.00  0.00     0.031 A 
ATOM     82  C   UNL A   1      38.264  31.533  36.469  1.00  0.00     0.131 A 
ATOM     83  C   UNL A   1      39.210  34.105  36.823  1.00  0.00     0.055 A 
ATOM     84  C   UNL A   1      37.874  32.262  37.594  1.00  0.00     0.041 A 
ATOM     85  F   UNL A   1      37.794  30.282  36.342  1.00  0.00    -0.206 F 
ATOM     86  C   UNL A   1      38.359  33.553  37.782  1.00  0.00     0.022 A 
BRANCH  83  87
ATOM     87  S   UNL A   1      39.945  35.741  37.095  1.00  0.00     0.124 S 
ATOM     88  O   UNL A   1      39.214  36.204  38.269  1.00  0.00    -0.237 OA
ATOM     89  O   UNL A   1      41.351  35.411  37.303  1.00  0.00    -0.237 OA
ATOM     90  O   UNL A   1      39.651  36.455  35.855  1.00  0.00    -0.744 OA
ENDBRANCH  83  87
ENDBRANCH  56  80
BRANCH  68  91
ATOM     91  C   UNL A   1      44.627  28.018  34.204  1.00  0.00     0.023 A 
ATOM     92  C   UNL A   1      44.686  26.913  35.070  1.00  0.00     0.031 A 
ATOM     93  C   UNL A   1      45.758  28.848  34.114  1.00  0.00     0.131 A 
ATOM     94  C   UNL A   1      45.830  26.699  35.854  1.00  0.00     0.055 A 
ATOM     95  C   UNL A   1      46.916  28.597  34.851  1.00  0.00     0.041 A 
ATOM     96  F   UNL A   1      45.756  29.919  33.303  1.00  0.00    -0.206 F 
ATOM     97  C   UNL A   1      46.952  27.525  35.737  1.00  0.00     0.022 A 
BRANCH  94  98
ATOM     98  S   UNL A   1      45.801  25.377  37.096  1.00  0.00     0.124 S 
ATOM     99  O   UNL A   1      46.535  24.312  36.422  1.00  0.00    -0.237 OA
ATOM    100  O   UNL A   1      46.478  26.000  38.229  1.00  0.00    -0.237 OA
ATOM    101  O   UNL A   1      44.375  25.121  37.291  1.00  0.00    -0.744 OA
ENDBRANCH  94  98
ENDBRANCH  68  91
ENDBRANCH  42  43
ENDBRANCH  34  37
ENDBRANCH  32  33
ENDBRANCH   1  32
TORSDOF 19
ENDMDL
MODEL 3
REMARK VINA RESULT:     -11.7      4.874     10.272
REMARK SMILES CCc1ccc(C[NH+]2CCC(Oc3ccccc3OC)(C(=O)NCCCNC(=O)c3ccc(-c4c5nc(c(-c6cc(S(=O)(=O)[O-])ccc6F)c6ccc([nH]6)c(-c6cc(S(=O)(=O)[O-])ccc6F)c6nc(c(-c7cc(S(=O)(=O)[O-])ccc7F)c7ccc4[nH]7)C=C6)C=C5)cc3)CC2)nc1
REMARK SMILES IDX 25 1 24 2 23 3 21 4 22 5 11 7 8 8 9 9 94 10 10 12 93 13 7 14
REMARK SMILES IDX 6 15 3 16 4 17 96 18 5 19 95 20 2 21 1 22 12 23 13 24 14 25
REMARK SMILES IDX 18 26 15 27 17 28 16 29 19 30 20 31 26 32 27 33 28 34 29 36
REMARK SMILES IDX 30 37 31 38 92 39 32 40 91 41 33 42 34 43 35 44 85 45 36 46
REMARK SMILES IDX 90 47 84 48 86 49 37 50 89 51 83 52 82 53 38 55 70 56 50 57
REMARK SMILES IDX 69 58 51 59 54 60 68 61 87 62 52 63 53 64 67 66 88 67 55 68
REMARK SMILES IDX 39 69 40 70 48 71 41 72 47 73 49 74 46 75 42 76 43 77 44 78
REMARK SMILES IDX 45 79 71 80 72 81 80 82 73 83 79 84 81 85 78 86 74 87 75 88
REMARK SMILES IDX 76 89 77 90 56 91 57 92 65 93 58 94 64 95 66 96 63 97 59 98
REMARK SMILES IDX 60 99 61 100 62 101
REMARK H PARENT 23 6 8 11 27 35 86 54 54 65
REMARK Flexibility Score: inf
ROOT
ATOM      1  C   UNL A   1      36.775  21.670  25.606  1.00  0.00     0.042 C 
ENDROOT
BRANCH   1   2
ATOM      2  C   UNL A   1      36.373  23.066  26.063  1.00  0.00     0.118 C 
BRANCH   2   3
ATOM      3  N   UNL A   1      35.170  23.081  26.876  1.00  0.00    -0.353 N 
ATOM      4  C   UNL A   1      33.867  23.352  26.558  1.00  0.00     0.264 C 
ATOM      5  O   UNL A   1      33.044  22.952  27.391  1.00  0.00    -0.270 OA
ATOM      6  H   UNL A   1      35.318  22.857  27.824  1.00  0.00     0.163 HD
BRANCH   4   7
ATOM      7  C   UNL A   1      33.438  24.126  25.261  1.00  0.00     0.197 C 
ATOM      8  N   UNL A   1      32.332  22.102  23.422  1.00  0.00    -0.330 N 
ATOM      9  C   UNL A   1      31.593  22.505  24.623  1.00  0.00     0.267 C 
ATOM     10  C   UNL A   1      33.783  22.156  23.648  1.00  0.00     0.267 C 
ATOM     11  H   UNL A   1      32.114  22.776  22.688  1.00  0.00     0.348 HD
ATOM     12  C   UNL A   1      31.942  23.937  24.992  1.00  0.00     0.120 C 
ATOM     13  C   UNL A   1      34.234  23.569  24.057  1.00  0.00     0.120 C 
BRANCH   8  14
ATOM     14  C   UNL A   1      31.895  20.774  22.923  1.00  0.00     0.319 C 
BRANCH  14  15
ATOM     15  C   UNL A   1      32.480  19.567  23.640  1.00  0.00     0.095 A 
ATOM     16  C   UNL A   1      33.135  17.241  24.974  1.00  0.00    -0.030 A 
ATOM     17  C   UNL A   1      33.231  17.286  23.583  1.00  0.00     0.007 A 
ATOM     18  C   UNL A   1      32.738  18.406  25.622  1.00  0.00     0.115 A 
ATOM     19  C   UNL A   1      32.901  18.457  22.906  1.00  0.00     0.030 A 
ATOM     20  N   UNL A   1      32.437  19.563  24.994  1.00  0.00    -0.255 NA
BRANCH  16  21
ATOM     21  C   UNL A   1      33.380  15.964  25.730  1.00  0.00     0.034 C 
ATOM     22  C   UNL A   1      32.389  14.862  25.384  1.00  0.00     0.009 C 
ENDBRANCH  16  21
ENDBRANCH  14  15
ENDBRANCH   8  14
BRANCH   7  23
ATOM     23  O   UNL A   1      33.743  25.501  25.590  1.00  0.00    -0.473 OA
BRANCH  23  24
ATOM     24  C   UNL A   1      33.042  26.516  25.014  1.00  0.00     0.162 A 
ATOM     25  C   UNL A   1      33.474  26.918  23.746  1.00  0.00     0.050 A 
ATOM     26  C   UNL A   1      32.063  27.263  25.678  1.00  0.00     0.160 A 
ATOM     27  C   UNL A   1      32.888  28.016  23.114  1.00  0.00     0.004 A 
ATOM     28  C   UNL A   1      31.461  28.347  25.031  1.00  0.00     0.050 A 
ATOM     29  C   UNL A   1      31.878  28.728  23.756  1.00  0.00     0.004 A 
BRANCH  26  30
ATOM     30  O   UNL A   1      31.570  26.975  26.921  1.00  0.00    -0.493 OA
ATOM     31  C   UNL A   1      31.491  28.119  27.763  1.00  0.00     0.278 C 
ENDBRANCH  26  30
ENDBRANCH  23  24
ENDBRANCH   7  23
ENDBRANCH   4   7
ENDBRANCH   2   3
ENDBRANCH   1   2
BRANCH   1  32
ATOM     32  C   UNL A   1      38.232  21.557  25.178  1.00  0.00     0.118 C 
BRANCH  32  33
ATOM     33  N   UNL A   1      39.000  20.687  26.058  1.00  0.00    -0.352 N 
ATOM     34  C   UNL A   1      40.058  20.970  26.887  1.00  0.00     0.251 C 
ATOM     35  H   UNL A   1      38.714  19.745  26.058  1.00  0.00     0.163 HD
ATOM     36  O   UNL A   1      40.696  20.038  27.370  1.00  0.00    -0.269 OA
BRANCH  34  37
ATOM     37  C   UNL A   1      40.445  22.369  27.185  1.00  0.00     0.039 A 
ATOM     38  C   UNL A   1      41.395  22.605  28.184  1.00  0.00     0.014 A 
ATOM     39  C   UNL A   1      39.851  23.448  26.527  1.00  0.00     0.014 A 
ATOM     40  C   UNL A   1      41.789  23.914  28.478  1.00  0.00     0.010 A 
ATOM     41  C   UNL A   1      40.301  24.746  26.766  1.00  0.00     0.010 A 
ATOM     42  C   UNL A   1      41.270  24.995  27.748  1.00  0.00    -0.014 A 
BRANCH  42  43
ATOM     43  C   UNL A   1      41.716  26.389  28.008  1.00  0.00     0.031 A 
ATOM     44  C   UNL A   1      43.092  26.832  27.589  1.00  0.00     0.074 A 
ATOM     45  C   UNL A   1      40.904  27.237  28.669  1.00  0.00     0.049 A 
ATOM     46  N   UNL A   1      43.698  27.973  27.806  1.00  0.00    -0.248 NA
ATOM     47  C   UNL A   1      43.904  25.852  26.855  1.00  0.00     0.031 C 
ATOM     48  C   UNL A   1      39.559  26.917  29.152  1.00  0.00     0.029 A 
ATOM     49  N   UNL A   1      41.093  28.541  29.058  1.00  0.00    -0.354 N 
ATOM     50  C   UNL A   1      44.964  27.843  27.244  1.00  0.00     0.074 A 
ATOM     51  C   UNL A   1      45.059  26.491  26.736  1.00  0.00     0.031 C 
ATOM     52  C   UNL A   1      39.036  28.000  29.747  1.00  0.00     0.029 A 
ATOM     53  C   UNL A   1      40.022  29.076  29.735  1.00  0.00     0.049 A 
ATOM     54  H   UNL A   1      41.917  29.045  28.869  1.00  0.00     0.167 HD
ATOM     55  C   UNL A   1      45.947  28.772  27.139  1.00  0.00     0.034 A 
ATOM     56  C   UNL A   1      39.857  30.291  30.294  1.00  0.00     0.034 A 
ATOM     57  C   UNL A   1      45.834  30.120  27.643  1.00  0.00     0.049 A 
ATOM     58  C   UNL A   1      40.974  31.298  30.195  1.00  0.00     0.074 A 
ATOM     59  C   UNL A   1      46.754  31.152  27.563  1.00  0.00     0.029 A 
ATOM     60  N   UNL A   1      44.736  30.624  28.328  1.00  0.00    -0.354 N 
ATOM     61  N   UNL A   1      42.157  31.167  29.638  1.00  0.00    -0.248 NA
ATOM     62  C   UNL A   1      40.730  32.616  30.792  1.00  0.00     0.031 C 
ATOM     63  C   UNL A   1      46.239  32.256  28.250  1.00  0.00     0.029 A 
ATOM     64  C   UNL A   1      44.965  31.942  28.695  1.00  0.00     0.049 A 
ATOM     65  H   UNL A   1      43.913  30.120  28.523  1.00  0.00     0.167 HD
ATOM     66  C   UNL A   1      42.785  32.399  29.791  1.00  0.00     0.074 A 
ATOM     67  C   UNL A   1      41.846  33.261  30.480  1.00  0.00     0.031 C 
ATOM     68  C   UNL A   1      44.024  32.787  29.394  1.00  0.00     0.034 A 
BRANCH  55  69
ATOM     69  C   UNL A   1      47.235  28.347  26.473  1.00  0.00     0.023 A 
ATOM     70  C   UNL A   1      47.368  28.326  25.072  1.00  0.00     0.031 A 
ATOM     71  C   UNL A   1      48.335  27.928  27.241  1.00  0.00     0.131 A 
ATOM     72  C   UNL A   1      48.538  27.822  24.486  1.00  0.00     0.055 A 
ATOM     73  C   UNL A   1      49.530  27.507  26.652  1.00  0.00     0.041 A 
ATOM     74  F   UNL A   1      48.263  27.905  28.582  1.00  0.00    -0.206 F 
ATOM     75  C   UNL A   1      49.630  27.436  25.265  1.00  0.00     0.022 A 
BRANCH  72  76
ATOM     76  S   UNL A   1      48.553  27.535  22.695  1.00  0.00     0.124 S 
ATOM     77  O   UNL A   1      49.810  28.170  22.306  1.00  0.00    -0.237 OA
ATOM     78  O   UNL A   1      48.517  26.081  22.607  1.00  0.00    -0.237 OA
ATOM     79  O   UNL A   1      47.349  28.220  22.229  1.00  0.00    -0.744 OA
ENDBRANCH  72  76
ENDBRANCH  55  69
BRANCH  56  80
ATOM     80  C   UNL A   1      38.590  30.627  31.003  1.00  0.00     0.023 A 
ATOM     81  C   UNL A   1      37.543  31.287  30.339  1.00  0.00     0.031 A 
ATOM     82  C   UNL A   1      38.419  30.324  32.366  1.00  0.00     0.131 A 
ATOM     83  C   UNL A   1      36.391  31.660  31.047  1.00  0.00     0.055 A 
ATOM     84  C   UNL A   1      37.249  30.652  33.053  1.00  0.00     0.041 A 
ATOM     85  F   UNL A   1      39.386  29.688  33.046  1.00  0.00    -0.206 F 
ATOM     86  C   UNL A   1      36.230  31.335  32.396  1.00  0.00     0.022 A 
BRANCH  83  87
ATOM     87  S   UNL A   1      35.130  32.646  30.194  1.00  0.00     0.124 S 
ATOM     88  O   UNL A   1      35.890  33.828  29.805  1.00  0.00    -0.237 OA
ATOM     89  O   UNL A   1      34.730  31.754  29.111  1.00  0.00    -0.237 OA
ATOM     90  O   UNL A   1      34.117  32.866  31.223  1.00  0.00    -0.744 OA
ENDBRANCH  83  87
ENDBRANCH  56  80
BRANCH  68  91
ATOM     91  C   UNL A   1      44.411  34.220  29.659  1.00  0.00     0.023 A 
ATOM     92  C   UNL A   1      44.072  35.256  28.771  1.00  0.00     0.031 A 
ATOM     93  C   UNL A   1      45.143  34.552  30.813  1.00  0.00     0.131 A 
ATOM     94  C   UNL A   1      44.511  36.564  29.023  1.00  0.00     0.055 A 
ATOM     95  C   UNL A   1      45.526  35.866  31.089  1.00  0.00     0.041 A 
ATOM     96  F   UNL A   1      45.496  33.602  31.694  1.00  0.00    -0.206 F 
ATOM     97  C   UNL A   1      45.222  36.878  30.185  1.00  0.00     0.022 A 
BRANCH  94  98
ATOM     98  S   UNL A   1      44.219  37.839  27.765  1.00  0.00     0.124 S 
ATOM     99  O   UNL A   1      43.376  37.132  26.808  1.00  0.00    -0.237 OA
ATOM    100  O   UNL A   1      43.563  38.892  28.535  1.00  0.00    -0.237 OA
ATOM    101  O   UNL A   1      45.562  38.165  27.289  1.00  0.00    -0.744 OA
ENDBRANCH  94  98
ENDBRANCH  68  91
ENDBRANCH  42  43
ENDBRANCH  34  37
ENDBRANCH  32  33
ENDBRANCH   1  32
TORSDOF 19
ENDMDL
