MODEL 1
REMARK VINA RESULT:     -12.9      0.000      0.000
REMARK SMILES Cc1ccc(Nc2c(Cl)cccc2Cl)c(CC(=O)NCCCNC(=O)c2ccc(-c3c4nc(c(-c5cc(S(=O)(=O)[O-])ccc5F)c5ccc([nH]5)c(-c5cc(S(=O)(=O)[O-])ccc5F)c5nc(c(-c6cc(S(=O)(=O)[O-])ccc6F)c6ccc3[nH]6)C=C5)C=C4)cc2)c1
REMARK SMILES IDX 21 1 20 2 19 3 17 4 18 5 16 7 15 8 1 9 2 10 3 11 89 12 4 13
REMARK SMILES IDX 5 14 6 15 7 17 8 18 13 19 9 20 10 21 12 22 14 23 11 24 22 25
REMARK SMILES IDX 23 26 24 27 25 29 26 30 27 31 88 32 28 33 87 34 29 35 30 36
REMARK SMILES IDX 31 37 81 38 32 39 86 40 80 41 82 42 33 43 85 44 79 45 78 46
REMARK SMILES IDX 34 48 66 49 46 50 65 51 47 52 50 53 64 54 83 55 48 56 49 57
REMARK SMILES IDX 63 59 84 60 51 61 35 62 36 63 44 64 37 65 43 66 45 67 42 68
REMARK SMILES IDX 38 69 39 70 40 71 41 72 67 73 68 74 76 75 69 76 75 77 77 78
REMARK SMILES IDX 74 79 70 80 71 81 72 82 73 83 52 84 53 85 61 86 54 87 60 88
REMARK SMILES IDX 62 89 59 90 55 91 56 92 57 93 58 94
REMARK H PARENT 19 6 6 16 23 28 82 47 50 58
REMARK Flexibility Score: inf
ROOT
ATOM      1  C   UNL A   1      38.990  21.392  26.053  1.00  0.00     0.042 C 
ENDROOT
BRANCH   1   2
ATOM      2  C   UNL A   1      37.623  21.257  25.388  1.00  0.00     0.117 C 
BRANCH   2   3
ATOM      3  N   UNL A   1      37.575  21.910  24.089  1.00  0.00    -0.356 N 
ATOM      4  C   UNL A   1      36.624  22.748  23.579  1.00  0.00     0.224 C 
ATOM      5  O   UNL A   1      36.664  23.091  22.395  1.00  0.00    -0.275 OA
ATOM      6  H   UNL A   1      38.336  21.724  23.493  1.00  0.00     0.163 HD
BRANCH   4   7
ATOM      7  C   UNL A   1      35.496  23.254  24.466  1.00  0.00     0.137 C 
BRANCH   7   8
ATOM      8  C   UNL A   1      34.138  22.685  24.115  1.00  0.00    -0.015 A 
ATOM      9  C   UNL A   1      32.551  19.208  24.194  1.00  0.00     0.044 C 
ATOM     10  C   UNL A   1      32.734  20.681  23.994  1.00  0.00    -0.051 A 
ATOM     11  C   UNL A   1      31.750  21.431  23.353  1.00  0.00     0.005 A 
ATOM     12  C   UNL A   1      33.906  21.322  24.401  1.00  0.00     0.009 A 
ATOM     13  C   UNL A   1      31.947  22.794  23.112  1.00  0.00     0.026 A 
ATOM     14  C   UNL A   1      33.138  23.446  23.472  1.00  0.00     0.042 A 
BRANCH  14  15
ATOM     15  N   UNL A   1      33.313  24.829  23.235  1.00  0.00    -0.353 N 
ATOM     16  H   UNL A   1      34.201  25.091  22.899  1.00  0.00     0.167 HD
BRANCH  15  17
ATOM     17  C   UNL A   1      32.390  25.892  23.411  1.00  0.00     0.076 A 
ATOM     18  C   UNL A   1      32.002  26.374  24.678  1.00  0.00     0.066 A 
ATOM     19  C   UNL A   1      31.746  26.447  22.285  1.00  0.00     0.066 A 
ATOM     20  Cl  UNL A   1      32.775  25.857  26.143  1.00  0.00    -0.082 Cl
ATOM     21  C   UNL A   1      31.003  27.351  24.808  1.00  0.00     0.023 A 
ATOM     22  C   UNL A   1      30.755  27.427  22.416  1.00  0.00     0.023 A 
ATOM     23  Cl  UNL A   1      32.128  25.908  20.684  1.00  0.00    -0.082 Cl
ATOM     24  C   UNL A   1      30.377  27.872  23.679  1.00  0.00     0.003 A 
ENDBRANCH  15  17
ENDBRANCH  14  15
ENDBRANCH   7   8
ENDBRANCH   4   7
ENDBRANCH   2   3
ENDBRANCH   1   2
BRANCH   1  25
ATOM     25  C   UNL A   1      39.340  22.814  26.475  1.00  0.00     0.118 C 
BRANCH  25  26
ATOM     26  N   UNL A   1      40.776  23.093  26.392  1.00  0.00    -0.352 N 
ATOM     27  C   UNL A   1      41.433  24.294  26.583  1.00  0.00     0.251 C 
ATOM     28  H   UNL A   1      41.349  22.322  26.170  1.00  0.00     0.163 HD
ATOM     29  O   UNL A   1      42.650  24.391  26.503  1.00  0.00    -0.269 OA
BRANCH  27  30
ATOM     30  C   UNL A   1      40.627  25.457  27.011  1.00  0.00     0.039 A 
ATOM     31  C   UNL A   1      40.782  26.643  26.286  1.00  0.00     0.014 A 
ATOM     32  C   UNL A   1      39.971  25.442  28.238  1.00  0.00     0.014 A 
ATOM     33  C   UNL A   1      40.484  27.854  26.903  1.00  0.00     0.010 A 
ATOM     34  C   UNL A   1      39.753  26.649  28.879  1.00  0.00     0.010 A 
ATOM     35  C   UNL A   1      40.076  27.852  28.238  1.00  0.00    -0.014 A 
BRANCH  35  36
ATOM     36  C   UNL A   1      40.144  29.047  29.077  1.00  0.00     0.031 A 
ATOM     37  C   UNL A   1      39.074  30.062  29.066  1.00  0.00     0.074 A 
ATOM     38  C   UNL A   1      41.192  29.224  29.911  1.00  0.00     0.049 A 
ATOM     39  N   UNL A   1      39.247  31.301  29.387  1.00  0.00    -0.248 NA
ATOM     40  C   UNL A   1      37.713  29.761  28.645  1.00  0.00     0.031 C 
ATOM     41  C   UNL A   1      41.321  30.212  30.978  1.00  0.00     0.029 A 
ATOM     42  N   UNL A   1      42.479  28.706  29.759  1.00  0.00    -0.354 N 
ATOM     43  C   UNL A   1      38.007  31.877  29.515  1.00  0.00     0.074 A 
ATOM     44  C   UNL A   1      37.091  30.899  28.969  1.00  0.00     0.031 C 
ATOM     45  C   UNL A   1      42.623  30.447  31.191  1.00  0.00     0.029 A 
ATOM     46  C   UNL A   1      43.369  29.714  30.186  1.00  0.00     0.049 A 
ATOM     47  H   UNL A   1      42.718  27.813  29.419  1.00  0.00     0.167 HD
ATOM     48  C   UNL A   1      37.871  33.054  30.190  1.00  0.00     0.034 A 
ATOM     49  C   UNL A   1      44.303  30.231  29.336  1.00  0.00     0.034 A 
ATOM     50  C   UNL A   1      39.157  33.604  30.628  1.00  0.00     0.049 A 
ATOM     51  C   UNL A   1      44.175  31.723  29.103  1.00  0.00     0.074 A 
ATOM     52  C   UNL A   1      39.816  33.693  31.843  1.00  0.00     0.029 A 
ATOM     53  N   UNL A   1      40.083  33.977  29.670  1.00  0.00    -0.354 N 
ATOM     54  N   UNL A   1      43.252  32.477  29.633  1.00  0.00    -0.248 NA
ATOM     55  C   UNL A   1      45.023  32.466  28.169  1.00  0.00     0.031 C 
ATOM     56  C   UNL A   1      41.151  34.130  31.597  1.00  0.00     0.029 A 
ATOM     57  C   UNL A   1      41.299  34.315  30.235  1.00  0.00     0.049 A 
ATOM     58  H   UNL A   1      39.900  34.000  28.702  1.00  0.00     0.167 HD
ATOM     59  C   UNL A   1      43.311  33.730  29.080  1.00  0.00     0.074 A 
ATOM     60  C   UNL A   1      44.444  33.679  28.176  1.00  0.00     0.031 C 
ATOM     61  C   UNL A   1      42.392  34.703  29.358  1.00  0.00     0.034 A 
BRANCH  48  62
ATOM     62  C   UNL A   1      36.540  33.577  30.681  1.00  0.00     0.023 A 
ATOM     63  C   UNL A   1      35.647  34.171  29.767  1.00  0.00     0.031 A 
ATOM     64  C   UNL A   1      36.107  33.558  32.020  1.00  0.00     0.131 A 
ATOM     65  C   UNL A   1      34.470  34.810  30.198  1.00  0.00     0.055 A 
ATOM     66  C   UNL A   1      34.975  34.256  32.463  1.00  0.00     0.041 A 
ATOM     67  F   UNL A   1      36.729  32.818  32.949  1.00  0.00    -0.206 F 
ATOM     68  C   UNL A   1      34.157  34.903  31.550  1.00  0.00     0.022 A 
BRANCH  65  69
ATOM     69  S   UNL A   1      33.343  35.508  28.960  1.00  0.00     0.124 S 
ATOM     70  O   UNL A   1      32.781  34.313  28.341  1.00  0.00    -0.237 OA
ATOM     71  O   UNL A   1      32.436  36.299  29.784  1.00  0.00    -0.237 OA
ATOM     72  O   UNL A   1      34.230  36.290  28.098  1.00  0.00    -0.744 OA
ENDBRANCH  65  69
ENDBRANCH  48  62
BRANCH  49  73
ATOM     73  C   UNL A   1      44.804  29.224  28.353  1.00  0.00     0.023 A 
ATOM     74  C   UNL A   1      45.712  28.260  28.843  1.00  0.00     0.031 A 
ATOM     75  C   UNL A   1      44.147  28.948  27.148  1.00  0.00     0.131 A 
ATOM     76  C   UNL A   1      45.783  26.992  28.253  1.00  0.00     0.055 A 
ATOM     77  C   UNL A   1      44.305  27.716  26.500  1.00  0.00     0.041 A 
ATOM     78  F   UNL A   1      43.245  29.802  26.644  1.00  0.00    -0.206 F 
ATOM     79  C   UNL A   1      45.087  26.712  27.078  1.00  0.00     0.022 A 
BRANCH  76  80
ATOM     80  S   UNL A   1      46.520  25.647  29.227  1.00  0.00     0.124 S 
ATOM     81  O   UNL A   1      47.882  26.121  29.435  1.00  0.00    -0.237 OA
ATOM     82  O   UNL A   1      45.666  25.609  30.415  1.00  0.00    -0.237 OA
ATOM     83  O   UNL A   1      46.389  24.473  28.366  1.00  0.00    -0.744 OA
ENDBRANCH  76  80
ENDBRANCH  49  73
BRANCH  61  84
ATOM     84  C   UNL A   1      42.441  36.095  28.777  1.00  0.00     0.023 A 
ATOM     85  C   UNL A   1      42.893  37.199  29.518  1.00  0.00     0.031 A 
ATOM     86  C   UNL A   1      41.959  36.371  27.477  1.00  0.00     0.131 A 
ATOM     87  C   UNL A   1      42.930  38.483  28.946  1.00  0.00     0.055 A 
ATOM     88  C   UNL A   1      41.922  37.661  26.941  1.00  0.00     0.041 A 
ATOM     89  F   UNL A   1      41.538  35.398  26.657  1.00  0.00    -0.206 F 
ATOM     90  C   UNL A   1      42.423  38.727  27.671  1.00  0.00     0.022 A 
BRANCH  87  91
ATOM     91  S   UNL A   1      43.722  39.825  29.871  1.00  0.00     0.124 S 
ATOM     92  O   UNL A   1      42.829  40.952  29.628  1.00  0.00    -0.237 OA
ATOM     93  O   UNL A   1      43.715  39.290  31.231  1.00  0.00    -0.237 OA
ATOM     94  O   UNL A   1      45.044  39.935  29.258  1.00  0.00    -0.744 OA
ENDBRANCH  87  91
ENDBRANCH  61  84
ENDBRANCH  35  36
ENDBRANCH  27  30
ENDBRANCH  25  26
ENDBRANCH   1  25
TORSDOF 16
ENDMDL
MODEL 2
REMARK VINA RESULT:     -12.9      4.252     10.723
REMARK SMILES Cc1ccc(Nc2c(Cl)cccc2Cl)c(CC(=O)NCCCNC(=O)c2ccc(-c3c4nc(c(-c5cc(S(=O)(=O)[O-])ccc5F)c5ccc([nH]5)c(-c5cc(S(=O)(=O)[O-])ccc5F)c5nc(c(-c6cc(S(=O)(=O)[O-])ccc6F)c6ccc3[nH]6)C=C5)C=C4)cc2)c1
REMARK SMILES IDX 21 1 20 2 19 3 17 4 18 5 16 7 15 8 1 9 2 10 3 11 89 12 4 13
REMARK SMILES IDX 5 14 6 15 7 17 8 18 13 19 9 20 10 21 12 22 14 23 11 24 22 25
REMARK SMILES IDX 23 26 24 27 25 29 26 30 27 31 88 32 28 33 87 34 29 35 30 36
REMARK SMILES IDX 31 37 81 38 32 39 86 40 80 41 82 42 33 43 85 44 79 45 78 46
REMARK SMILES IDX 34 48 66 49 46 50 65 51 47 52 50 53 64 54 83 55 48 56 49 57
REMARK SMILES IDX 63 59 84 60 51 61 35 62 36 63 44 64 37 65 43 66 45 67 42 68
REMARK SMILES IDX 38 69 39 70 40 71 41 72 67 73 68 74 76 75 69 76 75 77 77 78
REMARK SMILES IDX 74 79 70 80 71 81 72 82 73 83 52 84 53 85 61 86 54 87 60 88
REMARK SMILES IDX 62 89 59 90 55 91 56 92 57 93 58 94
REMARK H PARENT 19 6 6 16 23 28 82 47 50 58
REMARK Flexibility Score: inf
ROOT
ATOM      1  C   UNL A   1      33.360  31.771  27.454  1.00  0.00     0.042 C 
ENDROOT
BRANCH   1   2
ATOM      2  C   UNL A   1      32.360  30.831  26.786  1.00  0.00     0.117 C 
BRANCH   2   3
ATOM      3  N   UNL A   1      32.114  29.635  27.577  1.00  0.00    -0.356 N 
ATOM      4  C   UNL A   1      32.066  28.331  27.175  1.00  0.00     0.224 C 
ATOM      5  O   UNL A   1      31.690  27.451  27.955  1.00  0.00    -0.275 OA
ATOM      6  H   UNL A   1      31.961  29.787  28.538  1.00  0.00     0.163 HD
BRANCH   4   7
ATOM      7  C   UNL A   1      32.464  27.952  25.757  1.00  0.00     0.137 C 
BRANCH   7   8
ATOM      8  C   UNL A   1      31.304  27.496  24.896  1.00  0.00    -0.015 A 
ATOM      9  C   UNL A   1      28.740  29.238  22.658  1.00  0.00     0.044 C 
ATOM     10  C   UNL A   1      29.493  28.169  23.389  1.00  0.00    -0.051 A 
ATOM     11  C   UNL A   1      29.022  26.858  23.400  1.00  0.00     0.005 A 
ATOM     12  C   UNL A   1      30.651  28.471  24.110  1.00  0.00     0.009 A 
ATOM     13  C   UNL A   1      29.691  25.874  24.132  1.00  0.00     0.026 A 
ATOM     14  C   UNL A   1      30.830  26.167  24.901  1.00  0.00     0.042 A 
BRANCH  14  15
ATOM     15  N   UNL A   1      31.503  25.155  25.622  1.00  0.00    -0.353 N 
ATOM     16  H   UNL A   1      31.721  25.375  26.557  1.00  0.00     0.167 HD
BRANCH  15  17
ATOM     17  C   UNL A   1      31.910  23.865  25.191  1.00  0.00     0.076 A 
ATOM     18  C   UNL A   1      31.342  22.673  25.682  1.00  0.00     0.066 A 
ATOM     19  C   UNL A   1      32.995  23.743  24.297  1.00  0.00     0.066 A 
ATOM     20  Cl  UNL A   1      29.943  22.667  26.709  1.00  0.00    -0.082 Cl
ATOM     21  C   UNL A   1      31.851  21.419  25.310  1.00  0.00     0.023 A 
ATOM     22  C   UNL A   1      33.497  22.491  23.921  1.00  0.00     0.023 A 
ATOM     23  Cl  UNL A   1      33.783  25.144  23.654  1.00  0.00    -0.082 Cl
ATOM     24  C   UNL A   1      32.931  21.329  24.436  1.00  0.00     0.003 A 
ENDBRANCH  15  17
ENDBRANCH  14  15
ENDBRANCH   7   8
ENDBRANCH   4   7
ENDBRANCH   2   3
ENDBRANCH   1   2
BRANCH   1  25
ATOM     25  C   UNL A   1      34.628  31.084  27.947  1.00  0.00     0.118 C 
BRANCH  25  26
ATOM     26  N   UNL A   1      35.139  31.663  29.192  1.00  0.00    -0.352 N 
ATOM     27  C   UNL A   1      36.176  31.215  29.989  1.00  0.00     0.251 C 
ATOM     28  H   UNL A   1      34.683  32.480  29.502  1.00  0.00     0.163 HD
ATOM     29  O   UNL A   1      36.520  31.806  31.003  1.00  0.00    -0.269 OA
BRANCH  27  30
ATOM     30  C   UNL A   1      36.951  30.049  29.516  1.00  0.00     0.039 A 
ATOM     31  C   UNL A   1      37.159  29.008  30.426  1.00  0.00     0.014 A 
ATOM     32  C   UNL A   1      37.668  30.121  28.325  1.00  0.00     0.014 A 
ATOM     33  C   UNL A   1      38.254  28.167  30.250  1.00  0.00     0.010 A 
ATOM     34  C   UNL A   1      38.802  29.337  28.195  1.00  0.00     0.010 A 
ATOM     35  C   UNL A   1      39.132  28.410  29.193  1.00  0.00    -0.014 A 
BRANCH  35  36
ATOM     36  C   UNL A   1      40.490  27.872  29.167  1.00  0.00     0.031 A 
ATOM     37  C   UNL A   1      40.769  26.497  28.709  1.00  0.00     0.074 A 
ATOM     38  C   UNL A   1      41.530  28.651  29.538  1.00  0.00     0.049 A 
ATOM     39  N   UNL A   1      41.800  25.808  29.071  1.00  0.00    -0.248 NA
ATOM     40  C   UNL A   1      39.870  25.768  27.826  1.00  0.00     0.031 C 
ATOM     41  C   UNL A   1      42.953  28.378  29.359  1.00  0.00     0.029 A 
ATOM     42  N   UNL A   1      41.491  29.733  30.418  1.00  0.00    -0.354 N 
ATOM     43  C   UNL A   1      41.869  24.702  28.260  1.00  0.00     0.074 A 
ATOM     44  C   UNL A   1      40.605  24.685  27.555  1.00  0.00     0.031 C 
ATOM     45  C   UNL A   1      43.640  29.048  30.294  1.00  0.00     0.029 A 
ATOM     46  C   UNL A   1      42.676  29.672  31.181  1.00  0.00     0.049 A 
ATOM     47  H   UNL A   1      40.777  30.407  30.492  1.00  0.00     0.167 HD
ATOM     48  C   UNL A   1      43.034  23.999  28.168  1.00  0.00     0.034 A 
ATOM     49  C   UNL A   1      42.630  29.548  32.539  1.00  0.00     0.034 A 
ATOM     50  C   UNL A   1      44.072  24.508  29.069  1.00  0.00     0.049 A 
ATOM     51  C   UNL A   1      43.309  28.304  33.075  1.00  0.00     0.074 A 
ATOM     52  C   UNL A   1      45.226  25.255  28.903  1.00  0.00     0.029 A 
ATOM     53  N   UNL A   1      43.857  24.448  30.435  1.00  0.00    -0.354 N 
ATOM     54  N   UNL A   1      43.879  27.395  32.333  1.00  0.00    -0.248 NA
ATOM     55  C   UNL A   1      43.310  27.936  34.492  1.00  0.00     0.031 C 
ATOM     56  C   UNL A   1      45.702  25.637  30.192  1.00  0.00     0.029 A 
ATOM     57  C   UNL A   1      44.842  25.115  31.139  1.00  0.00     0.049 A 
ATOM     58  H   UNL A   1      43.096  23.986  30.855  1.00  0.00     0.167 HD
ATOM     59  C   UNL A   1      44.233  26.324  33.112  1.00  0.00     0.074 A 
ATOM     60  C   UNL A   1      43.867  26.714  34.460  1.00  0.00     0.031 C 
ATOM     61  C   UNL A   1      44.746  25.170  32.589  1.00  0.00     0.034 A 
BRANCH  48  62
ATOM     62  C   UNL A   1      43.315  23.005  27.064  1.00  0.00     0.023 A 
ATOM     63  C   UNL A   1      42.755  21.713  27.133  1.00  0.00     0.031 A 
ATOM     64  C   UNL A   1      44.141  23.244  25.950  1.00  0.00     0.131 A 
ATOM     65  C   UNL A   1      43.112  20.707  26.217  1.00  0.00     0.055 A 
ATOM     66  C   UNL A   1      44.556  22.227  25.079  1.00  0.00     0.041 A 
ATOM     67  F   UNL A   1      44.539  24.482  25.624  1.00  0.00    -0.206 F 
ATOM     68  C   UNL A   1      44.053  20.943  25.221  1.00  0.00     0.022 A 
BRANCH  65  69
ATOM     69  S   UNL A   1      42.313  19.083  26.337  1.00  0.00     0.124 S 
ATOM     70  O   UNL A   1      43.149  18.260  25.469  1.00  0.00    -0.237 OA
ATOM     71  O   UNL A   1      42.395  18.807  27.767  1.00  0.00    -0.237 OA
ATOM     72  O   UNL A   1      40.962  19.333  25.834  1.00  0.00    -0.744 OA
ENDBRANCH  65  69
ENDBRANCH  48  62
BRANCH  49  73
ATOM     73  C   UNL A   1      41.446  30.235  33.138  1.00  0.00     0.023 A 
ATOM     74  C   UNL A   1      41.513  31.643  33.233  1.00  0.00     0.031 A 
ATOM     75  C   UNL A   1      40.184  29.635  33.224  1.00  0.00     0.131 A 
ATOM     76  C   UNL A   1      40.342  32.410  33.198  1.00  0.00     0.055 A 
ATOM     77  C   UNL A   1      39.017  30.406  33.300  1.00  0.00     0.041 A 
ATOM     78  F   UNL A   1      40.044  28.307  33.105  1.00  0.00    -0.206 F 
ATOM     79  C   UNL A   1      39.089  31.800  33.236  1.00  0.00     0.022 A 
BRANCH  76  80
ATOM     80  S   UNL A   1      40.496  34.168  32.766  1.00  0.00     0.124 S 
ATOM     81  O   UNL A   1      41.143  34.725  33.946  1.00  0.00    -0.237 OA
ATOM     82  O   UNL A   1      41.309  34.127  31.549  1.00  0.00    -0.237 OA
ATOM     83  O   UNL A   1      39.118  34.600  32.542  1.00  0.00    -0.744 OA
ENDBRANCH  76  80
ENDBRANCH  49  73
BRANCH  61  84
ATOM     84  C   UNL A   1      45.159  23.982  33.423  1.00  0.00     0.023 A 
ATOM     85  C   UNL A   1      46.479  23.805  33.870  1.00  0.00     0.031 A 
ATOM     86  C   UNL A   1      44.251  22.944  33.731  1.00  0.00     0.131 A 
ATOM     87  C   UNL A   1      46.830  22.687  34.648  1.00  0.00     0.055 A 
ATOM     88  C   UNL A   1      44.623  21.796  34.436  1.00  0.00     0.041 A 
ATOM     89  F   UNL A   1      42.955  23.014  33.395  1.00  0.00    -0.206 F 
ATOM     90  C   UNL A   1      45.917  21.668  34.914  1.00  0.00     0.022 A 
BRANCH  87  91
ATOM     91  S   UNL A   1      48.489  22.622  35.376  1.00  0.00     0.124 S 
ATOM     92  O   UNL A   1      48.344  21.604  36.411  1.00  0.00    -0.237 OA
ATOM     93  O   UNL A   1      49.302  22.243  34.223  1.00  0.00    -0.237 OA
ATOM     94  O   UNL A   1      48.706  23.982  35.865  1.00  0.00    -0.744 OA
ENDBRANCH  87  91
ENDBRANCH  61  84
ENDBRANCH  35  36
ENDBRANCH  27  30
ENDBRANCH  25  26
ENDBRANCH   1  25
TORSDOF 16
ENDMDL
MODEL 3
REMARK VINA RESULT:     -12.7      1.091      2.737
REMARK SMILES Cc1ccc(Nc2c(Cl)cccc2Cl)c(CC(=O)NCCCNC(=O)c2ccc(-c3c4nc(c(-c5cc(S(=O)(=O)[O-])ccc5F)c5ccc([nH]5)c(-c5cc(S(=O)(=O)[O-])ccc5F)c5nc(c(-c6cc(S(=O)(=O)[O-])ccc6F)c6ccc3[nH]6)C=C5)C=C4)cc2)c1
REMARK SMILES IDX 21 1 20 2 19 3 17 4 18 5 16 7 15 8 1 9 2 10 3 11 89 12 4 13
REMARK SMILES IDX 5 14 6 15 7 17 8 18 13 19 9 20 10 21 12 22 14 23 11 24 22 25
REMARK SMILES IDX 23 26 24 27 25 29 26 30 27 31 88 32 28 33 87 34 29 35 30 36
REMARK SMILES IDX 31 37 81 38 32 39 86 40 80 41 82 42 33 43 85 44 79 45 78 46
REMARK SMILES IDX 34 48 66 49 46 50 65 51 47 52 50 53 64 54 83 55 48 56 49 57
REMARK SMILES IDX 63 59 84 60 51 61 35 62 36 63 44 64 37 65 43 66 45 67 42 68
REMARK SMILES IDX 38 69 39 70 40 71 41 72 67 73 68 74 76 75 69 76 75 77 77 78
REMARK SMILES IDX 74 79 70 80 71 81 72 82 73 83 52 84 53 85 61 86 54 87 60 88
REMARK SMILES IDX 62 89 59 90 55 91 56 92 57 93 58 94
REMARK H PARENT 19 6 6 16 23 28 82 47 50 58
REMARK Flexibility Score: inf
ROOT
ATOM      1  C   UNL A   1      38.129  21.905  25.346  1.00  0.00     0.042 C 
ENDROOT
BRANCH   1   2
ATOM      2  C   UNL A   1      36.616  21.765  25.205  1.00  0.00     0.117 C 
BRANCH   2   3
ATOM      3  N   UNL A   1      36.107  22.444  24.024  1.00  0.00    -0.356 N 
ATOM      4  C   UNL A   1      35.378  23.596  23.939  1.00  0.00     0.224 C 
ATOM      5  O   UNL A   1      34.894  23.950  22.860  1.00  0.00    -0.275 OA
ATOM      6  H   UNL A   1      36.318  22.013  23.164  1.00  0.00     0.163 HD
BRANCH   4   7
ATOM      7  C   UNL A   1      35.144  24.447  25.177  1.00  0.00     0.137 C 
BRANCH   7   8
ATOM      8  C   UNL A   1      33.895  25.299  25.109  1.00  0.00    -0.015 A 
ATOM      9  C   UNL A   1      33.128  28.914  24.129  1.00  0.00     0.044 C 
ATOM     10  C   UNL A   1      32.951  27.500  24.589  1.00  0.00    -0.051 A 
ATOM     11  C   UNL A   1      31.724  27.072  25.090  1.00  0.00     0.005 A 
ATOM     12  C   UNL A   1      34.018  26.599  24.571  1.00  0.00     0.009 A 
ATOM     13  C   UNL A   1      31.575  25.770  25.577  1.00  0.00     0.026 A 
ATOM     14  C   UNL A   1      32.649  24.864  25.610  1.00  0.00     0.042 A 
BRANCH  14  15
ATOM     15  N   UNL A   1      32.476  23.546  26.091  1.00  0.00    -0.353 N 
ATOM     16  H   UNL A   1      32.213  23.472  27.037  1.00  0.00     0.167 HD
BRANCH  15  17
ATOM     17  C   UNL A   1      32.628  22.313  25.403  1.00  0.00     0.076 A 
ATOM     18  C   UNL A   1      32.089  22.074  24.123  1.00  0.00     0.066 A 
ATOM     19  C   UNL A   1      33.264  21.232  26.049  1.00  0.00     0.066 A 
ATOM     20  Cl  UNL A   1      31.367  23.331  23.170  1.00  0.00    -0.082 Cl
ATOM     21  C   UNL A   1      32.168  20.805  23.529  1.00  0.00     0.023 A 
ATOM     22  C   UNL A   1      33.349  19.969  25.451  1.00  0.00     0.023 A 
ATOM     23  Cl  UNL A   1      33.937  21.411  27.634  1.00  0.00    -0.082 Cl
ATOM     24  C   UNL A   1      32.792  19.753  24.194  1.00  0.00     0.003 A 
ENDBRANCH  15  17
ENDBRANCH  14  15
ENDBRANCH   7   8
ENDBRANCH   4   7
ENDBRANCH   2   3
ENDBRANCH   1   2
BRANCH   1  25
ATOM     25  C   UNL A   1      38.567  23.061  26.238  1.00  0.00     0.118 C 
BRANCH  25  26
ATOM     26  N   UNL A   1      40.016  23.097  26.448  1.00  0.00    -0.352 N 
ATOM     27  C   UNL A   1      40.801  24.156  26.865  1.00  0.00     0.251 C 
ATOM     28  H   UNL A   1      40.495  22.255  26.268  1.00  0.00     0.163 HD
ATOM     29  O   UNL A   1      42.009  24.050  27.020  1.00  0.00    -0.269 OA
BRANCH  27  30
ATOM     30  C   UNL A   1      40.116  25.412  27.238  1.00  0.00     0.039 A 
ATOM     31  C   UNL A   1      40.443  26.559  26.509  1.00  0.00     0.014 A 
ATOM     32  C   UNL A   1      39.403  25.493  28.430  1.00  0.00     0.014 A 
ATOM     33  C   UNL A   1      40.259  27.807  27.097  1.00  0.00     0.010 A 
ATOM     34  C   UNL A   1      39.296  26.729  29.046  1.00  0.00     0.010 A 
ATOM     35  C   UNL A   1      39.789  27.875  28.409  1.00  0.00    -0.014 A 
BRANCH  35  36
ATOM     36  C   UNL A   1      39.954  29.068  29.237  1.00  0.00     0.031 A 
ATOM     37  C   UNL A   1      38.929  30.128  29.282  1.00  0.00     0.074 A 
ATOM     38  C   UNL A   1      41.055  29.202  30.011  1.00  0.00     0.049 A 
ATOM     39  N   UNL A   1      39.173  31.359  29.588  1.00  0.00    -0.248 NA
ATOM     40  C   UNL A   1      37.535  29.884  28.940  1.00  0.00     0.031 C 
ATOM     41  C   UNL A   1      41.285  30.186  31.064  1.00  0.00     0.029 A 
ATOM     42  N   UNL A   1      42.307  28.630  29.789  1.00  0.00    -0.354 N 
ATOM     43  C   UNL A   1      37.967  31.987  29.782  1.00  0.00     0.074 A 
ATOM     44  C   UNL A   1      36.981  31.048  29.293  1.00  0.00     0.031 C 
ATOM     45  C   UNL A   1      42.606  30.366  31.203  1.00  0.00     0.029 A 
ATOM     46  C   UNL A   1      43.262  29.600  30.160  1.00  0.00     0.049 A 
ATOM     47  H   UNL A   1      42.489  27.727  29.441  1.00  0.00     0.167 HD
ATOM     48  C   UNL A   1      37.919  33.171  30.458  1.00  0.00     0.034 A 
ATOM     49  C   UNL A   1      44.167  30.075  29.257  1.00  0.00     0.034 A 
ATOM     50  C   UNL A   1      39.250  33.666  30.820  1.00  0.00     0.049 A 
ATOM     51  C   UNL A   1      44.089  31.570  29.024  1.00  0.00     0.074 A 
ATOM     52  C   UNL A   1      39.980  33.730  31.996  1.00  0.00     0.029 A 
ATOM     53  N   UNL A   1      40.135  33.998  29.810  1.00  0.00    -0.354 N 
ATOM     54  N   UNL A   1      43.231  32.364  29.602  1.00  0.00    -0.248 NA
ATOM     55  C   UNL A   1      44.914  32.275  28.040  1.00  0.00     0.031 C 
ATOM     56  C   UNL A   1      41.316  34.109  31.673  1.00  0.00     0.029 A 
ATOM     57  C   UNL A   1      41.394  34.285  30.304  1.00  0.00     0.049 A 
ATOM     58  H   UNL A   1      39.899  34.026  28.854  1.00  0.00     0.167 HD
ATOM     59  C   UNL A   1      43.312  33.613  29.041  1.00  0.00     0.074 A 
ATOM     60  C   UNL A   1      44.389  33.511  28.075  1.00  0.00     0.031 C 
ATOM     61  C   UNL A   1      42.452  34.624  29.365  1.00  0.00     0.034 A 
BRANCH  48  62
ATOM     62  C   UNL A   1      36.641  33.751  31.021  1.00  0.00     0.023 A 
ATOM     63  C   UNL A   1      35.680  34.294  30.145  1.00  0.00     0.031 A 
ATOM     64  C   UNL A   1      36.324  33.835  32.390  1.00  0.00     0.131 A 
ATOM     65  C   UNL A   1      34.552  34.983  30.626  1.00  0.00     0.055 A 
ATOM     66  C   UNL A   1      35.242  34.582  32.875  1.00  0.00     0.041 A 
ATOM     67  F   UNL A   1      37.015  33.152  33.313  1.00  0.00    -0.206 F 
ATOM     68  C   UNL A   1      34.357  35.177  31.990  1.00  0.00     0.022 A 
BRANCH  65  69
ATOM     69  S   UNL A   1      33.331  35.611  29.441  1.00  0.00     0.124 S 
ATOM     70  O   UNL A   1      32.571  36.559  30.250  1.00  0.00    -0.237 OA
ATOM     71  O   UNL A   1      34.180  36.182  28.401  1.00  0.00    -0.237 OA
ATOM     72  O   UNL A   1      32.596  34.410  29.045  1.00  0.00    -0.744 OA
ENDBRANCH  65  69
ENDBRANCH  48  62
BRANCH  49  73
ATOM     73  C   UNL A   1      44.569  29.045  28.252  1.00  0.00     0.023 A 
ATOM     74  C   UNL A   1      45.427  28.019  28.706  1.00  0.00     0.031 A 
ATOM     75  C   UNL A   1      43.857  28.822  27.067  1.00  0.00     0.131 A 
ATOM     76  C   UNL A   1      45.395  26.754  28.106  1.00  0.00     0.055 A 
ATOM     77  C   UNL A   1      43.913  27.588  26.406  1.00  0.00     0.041 A 
ATOM     78  F   UNL A   1      42.998  29.739  26.598  1.00  0.00    -0.206 F 
ATOM     79  C   UNL A   1      44.645  26.531  26.953  1.00  0.00     0.022 A 
BRANCH  76  80
ATOM     80  S   UNL A   1      46.072  25.356  29.047  1.00  0.00     0.124 S 
ATOM     81  O   UNL A   1      47.157  25.978  29.795  1.00  0.00    -0.237 OA
ATOM     82  O   UNL A   1      44.921  24.915  29.836  1.00  0.00    -0.237 OA
ATOM     83  O   UNL A   1      46.484  24.402  28.019  1.00  0.00    -0.744 OA
ENDBRANCH  76  80
ENDBRANCH  49  73
BRANCH  61  84
ATOM     84  C   UNL A   1      42.527  36.011  28.776  1.00  0.00     0.023 A 
ATOM     85  C   UNL A   1      42.995  37.112  29.512  1.00  0.00     0.031 A 
ATOM     86  C   UNL A   1      42.055  36.288  27.472  1.00  0.00     0.131 A 
ATOM     87  C   UNL A   1      43.055  38.392  28.932  1.00  0.00     0.055 A 
ATOM     88  C   UNL A   1      42.042  37.574  26.928  1.00  0.00     0.041 A 
ATOM     89  F   UNL A   1      41.621  35.317  26.656  1.00  0.00    -0.206 F 
ATOM     90  C   UNL A   1      42.558  38.636  27.653  1.00  0.00     0.022 A 
BRANCH  87  91
ATOM     91  S   UNL A   1      43.866  39.726  29.853  1.00  0.00     0.124 S 
ATOM     92  O   UNL A   1      43.976  39.166  31.195  1.00  0.00    -0.237 OA
ATOM     93  O   UNL A   1      45.122  39.869  29.120  1.00  0.00    -0.237 OA
ATOM     94  O   UNL A   1      42.941  40.850  29.721  1.00  0.00    -0.744 OA
ENDBRANCH  87  91
ENDBRANCH  61  84
ENDBRANCH  35  36
ENDBRANCH  27  30
ENDBRANCH  25  26
ENDBRANCH   1  25
TORSDOF 16
ENDMDL
