MODEL 1
REMARK VINA RESULT:     -11.6      0.000      0.000
REMARK SMILES COCCCN1C(=O)CC[C@@H](C(=O)NCCCNC(=O)c2ccc(-c3c4nc(c(-c5cc(S(=O)(=O)[O-])ccc5F)c5ccc([nH]5)c(-c5cc(S(=O)(=O)[O-])ccc5F)c5nc(c(-c6cc(S(=O)(=O)[O-])ccc6F)c6ccc3[nH]6)C=C5)C=C4)cc2)[C@@H]1c1ccc(F)cc1
REMARK SMILES IDX 15 1 14 2 12 3 13 4 11 6 6 7 7 8 84 9 8 10 9 11 10 12 5 13
REMARK SMILES IDX 4 14 3 15 2 16 1 17 85 18 86 19 91 20 87 21 90 22 88 23
REMARK SMILES IDX 89 24 16 25 17 26 18 27 19 28 20 30 21 31 22 32 83 33 23 34
REMARK SMILES IDX 82 35 24 36 25 37 26 38 76 39 27 40 81 41 75 42 77 43 28 44
REMARK SMILES IDX 80 45 74 46 73 47 29 49 61 50 41 51 60 52 42 53 45 54 59 55
REMARK SMILES IDX 78 56 43 57 44 58 58 60 79 61 46 62 30 63 31 64 39 65 32 66
REMARK SMILES IDX 38 67 40 68 37 69 33 70 34 71 35 72 36 73 62 74 63 75 71 76
REMARK SMILES IDX 64 77 70 78 72 79 69 80 65 81 66 82 67 83 68 84 47 85 48 86
REMARK SMILES IDX 56 87 49 88 55 89 57 90 54 91 50 92 51 93 52 94 53 95
REMARK H PARENT 14 5 18 29 77 48 45 59
REMARK Flexibility Score: inf
ROOT
ATOM      1  C   UNL A   1      34.425  30.496  27.536  1.00  0.00     0.117 C 
ENDROOT
BRANCH   1   2
ATOM      2  N   UNL A   1      33.229  29.728  27.827  1.00  0.00    -0.356 N 
ATOM      3  C   UNL A   1      32.723  28.599  27.255  1.00  0.00     0.225 C 
ATOM      4  O   UNL A   1      31.643  28.195  27.687  1.00  0.00    -0.275 OA
ATOM      5  H   UNL A   1      32.688  30.083  28.570  1.00  0.00     0.163 HD
BRANCH   3   6
ATOM      6  C   UNL A   1      33.470  27.893  26.119  1.00  0.00     0.106 C 
ATOM      7  N   UNL A   1      31.484  26.896  24.930  1.00  0.00    -0.335 N 
ATOM      8  C   UNL A   1      31.301  28.055  24.179  1.00  0.00     0.223 C 
ATOM      9  C   UNL A   1      32.729  26.627  25.656  1.00  0.00     0.128 C 
ATOM     10  O   UNL A   1      30.275  28.247  23.519  1.00  0.00    -0.275 OA
ATOM     11  C   UNL A   1      32.373  29.129  24.198  1.00  0.00     0.101 C 
ATOM     12  C   UNL A   1      33.673  28.806  24.914  1.00  0.00     0.026 C 
BRANCH   7  13
ATOM     13  C   UNL A   1      30.352  25.947  24.957  1.00  0.00     0.122 C 
BRANCH  13  14
ATOM     14  C   UNL A   1      30.034  25.079  26.189  1.00  0.00     0.050 C 
BRANCH  14  15
ATOM     15  C   UNL A   1      30.727  23.731  26.408  1.00  0.00     0.161 C 
BRANCH  15  16
ATOM     16  O   UNL A   1      30.283  22.996  27.542  1.00  0.00    -0.385 OA
ATOM     17  C   UNL A   1      28.954  22.512  27.479  1.00  0.00     0.194 C 
ENDBRANCH  15  16
ENDBRANCH  14  15
ENDBRANCH  13  14
ENDBRANCH   7  13
BRANCH   9  18
ATOM     18  C   UNL A   1      33.636  25.630  24.923  1.00  0.00    -0.024 A 
ATOM     19  C   UNL A   1      33.532  25.399  23.537  1.00  0.00     0.009 A 
ATOM     20  C   UNL A   1      34.550  24.848  25.655  1.00  0.00     0.009 A 
ATOM     21  C   UNL A   1      34.263  24.379  22.923  1.00  0.00     0.039 A 
ATOM     22  C   UNL A   1      35.295  23.843  25.035  1.00  0.00     0.039 A 
ATOM     23  C   UNL A   1      35.132  23.606  23.679  1.00  0.00     0.123 A 
ATOM     24  F   UNL A   1      35.813  22.613  23.093  1.00  0.00    -0.207 F 
ENDBRANCH   9  18
ENDBRANCH   3   6
ENDBRANCH   1   2
BRANCH   1  25
ATOM     25  C   UNL A   1      34.143  31.975  27.328  1.00  0.00     0.042 C 
BRANCH  25  26
ATOM     26  C   UNL A   1      32.703  32.392  27.601  1.00  0.00     0.118 C 
BRANCH  26  27
ATOM     27  N   UNL A   1      32.544  33.826  27.784  1.00  0.00    -0.352 N 
ATOM     28  C   UNL A   1      33.215  34.696  28.614  1.00  0.00     0.251 C 
ATOM     29  H   UNL A   1      31.846  34.241  27.227  1.00  0.00     0.163 HD
ATOM     30  O   UNL A   1      32.819  35.851  28.711  1.00  0.00    -0.269 OA
BRANCH  28  31
ATOM     31  C   UNL A   1      34.377  34.235  29.411  1.00  0.00     0.039 A 
ATOM     32  C   UNL A   1      34.142  33.485  30.565  1.00  0.00     0.014 A 
ATOM     33  C   UNL A   1      35.689  34.535  29.034  1.00  0.00     0.014 A 
ATOM     34  C   UNL A   1      35.219  32.970  31.292  1.00  0.00     0.010 A 
ATOM     35  C   UNL A   1      36.758  33.945  29.705  1.00  0.00     0.010 A 
ATOM     36  C   UNL A   1      36.537  33.153  30.843  1.00  0.00    -0.014 A 
BRANCH  36  37
ATOM     37  C   UNL A   1      37.685  32.516  31.543  1.00  0.00     0.031 A 
ATOM     38  C   UNL A   1      38.419  31.364  30.911  1.00  0.00     0.074 A 
ATOM     39  C   UNL A   1      38.035  32.946  32.772  1.00  0.00     0.049 A 
ATOM     40  N   UNL A   1      39.409  30.652  31.389  1.00  0.00    -0.248 NA
ATOM     41  C   UNL A   1      37.964  30.940  29.580  1.00  0.00     0.031 C 
ATOM     42  C   UNL A   1      37.377  34.029  33.508  1.00  0.00     0.029 A 
ATOM     43  N   UNL A   1      39.029  32.528  33.623  1.00  0.00    -0.354 N 
ATOM     44  C   UNL A   1      39.690  29.693  30.422  1.00  0.00     0.074 A 
ATOM     45  C   UNL A   1      38.720  29.874  29.363  1.00  0.00     0.031 C 
ATOM     46  C   UNL A   1      38.006  34.212  34.680  1.00  0.00     0.029 A 
ATOM     47  C   UNL A   1      39.076  33.229  34.808  1.00  0.00     0.049 A 
ATOM     48  H   UNL A   1      39.650  31.795  33.407  1.00  0.00     0.167 HD
ATOM     49  C   UNL A   1      40.681  28.767  30.404  1.00  0.00     0.034 A 
ATOM     50  C   UNL A   1      39.882  33.091  35.880  1.00  0.00     0.034 A 
ATOM     51  C   UNL A   1      41.644  28.601  31.468  1.00  0.00     0.049 A 
ATOM     52  C   UNL A   1      40.949  32.024  35.856  1.00  0.00     0.074 A 
ATOM     53  C   UNL A   1      42.715  27.726  31.531  1.00  0.00     0.029 A 
ATOM     54  N   UNL A   1      41.649  29.316  32.659  1.00  0.00    -0.354 N 
ATOM     55  N   UNL A   1      41.232  31.160  34.909  1.00  0.00    -0.248 NA
ATOM     56  C   UNL A   1      41.809  31.925  37.041  1.00  0.00     0.031 C 
ATOM     57  C   UNL A   1      43.315  27.855  32.787  1.00  0.00     0.029 A 
ATOM     58  C   UNL A   1      42.680  28.876  33.476  1.00  0.00     0.049 A 
ATOM     59  H   UNL A   1      41.014  30.032  32.889  1.00  0.00     0.167 HD
ATOM     60  C   UNL A   1      42.327  30.435  35.374  1.00  0.00     0.074 A 
ATOM     61  C   UNL A   1      42.662  30.979  36.673  1.00  0.00     0.031 C 
ATOM     62  C   UNL A   1      42.997  29.414  34.778  1.00  0.00     0.034 A 
BRANCH  49  63
ATOM     63  C   UNL A   1      40.753  27.847  29.207  1.00  0.00     0.023 A 
ATOM     64  C   UNL A   1      41.693  28.043  28.179  1.00  0.00     0.031 A 
ATOM     65  C   UNL A   1      39.859  26.769  29.079  1.00  0.00     0.131 A 
ATOM     66  C   UNL A   1      41.666  27.228  27.038  1.00  0.00     0.055 A 
ATOM     67  C   UNL A   1      39.896  25.905  27.982  1.00  0.00     0.041 A 
ATOM     68  F   UNL A   1      38.924  26.541  30.016  1.00  0.00    -0.206 F 
ATOM     69  C   UNL A   1      40.792  26.143  26.944  1.00  0.00     0.022 A 
BRANCH  66  70
ATOM     70  S   UNL A   1      42.683  27.702  25.613  1.00  0.00     0.124 S 
ATOM     71  O   UNL A   1      42.563  26.522  24.760  1.00  0.00    -0.237 OA
ATOM     72  O   UNL A   1      42.014  28.907  25.135  1.00  0.00    -0.237 OA
ATOM     73  O   UNL A   1      44.008  27.911  26.191  1.00  0.00    -0.744 OA
ENDBRANCH  66  70
ENDBRANCH  49  63
BRANCH  50  74
ATOM     74  C   UNL A   1      39.712  33.970  37.074  1.00  0.00     0.023 A 
ATOM     75  C   UNL A   1      39.102  33.490  38.245  1.00  0.00     0.031 A 
ATOM     76  C   UNL A   1      40.111  35.318  37.046  1.00  0.00     0.131 A 
ATOM     77  C   UNL A   1      38.861  34.363  39.317  1.00  0.00     0.055 A 
ATOM     78  C   UNL A   1      39.924  36.167  38.138  1.00  0.00     0.041 A 
ATOM     79  F   UNL A   1      40.701  35.829  35.953  1.00  0.00    -0.206 F 
ATOM     80  C   UNL A   1      39.282  35.694  39.277  1.00  0.00     0.022 A 
BRANCH  77  81
ATOM     81  S   UNL A   1      37.896  33.758  40.729  1.00  0.00     0.124 S 
ATOM     82  O   UNL A   1      38.846  32.859  41.373  1.00  0.00    -0.237 OA
ATOM     83  O   UNL A   1      37.597  34.995  41.443  1.00  0.00    -0.237 OA
ATOM     84  O   UNL A   1      36.746  33.109  40.102  1.00  0.00    -0.744 OA
ENDBRANCH  77  81
ENDBRANCH  50  74
BRANCH  62  85
ATOM     85  C   UNL A   1      44.190  28.854  35.518  1.00  0.00     0.023 A 
ATOM     86  C   UNL A   1      44.060  27.825  36.467  1.00  0.00     0.031 A 
ATOM     87  C   UNL A   1      45.476  29.375  35.284  1.00  0.00     0.131 A 
ATOM     88  C   UNL A   1      45.180  27.399  37.196  1.00  0.00     0.055 A 
ATOM     89  C   UNL A   1      46.599  28.896  35.961  1.00  0.00     0.041 A 
ATOM     90  F   UNL A   1      45.662  30.362  34.393  1.00  0.00    -0.206 F 
ATOM     91  C   UNL A   1      46.452  27.914  36.935  1.00  0.00     0.022 A 
BRANCH  88  92
ATOM     92  S   UNL A   1      44.934  26.244  38.573  1.00  0.00     0.124 S 
ATOM     93  O   UNL A   1      45.119  24.952  37.921  1.00  0.00    -0.237 OA
ATOM     94  O   UNL A   1      45.982  26.644  39.507  1.00  0.00    -0.237 OA
ATOM     95  O   UNL A   1      43.570  26.525  39.017  1.00  0.00    -0.744 OA
ENDBRANCH  88  92
ENDBRANCH  62  85
ENDBRANCH  36  37
ENDBRANCH  28  31
ENDBRANCH  26  27
ENDBRANCH  25  26
ENDBRANCH   1  25
TORSDOF 18
ENDMDL
MODEL 2
REMARK VINA RESULT:     -11.6      2.457      8.138
REMARK SMILES COCCCN1C(=O)CC[C@@H](C(=O)NCCCNC(=O)c2ccc(-c3c4nc(c(-c5cc(S(=O)(=O)[O-])ccc5F)c5ccc([nH]5)c(-c5cc(S(=O)(=O)[O-])ccc5F)c5nc(c(-c6cc(S(=O)(=O)[O-])ccc6F)c6ccc3[nH]6)C=C5)C=C4)cc2)[C@@H]1c1ccc(F)cc1
REMARK SMILES IDX 15 1 14 2 12 3 13 4 11 6 6 7 7 8 84 9 8 10 9 11 10 12 5 13
REMARK SMILES IDX 4 14 3 15 2 16 1 17 85 18 86 19 91 20 87 21 90 22 88 23
REMARK SMILES IDX 89 24 16 25 17 26 18 27 19 28 20 30 21 31 22 32 83 33 23 34
REMARK SMILES IDX 82 35 24 36 25 37 26 38 76 39 27 40 81 41 75 42 77 43 28 44
REMARK SMILES IDX 80 45 74 46 73 47 29 49 61 50 41 51 60 52 42 53 45 54 59 55
REMARK SMILES IDX 78 56 43 57 44 58 58 60 79 61 46 62 30 63 31 64 39 65 32 66
REMARK SMILES IDX 38 67 40 68 37 69 33 70 34 71 35 72 36 73 62 74 63 75 71 76
REMARK SMILES IDX 64 77 70 78 72 79 69 80 65 81 66 82 67 83 68 84 47 85 48 86
REMARK SMILES IDX 56 87 49 88 55 89 57 90 54 91 50 92 51 93 52 94 53 95
REMARK H PARENT 14 5 18 29 77 48 45 59
REMARK Flexibility Score: inf
ROOT
ATOM      1  C   UNL A   1      31.977  27.535  27.066  1.00  0.00     0.117 C 
ENDROOT
BRANCH   1   2
ATOM      2  N   UNL A   1      31.337  26.323  26.590  1.00  0.00    -0.356 N 
ATOM      3  C   UNL A   1      31.858  25.180  26.060  1.00  0.00     0.225 C 
ATOM      4  O   UNL A   1      31.053  24.323  25.692  1.00  0.00    -0.275 OA
ATOM      5  H   UNL A   1      30.355  26.324  26.665  1.00  0.00     0.163 HD
BRANCH   3   6
ATOM      6  C   UNL A   1      33.372  24.998  25.921  1.00  0.00     0.106 C 
ATOM      7  N   UNL A   1      33.395  23.685  23.769  1.00  0.00    -0.335 N 
ATOM      8  C   UNL A   1      33.398  24.852  23.010  1.00  0.00     0.223 C 
ATOM      9  C   UNL A   1      33.721  23.685  25.199  1.00  0.00     0.128 C 
ATOM     10  O   UNL A   1      33.184  24.838  21.794  1.00  0.00    -0.275 OA
ATOM     11  C   UNL A   1      33.635  26.185  23.697  1.00  0.00     0.101 C 
ATOM     12  C   UNL A   1      34.020  26.155  25.166  1.00  0.00     0.026 C 
BRANCH   7  13
ATOM     13  C   UNL A   1      33.043  22.440  23.056  1.00  0.00     0.122 C 
BRANCH  13  14
ATOM     14  C   UNL A   1      32.193  21.331  23.703  1.00  0.00     0.050 C 
BRANCH  14  15
ATOM     15  C   UNL A   1      32.786  19.954  24.012  1.00  0.00     0.161 C 
BRANCH  15  16
ATOM     16  O   UNL A   1      32.151  19.240  25.064  1.00  0.00    -0.385 OA
ATOM     17  C   UNL A   1      32.579  17.901  25.245  1.00  0.00     0.194 C 
ENDBRANCH  15  16
ENDBRANCH  14  15
ENDBRANCH  13  14
ENDBRANCH   7  13
BRANCH   9  18
ATOM     18  C   UNL A   1      35.150  23.202  25.478  1.00  0.00    -0.024 A 
ATOM     19  C   UNL A   1      36.230  24.095  25.618  1.00  0.00     0.009 A 
ATOM     20  C   UNL A   1      35.426  21.821  25.517  1.00  0.00     0.009 A 
ATOM     21  C   UNL A   1      37.541  23.624  25.720  1.00  0.00     0.039 A 
ATOM     22  C   UNL A   1      36.736  21.353  25.640  1.00  0.00     0.039 A 
ATOM     23  C   UNL A   1      37.783  22.259  25.722  1.00  0.00     0.123 A 
ATOM     24  F   UNL A   1      39.043  21.810  25.796  1.00  0.00    -0.207 F 
ENDBRANCH   9  18
ENDBRANCH   3   6
ENDBRANCH   1   2
BRANCH   1  25
ATOM     25  C   UNL A   1      31.509  28.779  26.328  1.00  0.00     0.042 C 
BRANCH  25  26
ATOM     26  C   UNL A   1      32.625  29.731  25.914  1.00  0.00     0.118 C 
BRANCH  26  27
ATOM     27  N   UNL A   1      32.405  31.100  26.352  1.00  0.00    -0.352 N 
ATOM     28  C   UNL A   1      33.134  31.884  27.217  1.00  0.00     0.251 C 
ATOM     29  H   UNL A   1      31.609  31.536  25.969  1.00  0.00     0.163 HD
ATOM     30  O   UNL A   1      32.686  32.973  27.556  1.00  0.00    -0.269 OA
BRANCH  28  31
ATOM     31  C   UNL A   1      34.426  31.405  27.766  1.00  0.00     0.039 A 
ATOM     32  C   UNL A   1      35.465  32.324  27.930  1.00  0.00     0.014 A 
ATOM     33  C   UNL A   1      34.622  30.067  28.115  1.00  0.00     0.014 A 
ATOM     34  C   UNL A   1      36.666  31.918  28.518  1.00  0.00     0.010 A 
ATOM     35  C   UNL A   1      35.783  29.685  28.784  1.00  0.00     0.010 A 
ATOM     36  C   UNL A   1      36.820  30.606  28.996  1.00  0.00    -0.014 A 
BRANCH  36  37
ATOM     37  C   UNL A   1      38.049  30.191  29.725  1.00  0.00     0.031 A 
ATOM     38  C   UNL A   1      38.303  30.672  31.128  1.00  0.00     0.074 A 
ATOM     39  C   UNL A   1      38.962  29.417  29.103  1.00  0.00     0.049 A 
ATOM     40  N   UNL A   1      39.337  30.457  31.903  1.00  0.00    -0.248 NA
ATOM     41  C   UNL A   1      37.272  31.529  31.730  1.00  0.00     0.031 C 
ATOM     42  C   UNL A   1      38.850  28.917  27.729  1.00  0.00     0.029 A 
ATOM     43  N   UNL A   1      40.163  28.914  29.538  1.00  0.00    -0.354 N 
ATOM     44  C   UNL A   1      39.084  31.156  33.078  1.00  0.00     0.074 A 
ATOM     45  C   UNL A   1      37.832  31.856  32.885  1.00  0.00     0.031 C 
ATOM     46  C   UNL A   1      39.918  28.153  27.450  1.00  0.00     0.029 A 
ATOM     47  C   UNL A   1      40.818  28.149  28.598  1.00  0.00     0.049 A 
ATOM     48  H   UNL A   1      40.524  29.086  30.438  1.00  0.00     0.167 HD
ATOM     49  C   UNL A   1      39.813  31.189  34.222  1.00  0.00     0.034 A 
ATOM     50  C   UNL A   1      42.010  27.523  28.650  1.00  0.00     0.034 A 
ATOM     51  C   UNL A   1      41.060  30.482  34.401  1.00  0.00     0.049 A 
ATOM     52  C   UNL A   1      42.824  27.611  29.917  1.00  0.00     0.074 A 
ATOM     53  C   UNL A   1      41.855  30.411  35.532  1.00  0.00     0.029 A 
ATOM     54  N   UNL A   1      41.700  29.733  33.422  1.00  0.00    -0.354 N 
ATOM     55  N   UNL A   1      42.544  28.236  31.038  1.00  0.00    -0.248 NA
ATOM     56  C   UNL A   1      44.108  26.899  29.928  1.00  0.00     0.031 C 
ATOM     57  C   UNL A   1      43.009  29.689  35.213  1.00  0.00     0.029 A 
ATOM     58  C   UNL A   1      42.896  29.228  33.911  1.00  0.00     0.049 A 
ATOM     59  H   UNL A   1      41.354  29.581  32.512  1.00  0.00     0.167 HD
ATOM     60  C   UNL A   1      43.606  27.963  31.899  1.00  0.00     0.074 A 
ATOM     61  C   UNL A   1      44.516  27.102  31.173  1.00  0.00     0.031 C 
ATOM     62  C   UNL A   1      43.806  28.384  33.174  1.00  0.00     0.034 A 
BRANCH  49  63
ATOM     63  C   UNL A   1      39.289  32.040  35.357  1.00  0.00     0.023 A 
ATOM     64  C   UNL A   1      38.687  31.468  36.492  1.00  0.00     0.031 A 
ATOM     65  C   UNL A   1      39.375  33.442  35.298  1.00  0.00     0.131 A 
ATOM     66  C   UNL A   1      38.126  32.291  37.479  1.00  0.00     0.055 A 
ATOM     67  C   UNL A   1      38.894  34.255  36.327  1.00  0.00     0.041 A 
ATOM     68  F   UNL A   1      39.919  34.050  34.231  1.00  0.00    -0.206 F 
ATOM     69  C   UNL A   1      38.250  33.681  37.418  1.00  0.00     0.022 A 
BRANCH  66  70
ATOM     70  S   UNL A   1      37.098  31.526  38.762  1.00  0.00     0.124 S 
ATOM     71  O   UNL A   1      37.983  31.583  39.922  1.00  0.00    -0.237 OA
ATOM     72  O   UNL A   1      35.935  32.405  38.801  1.00  0.00    -0.237 OA
ATOM     73  O   UNL A   1      36.847  30.182  38.245  1.00  0.00    -0.744 OA
ENDBRANCH  66  70
ENDBRANCH  49  63
BRANCH  50  74
ATOM     74  C   UNL A   1      42.522  26.767  27.469  1.00  0.00     0.023 A 
ATOM     75  C   UNL A   1      42.370  25.374  27.380  1.00  0.00     0.031 A 
ATOM     76  C   UNL A   1      43.216  27.421  26.434  1.00  0.00     0.131 A 
ATOM     77  C   UNL A   1      42.949  24.674  26.310  1.00  0.00     0.055 A 
ATOM     78  C   UNL A   1      43.737  26.726  25.341  1.00  0.00     0.041 A 
ATOM     79  F   UNL A   1      43.390  28.751  26.467  1.00  0.00    -0.206 F 
ATOM     80  C   UNL A   1      43.618  25.342  25.283  1.00  0.00     0.022 A 
BRANCH  77  81
ATOM     81  S   UNL A   1      42.902  22.860  26.333  1.00  0.00     0.124 S 
ATOM     82  O   UNL A   1      44.243  22.535  26.804  1.00  0.00    -0.237 OA
ATOM     83  O   UNL A   1      41.812  22.598  27.267  1.00  0.00    -0.237 OA
ATOM     84  O   UNL A   1      42.626  22.511  24.941  1.00  0.00    -0.744 OA
ENDBRANCH  77  81
ENDBRANCH  50  74
BRANCH  62  85
ATOM     85  C   UNL A   1      45.045  27.875  33.876  1.00  0.00     0.023 A 
ATOM     86  C   UNL A   1      45.101  26.589  34.443  1.00  0.00     0.031 A 
ATOM     87  C   UNL A   1      46.178  28.699  33.998  1.00  0.00     0.131 A 
ATOM     88  C   UNL A   1      46.237  26.193  35.165  1.00  0.00     0.055 A 
ATOM     89  C   UNL A   1      47.333  28.271  34.654  1.00  0.00     0.041 A 
ATOM     90  F   UNL A   1      46.181  29.938  33.480  1.00  0.00    -0.206 F 
ATOM     91  C   UNL A   1      47.361  27.017  35.257  1.00  0.00     0.022 A 
BRANCH  88  92
ATOM     92  S   UNL A   1      46.182  24.628  36.082  1.00  0.00     0.124 S 
ATOM     93  O   UNL A   1      46.843  24.987  37.333  1.00  0.00    -0.237 OA
ATOM     94  O   UNL A   1      44.749  24.368  36.169  1.00  0.00    -0.237 OA
ATOM     95  O   UNL A   1      46.928  23.705  35.229  1.00  0.00    -0.744 OA
ENDBRANCH  88  92
ENDBRANCH  62  85
ENDBRANCH  36  37
ENDBRANCH  28  31
ENDBRANCH  26  27
ENDBRANCH  25  26
ENDBRANCH   1  25
TORSDOF 18
ENDMDL
MODEL 3
REMARK VINA RESULT:     -11.6      4.005      8.674
REMARK SMILES COCCCN1C(=O)CC[C@@H](C(=O)NCCCNC(=O)c2ccc(-c3c4nc(c(-c5cc(S(=O)(=O)[O-])ccc5F)c5ccc([nH]5)c(-c5cc(S(=O)(=O)[O-])ccc5F)c5nc(c(-c6cc(S(=O)(=O)[O-])ccc6F)c6ccc3[nH]6)C=C5)C=C4)cc2)[C@@H]1c1ccc(F)cc1
REMARK SMILES IDX 15 1 14 2 12 3 13 4 11 6 6 7 7 8 84 9 8 10 9 11 10 12 5 13
REMARK SMILES IDX 4 14 3 15 2 16 1 17 85 18 86 19 91 20 87 21 90 22 88 23
REMARK SMILES IDX 89 24 16 25 17 26 18 27 19 28 20 30 21 31 22 32 83 33 23 34
REMARK SMILES IDX 82 35 24 36 25 37 26 38 76 39 27 40 81 41 75 42 77 43 28 44
REMARK SMILES IDX 80 45 74 46 73 47 29 49 61 50 41 51 60 52 42 53 45 54 59 55
REMARK SMILES IDX 78 56 43 57 44 58 58 60 79 61 46 62 30 63 31 64 39 65 32 66
REMARK SMILES IDX 38 67 40 68 37 69 33 70 34 71 35 72 36 73 62 74 63 75 71 76
REMARK SMILES IDX 64 77 70 78 72 79 69 80 65 81 66 82 67 83 68 84 47 85 48 86
REMARK SMILES IDX 56 87 49 88 55 89 57 90 54 91 50 92 51 93 52 94 53 95
REMARK H PARENT 14 5 18 29 77 48 45 59
REMARK Flexibility Score: inf
ROOT
ATOM      1  C   UNL A   1      31.726  27.355  27.021  1.00  0.00     0.117 C 
ENDROOT
BRANCH   1   2
ATOM      2  N   UNL A   1      31.130  26.566  25.958  1.00  0.00    -0.356 N 
ATOM      3  C   UNL A   1      31.696  25.816  24.970  1.00  0.00     0.225 C 
ATOM      4  O   UNL A   1      30.927  25.289  24.166  1.00  0.00    -0.275 OA
ATOM      5  H   UNL A   1      30.146  26.571  25.950  1.00  0.00     0.163 HD
BRANCH   3   6
ATOM      6  C   UNL A   1      33.217  25.663  24.874  1.00  0.00     0.106 C 
ATOM      7  N   UNL A   1      33.320  24.282  22.767  1.00  0.00    -0.335 N 
ATOM      8  C   UNL A   1      33.317  25.424  21.971  1.00  0.00     0.223 C 
ATOM      9  C   UNL A   1      33.611  24.335  24.203  1.00  0.00     0.128 C 
ATOM     10  O   UNL A   1      33.133  25.367  20.751  1.00  0.00    -0.275 OA
ATOM     11  C   UNL A   1      33.508  26.783  22.620  1.00  0.00     0.101 C 
ATOM     12  C   UNL A   1      33.858  26.808  24.098  1.00  0.00     0.026 C 
BRANCH   7  13
ATOM     13  C   UNL A   1      33.012  23.007  22.086  1.00  0.00     0.122 C 
BRANCH  13  14
ATOM     14  C   UNL A   1      31.896  22.063  22.570  1.00  0.00     0.050 C 
BRANCH  14  15
ATOM     15  C   UNL A   1      32.174  20.584  22.847  1.00  0.00     0.161 C 
BRANCH  15  16
ATOM     16  O   UNL A   1      32.359  20.245  24.216  1.00  0.00    -0.385 OA
ATOM     17  C   UNL A   1      33.703  20.180  24.657  1.00  0.00     0.194 C 
ENDBRANCH  15  16
ENDBRANCH  14  15
ENDBRANCH  13  14
ENDBRANCH   7  13
BRANCH   9  18
ATOM     18  C   UNL A   1      35.042  23.893  24.532  1.00  0.00    -0.024 A 
ATOM     19  C   UNL A   1      35.783  23.051  23.680  1.00  0.00     0.009 A 
ATOM     20  C   UNL A   1      35.622  24.261  25.762  1.00  0.00     0.009 A 
ATOM     21  C   UNL A   1      37.023  22.542  24.073  1.00  0.00     0.039 A 
ATOM     22  C   UNL A   1      36.871  23.767  26.144  1.00  0.00     0.039 A 
ATOM     23  C   UNL A   1      37.552  22.898  25.304  1.00  0.00     0.123 A 
ATOM     24  F   UNL A   1      38.729  22.390  25.690  1.00  0.00    -0.207 F 
ENDBRANCH   9  18
ENDBRANCH   3   6
ENDBRANCH   1   2
BRANCH   1  25
ATOM     25  C   UNL A   1      31.917  28.813  26.638  1.00  0.00     0.042 C 
BRANCH  25  26
ATOM     26  C   UNL A   1      33.355  29.310  26.725  1.00  0.00     0.118 C 
BRANCH  26  27
ATOM     27  N   UNL A   1      33.460  30.698  27.147  1.00  0.00    -0.352 N 
ATOM     28  C   UNL A   1      34.414  31.322  27.919  1.00  0.00     0.251 C 
ATOM     29  H   UNL A   1      32.734  31.284  26.831  1.00  0.00     0.163 HD
ATOM     30  O   UNL A   1      34.229  32.481  28.272  1.00  0.00    -0.269 OA
BRANCH  28  31
ATOM     31  C   UNL A   1      35.630  30.594  28.353  1.00  0.00     0.039 A 
ATOM     32  C   UNL A   1      36.803  30.747  27.610  1.00  0.00     0.014 A 
ATOM     33  C   UNL A   1      35.626  29.765  29.478  1.00  0.00     0.014 A 
ATOM     34  C   UNL A   1      37.984  30.137  28.040  1.00  0.00     0.010 A 
ATOM     35  C   UNL A   1      36.821  29.234  29.956  1.00  0.00     0.010 A 
ATOM     36  C   UNL A   1      38.017  29.414  29.244  1.00  0.00    -0.014 A 
BRANCH  36  37
ATOM     37  C   UNL A   1      39.291  28.855  29.772  1.00  0.00     0.031 A 
ATOM     38  C   UNL A   1      39.966  29.485  30.961  1.00  0.00     0.074 A 
ATOM     39  C   UNL A   1      39.866  27.806  29.148  1.00  0.00     0.049 A 
ATOM     40  N   UNL A   1      41.102  29.169  31.531  1.00  0.00    -0.248 NA
ATOM     41  C   UNL A   1      39.289  30.637  31.572  1.00  0.00     0.031 C 
ATOM     42  C   UNL A   1      39.330  27.131  27.963  1.00  0.00     0.029 A 
ATOM     43  N   UNL A   1      41.025  27.122  29.420  1.00  0.00    -0.354 N 
ATOM     44  C   UNL A   1      41.279  30.086  32.562  1.00  0.00     0.074 A 
ATOM     45  C   UNL A   1      40.167  31.010  32.491  1.00  0.00     0.031 C 
ATOM     46  C   UNL A   1      40.139  26.112  27.633  1.00  0.00     0.029 A 
ATOM     47  C   UNL A   1      41.277  26.089  28.545  1.00  0.00     0.049 A 
ATOM     48  H   UNL A   1      41.621  27.349  30.169  1.00  0.00     0.167 HD
ATOM     49  C   UNL A   1      42.260  30.137  33.497  1.00  0.00     0.034 A 
ATOM     50  C   UNL A   1      42.311  25.226  28.476  1.00  0.00     0.034 A 
ATOM     51  C   UNL A   1      43.362  29.205  33.556  1.00  0.00     0.049 A 
ATOM     52  C   UNL A   1      43.414  25.331  29.501  1.00  0.00     0.074 A 
ATOM     53  C   UNL A   1      44.385  29.138  34.487  1.00  0.00     0.029 A 
ATOM     54  N   UNL A   1      43.594  28.184  32.643  1.00  0.00    -0.354 N 
ATOM     55  N   UNL A   1      43.537  26.173  30.500  1.00  0.00    -0.248 NA
ATOM     56  C   UNL A   1      44.510  24.359  29.392  1.00  0.00     0.031 C 
ATOM     57  C   UNL A   1      45.274  28.133  34.092  1.00  0.00     0.029 A 
ATOM     58  C   UNL A   1      44.761  27.508  32.967  1.00  0.00     0.049 A 
ATOM     59  H   UNL A   1      43.013  27.970  31.877  1.00  0.00     0.167 HD
ATOM     60  C   UNL A   1      44.710  25.810  31.159  1.00  0.00     0.074 A 
ATOM     61  C   UNL A   1      45.241  24.662  30.455  1.00  0.00     0.031 C 
ATOM     62  C   UNL A   1      45.292  26.373  32.249  1.00  0.00     0.034 A 
BRANCH  49  63
ATOM     63  C   UNL A   1      42.196  31.254  34.514  1.00  0.00     0.023 A 
ATOM     64  C   UNL A   1      42.835  32.488  34.297  1.00  0.00     0.031 A 
ATOM     65  C   UNL A   1      41.504  31.079  35.725  1.00  0.00     0.131 A 
ATOM     66  C   UNL A   1      42.836  33.465  35.303  1.00  0.00     0.055 A 
ATOM     67  C   UNL A   1      41.433  32.089  36.687  1.00  0.00     0.041 A 
ATOM     68  F   UNL A   1      40.892  29.916  36.002  1.00  0.00    -0.206 F 
ATOM     69  C   UNL A   1      42.116  33.285  36.486  1.00  0.00     0.022 A 
BRANCH  66  70
ATOM     70  S   UNL A   1      43.920  34.906  35.108  1.00  0.00     0.124 S 
ATOM     71  O   UNL A   1      43.312  35.579  33.963  1.00  0.00    -0.237 OA
ATOM     72  O   UNL A   1      43.781  35.581  36.394  1.00  0.00    -0.237 OA
ATOM     73  O   UNL A   1      45.232  34.317  34.851  1.00  0.00    -0.744 OA
ENDBRANCH  66  70
ENDBRANCH  49  63
BRANCH  50  74
ATOM     74  C   UNL A   1      42.370  24.196  27.398  1.00  0.00     0.023 A 
ATOM     75  C   UNL A   1      41.808  22.922  27.583  1.00  0.00     0.031 A 
ATOM     76  C   UNL A   1      43.033  24.452  26.185  1.00  0.00     0.131 A 
ATOM     77  C   UNL A   1      41.966  21.938  26.595  1.00  0.00     0.055 A 
ATOM     78  C   UNL A   1      43.134  23.488  25.180  1.00  0.00     0.041 A 
ATOM     79  F   UNL A   1      43.588  25.653  25.953  1.00  0.00    -0.206 F 
ATOM     80  C   UNL A   1      42.610  22.217  25.389  1.00  0.00     0.022 A 
BRANCH  77  81
ATOM     81  S   UNL A   1      41.399  20.251  26.953  1.00  0.00     0.124 S 
ATOM     82  O   UNL A   1      40.786  20.417  28.265  1.00  0.00    -0.237 OA
ATOM     83  O   UNL A   1      40.486  19.998  25.843  1.00  0.00    -0.237 OA
ATOM     84  O   UNL A   1      42.633  19.468  26.934  1.00  0.00    -0.744 OA
ENDBRANCH  77  81
ENDBRANCH  50  74
BRANCH  62  85
ATOM     85  C   UNL A   1      46.551  25.717  32.769  1.00  0.00     0.023 A 
ATOM     86  C   UNL A   1      47.813  25.983  32.207  1.00  0.00     0.031 A 
ATOM     87  C   UNL A   1      46.483  24.796  33.830  1.00  0.00     0.131 A 
ATOM     88  C   UNL A   1      48.941  25.283  32.660  1.00  0.00     0.055 A 
ATOM     89  C   UNL A   1      47.621  24.157  34.325  1.00  0.00     0.041 A 
ATOM     90  F   UNL A   1      45.306  24.499  34.404  1.00  0.00    -0.206 F 
ATOM     91  C   UNL A   1      48.857  24.387  33.728  1.00  0.00     0.022 A 
BRANCH  88  92
ATOM     92  S   UNL A   1      50.503  25.473  31.756  1.00  0.00     0.124 S 
ATOM     93  O   UNL A   1      50.828  24.090  31.419  1.00  0.00    -0.237 OA
ATOM     94  O   UNL A   1      50.114  26.327  30.638  1.00  0.00    -0.237 OA
ATOM     95  O   UNL A   1      51.391  26.099  32.733  1.00  0.00    -0.744 OA
ENDBRANCH  88  92
ENDBRANCH  62  85
ENDBRANCH  36  37
ENDBRANCH  28  31
ENDBRANCH  26  27
ENDBRANCH  25  26
ENDBRANCH   1  25
TORSDOF 18
ENDMDL
