MODEL 1
REMARK VINA RESULT:     -10.0      0.000      0.000
REMARK SMILES O=C(CCn1cc(/C=C2/[NH+]=C(S)N(c3ccccc3)C2=O)c(-c2ccc(Br)cc2)n1)NCCCNC(=O)c1ccc(-c2c3nc(c(-c4cc(S(=O)(=O)[O-])ccc4F)c4ccc([nH]4)c(-c4cc(S(=O)(=O)[O-])ccc4F)c4nc(c(-c5cc(S(=O)(=O)[O-])ccc5F)c5ccc2[nH]5)C=C4)C=C3)cc1
REMARK SMILES IDX 32 1 31 2 1 3 2 4 3 6 4 7 5 8 6 9 30 10 7 11 22 12 8 13 9 14
REMARK SMILES IDX 10 15 20 16 11 17 13 19 21 20 12 21 14 23 15 24 19 25 16 26
REMARK SMILES IDX 18 27 17 28 23 29 24 30 29 31 25 32 28 33 26 34 27 35 33 36
REMARK SMILES IDX 34 37 35 38 36 39 37 41 38 42 39 43 100 44 40 45 99 46 41 47
REMARK SMILES IDX 42 48 43 49 93 50 44 51 98 52 92 53 94 54 45 55 97 56 91 57
REMARK SMILES IDX 90 58 46 60 78 61 58 62 77 63 59 64 62 65 76 66 95 67 60 68
REMARK SMILES IDX 61 69 75 71 96 72 63 73 47 74 48 75 56 76 49 77 55 78 57 79
REMARK SMILES IDX 54 80 50 81 51 82 52 83 53 84 79 85 80 86 88 87 81 88 87 89
REMARK SMILES IDX 89 90 86 91 82 92 83 93 84 94 85 95 64 96 65 97 73 98 66 99
REMARK SMILES IDX 72 100 74 101 71 102 67 103 68 104 69 105 70 106
REMARK H PARENT 31 5 10 18 12 22 35 40 94 59 62 70
REMARK Flexibility Score: inf
ROOT
ATOM      1  C   UNL A   1      45.200  22.241  25.926  1.00  0.00     0.117 C 
ENDROOT
BRANCH   1   2
ATOM      2  N   UNL A   1      45.308  23.588  26.468  1.00  0.00    -0.356 N 
ATOM      3  O   UNL A   1      45.872  24.647  24.511  1.00  0.00    -0.275 OA
ATOM      4  C   UNL A   1      45.559  24.697  25.697  1.00  0.00     0.221 C 
ATOM      5  H   UNL A   1      45.196  23.712  27.439  1.00  0.00     0.163 HD
BRANCH   4   6
ATOM      6  C   UNL A   1      45.351  26.010  26.418  1.00  0.00     0.123 C 
BRANCH   6   7
ATOM      7  C   UNL A   1      46.678  26.537  26.971  1.00  0.00     0.154 C 
BRANCH   7   8
ATOM      8  N   UNL A   1      46.883  26.292  28.393  1.00  0.00    -0.271 N 
ATOM      9  C   UNL A   1      47.972  26.640  29.147  1.00  0.00     0.117 A 
ATOM     10  N   UNL A   1      45.888  25.755  29.118  1.00  0.00    -0.172 NA
ATOM     11  C   UNL A   1      47.683  26.260  30.442  1.00  0.00     0.025 A 
ATOM     12  C   UNL A   1      46.378  25.680  30.367  1.00  0.00     0.100 A 
BRANCH  11  13
ATOM     13  C   UNL A   1      48.442  26.618  31.607  1.00  0.00     0.072 C 
ATOM     14  C   UNL A   1      49.403  25.936  32.260  1.00  0.00     0.217 C 
ATOM     15  N   UNL A   1      49.672  26.166  33.589  1.00  0.00    -0.228 N 
ATOM     16  C   UNL A   1      50.173  24.721  31.845  1.00  0.00     0.386 C 
ATOM     17  C   UNL A   1      50.268  25.080  33.986  1.00  0.00     0.321 C 
ATOM     18  H   UNL A   1      49.460  26.969  34.119  1.00  0.00     0.313 HD
ATOM     19  N   UNL A   1      50.523  24.124  33.037  1.00  0.00    -0.149 N 
ATOM     20  O   UNL A   1      50.479  24.479  30.678  1.00  0.00    -0.236 OA
BRANCH  17  21
ATOM     21  S   UNL A   1      50.782  25.006  35.642  1.00  0.00    -0.055 SA
ATOM     22  H   UNL A   1      49.815  25.531  36.441  1.00  0.00     0.116 HD
ENDBRANCH  17  21
BRANCH  19  23
ATOM     23  C   UNL A   1      51.010  22.776  33.163  1.00  0.00     0.137 A 
ATOM     24  C   UNL A   1      52.346  22.417  32.884  1.00  0.00     0.052 A 
ATOM     25  C   UNL A   1      50.206  21.764  33.714  1.00  0.00     0.052 A 
ATOM     26  C   UNL A   1      52.835  21.115  33.092  1.00  0.00     0.004 A 
ATOM     27  C   UNL A   1      50.701  20.476  33.963  1.00  0.00     0.004 A 
ATOM     28  C   UNL A   1      52.009  20.145  33.640  1.00  0.00     0.000 A 
ENDBRANCH  19  23
ENDBRANCH  11  13
BRANCH  12  29
ATOM     29  C   UNL A   1      45.570  25.211  31.486  1.00  0.00     0.003 A 
ATOM     30  C   UNL A   1      44.881  23.999  31.358  1.00  0.00     0.011 A 
ATOM     31  C   UNL A   1      45.357  26.005  32.619  1.00  0.00     0.011 A 
ATOM     32  C   UNL A   1      43.985  23.597  32.343  1.00  0.00     0.016 A 
ATOM     33  C   UNL A   1      44.498  25.564  33.637  1.00  0.00     0.016 A 
ATOM     34  C   UNL A   1      43.853  24.337  33.514  1.00  0.00     0.018 A 
ATOM     35  Br  UNL A   1      42.911  23.587  34.974  1.00  0.00    -0.051 Br
ENDBRANCH  12  29
ENDBRANCH   7   8
ENDBRANCH   6   7
ENDBRANCH   4   6
ENDBRANCH   1   2
BRANCH   1  36
ATOM     36  C   UNL A   1      43.824  21.608  26.110  1.00  0.00     0.042 C 
BRANCH  36  37
ATOM     37  C   UNL A   1      42.754  22.265  25.265  1.00  0.00     0.118 C 
BRANCH  37  38
ATOM     38  N   UNL A   1      41.377  22.144  25.669  1.00  0.00    -0.352 N 
ATOM     39  C   UNL A   1      40.654  23.027  26.453  1.00  0.00     0.251 C 
ATOM     40  H   UNL A   1      40.897  21.344  25.354  1.00  0.00     0.163 HD
ATOM     41  O   UNL A   1      39.500  22.716  26.748  1.00  0.00    -0.269 OA
BRANCH  39  42
ATOM     42  C   UNL A   1      41.190  24.365  26.877  1.00  0.00     0.039 A 
ATOM     43  C   UNL A   1      42.009  24.419  28.016  1.00  0.00     0.014 A 
ATOM     44  C   UNL A   1      40.813  25.579  26.292  1.00  0.00     0.014 A 
ATOM     45  C   UNL A   1      42.277  25.648  28.625  1.00  0.00     0.010 A 
ATOM     46  C   UNL A   1      41.042  26.786  26.900  1.00  0.00     0.010 A 
ATOM     47  C   UNL A   1      41.688  26.810  28.114  1.00  0.00    -0.014 A 
BRANCH  47  48
ATOM     48  C   UNL A   1      41.878  28.124  28.709  1.00  0.00     0.031 A 
ATOM     49  C   UNL A   1      43.083  28.755  28.186  1.00  0.00     0.074 A 
ATOM     50  C   UNL A   1      40.946  28.788  29.425  1.00  0.00     0.049 A 
ATOM     51  N   UNL A   1      44.228  28.851  28.765  1.00  0.00    -0.248 NA
ATOM     52  C   UNL A   1      43.101  29.075  26.747  1.00  0.00     0.031 C 
ATOM     53  C   UNL A   1      39.592  28.301  29.660  1.00  0.00     0.029 A 
ATOM     54  N   UNL A   1      40.938  30.017  30.035  1.00  0.00    -0.354 N 
ATOM     55  C   UNL A   1      44.954  29.628  27.883  1.00  0.00     0.074 A 
ATOM     56  C   UNL A   1      44.384  29.400  26.585  1.00  0.00     0.031 C 
ATOM     57  C   UNL A   1      38.874  29.218  30.324  1.00  0.00     0.029 A 
ATOM     58  C   UNL A   1      39.683  30.400  30.519  1.00  0.00     0.049 A 
ATOM     59  H   UNL A   1      41.743  30.577  30.124  1.00  0.00     0.167 HD
ATOM     60  C   UNL A   1      45.604  30.725  28.351  1.00  0.00     0.034 A 
ATOM     61  C   UNL A   1      39.254  31.598  31.006  1.00  0.00     0.034 A 
ATOM     62  C   UNL A   1      45.780  30.658  29.791  1.00  0.00     0.049 A 
ATOM     63  C   UNL A   1      40.466  32.319  31.478  1.00  0.00     0.074 A 
ATOM     64  C   UNL A   1      46.254  29.670  30.634  1.00  0.00     0.029 A 
ATOM     65  N   UNL A   1      45.074  31.539  30.585  1.00  0.00    -0.354 N 
ATOM     66  N   UNL A   1      41.185  31.938  32.504  1.00  0.00    -0.248 NA
ATOM     67  C   UNL A   1      41.171  33.172  30.531  1.00  0.00     0.031 C 
ATOM     68  C   UNL A   1      45.468  29.767  31.811  1.00  0.00     0.029 A 
ATOM     69  C   UNL A   1      44.645  30.894  31.725  1.00  0.00     0.049 A 
ATOM     70  H   UNL A   1      44.903  32.484  30.370  1.00  0.00     0.167 HD
ATOM     71  C   UNL A   1      42.506  32.112  32.109  1.00  0.00     0.074 A 
ATOM     72  C   UNL A   1      42.429  32.983  30.941  1.00  0.00     0.031 C 
ATOM     73  C   UNL A   1      43.512  31.303  32.565  1.00  0.00     0.034 A 
BRANCH  60  74
ATOM     74  C   UNL A   1      45.739  31.992  27.552  1.00  0.00     0.023 A 
ATOM     75  C   UNL A   1      47.018  32.316  27.090  1.00  0.00     0.031 A 
ATOM     76  C   UNL A   1      44.749  32.996  27.398  1.00  0.00     0.131 A 
ATOM     77  C   UNL A   1      47.278  33.582  26.543  1.00  0.00     0.055 A 
ATOM     78  C   UNL A   1      44.992  34.220  26.777  1.00  0.00     0.041 A 
ATOM     79  F   UNL A   1      43.520  32.897  27.918  1.00  0.00    -0.206 F 
ATOM     80  C   UNL A   1      46.272  34.529  26.364  1.00  0.00     0.022 A 
BRANCH  77  81
ATOM     81  S   UNL A   1      48.998  34.021  26.219  1.00  0.00     0.124 S 
ATOM     82  O   UNL A   1      49.609  32.708  26.053  1.00  0.00    -0.237 OA
ATOM     83  O   UNL A   1      48.873  34.834  25.014  1.00  0.00    -0.237 OA
ATOM     84  O   UNL A   1      49.391  34.746  27.425  1.00  0.00    -0.744 OA
ENDBRANCH  77  81
ENDBRANCH  60  74
BRANCH  61  85
ATOM     85  C   UNL A   1      37.843  32.124  30.952  1.00  0.00     0.023 A 
ATOM     86  C   UNL A   1      37.137  32.643  32.058  1.00  0.00     0.031 A 
ATOM     87  C   UNL A   1      37.181  32.259  29.700  1.00  0.00     0.131 A 
ATOM     88  C   UNL A   1      35.831  33.187  31.888  1.00  0.00     0.055 A 
ATOM     89  C   UNL A   1      35.874  32.725  29.548  1.00  0.00     0.041 A 
ATOM     90  F   UNL A   1      37.813  32.026  28.539  1.00  0.00    -0.206 F 
ATOM     91  C   UNL A   1      35.190  33.195  30.647  1.00  0.00     0.022 A 
BRANCH  88  92
ATOM     92  S   UNL A   1      34.980  34.063  33.246  1.00  0.00     0.124 S 
ATOM     93  O   UNL A   1      33.602  34.105  32.775  1.00  0.00    -0.237 OA
ATOM     94  O   UNL A   1      35.252  33.208  34.396  1.00  0.00    -0.237 OA
ATOM     95  O   UNL A   1      35.658  35.360  33.284  1.00  0.00    -0.744 OA
ENDBRANCH  88  92
ENDBRANCH  61  85
BRANCH  73  96
ATOM     96  C   UNL A   1      43.397  30.630  33.937  1.00  0.00     0.023 A 
ATOM     97  C   UNL A   1      42.739  29.417  34.239  1.00  0.00     0.031 A 
ATOM     98  C   UNL A   1      44.076  31.264  35.006  1.00  0.00     0.131 A 
ATOM     99  C   UNL A   1      42.772  28.906  35.556  1.00  0.00     0.055 A 
ATOM    100  C   UNL A   1      44.173  30.712  36.283  1.00  0.00     0.041 A 
ATOM    101  F   UNL A   1      44.690  32.446  34.824  1.00  0.00    -0.206 F 
ATOM    102  C   UNL A   1      43.516  29.529  36.563  1.00  0.00     0.022 A 
BRANCH  99 103
ATOM    103  S   UNL A   1      41.852  27.421  36.057  1.00  0.00     0.124 S 
ATOM    104  O   UNL A   1      41.384  26.836  34.805  1.00  0.00    -0.237 OA
ATOM    105  O   UNL A   1      42.874  26.634  36.750  1.00  0.00    -0.237 OA
ATOM    106  O   UNL A   1      40.824  27.979  36.932  1.00  0.00    -0.744 OA
ENDBRANCH  99 103
ENDBRANCH  73  96
ENDBRANCH  47  48
ENDBRANCH  39  42
ENDBRANCH  37  38
ENDBRANCH  36  37
ENDBRANCH   1  36
TORSDOF 19
ENDMDL
MODEL 2
REMARK VINA RESULT:      -9.8      2.843      4.917
REMARK SMILES O=C(CCn1cc(/C=C2/[NH+]=C(S)N(c3ccccc3)C2=O)c(-c2ccc(Br)cc2)n1)NCCCNC(=O)c1ccc(-c2c3nc(c(-c4cc(S(=O)(=O)[O-])ccc4F)c4ccc([nH]4)c(-c4cc(S(=O)(=O)[O-])ccc4F)c4nc(c(-c5cc(S(=O)(=O)[O-])ccc5F)c5ccc2[nH]5)C=C4)C=C3)cc1
REMARK SMILES IDX 32 1 31 2 1 3 2 4 3 6 4 7 5 8 6 9 30 10 7 11 22 12 8 13 9 14
REMARK SMILES IDX 10 15 20 16 11 17 13 19 21 20 12 21 14 23 15 24 19 25 16 26
REMARK SMILES IDX 18 27 17 28 23 29 24 30 29 31 25 32 28 33 26 34 27 35 33 36
REMARK SMILES IDX 34 37 35 38 36 39 37 41 38 42 39 43 100 44 40 45 99 46 41 47
REMARK SMILES IDX 42 48 43 49 93 50 44 51 98 52 92 53 94 54 45 55 97 56 91 57
REMARK SMILES IDX 90 58 46 60 78 61 58 62 77 63 59 64 62 65 76 66 95 67 60 68
REMARK SMILES IDX 61 69 75 71 96 72 63 73 47 74 48 75 56 76 49 77 55 78 57 79
REMARK SMILES IDX 54 80 50 81 51 82 52 83 53 84 79 85 80 86 88 87 81 88 87 89
REMARK SMILES IDX 89 90 86 91 82 92 83 93 84 94 85 95 64 96 65 97 73 98 66 99
REMARK SMILES IDX 72 100 74 101 71 102 67 103 68 104 69 105 70 106
REMARK H PARENT 31 5 10 18 12 22 35 40 94 59 62 70
REMARK Flexibility Score: inf
ROOT
ATOM      1  C   UNL A   1      44.607  21.136  25.594  1.00  0.00     0.117 C 
ENDROOT
BRANCH   1   2
ATOM      2  N   UNL A   1      44.647  22.544  25.963  1.00  0.00    -0.356 N 
ATOM      3  O   UNL A   1      44.858  23.397  23.842  1.00  0.00    -0.275 OA
ATOM      4  C   UNL A   1      44.689  23.566  25.046  1.00  0.00     0.221 C 
ATOM      5  H   UNL A   1      44.643  22.777  26.920  1.00  0.00     0.163 HD
BRANCH   4   6
ATOM      6  C   UNL A   1      44.441  24.936  25.637  1.00  0.00     0.123 C 
BRANCH   6   7
ATOM      7  C   UNL A   1      45.446  25.951  25.084  1.00  0.00     0.154 C 
BRANCH   7   8
ATOM      8  N   UNL A   1      46.722  25.987  25.787  1.00  0.00    -0.271 N 
ATOM      9  C   UNL A   1      47.948  25.614  25.302  1.00  0.00     0.117 A 
ATOM     10  N   UNL A   1      46.781  26.526  27.015  1.00  0.00    -0.172 NA
ATOM     11  C   UNL A   1      48.858  25.886  26.303  1.00  0.00     0.025 A 
ATOM     12  C   UNL A   1      48.074  26.427  27.370  1.00  0.00     0.100 A 
BRANCH  11  13
ATOM     13  C   UNL A   1      50.287  25.856  26.164  1.00  0.00     0.072 C 
ATOM     14  C   UNL A   1      51.107  26.653  25.450  1.00  0.00     0.217 C 
ATOM     15  N   UNL A   1      52.340  26.219  25.024  1.00  0.00    -0.228 N 
ATOM     16  C   UNL A   1      50.837  27.970  24.791  1.00  0.00     0.386 C 
ATOM     17  C   UNL A   1      52.629  27.006  24.029  1.00  0.00     0.321 C 
ATOM     18  H   UNL A   1      52.881  25.481  25.389  1.00  0.00     0.313 HD
ATOM     19  N   UNL A   1      51.746  28.018  23.757  1.00  0.00    -0.149 N 
ATOM     20  O   UNL A   1      50.048  28.802  25.240  1.00  0.00    -0.236 OA
BRANCH  17  21
ATOM     21  S   UNL A   1      54.151  26.765  23.231  1.00  0.00    -0.055 SA
ATOM     22  H   UNL A   1      54.009  25.828  22.256  1.00  0.00     0.116 HD
ENDBRANCH  17  21
BRANCH  19  23
ATOM     23  C   UNL A   1      51.682  28.944  22.657  1.00  0.00     0.137 A 
ATOM     24  C   UNL A   1      50.842  28.747  21.541  1.00  0.00     0.052 A 
ATOM     25  C   UNL A   1      52.355  30.177  22.708  1.00  0.00     0.052 A 
ATOM     26  C   UNL A   1      50.721  29.698  20.512  1.00  0.00     0.004 A 
ATOM     27  C   UNL A   1      52.205  31.145  21.705  1.00  0.00     0.004 A 
ATOM     28  C   UNL A   1      51.401  30.904  20.601  1.00  0.00     0.000 A 
ENDBRANCH  19  23
ENDBRANCH  11  13
BRANCH  12  29
ATOM     29  C   UNL A   1      48.573  26.971  28.626  1.00  0.00     0.003 A 
ATOM     30  C   UNL A   1      48.390  26.232  29.801  1.00  0.00     0.011 A 
ATOM     31  C   UNL A   1      49.100  28.266  28.704  1.00  0.00     0.011 A 
ATOM     32  C   UNL A   1      48.718  26.788  31.034  1.00  0.00     0.016 A 
ATOM     33  C   UNL A   1      49.485  28.796  29.946  1.00  0.00     0.016 A 
ATOM     34  C   UNL A   1      49.336  28.032  31.099  1.00  0.00     0.018 A 
ATOM     35  Br  UNL A   1      50.090  28.598  32.740  1.00  0.00    -0.051 Br
ENDBRANCH  12  29
ENDBRANCH   7   8
ENDBRANCH   6   7
ENDBRANCH   4   6
ENDBRANCH   1   2
BRANCH   1  36
ATOM     36  C   UNL A   1      43.223  20.505  25.705  1.00  0.00     0.042 C 
BRANCH  36  37
ATOM     37  C   UNL A   1      42.337  21.199  26.716  1.00  0.00     0.118 C 
BRANCH  37  38
ATOM     38  N   UNL A   1      40.924  21.289  26.456  1.00  0.00    -0.352 N 
ATOM     39  C   UNL A   1      40.105  22.388  26.655  1.00  0.00     0.251 C 
ATOM     40  H   UNL A   1      40.491  20.480  26.098  1.00  0.00     0.163 HD
ATOM     41  O   UNL A   1      38.901  22.252  26.434  1.00  0.00    -0.269 OA
BRANCH  39  42
ATOM     42  C   UNL A   1      40.636  23.740  27.041  1.00  0.00     0.039 A 
ATOM     43  C   UNL A   1      41.562  23.811  28.094  1.00  0.00     0.014 A 
ATOM     44  C   UNL A   1      40.165  24.946  26.511  1.00  0.00     0.014 A 
ATOM     45  C   UNL A   1      41.848  25.042  28.689  1.00  0.00     0.010 A 
ATOM     46  C   UNL A   1      40.413  26.154  27.108  1.00  0.00     0.010 A 
ATOM     47  C   UNL A   1      41.175  26.189  28.253  1.00  0.00    -0.014 A 
BRANCH  47  48
ATOM     48  C   UNL A   1      41.379  27.503  28.842  1.00  0.00     0.031 A 
ATOM     49  C   UNL A   1      42.598  28.113  28.325  1.00  0.00     0.074 A 
ATOM     50  C   UNL A   1      40.452  28.185  29.547  1.00  0.00     0.049 A 
ATOM     51  N   UNL A   1      43.740  28.195  28.913  1.00  0.00    -0.248 NA
ATOM     52  C   UNL A   1      42.632  28.425  26.885  1.00  0.00     0.031 C 
ATOM     53  C   UNL A   1      39.089  27.719  29.774  1.00  0.00     0.029 A 
ATOM     54  N   UNL A   1      40.458  29.417  30.151  1.00  0.00    -0.354 N 
ATOM     55  C   UNL A   1      44.485  28.956  28.033  1.00  0.00     0.074 A 
ATOM     56  C   UNL A   1      43.921  28.729  26.731  1.00  0.00     0.031 C 
ATOM     57  C   UNL A   1      38.380  28.651  30.427  1.00  0.00     0.029 A 
ATOM     58  C   UNL A   1      39.205  29.822  30.623  1.00  0.00     0.049 A 
ATOM     59  H   UNL A   1      41.270  29.965  30.243  1.00  0.00     0.167 HD
ATOM     60  C   UNL A   1      45.148  30.045  28.501  1.00  0.00     0.034 A 
ATOM     61  C   UNL A   1      38.791  31.029  31.101  1.00  0.00     0.034 A 
ATOM     62  C   UNL A   1      45.311  29.983  29.942  1.00  0.00     0.049 A 
ATOM     63  C   UNL A   1      40.010  31.733  31.578  1.00  0.00     0.074 A 
ATOM     64  C   UNL A   1      45.763  28.993  30.793  1.00  0.00     0.029 A 
ATOM     65  N   UNL A   1      44.612  30.879  30.725  1.00  0.00    -0.354 N 
ATOM     66  N   UNL A   1      40.715  31.347  32.611  1.00  0.00    -0.248 NA
ATOM     67  C   UNL A   1      40.735  32.571  30.632  1.00  0.00     0.031 C 
ATOM     68  C   UNL A   1      44.970  29.108  31.964  1.00  0.00     0.029 A 
ATOM     69  C   UNL A   1      44.165  30.247  31.866  1.00  0.00     0.049 A 
ATOM     70  H   UNL A   1      44.457  31.826  30.504  1.00  0.00     0.167 HD
ATOM     71  C   UNL A   1      42.042  31.499  32.226  1.00  0.00     0.074 A 
ATOM     72  C   UNL A   1      41.987  32.364  31.053  1.00  0.00     0.031 C 
ATOM     73  C   UNL A   1      43.032  30.677  32.695  1.00  0.00     0.034 A 
BRANCH  60  74
ATOM     74  C   UNL A   1      45.308  31.306  27.696  1.00  0.00     0.023 A 
ATOM     75  C   UNL A   1      46.605  31.642  27.297  1.00  0.00     0.031 A 
ATOM     76  C   UNL A   1      44.314  32.295  27.480  1.00  0.00     0.131 A 
ATOM     77  C   UNL A   1      46.877  32.906  26.750  1.00  0.00     0.055 A 
ATOM     78  C   UNL A   1      44.574  33.516  26.859  1.00  0.00     0.041 A 
ATOM     79  F   UNL A   1      43.061  32.186  27.936  1.00  0.00    -0.206 F 
ATOM     80  C   UNL A   1      45.870  33.838  26.510  1.00  0.00     0.022 A 
BRANCH  77  81
ATOM     81  S   UNL A   1      48.606  33.364  26.511  1.00  0.00     0.124 S 
ATOM     82  O   UNL A   1      48.860  34.176  27.696  1.00  0.00    -0.237 OA
ATOM     83  O   UNL A   1      49.254  32.058  26.470  1.00  0.00    -0.237 OA
ATOM     84  O   UNL A   1      48.586  34.094  25.246  1.00  0.00    -0.744 OA
ENDBRANCH  77  81
ENDBRANCH  60  74
BRANCH  61  85
ATOM     85  C   UNL A   1      37.388  31.575  31.032  1.00  0.00     0.023 A 
ATOM     86  C   UNL A   1      36.683  32.115  32.129  1.00  0.00     0.031 A 
ATOM     87  C   UNL A   1      36.736  31.710  29.775  1.00  0.00     0.131 A 
ATOM     88  C   UNL A   1      35.387  32.677  31.946  1.00  0.00     0.055 A 
ATOM     89  C   UNL A   1      35.438  32.194  29.610  1.00  0.00     0.041 A 
ATOM     90  F   UNL A   1      37.373  31.457  28.620  1.00  0.00    -0.206 F 
ATOM     91  C   UNL A   1      34.754  32.684  30.700  1.00  0.00     0.022 A 
BRANCH  88  92
ATOM     92  S   UNL A   1      34.540  33.577  33.291  1.00  0.00     0.124 S 
ATOM     93  O   UNL A   1      34.664  34.965  32.863  1.00  0.00    -0.237 OA
ATOM     94  O   UNL A   1      33.200  33.002  33.265  1.00  0.00    -0.237 OA
ATOM     95  O   UNL A   1      35.326  33.225  34.475  1.00  0.00    -0.744 OA
ENDBRANCH  88  92
ENDBRANCH  61  85
BRANCH  73  96
ATOM     96  C   UNL A   1      42.895  30.014  34.069  1.00  0.00     0.023 A 
ATOM     97  C   UNL A   1      42.407  28.718  34.345  1.00  0.00     0.031 A 
ATOM     98  C   UNL A   1      43.367  30.760  35.176  1.00  0.00     0.131 A 
ATOM     99  C   UNL A   1      42.397  28.235  35.674  1.00  0.00     0.055 A 
ATOM    100  C   UNL A   1      43.430  30.248  36.472  1.00  0.00     0.041 A 
ATOM    101  F   UNL A   1      43.806  32.021  35.017  1.00  0.00    -0.206 F 
ATOM    102  C   UNL A   1      42.940  28.981  36.725  1.00  0.00     0.022 A 
BRANCH  99 103
ATOM    103  S   UNL A   1      41.674  26.632  36.132  1.00  0.00     0.124 S 
ATOM    104  O   UNL A   1      42.822  25.779  36.420  1.00  0.00    -0.237 OA
ATOM    105  O   UNL A   1      40.862  26.974  37.301  1.00  0.00    -0.237 OA
ATOM    106  O   UNL A   1      40.902  26.294  34.940  1.00  0.00    -0.744 OA
ENDBRANCH  99 103
ENDBRANCH  73  96
ENDBRANCH  47  48
ENDBRANCH  39  42
ENDBRANCH  37  38
ENDBRANCH  36  37
ENDBRANCH   1  36
TORSDOF 19
ENDMDL
MODEL 3
REMARK VINA RESULT:      -9.7      1.865      2.116
REMARK SMILES O=C(CCn1cc(/C=C2/[NH+]=C(S)N(c3ccccc3)C2=O)c(-c2ccc(Br)cc2)n1)NCCCNC(=O)c1ccc(-c2c3nc(c(-c4cc(S(=O)(=O)[O-])ccc4F)c4ccc([nH]4)c(-c4cc(S(=O)(=O)[O-])ccc4F)c4nc(c(-c5cc(S(=O)(=O)[O-])ccc5F)c5ccc2[nH]5)C=C4)C=C3)cc1
REMARK SMILES IDX 32 1 31 2 1 3 2 4 3 6 4 7 5 8 6 9 30 10 7 11 22 12 8 13 9 14
REMARK SMILES IDX 10 15 20 16 11 17 13 19 21 20 12 21 14 23 15 24 19 25 16 26
REMARK SMILES IDX 18 27 17 28 23 29 24 30 29 31 25 32 28 33 26 34 27 35 33 36
REMARK SMILES IDX 34 37 35 38 36 39 37 41 38 42 39 43 100 44 40 45 99 46 41 47
REMARK SMILES IDX 42 48 43 49 93 50 44 51 98 52 92 53 94 54 45 55 97 56 91 57
REMARK SMILES IDX 90 58 46 60 78 61 58 62 77 63 59 64 62 65 76 66 95 67 60 68
REMARK SMILES IDX 61 69 75 71 96 72 63 73 47 74 48 75 56 76 49 77 55 78 57 79
REMARK SMILES IDX 54 80 50 81 51 82 52 83 53 84 79 85 80 86 88 87 81 88 87 89
REMARK SMILES IDX 89 90 86 91 82 92 83 93 84 94 85 95 64 96 65 97 73 98 66 99
REMARK SMILES IDX 72 100 74 101 71 102 67 103 68 104 69 105 70 106
REMARK H PARENT 31 5 10 18 12 22 35 40 94 59 62 70
REMARK Flexibility Score: inf
ROOT
ATOM      1  C   UNL A   1      45.184  22.770  26.017  1.00  0.00     0.117 C 
ENDROOT
BRANCH   1   2
ATOM      2  N   UNL A   1      45.206  24.136  26.520  1.00  0.00    -0.356 N 
ATOM      3  O   UNL A   1      45.867  25.156  24.574  1.00  0.00    -0.275 OA
ATOM      4  C   UNL A   1      45.470  25.230  25.732  1.00  0.00     0.221 C 
ATOM      5  H   UNL A   1      45.022  24.284  27.477  1.00  0.00     0.163 HD
BRANCH   4   6
ATOM      6  C   UNL A   1      45.164  26.556  26.395  1.00  0.00     0.123 C 
BRANCH   6   7
ATOM      7  C   UNL A   1      46.441  27.178  26.965  1.00  0.00     0.154 C 
BRANCH   7   8
ATOM      8  N   UNL A   1      46.704  26.853  28.361  1.00  0.00    -0.271 N 
ATOM      9  C   UNL A   1      47.794  27.216  29.108  1.00  0.00     0.117 A 
ATOM     10  N   UNL A   1      45.766  26.208  29.074  1.00  0.00    -0.172 NA
ATOM     11  C   UNL A   1      47.568  26.734  30.381  1.00  0.00     0.025 A 
ATOM     12  C   UNL A   1      46.298  26.080  30.302  1.00  0.00     0.100 A 
BRANCH  11  13
ATOM     13  C   UNL A   1      48.339  27.060  31.548  1.00  0.00     0.072 C 
ATOM     14  C   UNL A   1      49.270  26.338  32.202  1.00  0.00     0.217 C 
ATOM     15  N   UNL A   1      49.546  26.556  33.531  1.00  0.00    -0.228 N 
ATOM     16  C   UNL A   1      49.988  25.091  31.788  1.00  0.00     0.386 C 
ATOM     17  C   UNL A   1      50.096  25.446  33.929  1.00  0.00     0.321 C 
ATOM     18  H   UNL A   1      49.368  27.368  34.061  1.00  0.00     0.313 HD
ATOM     19  N   UNL A   1      50.311  24.480  32.981  1.00  0.00    -0.149 N 
ATOM     20  O   UNL A   1      50.286  24.837  30.621  1.00  0.00    -0.236 OA
BRANCH  17  21
ATOM     21  S   UNL A   1      50.604  25.351  35.586  1.00  0.00    -0.055 SA
ATOM     22  H   UNL A   1      51.928  25.647  35.673  1.00  0.00     0.116 HD
ENDBRANCH  17  21
BRANCH  19  23
ATOM     23  C   UNL A   1      50.741  23.112  33.108  1.00  0.00     0.137 A 
ATOM     24  C   UNL A   1      52.033  22.681  32.741  1.00  0.00     0.052 A 
ATOM     25  C   UNL A   1      49.932  22.156  33.744  1.00  0.00     0.052 A 
ATOM     26  C   UNL A   1      52.473  21.361  32.948  1.00  0.00     0.004 A 
ATOM     27  C   UNL A   1      50.381  20.851  33.991  1.00  0.00     0.004 A 
ATOM     28  C   UNL A   1      51.644  20.447  33.582  1.00  0.00     0.000 A 
ENDBRANCH  19  23
ENDBRANCH  11  13
BRANCH  12  29
ATOM     29  C   UNL A   1      45.554  25.489  31.407  1.00  0.00     0.003 A 
ATOM     30  C   UNL A   1      44.928  24.253  31.212  1.00  0.00     0.011 A 
ATOM     31  C   UNL A   1      45.337  26.189  32.600  1.00  0.00     0.011 A 
ATOM     32  C   UNL A   1      44.088  23.733  32.192  1.00  0.00     0.016 A 
ATOM     33  C   UNL A   1      44.537  25.630  33.609  1.00  0.00     0.016 A 
ATOM     34  C   UNL A   1      43.956  24.380  33.417  1.00  0.00     0.018 A 
ATOM     35  Br  UNL A   1      43.104  23.478  34.846  1.00  0.00    -0.051 Br
ENDBRANCH  12  29
ENDBRANCH   7   8
ENDBRANCH   6   7
ENDBRANCH   4   6
ENDBRANCH   1   2
BRANCH   1  36
ATOM     36  C   UNL A   1      43.834  22.075  26.167  1.00  0.00     0.042 C 
BRANCH  36  37
ATOM     37  C   UNL A   1      42.741  22.724  25.347  1.00  0.00     0.118 C 
BRANCH  37  38
ATOM     38  N   UNL A   1      41.369  22.523  25.733  1.00  0.00    -0.352 N 
ATOM     39  C   UNL A   1      40.596  23.347  26.534  1.00  0.00     0.251 C 
ATOM     40  H   UNL A   1      40.932  21.710  25.392  1.00  0.00     0.163 HD
ATOM     41  O   UNL A   1      39.456  22.972  26.808  1.00  0.00    -0.269 OA
BRANCH  39  42
ATOM     42  C   UNL A   1      41.060  24.699  26.999  1.00  0.00     0.039 A 
ATOM     43  C   UNL A   1      41.967  24.754  28.069  1.00  0.00     0.014 A 
ATOM     44  C   UNL A   1      40.542  25.909  26.527  1.00  0.00     0.014 A 
ATOM     45  C   UNL A   1      42.190  25.963  28.734  1.00  0.00     0.010 A 
ATOM     46  C   UNL A   1      40.727  27.093  27.192  1.00  0.00     0.010 A 
ATOM     47  C   UNL A   1      41.471  27.100  28.349  1.00  0.00    -0.014 A 
BRANCH  47  48
ATOM     48  C   UNL A   1      41.608  28.388  29.010  1.00  0.00     0.031 A 
ATOM     49  C   UNL A   1      42.779  29.100  28.512  1.00  0.00     0.074 A 
ATOM     50  C   UNL A   1      40.655  28.972  29.768  1.00  0.00     0.049 A 
ATOM     51  N   UNL A   1      43.925  29.216  29.086  1.00  0.00    -0.248 NA
ATOM     52  C   UNL A   1      42.767  29.495  27.091  1.00  0.00     0.031 C 
ATOM     53  C   UNL A   1      39.327  28.412  29.988  1.00  0.00     0.029 A 
ATOM     54  N   UNL A   1      40.599  30.165  30.443  1.00  0.00    -0.354 N 
ATOM     55  C   UNL A   1      44.606  30.070  28.240  1.00  0.00     0.074 A 
ATOM     56  C   UNL A   1      44.033  29.885  26.937  1.00  0.00     0.031 C 
ATOM     57  C   UNL A   1      38.576  29.260  30.705  1.00  0.00     0.029 A 
ATOM     58  C   UNL A   1      39.333  30.465  30.956  1.00  0.00     0.049 A 
ATOM     59  H   UNL A   1      41.379  30.755  30.554  1.00  0.00     0.167 HD
ATOM     60  C   UNL A   1      45.211  31.169  28.761  1.00  0.00     0.034 A 
ATOM     61  C   UNL A   1      38.857  31.616  31.510  1.00  0.00     0.034 A 
ATOM     62  C   UNL A   1      45.405  31.035  30.193  1.00  0.00     0.049 A 
ATOM     63  C   UNL A   1      40.040  32.364  32.009  1.00  0.00     0.074 A 
ATOM     64  C   UNL A   1      45.931  30.026  30.979  1.00  0.00     0.029 A 
ATOM     65  N   UNL A   1      44.669  31.840  31.038  1.00  0.00    -0.354 N 
ATOM     66  N   UNL A   1      40.786  31.963  33.007  1.00  0.00    -0.248 NA
ATOM     67  C   UNL A   1      40.697  33.297  31.102  1.00  0.00     0.031 C 
ATOM     68  C   UNL A   1      45.154  30.027  32.165  1.00  0.00     0.029 A 
ATOM     69  C   UNL A   1      44.281  31.118  32.146  1.00  0.00     0.049 A 
ATOM     70  H   UNL A   1      44.454  32.787  30.875  1.00  0.00     0.167 HD
ATOM     71  C   UNL A   1      42.094  32.217  32.611  1.00  0.00     0.074 A 
ATOM     72  C   UNL A   1      41.966  33.143  31.492  1.00  0.00     0.031 C 
ATOM     73  C   UNL A   1      43.140  31.431  33.016  1.00  0.00     0.034 A 
BRANCH  60  74
ATOM     74  C   UNL A   1      45.281  32.481  28.028  1.00  0.00     0.023 A 
ATOM     75  C   UNL A   1      44.405  33.487  28.447  1.00  0.00     0.031 A 
ATOM     76  C   UNL A   1      45.992  32.735  26.828  1.00  0.00     0.131 A 
ATOM     77  C   UNL A   1      44.237  34.651  27.679  1.00  0.00     0.055 A 
ATOM     78  C   UNL A   1      45.885  33.928  26.114  1.00  0.00     0.041 A 
ATOM     79  F   UNL A   1      46.754  31.818  26.220  1.00  0.00    -0.206 F 
ATOM     80  C   UNL A   1      44.985  34.888  26.528  1.00  0.00     0.022 A 
BRANCH  77  81
ATOM     81  S   UNL A   1      42.901  35.774  28.135  1.00  0.00     0.124 S 
ATOM     82  O   UNL A   1      42.853  36.657  26.976  1.00  0.00    -0.237 OA
ATOM     83  O   UNL A   1      41.782  34.852  28.294  1.00  0.00    -0.237 OA
ATOM     84  O   UNL A   1      43.386  36.389  29.369  1.00  0.00    -0.744 OA
ENDBRANCH  77  81
ENDBRANCH  60  74
BRANCH  61  85
ATOM     85  C   UNL A   1      37.423  32.080  31.494  1.00  0.00     0.023 A 
ATOM     86  C   UNL A   1      36.736  32.526  30.345  1.00  0.00     0.031 A 
ATOM     87  C   UNL A   1      36.618  31.946  32.660  1.00  0.00     0.131 A 
ATOM     88  C   UNL A   1      35.357  32.872  30.420  1.00  0.00     0.055 A 
ATOM     89  C   UNL A   1      35.287  32.355  32.747  1.00  0.00     0.041 A 
ATOM     90  F   UNL A   1      37.068  31.321  33.759  1.00  0.00    -0.206 F 
ATOM     91  C   UNL A   1      34.646  32.821  31.621  1.00  0.00     0.022 A 
BRANCH  88  92
ATOM     92  S   UNL A   1      34.385  33.242  28.917  1.00  0.00     0.124 S 
ATOM     93  O   UNL A   1      33.937  31.919  28.502  1.00  0.00    -0.237 OA
ATOM     94  O   UNL A   1      33.361  34.152  29.417  1.00  0.00    -0.237 OA
ATOM     95  O   UNL A   1      35.367  33.866  28.029  1.00  0.00    -0.744 OA
ENDBRANCH  88  92
ENDBRANCH  61  85
BRANCH  73  96
ATOM     96  C   UNL A   1      43.069  30.683  34.351  1.00  0.00     0.023 A 
ATOM     97  C   UNL A   1      42.559  29.385  34.575  1.00  0.00     0.031 A 
ATOM     98  C   UNL A   1      43.632  31.342  35.471  1.00  0.00     0.131 A 
ATOM     99  C   UNL A   1      42.617  28.817  35.868  1.00  0.00     0.055 A 
ATOM    100  C   UNL A   1      43.759  30.745  36.725  1.00  0.00     0.041 A 
ATOM    101  F   UNL A   1      44.099  32.599  35.364  1.00  0.00    -0.206 F 
ATOM    102  C   UNL A   1      43.247  29.478  36.928  1.00  0.00     0.022 A 
BRANCH  99 103
ATOM    103  S   UNL A   1      41.875  27.207  36.269  1.00  0.00     0.124 S 
ATOM    104  O   UNL A   1      40.788  27.521  37.189  1.00  0.00    -0.237 OA
ATOM    105  O   UNL A   1      41.440  26.724  34.957  1.00  0.00    -0.237 OA
ATOM    106  O   UNL A   1      43.009  26.480  36.833  1.00  0.00    -0.744 OA
ENDBRANCH  99 103
ENDBRANCH  73  96
ENDBRANCH  47  48
ENDBRANCH  39  42
ENDBRANCH  37  38
ENDBRANCH  36  37
ENDBRANCH   1  36
TORSDOF 19
ENDMDL
