MODEL 1
REMARK VINA RESULT:     -12.2      0.000      0.000
REMARK SMILES C[C@H]1CCC[C@@](NC(=O)N2CCO[C@H](C#N)C2)(C(=O)NCCCNC(=O)c2ccc(-c3c4nc(c(-c5cc(S(=O)(=O)[O-])ccc5F)c5ccc([nH]5)c(-c5cc(S(=O)(=O)[O-])ccc5F)c5nc(c(-c6cc(S(=O)(=O)[O-])ccc6F)c6ccc3[nH]6)C=C5)C=C4)cc2)C1
REMARK SMILES IDX 22 1 21 2 20 3 18 4 19 5 6 7 1 8 2 9 3 10 90 11 4 12 5 13
REMARK SMILES IDX 7 14 8 15 9 17 10 18 11 19 17 20 12 21 14 22 13 23 15 24
REMARK SMILES IDX 16 25 23 26 24 27 25 28 26 30 27 31 28 32 89 33 29 34 88 35
REMARK SMILES IDX 30 36 31 37 32 38 82 39 33 40 87 41 81 42 83 43 34 44 86 45
REMARK SMILES IDX 80 46 79 47 35 49 67 50 47 51 66 52 48 53 51 54 65 55 84 56
REMARK SMILES IDX 49 57 50 58 64 60 85 61 52 62 36 63 37 64 45 65 38 66 44 67
REMARK SMILES IDX 46 68 43 69 39 70 40 71 41 72 42 73 68 74 69 75 77 76 70 77
REMARK SMILES IDX 76 78 78 79 75 80 71 81 72 82 73 83 74 84 53 85 54 86 62 87
REMARK SMILES IDX 55 88 61 89 63 90 60 91 56 92 57 93 58 94 59 95
REMARK H PARENT 20 6 7 16 24 29 83 48 51 59
REMARK Flexibility Score: inf
ROOT
ATOM      1  C   UNL A   1      32.342  29.969  27.002  1.00  0.00     0.042 C 
ENDROOT
BRANCH   1   2
ATOM      2  C   UNL A   1      31.970  29.943  25.537  1.00  0.00     0.117 C 
BRANCH   2   3
ATOM      3  N   UNL A   1      33.136  29.663  24.706  1.00  0.00    -0.354 N 
ATOM      4  C   UNL A   1      33.251  28.897  23.579  1.00  0.00     0.245 C 
ATOM      5  O   UNL A   1      34.341  28.906  22.999  1.00  0.00    -0.272 OA
ATOM      6  H   UNL A   1      33.971  30.093  25.002  1.00  0.00     0.163 HD
BRANCH   4   7
ATOM      7  C   UNL A   1      32.084  27.991  23.125  1.00  0.00     0.121 C 
ATOM      8  C   UNL A   1      29.505  25.878  25.238  1.00  0.00     0.008 C 
ATOM      9  C   UNL A   1      30.057  26.615  24.019  1.00  0.00    -0.011 C 
ATOM     10  C   UNL A   1      29.110  27.769  23.677  1.00  0.00     0.003 C 
ATOM     11  C   UNL A   1      31.508  27.103  24.264  1.00  0.00     0.042 C 
ATOM     12  C   UNL A   1      29.612  28.515  22.462  1.00  0.00     0.003 C 
ATOM     13  C   UNL A   1      31.000  29.052  22.732  1.00  0.00     0.039 C 
BRANCH   7  14
ATOM     14  N   UNL A   1      32.495  27.133  21.984  1.00  0.00    -0.323 N 
ATOM     15  C   UNL A   1      32.889  25.843  21.818  1.00  0.00     0.318 C 
ATOM     16  H   UNL A   1      32.476  27.624  21.131  1.00  0.00     0.166 HD
ATOM     17  O   UNL A   1      33.143  25.501  20.659  1.00  0.00    -0.249 OA
BRANCH  15  18
ATOM     18  N   UNL A   1      33.219  25.041  22.878  1.00  0.00    -0.319 N 
ATOM     19  C   UNL A   1      34.576  25.170  23.438  1.00  0.00     0.150 C 
ATOM     20  C   UNL A   1      32.598  23.748  23.220  1.00  0.00     0.169 C 
ATOM     21  C   UNL A   1      34.574  24.861  24.942  1.00  0.00     0.183 C 
ATOM     22  C   UNL A   1      32.668  23.469  24.741  1.00  0.00     0.240 C 
ATOM     23  O   UNL A   1      34.044  23.550  25.193  1.00  0.00    -0.360 OA
BRANCH  22  24
ATOM     24  C   UNL A   1      32.100  22.145  25.060  1.00  0.00     0.096 C 
ATOM     25  N   UNL A   1      31.652  21.103  25.298  1.00  0.00    -0.195 NA
ENDBRANCH  22  24
ENDBRANCH  15  18
ENDBRANCH   7  14
ENDBRANCH   4   7
ENDBRANCH   2   3
ENDBRANCH   1   2
BRANCH   1  26
ATOM     26  C   UNL A   1      33.352  31.062  27.299  1.00  0.00     0.118 C 
BRANCH  26  27
ATOM     27  N   UNL A   1      32.762  32.396  27.285  1.00  0.00    -0.352 N 
ATOM     28  C   UNL A   1      33.164  33.509  27.981  1.00  0.00     0.251 C 
ATOM     29  H   UNL A   1      31.977  32.512  26.704  1.00  0.00     0.163 HD
ATOM     30  O   UNL A   1      32.529  34.553  27.900  1.00  0.00    -0.269 OA
BRANCH  28  31
ATOM     31  C   UNL A   1      34.318  33.376  28.889  1.00  0.00     0.039 A 
ATOM     32  C   UNL A   1      34.109  32.756  30.120  1.00  0.00     0.014 A 
ATOM     33  C   UNL A   1      35.605  33.691  28.446  1.00  0.00     0.014 A 
ATOM     34  C   UNL A   1      35.210  32.366  30.876  1.00  0.00     0.010 A 
ATOM     35  C   UNL A   1      36.700  33.219  29.161  1.00  0.00     0.010 A 
ATOM     36  C   UNL A   1      36.511  32.537  30.374  1.00  0.00    -0.014 A 
BRANCH  36  37
ATOM     37  C   UNL A   1      37.677  31.973  31.097  1.00  0.00     0.031 A 
ATOM     38  C   UNL A   1      38.487  30.877  30.468  1.00  0.00     0.074 A 
ATOM     39  C   UNL A   1      37.970  32.422  32.336  1.00  0.00     0.049 A 
ATOM     40  N   UNL A   1      39.511  30.227  30.956  1.00  0.00    -0.248 NA
ATOM     41  C   UNL A   1      38.083  30.438  29.122  1.00  0.00     0.031 C 
ATOM     42  C   UNL A   1      37.229  33.463  33.055  1.00  0.00     0.029 A 
ATOM     43  N   UNL A   1      38.964  32.064  33.215  1.00  0.00    -0.354 N 
ATOM     44  C   UNL A   1      39.864  29.296  29.988  1.00  0.00     0.074 A 
ATOM     45  C   UNL A   1      38.918  29.433  28.902  1.00  0.00     0.031 C 
ATOM     46  C   UNL A   1      37.808  33.676  34.247  1.00  0.00     0.029 A 
ATOM     47  C   UNL A   1      38.920  32.746  34.412  1.00  0.00     0.049 A 
ATOM     48  H   UNL A   1      39.643  31.383  33.009  1.00  0.00     0.167 HD
ATOM     49  C   UNL A   1      40.892  28.415  30.004  1.00  0.00     0.034 A 
ATOM     50  C   UNL A   1      39.671  32.616  35.525  1.00  0.00     0.034 A 
ATOM     51  C   UNL A   1      41.829  28.304  31.094  1.00  0.00     0.049 A 
ATOM     52  C   UNL A   1      40.780  31.591  35.528  1.00  0.00     0.074 A 
ATOM     53  C   UNL A   1      42.953  27.501  31.176  1.00  0.00     0.029 A 
ATOM     54  N   UNL A   1      41.742  28.991  32.296  1.00  0.00    -0.354 N 
ATOM     55  N   UNL A   1      41.152  30.777  34.566  1.00  0.00    -0.248 NA
ATOM     56  C   UNL A   1      41.570  31.464  36.760  1.00  0.00     0.031 C 
ATOM     57  C   UNL A   1      43.482  27.623  32.462  1.00  0.00     0.029 A 
ATOM     58  C   UNL A   1      42.754  28.582  33.149  1.00  0.00     0.049 A 
ATOM     59  H   UNL A   1      41.060  29.670  32.510  1.00  0.00     0.167 HD
ATOM     60  C   UNL A   1      42.236  30.063  35.071  1.00  0.00     0.074 A 
ATOM     61  C   UNL A   1      42.473  30.561  36.410  1.00  0.00     0.031 C 
ATOM     62  C   UNL A   1      42.968  29.083  34.485  1.00  0.00     0.034 A 
BRANCH  49  63
ATOM     63  C   UNL A   1      41.036  27.469  28.838  1.00  0.00     0.023 A 
ATOM     64  C   UNL A   1      42.023  27.639  27.854  1.00  0.00     0.031 A 
ATOM     65  C   UNL A   1      40.180  26.358  28.731  1.00  0.00     0.131 A 
ATOM     66  C   UNL A   1      42.103  26.737  26.782  1.00  0.00     0.055 A 
ATOM     67  C   UNL A   1      40.315  25.421  27.705  1.00  0.00     0.041 A 
ATOM     68  F   UNL A   1      39.198  26.163  29.625  1.00  0.00    -0.206 F 
ATOM     69  C   UNL A   1      41.275  25.613  26.718  1.00  0.00     0.022 A 
BRANCH  66  70
ATOM     70  S   UNL A   1      43.224  27.117  25.409  1.00  0.00     0.124 S 
ATOM     71  O   UNL A   1      44.365  27.701  26.112  1.00  0.00    -0.237 OA
ATOM     72  O   UNL A   1      43.446  25.806  24.811  1.00  0.00    -0.237 OA
ATOM     73  O   UNL A   1      42.459  28.055  24.590  1.00  0.00    -0.744 OA
ENDBRANCH  66  70
ENDBRANCH  49  63
BRANCH  50  74
ATOM     74  C   UNL A   1      39.380  33.424  36.749  1.00  0.00     0.023 A 
ATOM     75  C   UNL A   1      40.056  34.627  37.005  1.00  0.00     0.031 A 
ATOM     76  C   UNL A   1      38.485  32.956  37.729  1.00  0.00     0.131 A 
ATOM     77  C   UNL A   1      39.884  35.279  38.237  1.00  0.00     0.055 A 
ATOM     78  C   UNL A   1      38.258  33.650  38.919  1.00  0.00     0.041 A 
ATOM     79  F   UNL A   1      37.813  31.808  37.544  1.00  0.00    -0.206 F 
ATOM     80  C   UNL A   1      38.977  34.808  39.188  1.00  0.00     0.022 A 
BRANCH  77  81
ATOM     81  S   UNL A   1      40.980  36.668  38.643  1.00  0.00     0.124 S 
ATOM     82  O   UNL A   1      40.019  37.729  38.923  1.00  0.00    -0.237 OA
ATOM     83  O   UNL A   1      41.715  36.147  39.790  1.00  0.00    -0.237 OA
ATOM     84  O   UNL A   1      41.769  36.844  37.426  1.00  0.00    -0.744 OA
ENDBRANCH  77  81
ENDBRANCH  50  74
BRANCH  62  85
ATOM     85  C   UNL A   1      44.116  28.507  35.279  1.00  0.00     0.023 A 
ATOM     86  C   UNL A   1      43.928  27.452  36.188  1.00  0.00     0.031 A 
ATOM     87  C   UNL A   1      45.418  29.011  35.109  1.00  0.00     0.131 A 
ATOM     88  C   UNL A   1      45.016  26.968  36.929  1.00  0.00     0.055 A 
ATOM     89  C   UNL A   1      46.508  28.477  35.795  1.00  0.00     0.041 A 
ATOM     90  F   UNL A   1      45.654  30.024  34.259  1.00  0.00    -0.206 F 
ATOM     91  C   UNL A   1      46.309  27.456  36.720  1.00  0.00     0.022 A 
BRANCH  88  92
ATOM     92  S   UNL A   1      44.705  25.754  38.238  1.00  0.00     0.124 S 
ATOM     93  O   UNL A   1      46.058  25.428  38.677  1.00  0.00    -0.237 OA
ATOM     94  O   UNL A   1      43.894  26.514  39.185  1.00  0.00    -0.237 OA
ATOM     95  O   UNL A   1      44.000  24.676  37.547  1.00  0.00    -0.744 OA
ENDBRANCH  88  92
ENDBRANCH  62  85
ENDBRANCH  36  37
ENDBRANCH  28  31
ENDBRANCH  26  27
ENDBRANCH   1  26
TORSDOF 16
ENDMDL
MODEL 2
REMARK VINA RESULT:     -12.2      5.372      8.579
REMARK SMILES C[C@H]1CCC[C@@](NC(=O)N2CCO[C@H](C#N)C2)(C(=O)NCCCNC(=O)c2ccc(-c3c4nc(c(-c5cc(S(=O)(=O)[O-])ccc5F)c5ccc([nH]5)c(-c5cc(S(=O)(=O)[O-])ccc5F)c5nc(c(-c6cc(S(=O)(=O)[O-])ccc6F)c6ccc3[nH]6)C=C5)C=C4)cc2)C1
REMARK SMILES IDX 22 1 21 2 20 3 18 4 19 5 6 7 1 8 2 9 3 10 90 11 4 12 5 13
REMARK SMILES IDX 7 14 8 15 9 17 10 18 11 19 17 20 12 21 14 22 13 23 15 24
REMARK SMILES IDX 16 25 23 26 24 27 25 28 26 30 27 31 28 32 89 33 29 34 88 35
REMARK SMILES IDX 30 36 31 37 32 38 82 39 33 40 87 41 81 42 83 43 34 44 86 45
REMARK SMILES IDX 80 46 79 47 35 49 67 50 47 51 66 52 48 53 51 54 65 55 84 56
REMARK SMILES IDX 49 57 50 58 64 60 85 61 52 62 36 63 37 64 45 65 38 66 44 67
REMARK SMILES IDX 46 68 43 69 39 70 40 71 41 72 42 73 68 74 69 75 77 76 70 77
REMARK SMILES IDX 76 78 78 79 75 80 71 81 72 82 73 83 74 84 53 85 54 86 62 87
REMARK SMILES IDX 55 88 61 89 63 90 60 91 56 92 57 93 58 94 59 95
REMARK H PARENT 20 6 7 16 24 29 83 48 51 59
REMARK Flexibility Score: inf
ROOT
ATOM      1  C   UNL A   1      36.893  21.668  24.247  1.00  0.00     0.042 C 
ENDROOT
BRANCH   1   2
ATOM      2  C   UNL A   1      35.738  22.643  24.287  1.00  0.00     0.117 C 
BRANCH   2   3
ATOM      3  N   UNL A   1      35.413  23.013  25.661  1.00  0.00    -0.354 N 
ATOM      4  C   UNL A   1      34.330  22.685  26.429  1.00  0.00     0.245 C 
ATOM      5  O   UNL A   1      34.343  23.048  27.608  1.00  0.00    -0.272 OA
ATOM      6  H   UNL A   1      36.077  23.590  26.104  1.00  0.00     0.163 HD
BRANCH   4   7
ATOM      7  C   UNL A   1      33.109  21.975  25.799  1.00  0.00     0.121 C 
ATOM      8  C   UNL A   1      32.144  21.400  22.015  1.00  0.00     0.008 C 
ATOM      9  C   UNL A   1      32.127  21.162  23.524  1.00  0.00    -0.011 C 
ATOM     10  C   UNL A   1      32.633  19.744  23.801  1.00  0.00     0.003 C 
ATOM     11  C   UNL A   1      32.957  22.236  24.274  1.00  0.00     0.042 C 
ATOM     12  C   UNL A   1      32.614  19.461  25.286  1.00  0.00     0.003 C 
ATOM     13  C   UNL A   1      33.484  20.468  26.006  1.00  0.00     0.039 C 
BRANCH   7  14
ATOM     14  N   UNL A   1      31.856  22.361  26.498  1.00  0.00    -0.323 N 
ATOM     15  C   UNL A   1      31.041  23.447  26.523  1.00  0.00     0.318 C 
ATOM     16  H   UNL A   1      31.535  21.647  27.095  1.00  0.00     0.166 HD
ATOM     17  O   UNL A   1      30.053  23.364  27.259  1.00  0.00    -0.249 OA
BRANCH  15  18
ATOM     18  N   UNL A   1      31.407  24.644  25.966  1.00  0.00    -0.319 N 
ATOM     19  C   UNL A   1      32.095  25.620  26.830  1.00  0.00     0.150 C 
ATOM     20  C   UNL A   1      30.788  25.283  24.789  1.00  0.00     0.169 C 
ATOM     21  C   UNL A   1      33.067  26.480  26.008  1.00  0.00     0.183 C 
ATOM     22  C   UNL A   1      31.802  26.174  24.030  1.00  0.00     0.240 C 
ATOM     23  O   UNL A   1      32.380  27.146  24.938  1.00  0.00    -0.360 OA
BRANCH  22  24
ATOM     24  C   UNL A   1      31.154  26.856  22.893  1.00  0.00     0.096 C 
ATOM     25  N   UNL A   1      30.657  27.396  21.996  1.00  0.00    -0.195 NA
ENDBRANCH  22  24
ENDBRANCH  15  18
ENDBRANCH   7  14
ENDBRANCH   4   7
ENDBRANCH   2   3
ENDBRANCH   1   2
BRANCH   1  26
ATOM     26  C   UNL A   1      37.298  21.230  25.644  1.00  0.00     0.118 C 
BRANCH  26  27
ATOM     27  N   UNL A   1      38.497  20.400  25.649  1.00  0.00    -0.352 N 
ATOM     28  C   UNL A   1      39.743  20.713  26.136  1.00  0.00     0.251 C 
ATOM     29  H   UNL A   1      38.401  19.504  25.256  1.00  0.00     0.163 HD
ATOM     30  O   UNL A   1      40.669  19.920  26.023  1.00  0.00    -0.269 OA
BRANCH  28  31
ATOM     31  C   UNL A   1      39.943  22.056  26.708  1.00  0.00     0.039 A 
ATOM     32  C   UNL A   1      40.925  22.207  27.685  1.00  0.00     0.014 A 
ATOM     33  C   UNL A   1      39.297  23.164  26.153  1.00  0.00     0.014 A 
ATOM     34  C   UNL A   1      41.330  23.489  28.045  1.00  0.00     0.010 A 
ATOM     35  C   UNL A   1      39.769  24.438  26.448  1.00  0.00     0.010 A 
ATOM     36  C   UNL A   1      40.801  24.610  27.384  1.00  0.00    -0.014 A 
BRANCH  36  37
ATOM     37  C   UNL A   1      41.349  25.965  27.643  1.00  0.00     0.031 A 
ATOM     38  C   UNL A   1      42.709  26.332  27.125  1.00  0.00     0.074 A 
ATOM     39  C   UNL A   1      40.634  26.839  28.383  1.00  0.00     0.049 A 
ATOM     40  N   UNL A   1      43.376  27.445  27.283  1.00  0.00    -0.248 NA
ATOM     41  C   UNL A   1      43.423  25.310  26.343  1.00  0.00     0.031 C 
ATOM     42  C   UNL A   1      39.314  26.574  28.963  1.00  0.00     0.029 A 
ATOM     43  N   UNL A   1      40.912  28.125  28.780  1.00  0.00    -0.354 N 
ATOM     44  C   UNL A   1      44.590  27.253  26.636  1.00  0.00     0.074 A 
ATOM     45  C   UNL A   1      44.587  25.901  26.121  1.00  0.00     0.031 C 
ATOM     46  C   UNL A   1      38.888  27.668  29.615  1.00  0.00     0.029 A 
ATOM     47  C   UNL A   1      39.927  28.692  29.559  1.00  0.00     0.049 A 
ATOM     48  H   UNL A   1      41.738  28.597  28.531  1.00  0.00     0.167 HD
ATOM     49  C   UNL A   1      45.608  28.132  26.480  1.00  0.00     0.034 A 
ATOM     50  C   UNL A   1      39.879  29.887  30.183  1.00  0.00     0.034 A 
ATOM     51  C   UNL A   1      45.583  29.478  26.993  1.00  0.00     0.049 A 
ATOM     52  C   UNL A   1      41.051  30.825  30.028  1.00  0.00     0.074 A 
ATOM     53  C   UNL A   1      46.528  30.476  26.822  1.00  0.00     0.029 A 
ATOM     54  N   UNL A   1      44.583  30.010  27.795  1.00  0.00    -0.354 N 
ATOM     55  N   UNL A   1      42.156  30.657  29.337  1.00  0.00    -0.248 NA
ATOM     56  C   UNL A   1      40.974  32.113  30.731  1.00  0.00     0.031 C 
ATOM     57  C   UNL A   1      46.152  31.569  27.605  1.00  0.00     0.029 A 
ATOM     58  C   UNL A   1      44.920  31.298  28.179  1.00  0.00     0.049 A 
ATOM     59  H   UNL A   1      43.756  29.540  28.053  1.00  0.00     0.167 HD
ATOM     60  C   UNL A   1      42.890  31.829  29.504  1.00  0.00     0.074 A 
ATOM     61  C   UNL A   1      42.092  32.704  30.336  1.00  0.00     0.031 C 
ATOM     62  C   UNL A   1      44.115  32.152  29.018  1.00  0.00     0.034 A 
BRANCH  49  63
ATOM     63  C   UNL A   1      46.852  27.661  25.769  1.00  0.00     0.023 A 
ATOM     64  C   UNL A   1      47.092  27.942  24.414  1.00  0.00     0.031 A 
ATOM     65  C   UNL A   1      47.829  26.937  26.477  1.00  0.00     0.131 A 
ATOM     66  C   UNL A   1      48.259  27.466  23.799  1.00  0.00     0.055 A 
ATOM     67  C   UNL A   1      49.024  26.534  25.879  1.00  0.00     0.041 A 
ATOM     68  F   UNL A   1      47.639  26.612  27.765  1.00  0.00    -0.206 F 
ATOM     69  C   UNL A   1      49.240  26.791  24.530  1.00  0.00     0.022 A 
BRANCH  66  70
ATOM     70  S   UNL A   1      48.426  27.638  22.001  1.00  0.00     0.124 S 
ATOM     71  O   UNL A   1      48.647  26.252  21.593  1.00  0.00    -0.237 OA
ATOM     72  O   UNL A   1      47.146  28.220  21.619  1.00  0.00    -0.237 OA
ATOM     73  O   UNL A   1      49.583  28.517  21.846  1.00  0.00    -0.744 OA
ENDBRANCH  66  70
ENDBRANCH  49  63
BRANCH  50  74
ATOM     74  C   UNL A   1      38.720  30.255  31.054  1.00  0.00     0.023 A 
ATOM     75  C   UNL A   1      37.617  30.954  30.543  1.00  0.00     0.031 A 
ATOM     76  C   UNL A   1      38.743  29.991  32.437  1.00  0.00     0.131 A 
ATOM     77  C   UNL A   1      36.623  31.430  31.413  1.00  0.00     0.055 A 
ATOM     78  C   UNL A   1      37.713  30.398  33.287  1.00  0.00     0.041 A 
ATOM     79  F   UNL A   1      39.775  29.331  32.987  1.00  0.00    -0.206 F 
ATOM     80  C   UNL A   1      36.654  31.142  32.779  1.00  0.00     0.022 A 
BRANCH  77  81
ATOM     81  S   UNL A   1      35.368  32.566  30.758  1.00  0.00     0.124 S 
ATOM     82  O   UNL A   1      36.154  33.773  30.528  1.00  0.00    -0.237 OA
ATOM     83  O   UNL A   1      34.914  31.858  29.566  1.00  0.00    -0.237 OA
ATOM     84  O   UNL A   1      34.391  32.653  31.841  1.00  0.00    -0.744 OA
ENDBRANCH  77  81
ENDBRANCH  50  74
BRANCH  62  85
ATOM     85  C   UNL A   1      44.650  33.525  29.348  1.00  0.00     0.023 A 
ATOM     86  C   UNL A   1      44.492  34.609  28.469  1.00  0.00     0.031 A 
ATOM     87  C   UNL A   1      45.314  33.752  30.568  1.00  0.00     0.131 A 
ATOM     88  C   UNL A   1      45.033  35.860  28.800  1.00  0.00     0.055 A 
ATOM     89  C   UNL A   1      45.785  35.015  30.923  1.00  0.00     0.041 A 
ATOM     90  F   UNL A   1      45.499  32.750  31.443  1.00  0.00    -0.206 F 
ATOM     91  C   UNL A   1      45.657  36.076  30.032  1.00  0.00     0.022 A 
BRANCH  88  92
ATOM     92  S   UNL A   1      44.994  37.180  27.558  1.00  0.00     0.124 S 
ATOM     93  O   UNL A   1      45.615  38.289  28.275  1.00  0.00    -0.237 OA
ATOM     94  O   UNL A   1      45.779  36.608  26.467  1.00  0.00    -0.237 OA
ATOM     95  O   UNL A   1      43.570  37.344  27.276  1.00  0.00    -0.744 OA
ENDBRANCH  88  92
ENDBRANCH  62  85
ENDBRANCH  36  37
ENDBRANCH  28  31
ENDBRANCH  26  27
ENDBRANCH   1  26
TORSDOF 16
ENDMDL
MODEL 3
REMARK VINA RESULT:     -12.2      5.961     10.855
REMARK SMILES C[C@H]1CCC[C@@](NC(=O)N2CCO[C@H](C#N)C2)(C(=O)NCCCNC(=O)c2ccc(-c3c4nc(c(-c5cc(S(=O)(=O)[O-])ccc5F)c5ccc([nH]5)c(-c5cc(S(=O)(=O)[O-])ccc5F)c5nc(c(-c6cc(S(=O)(=O)[O-])ccc6F)c6ccc3[nH]6)C=C5)C=C4)cc2)C1
REMARK SMILES IDX 22 1 21 2 20 3 18 4 19 5 6 7 1 8 2 9 3 10 90 11 4 12 5 13
REMARK SMILES IDX 7 14 8 15 9 17 10 18 11 19 17 20 12 21 14 22 13 23 15 24
REMARK SMILES IDX 16 25 23 26 24 27 25 28 26 30 27 31 28 32 89 33 29 34 88 35
REMARK SMILES IDX 30 36 31 37 32 38 82 39 33 40 87 41 81 42 83 43 34 44 86 45
REMARK SMILES IDX 80 46 79 47 35 49 67 50 47 51 66 52 48 53 51 54 65 55 84 56
REMARK SMILES IDX 49 57 50 58 64 60 85 61 52 62 36 63 37 64 45 65 38 66 44 67
REMARK SMILES IDX 46 68 43 69 39 70 40 71 41 72 42 73 68 74 69 75 77 76 70 77
REMARK SMILES IDX 76 78 78 79 75 80 71 81 72 82 73 83 74 84 53 85 54 86 62 87
REMARK SMILES IDX 55 88 61 89 63 90 60 91 56 92 57 93 58 94 59 95
REMARK H PARENT 20 6 7 16 24 29 83 48 51 59
REMARK Flexibility Score: inf
ROOT
ATOM      1  C   UNL A   1      37.328  21.804  24.750  1.00  0.00     0.042 C 
ENDROOT
BRANCH   1   2
ATOM      2  C   UNL A   1      36.095  21.142  25.321  1.00  0.00     0.117 C 
BRANCH   2   3
ATOM      3  N   UNL A   1      35.638  21.833  26.522  1.00  0.00    -0.354 N 
ATOM      4  C   UNL A   1      34.369  22.131  26.938  1.00  0.00     0.245 C 
ATOM      5  O   UNL A   1      34.247  22.638  28.056  1.00  0.00    -0.272 OA
ATOM      6  H   UNL A   1      36.354  22.131  27.128  1.00  0.00     0.163 HD
BRANCH   4   7
ATOM      7  C   UNL A   1      33.165  21.923  25.991  1.00  0.00     0.121 C 
ATOM      8  C   UNL A   1      32.789  22.624  22.125  1.00  0.00     0.008 C 
ATOM      9  C   UNL A   1      32.461  22.003  23.481  1.00  0.00    -0.011 C 
ATOM     10  C   UNL A   1      32.628  20.484  23.377  1.00  0.00     0.003 C 
ATOM     11  C   UNL A   1      33.337  22.610  24.608  1.00  0.00     0.042 C 
ATOM     12  C   UNL A   1      32.293  19.828  24.696  1.00  0.00     0.003 C 
ATOM     13  C   UNL A   1      33.200  20.371  25.778  1.00  0.00     0.039 C 
BRANCH   7  14
ATOM     14  N   UNL A   1      31.907  22.392  26.627  1.00  0.00    -0.323 N 
ATOM     15  C   UNL A   1      31.128  23.503  26.561  1.00  0.00     0.318 C 
ATOM     16  H   UNL A   1      31.545  21.727  27.258  1.00  0.00     0.166 HD
ATOM     17  O   UNL A   1      30.118  23.498  27.270  1.00  0.00    -0.249 OA
BRANCH  15  18
ATOM     18  N   UNL A   1      31.549  24.649  25.941  1.00  0.00    -0.319 N 
ATOM     19  C   UNL A   1      32.454  25.541  26.690  1.00  0.00     0.150 C 
ATOM     20  C   UNL A   1      30.854  25.356  24.848  1.00  0.00     0.169 C 
ATOM     21  C   UNL A   1      33.397  26.283  25.734  1.00  0.00     0.183 C 
ATOM     22  C   UNL A   1      31.851  26.125  23.947  1.00  0.00     0.240 C 
ATOM     23  O   UNL A   1      32.653  27.024  24.755  1.00  0.00    -0.360 OA
BRANCH  22  24
ATOM     24  C   UNL A   1      31.138  26.877  22.897  1.00  0.00     0.096 C 
ATOM     25  N   UNL A   1      30.584  27.479  22.076  1.00  0.00    -0.195 NA
ENDBRANCH  22  24
ENDBRANCH  15  18
ENDBRANCH   7  14
ENDBRANCH   4   7
ENDBRANCH   2   3
ENDBRANCH   1   2
BRANCH   1  26
ATOM     26  C   UNL A   1      38.481  21.774  25.737  1.00  0.00     0.118 C 
BRANCH  26  27
ATOM     27  N   UNL A   1      39.155  20.481  25.779  1.00  0.00    -0.352 N 
ATOM     28  C   UNL A   1      40.447  20.210  26.160  1.00  0.00     0.251 C 
ATOM     29  H   UNL A   1      38.618  19.707  25.498  1.00  0.00     0.163 HD
ATOM     30  O   UNL A   1      40.886  19.069  26.093  1.00  0.00    -0.269 OA
BRANCH  28  31
ATOM     31  C   UNL A   1      41.300  21.343  26.559  1.00  0.00     0.039 A 
ATOM     32  C   UNL A   1      41.881  22.108  25.549  1.00  0.00     0.014 A 
ATOM     33  C   UNL A   1      41.366  21.741  27.898  1.00  0.00     0.014 A 
ATOM     34  C   UNL A   1      42.457  23.332  25.874  1.00  0.00     0.010 A 
ATOM     35  C   UNL A   1      41.860  23.005  28.202  1.00  0.00     0.010 A 
ATOM     36  C   UNL A   1      42.394  23.818  27.190  1.00  0.00    -0.014 A 
BRANCH  36  37
ATOM     37  C   UNL A   1      42.854  25.192  27.509  1.00  0.00     0.031 A 
ATOM     38  C   UNL A   1      41.904  26.172  28.134  1.00  0.00     0.074 A 
ATOM     39  C   UNL A   1      44.113  25.561  27.191  1.00  0.00     0.049 A 
ATOM     40  N   UNL A   1      42.102  27.426  28.445  1.00  0.00    -0.248 NA
ATOM     41  C   UNL A   1      40.545  25.687  28.430  1.00  0.00     0.031 C 
ATOM     42  C   UNL A   1      45.110  24.697  26.552  1.00  0.00     0.029 A 
ATOM     43  N   UNL A   1      44.774  26.754  27.355  1.00  0.00    -0.354 N 
ATOM     44  C   UNL A   1      40.895  27.883  28.959  1.00  0.00     0.074 A 
ATOM     45  C   UNL A   1      39.956  26.787  28.876  1.00  0.00     0.031 C 
ATOM     46  C   UNL A   1      46.258  25.378  26.404  1.00  0.00     0.029 A 
ATOM     47  C   UNL A   1      46.065  26.746  26.875  1.00  0.00     0.049 A 
ATOM     48  H   UNL A   1      44.362  27.542  27.776  1.00  0.00     0.167 HD
ATOM     49  C   UNL A   1      40.606  29.106  29.462  1.00  0.00     0.034 A 
ATOM     50  C   UNL A   1      46.979  27.735  26.795  1.00  0.00     0.034 A 
ATOM     51  C   UNL A   1      41.563  30.181  29.544  1.00  0.00     0.049 A 
ATOM     52  C   UNL A   1      46.608  29.100  27.322  1.00  0.00     0.074 A 
ATOM     53  C   UNL A   1      41.395  31.433  30.110  1.00  0.00     0.029 A 
ATOM     54  N   UNL A   1      42.851  30.146  29.029  1.00  0.00    -0.354 N 
ATOM     55  N   UNL A   1      45.486  29.489  27.884  1.00  0.00    -0.248 NA
ATOM     56  C   UNL A   1      47.620  30.159  27.207  1.00  0.00     0.031 C 
ATOM     57  C   UNL A   1      42.539  32.187  29.843  1.00  0.00     0.029 A 
ATOM     58  C   UNL A   1      43.464  31.375  29.206  1.00  0.00     0.049 A 
ATOM     59  H   UNL A   1      43.266  29.362  28.601  1.00  0.00     0.167 HD
ATOM     60  C   UNL A   1      45.672  30.831  28.212  1.00  0.00     0.074 A 
ATOM     61  C   UNL A   1      47.020  31.174  27.811  1.00  0.00     0.031 C 
ATOM     62  C   UNL A   1      44.807  31.702  28.789  1.00  0.00     0.034 A 
BRANCH  49  63
ATOM     63  C   UNL A   1      39.193  29.371  29.919  1.00  0.00     0.023 A 
ATOM     64  C   UNL A   1      38.271  30.079  29.130  1.00  0.00     0.031 A 
ATOM     65  C   UNL A   1      38.757  28.877  31.162  1.00  0.00     0.131 A 
ATOM     66  C   UNL A   1      36.974  30.310  29.611  1.00  0.00     0.055 A 
ATOM     67  C   UNL A   1      37.442  29.042  31.600  1.00  0.00     0.041 A 
ATOM     68  F   UNL A   1      39.603  28.221  31.971  1.00  0.00    -0.206 F 
ATOM     69  C   UNL A   1      36.545  29.770  30.827  1.00  0.00     0.022 A 
BRANCH  66  70
ATOM     70  S   UNL A   1      35.888  31.426  28.682  1.00  0.00     0.124 S 
ATOM     71  O   UNL A   1      36.823  32.473  28.273  1.00  0.00    -0.237 OA
ATOM     72  O   UNL A   1      35.389  30.566  27.616  1.00  0.00    -0.237 OA
ATOM     73  O   UNL A   1      34.893  31.839  29.669  1.00  0.00    -0.744 OA
ENDBRANCH  66  70
ENDBRANCH  49  63
BRANCH  50  74
ATOM     74  C   UNL A   1      48.308  27.505  26.150  1.00  0.00     0.023 A 
ATOM     75  C   UNL A   1      48.494  27.700  24.773  1.00  0.00     0.031 A 
ATOM     76  C   UNL A   1      49.393  26.996  26.889  1.00  0.00     0.131 A 
ATOM     77  C   UNL A   1      49.702  27.320  24.167  1.00  0.00     0.055 A 
ATOM     78  C   UNL A   1      50.620  26.694  26.294  1.00  0.00     0.041 A 
ATOM     79  F   UNL A   1      49.276  26.781  28.210  1.00  0.00    -0.206 F 
ATOM     80  C   UNL A   1      50.773  26.835  24.921  1.00  0.00     0.022 A 
BRANCH  77  81
ATOM     81  S   UNL A   1      49.801  27.324  22.354  1.00  0.00     0.124 S 
ATOM     82  O   UNL A   1      48.759  26.367  22.001  1.00  0.00    -0.237 OA
ATOM     83  O   UNL A   1      49.524  28.721  22.040  1.00  0.00    -0.237 OA
ATOM     84  O   UNL A   1      51.170  26.886  22.089  1.00  0.00    -0.744 OA
ENDBRANCH  77  81
ENDBRANCH  50  74
BRANCH  62  85
ATOM     85  C   UNL A   1      45.305  33.102  29.051  1.00  0.00     0.023 A 
ATOM     86  C   UNL A   1      45.182  34.121  28.091  1.00  0.00     0.031 A 
ATOM     87  C   UNL A   1      45.898  33.425  30.286  1.00  0.00     0.131 A 
ATOM     88  C   UNL A   1      45.688  35.400  28.362  1.00  0.00     0.055 A 
ATOM     89  C   UNL A   1      46.333  34.717  30.577  1.00  0.00     0.041 A 
ATOM     90  F   UNL A   1      46.047  32.489  31.237  1.00  0.00    -0.206 F 
ATOM     91  C   UNL A   1      46.240  35.711  29.608  1.00  0.00     0.022 A 
BRANCH  88  92
ATOM     92  S   UNL A   1      45.701  36.630  27.030  1.00  0.00     0.124 S 
ATOM     93  O   UNL A   1      46.335  35.892  25.943  1.00  0.00    -0.237 OA
ATOM     94  O   UNL A   1      44.281  36.922  26.859  1.00  0.00    -0.237 OA
ATOM     95  O   UNL A   1      46.495  37.725  27.583  1.00  0.00    -0.744 OA
ENDBRANCH  88  92
ENDBRANCH  62  85
ENDBRANCH  36  37
ENDBRANCH  28  31
ENDBRANCH  26  27
ENDBRANCH   1  26
TORSDOF 16
ENDMDL
