MODEL 1
REMARK VINA RESULT:     -13.6      0.000      0.000
REMARK SMILES O=C1O[C@@H](c2ccc(O)c(O)c2)[C@H](C(=O)NCCCNC(=O)c2ccc(-c3c4nc(c(-c5cc(S(=O)(=O)[O-])ccc5F)c5ccc([nH]5)c(-c5cc(S(=O)(=O)[O-])ccc5F)c5nc(c(-c6cc(S(=O)(=O)[O-])ccc6F)c6ccc3[nH]6)C=C5)C=C4)cc2)/C1=C\c1ccc(O)c(O)c1
REMARK SMILES IDX 18 1 17 2 16 3 14 4 15 5 13 7 1 8 2 9 3 10 86 11 4 12 87 13
REMARK SMILES IDX 5 14 6 15 12 16 7 17 10 18 8 19 11 20 9 22 88 24 89 25 95 26
REMARK SMILES IDX 90 27 93 28 91 29 94 30 92 32 19 34 20 35 21 36 22 38 23 39
REMARK SMILES IDX 24 40 85 41 25 42 84 43 26 44 27 45 28 46 78 47 29 48 83 49
REMARK SMILES IDX 77 50 79 51 30 52 82 53 76 54 75 55 31 57 63 58 43 59 62 60
REMARK SMILES IDX 44 61 47 62 61 63 80 64 45 65 46 66 60 68 81 69 48 70 32 71
REMARK SMILES IDX 33 72 41 73 34 74 40 75 42 76 39 77 35 78 36 79 37 80 38 81
REMARK SMILES IDX 64 82 65 83 73 84 66 85 72 86 74 87 71 88 67 89 68 90 69 91
REMARK SMILES IDX 70 92 49 93 50 94 58 95 51 96 57 97 59 98 56 99 52 100
REMARK SMILES IDX 53 101 54 102 55 103
REMARK H PARENT 16 6 11 21 9 23 94 31 92 33 20 37 79 56 47 67
REMARK Flexibility Score: inf
ROOT
ATOM      1  C   UNL A   1      31.737  31.304  26.809  1.00  0.00     0.042 C 
ENDROOT
BRANCH   1   2
ATOM      2  C   UNL A   1      31.776  29.830  27.168  1.00  0.00     0.117 C 
BRANCH   2   3
ATOM      3  N   UNL A   1      33.033  29.176  26.847  1.00  0.00    -0.355 N 
ATOM      4  C   UNL A   1      33.422  28.428  25.774  1.00  0.00     0.231 C 
ATOM      5  O   UNL A   1      34.623  28.151  25.710  1.00  0.00    -0.274 OA
ATOM      6  H   UNL A   1      33.732  29.294  27.530  1.00  0.00     0.163 HD
BRANCH   4   7
ATOM      7  C   UNL A   1      32.399  27.875  24.774  1.00  0.00     0.161 C 
ATOM      8  O   UNL A   1      34.010  27.413  21.613  1.00  0.00    -0.247 OA
ATOM      9  C   UNL A   1      33.308  27.743  22.553  1.00  0.00     0.335 C 
ATOM     10  O   UNL A   1      32.598  28.892  22.629  1.00  0.00    -0.453 OA
ATOM     11  C   UNL A   1      33.052  26.971  23.781  1.00  0.00     0.054 C 
ATOM     12  C   UNL A   1      31.826  28.939  23.842  1.00  0.00     0.224 C 
ATOM     13  C   UNL A   1      33.378  25.670  23.819  1.00  0.00     0.020 C 
BRANCH  12  14
ATOM     14  C   UNL A   1      30.325  28.793  23.571  1.00  0.00    -0.002 A 
ATOM     15  C   UNL A   1      29.684  27.535  23.657  1.00  0.00     0.012 A 
ATOM     16  C   UNL A   1      29.527  29.919  23.314  1.00  0.00     0.057 A 
ATOM     17  C   UNL A   1      28.301  27.400  23.502  1.00  0.00     0.050 A 
ATOM     18  C   UNL A   1      28.154  29.773  23.145  1.00  0.00     0.157 A 
ATOM     19  C   UNL A   1      27.542  28.528  23.245  1.00  0.00     0.157 A 
BRANCH  18  20
ATOM     20  O   UNL A   1      27.395  30.880  22.888  1.00  0.00    -0.504 OA
ATOM     21  H   UNL A   1      26.594  31.016  23.355  1.00  0.00     0.293 HD
ENDBRANCH  18  20
BRANCH  19  22
ATOM     22  O   UNL A   1      26.185  28.466  23.090  1.00  0.00    -0.504 OA
ATOM     23  H   UNL A   1      25.647  29.175  23.380  1.00  0.00     0.293 HD
ENDBRANCH  19  22
ENDBRANCH  12  14
BRANCH  13  24
ATOM     24  C   UNL A   1      33.157  24.786  24.961  1.00  0.00    -0.021 A 
ATOM     25  C   UNL A   1      34.223  24.103  25.568  1.00  0.00     0.012 A 
ATOM     26  C   UNL A   1      31.866  24.664  25.486  1.00  0.00     0.058 A 
ATOM     27  C   UNL A   1      33.999  23.275  26.672  1.00  0.00     0.051 A 
ATOM     28  C   UNL A   1      31.655  23.848  26.588  1.00  0.00     0.157 A 
ATOM     29  C   UNL A   1      32.708  23.152  27.174  1.00  0.00     0.157 A 
BRANCH  28  30
ATOM     30  O   UNL A   1      30.394  23.733  27.101  1.00  0.00    -0.504 OA
ATOM     31  H   UNL A   1      29.712  24.301  26.800  1.00  0.00     0.293 HD
ENDBRANCH  28  30
BRANCH  29  32
ATOM     32  O   UNL A   1      32.425  22.359  28.250  1.00  0.00    -0.504 OA
ATOM     33  H   UNL A   1      32.239  21.448  28.126  1.00  0.00     0.293 HD
ENDBRANCH  29  32
ENDBRANCH  13  24
ENDBRANCH   4   7
ENDBRANCH   2   3
ENDBRANCH   1   2
BRANCH   1  34
ATOM     34  C   UNL A   1      33.006  32.059  27.167  1.00  0.00     0.118 C 
BRANCH  34  35
ATOM     35  N   UNL A   1      32.755  33.460  27.478  1.00  0.00    -0.352 N 
ATOM     36  C   UNL A   1      33.279  34.266  28.461  1.00  0.00     0.251 C 
ATOM     37  H   UNL A   1      32.102  33.902  26.889  1.00  0.00     0.163 HD
ATOM     38  O   UNL A   1      32.757  35.356  28.679  1.00  0.00    -0.269 OA
BRANCH  36  39
ATOM     39  C   UNL A   1      34.437  33.817  29.262  1.00  0.00     0.039 A 
ATOM     40  C   UNL A   1      34.223  32.950  30.337  1.00  0.00     0.014 A 
ATOM     41  C   UNL A   1      35.730  34.252  28.967  1.00  0.00     0.014 A 
ATOM     42  C   UNL A   1      35.314  32.458  31.057  1.00  0.00     0.010 A 
ATOM     43  C   UNL A   1      36.821  33.682  29.616  1.00  0.00     0.010 A 
ATOM     44  C   UNL A   1      36.625  32.779  30.671  1.00  0.00    -0.014 A 
BRANCH  44  45
ATOM     45  C   UNL A   1      37.803  32.178  31.351  1.00  0.00     0.031 A 
ATOM     46  C   UNL A   1      38.574  31.069  30.684  1.00  0.00     0.074 A 
ATOM     47  C   UNL A   1      38.130  32.583  32.595  1.00  0.00     0.049 A 
ATOM     48  N   UNL A   1      39.574  30.365  31.149  1.00  0.00    -0.248 NA
ATOM     49  C   UNL A   1      38.146  30.678  29.332  1.00  0.00     0.031 C 
ATOM     50  C   UNL A   1      37.426  33.617  33.359  1.00  0.00     0.029 A 
ATOM     51  N   UNL A   1      39.127  32.171  33.444  1.00  0.00    -0.354 N 
ATOM     52  C   UNL A   1      39.881  29.439  30.158  1.00  0.00     0.074 A 
ATOM     53  C   UNL A   1      38.926  29.636  29.089  1.00  0.00     0.031 C 
ATOM     54  C   UNL A   1      38.028  33.773  34.548  1.00  0.00     0.029 A 
ATOM     55  C   UNL A   1      39.121  32.814  34.662  1.00  0.00     0.049 A 
ATOM     56  H   UNL A   1      39.786  31.479  33.205  1.00  0.00     0.167 HD
ATOM     57  C   UNL A   1      40.879  28.522  30.136  1.00  0.00     0.034 A 
ATOM     58  C   UNL A   1      39.891  32.637  35.755  1.00  0.00     0.034 A 
ATOM     59  C   UNL A   1      41.835  28.357  31.203  1.00  0.00     0.049 A 
ATOM     60  C   UNL A   1      40.984  31.597  35.708  1.00  0.00     0.074 A 
ATOM     61  C   UNL A   1      42.934  27.517  31.247  1.00  0.00     0.029 A 
ATOM     62  N   UNL A   1      41.800  29.029  32.417  1.00  0.00    -0.354 N 
ATOM     63  N   UNL A   1      41.305  30.781  34.730  1.00  0.00    -0.248 NA
ATOM     64  C   UNL A   1      41.823  31.460  36.906  1.00  0.00     0.031 C 
ATOM     65  C   UNL A   1      43.508  27.613  32.518  1.00  0.00     0.029 A 
ATOM     66  C   UNL A   1      42.830  28.587  33.234  1.00  0.00     0.049 A 
ATOM     67  H   UNL A   1      41.143  29.720  32.662  1.00  0.00     0.167 HD
ATOM     68  C   UNL A   1      42.405  30.059  35.187  1.00  0.00     0.074 A 
ATOM     69  C   UNL A   1      42.701  30.550  36.515  1.00  0.00     0.031 C 
ATOM     70  C   UNL A   1      43.108  29.079  34.563  1.00  0.00     0.034 A 
BRANCH  57  71
ATOM     71  C   UNL A   1      40.970  27.603  28.941  1.00  0.00     0.023 A 
ATOM     72  C   UNL A   1      41.968  27.749  27.961  1.00  0.00     0.031 A 
ATOM     73  C   UNL A   1      40.048  26.552  28.788  1.00  0.00     0.131 A 
ATOM     74  C   UNL A   1      41.986  26.896  26.848  1.00  0.00     0.055 A 
ATOM     75  C   UNL A   1      40.119  25.657  27.720  1.00  0.00     0.041 A 
ATOM     76  F   UNL A   1      39.057  26.379  29.677  1.00  0.00    -0.206 F 
ATOM     77  C   UNL A   1      41.087  25.832  26.735  1.00  0.00     0.022 A 
BRANCH  74  78
ATOM     78  S   UNL A   1      43.122  27.270  25.484  1.00  0.00     0.124 S 
ATOM     79  O   UNL A   1      44.200  27.968  26.182  1.00  0.00    -0.237 OA
ATOM     80  O   UNL A   1      43.447  25.944  24.972  1.00  0.00    -0.237 OA
ATOM     81  O   UNL A   1      42.323  28.106  24.592  1.00  0.00    -0.744 OA
ENDBRANCH  74  78
ENDBRANCH  57  71
BRANCH  58  82
ATOM     82  C   UNL A   1      39.643  33.429  36.997  1.00  0.00     0.023 A 
ATOM     83  C   UNL A   1      38.941  32.880  38.082  1.00  0.00     0.031 A 
ATOM     84  C   UNL A   1      40.048  34.773  37.090  1.00  0.00     0.131 A 
ATOM     85  C   UNL A   1      38.611  33.687  39.182  1.00  0.00     0.055 A 
ATOM     86  C   UNL A   1      39.776  35.552  38.216  1.00  0.00     0.041 A 
ATOM     87  F   UNL A   1      40.724  35.351  36.084  1.00  0.00    -0.206 F 
ATOM     88  C   UNL A   1      39.038  35.014  39.264  1.00  0.00     0.022 A 
BRANCH  85  89
ATOM     89  S   UNL A   1      37.508  33.011  40.454  1.00  0.00     0.124 S 
ATOM     90  O   UNL A   1      36.270  32.833  39.705  1.00  0.00    -0.237 OA
ATOM     91  O   UNL A   1      38.207  31.791  40.842  1.00  0.00    -0.237 OA
ATOM     92  O   UNL A   1      37.478  34.062  41.470  1.00  0.00    -0.744 OA
ENDBRANCH  85  89
ENDBRANCH  58  82
BRANCH  70  93
ATOM     93  C   UNL A   1      44.296  28.507  35.299  1.00  0.00     0.023 A 
ATOM     94  C   UNL A   1      44.156  27.474  36.242  1.00  0.00     0.031 A 
ATOM     95  C   UNL A   1      45.587  29.008  35.055  1.00  0.00     0.131 A 
ATOM     96  C   UNL A   1      45.278  27.019  36.951  1.00  0.00     0.055 A 
ATOM     97  C   UNL A   1      46.709  28.500  35.709  1.00  0.00     0.041 A 
ATOM     98  F   UNL A   1      45.780  29.998  34.170  1.00  0.00    -0.206 F 
ATOM     99  C   UNL A   1      46.557  27.509  36.674  1.00  0.00     0.022 A 
BRANCH  96 100
ATOM    100  S   UNL A   1      45.029  25.848  38.314  1.00  0.00     0.124 S 
ATOM    101  O   UNL A   1      46.346  25.836  38.945  1.00  0.00    -0.237 OA
ATOM    102  O   UNL A   1      43.961  26.482  39.080  1.00  0.00    -0.237 OA
ATOM    103  O   UNL A   1      44.655  24.608  37.637  1.00  0.00    -0.744 OA
ENDBRANCH  96 100
ENDBRANCH  70  93
ENDBRANCH  44  45
ENDBRANCH  36  39
ENDBRANCH  34  35
ENDBRANCH   1  34
TORSDOF 19
ENDMDL
MODEL 2
REMARK VINA RESULT:     -13.5      5.739     11.669
REMARK SMILES O=C1O[C@@H](c2ccc(O)c(O)c2)[C@H](C(=O)NCCCNC(=O)c2ccc(-c3c4nc(c(-c5cc(S(=O)(=O)[O-])ccc5F)c5ccc([nH]5)c(-c5cc(S(=O)(=O)[O-])ccc5F)c5nc(c(-c6cc(S(=O)(=O)[O-])ccc6F)c6ccc3[nH]6)C=C5)C=C4)cc2)/C1=C\c1ccc(O)c(O)c1
REMARK SMILES IDX 18 1 17 2 16 3 14 4 15 5 13 7 1 8 2 9 3 10 86 11 4 12 87 13
REMARK SMILES IDX 5 14 6 15 12 16 7 17 10 18 8 19 11 20 9 22 88 24 89 25 95 26
REMARK SMILES IDX 90 27 93 28 91 29 94 30 92 32 19 34 20 35 21 36 22 38 23 39
REMARK SMILES IDX 24 40 85 41 25 42 84 43 26 44 27 45 28 46 78 47 29 48 83 49
REMARK SMILES IDX 77 50 79 51 30 52 82 53 76 54 75 55 31 57 63 58 43 59 62 60
REMARK SMILES IDX 44 61 47 62 61 63 80 64 45 65 46 66 60 68 81 69 48 70 32 71
REMARK SMILES IDX 33 72 41 73 34 74 40 75 42 76 39 77 35 78 36 79 37 80 38 81
REMARK SMILES IDX 64 82 65 83 73 84 66 85 72 86 74 87 71 88 67 89 68 90 69 91
REMARK SMILES IDX 70 92 49 93 50 94 58 95 51 96 57 97 59 98 56 99 52 100
REMARK SMILES IDX 53 101 54 102 55 103
REMARK H PARENT 16 6 11 21 9 23 94 31 92 33 20 37 79 56 47 67
REMARK Flexibility Score: inf
ROOT
ATOM      1  C   UNL A   1      37.980  20.194  24.990  1.00  0.00     0.042 C 
ENDROOT
BRANCH   1   2
ATOM      2  C   UNL A   1      37.384  21.365  24.229  1.00  0.00     0.117 C 
BRANCH   2   3
ATOM      3  N   UNL A   1      37.128  22.535  25.052  1.00  0.00    -0.355 N 
ATOM      4  C   UNL A   1      35.994  22.991  25.659  1.00  0.00     0.231 C 
ATOM      5  O   UNL A   1      36.136  23.936  26.439  1.00  0.00    -0.274 OA
ATOM      6  H   UNL A   1      37.918  23.104  25.195  1.00  0.00     0.163 HD
BRANCH   4   7
ATOM      7  C   UNL A   1      34.615  22.427  25.298  1.00  0.00     0.161 C 
ATOM      8  O   UNL A   1      32.495  22.636  28.173  1.00  0.00    -0.247 OA
ATOM      9  C   UNL A   1      33.175  22.301  27.218  1.00  0.00     0.335 C 
ATOM     10  O   UNL A   1      33.714  21.073  27.039  1.00  0.00    -0.453 OA
ATOM     11  C   UNL A   1      33.533  23.128  26.053  1.00  0.00     0.054 C 
ATOM     12  C   UNL A   1      34.401  20.994  25.777  1.00  0.00     0.224 C 
ATOM     13  C   UNL A   1      32.871  24.273  25.832  1.00  0.00     0.020 C 
BRANCH  12  14
ATOM     14  C   UNL A   1      33.660  20.101  24.777  1.00  0.00    -0.002 A 
ATOM     15  C   UNL A   1      32.749  20.648  23.842  1.00  0.00     0.012 A 
ATOM     16  C   UNL A   1      33.929  18.726  24.701  1.00  0.00     0.057 A 
ATOM     17  C   UNL A   1      32.134  19.860  22.864  1.00  0.00     0.050 A 
ATOM     18  C   UNL A   1      33.300  17.946  23.736  1.00  0.00     0.157 A 
ATOM     19  C   UNL A   1      32.417  18.506  22.819  1.00  0.00     0.157 A 
BRANCH  18  20
ATOM     20  O   UNL A   1      33.570  16.608  23.684  1.00  0.00    -0.504 OA
ATOM     21  H   UNL A   1      34.140  16.271  23.020  1.00  0.00     0.293 HD
ENDBRANCH  18  20
BRANCH  19  22
ATOM     22  O   UNL A   1      31.855  17.682  21.885  1.00  0.00    -0.504 OA
ATOM     23  H   UNL A   1      32.377  17.338  21.187  1.00  0.00     0.293 HD
ENDBRANCH  19  22
ENDBRANCH  12  14
BRANCH  13  24
ATOM     24  C   UNL A   1      33.108  25.171  24.704  1.00  0.00    -0.021 A 
ATOM     25  C   UNL A   1      33.513  26.500  24.906  1.00  0.00     0.012 A 
ATOM     26  C   UNL A   1      32.977  24.675  23.402  1.00  0.00     0.058 A 
ATOM     27  C   UNL A   1      33.754  27.342  23.816  1.00  0.00     0.051 A 
ATOM     28  C   UNL A   1      33.229  25.516  22.326  1.00  0.00     0.157 A 
ATOM     29  C   UNL A   1      33.607  26.840  22.529  1.00  0.00     0.157 A 
BRANCH  28  30
ATOM     30  O   UNL A   1      33.104  25.030  21.056  1.00  0.00    -0.504 OA
ATOM     31  H   UNL A   1      32.588  25.494  20.426  1.00  0.00     0.293 HD
ENDBRANCH  28  30
BRANCH  29  32
ATOM     32  O   UNL A   1      33.828  27.613  21.423  1.00  0.00    -0.504 OA
ATOM     33  H   UNL A   1      33.222  27.593  20.708  1.00  0.00     0.293 HD
ENDBRANCH  29  32
ENDBRANCH  13  24
ENDBRANCH   4   7
ENDBRANCH   2   3
ENDBRANCH   1   2
BRANCH   1  34
ATOM     34  C   UNL A   1      39.138  20.575  25.897  1.00  0.00     0.118 C 
BRANCH  34  35
ATOM     35  N   UNL A   1      40.141  19.522  25.997  1.00  0.00    -0.352 N 
ATOM     36  C   UNL A   1      41.508  19.597  26.121  1.00  0.00     0.251 C 
ATOM     37  H   UNL A   1      39.780  18.607  25.970  1.00  0.00     0.163 HD
ATOM     38  O   UNL A   1      42.177  18.580  25.963  1.00  0.00    -0.269 OA
BRANCH  36  39
ATOM     39  C   UNL A   1      42.165  20.888  26.415  1.00  0.00     0.039 A 
ATOM     40  C   UNL A   1      42.477  21.746  25.357  1.00  0.00     0.014 A 
ATOM     41  C   UNL A   1      42.486  21.253  27.724  1.00  0.00     0.014 A 
ATOM     42  C   UNL A   1      43.030  23.001  25.624  1.00  0.00     0.010 A 
ATOM     43  C   UNL A   1      42.939  22.540  27.995  1.00  0.00     0.010 A 
ATOM     44  C   UNL A   1      43.219  23.429  26.948  1.00  0.00    -0.014 A 
BRANCH  44  45
ATOM     45  C   UNL A   1      43.699  24.801  27.258  1.00  0.00     0.031 A 
ATOM     46  C   UNL A   1      42.743  25.831  27.801  1.00  0.00     0.074 A 
ATOM     47  C   UNL A   1      44.976  25.136  26.983  1.00  0.00     0.049 A 
ATOM     48  N   UNL A   1      42.951  27.098  28.054  1.00  0.00    -0.248 NA
ATOM     49  C   UNL A   1      41.364  25.388  28.062  1.00  0.00     0.031 C 
ATOM     50  C   UNL A   1      45.981  24.234  26.412  1.00  0.00     0.029 A 
ATOM     51  N   UNL A   1      45.650  26.322  27.134  1.00  0.00    -0.354 N 
ATOM     52  C   UNL A   1      41.731  27.605  28.486  1.00  0.00     0.074 A 
ATOM     53  C   UNL A   1      40.774  26.523  28.407  1.00  0.00     0.031 C 
ATOM     54  C   UNL A   1      47.143  24.892  26.285  1.00  0.00     0.029 A 
ATOM     55  C   UNL A   1      46.958  26.277  26.706  1.00  0.00     0.049 A 
ATOM     56  H   UNL A   1      45.236  27.132  27.512  1.00  0.00     0.167 HD
ATOM     57  C   UNL A   1      41.441  28.855  28.923  1.00  0.00     0.034 A 
ATOM     58  C   UNL A   1      47.896  27.244  26.638  1.00  0.00     0.034 A 
ATOM     59  C   UNL A   1      42.415  29.915  29.014  1.00  0.00     0.049 A 
ATOM     60  C   UNL A   1      47.541  28.630  27.116  1.00  0.00     0.074 A 
ATOM     61  C   UNL A   1      42.248  31.192  29.520  1.00  0.00     0.029 A 
ATOM     62  N   UNL A   1      43.731  29.830  28.578  1.00  0.00    -0.354 N 
ATOM     63  N   UNL A   1      46.398  29.072  27.591  1.00  0.00    -0.248 NA
ATOM     64  C   UNL A   1      48.600  29.645  27.058  1.00  0.00     0.031 C 
ATOM     65  C   UNL A   1      43.431  31.906  29.306  1.00  0.00     0.029 A 
ATOM     66  C   UNL A   1      44.370  31.047  28.759  1.00  0.00     0.049 A 
ATOM     67  H   UNL A   1      44.149  29.024  28.197  1.00  0.00     0.167 HD
ATOM     68  C   UNL A   1      46.616  30.408  27.918  1.00  0.00     0.074 A 
ATOM     69  C   UNL A   1      48.001  30.691  27.606  1.00  0.00     0.031 C 
ATOM     70  C   UNL A   1      45.751  31.319  28.432  1.00  0.00     0.034 A 
BRANCH  57  71
ATOM     71  C   UNL A   1      40.011  29.159  29.303  1.00  0.00     0.023 A 
ATOM     72  C   UNL A   1      39.598  29.250  30.643  1.00  0.00     0.031 A 
ATOM     73  C   UNL A   1      39.047  29.377  28.301  1.00  0.00     0.131 A 
ATOM     74  C   UNL A   1      38.250  29.493  30.944  1.00  0.00     0.055 A 
ATOM     75  C   UNL A   1      37.725  29.698  28.608  1.00  0.00     0.041 A 
ATOM     76  F   UNL A   1      39.377  29.278  27.004  1.00  0.00    -0.206 F 
ATOM     77  C   UNL A   1      37.316  29.747  29.937  1.00  0.00     0.022 A 
BRANCH  74  78
ATOM     78  S   UNL A   1      37.706  29.350  32.669  1.00  0.00     0.124 S 
ATOM     79  O   UNL A   1      37.691  27.900  32.854  1.00  0.00    -0.237 OA
ATOM     80  O   UNL A   1      38.747  30.074  33.389  1.00  0.00    -0.237 OA
ATOM     81  O   UNL A   1      36.390  29.984  32.668  1.00  0.00    -0.744 OA
ENDBRANCH  74  78
ENDBRANCH  57  71
BRANCH  58  82
ATOM     82  C   UNL A   1      49.246  26.956  26.068  1.00  0.00     0.023 A 
ATOM     83  C   UNL A   1      49.599  27.387  24.779  1.00  0.00     0.031 A 
ATOM     84  C   UNL A   1      50.182  26.183  26.780  1.00  0.00     0.131 A 
ATOM     85  C   UNL A   1      50.825  26.991  24.220  1.00  0.00     0.055 A 
ATOM     86  C   UNL A   1      51.428  25.850  26.246  1.00  0.00     0.041 A 
ATOM     87  F   UNL A   1      49.900  25.744  28.018  1.00  0.00    -0.206 F 
ATOM     88  C   UNL A   1      51.748  26.240  24.951  1.00  0.00     0.022 A 
BRANCH  85  89
ATOM     89  S   UNL A   1      51.145  27.371  22.475  1.00  0.00     0.124 S 
ATOM     90  O   UNL A   1      50.000  26.747  21.824  1.00  0.00    -0.237 OA
ATOM     91  O   UNL A   1      51.167  28.829  22.483  1.00  0.00    -0.237 OA
ATOM     92  O   UNL A   1      52.434  26.731  22.220  1.00  0.00    -0.744 OA
ENDBRANCH  85  89
ENDBRANCH  58  82
BRANCH  70  93
ATOM     93  C   UNL A   1      46.294  32.696  28.731  1.00  0.00     0.023 A 
ATOM     94  C   UNL A   1      46.212  33.743  27.797  1.00  0.00     0.031 A 
ATOM     95  C   UNL A   1      46.909  32.960  29.968  1.00  0.00     0.131 A 
ATOM     96  C   UNL A   1      46.790  34.988  28.091  1.00  0.00     0.055 A 
ATOM     97  C   UNL A   1      47.416  34.221  30.283  1.00  0.00     0.041 A 
ATOM     98  F   UNL A   1      47.021  31.997  30.895  1.00  0.00    -0.206 F 
ATOM     99  C   UNL A   1      47.370  35.240  29.336  1.00  0.00     0.022 A 
BRANCH  96 100
ATOM    100  S   UNL A   1      46.863  36.242  26.783  1.00  0.00     0.124 S 
ATOM    101  O   UNL A   1      45.457  36.607  26.636  1.00  0.00    -0.237 OA
ATOM    102  O   UNL A   1      47.728  37.259  27.373  1.00  0.00    -0.237 OA
ATOM    103  O   UNL A   1      47.438  35.521  25.649  1.00  0.00    -0.744 OA
ENDBRANCH  96 100
ENDBRANCH  70  93
ENDBRANCH  44  45
ENDBRANCH  36  39
ENDBRANCH  34  35
ENDBRANCH   1  34
TORSDOF 19
ENDMDL
MODEL 3
REMARK VINA RESULT:     -13.5      1.329      1.677
REMARK SMILES O=C1O[C@@H](c2ccc(O)c(O)c2)[C@H](C(=O)NCCCNC(=O)c2ccc(-c3c4nc(c(-c5cc(S(=O)(=O)[O-])ccc5F)c5ccc([nH]5)c(-c5cc(S(=O)(=O)[O-])ccc5F)c5nc(c(-c6cc(S(=O)(=O)[O-])ccc6F)c6ccc3[nH]6)C=C5)C=C4)cc2)/C1=C\c1ccc(O)c(O)c1
REMARK SMILES IDX 18 1 17 2 16 3 14 4 15 5 13 7 1 8 2 9 3 10 86 11 4 12 87 13
REMARK SMILES IDX 5 14 6 15 12 16 7 17 10 18 8 19 11 20 9 22 88 24 89 25 95 26
REMARK SMILES IDX 90 27 93 28 91 29 94 30 92 32 19 34 20 35 21 36 22 38 23 39
REMARK SMILES IDX 24 40 85 41 25 42 84 43 26 44 27 45 28 46 78 47 29 48 83 49
REMARK SMILES IDX 77 50 79 51 30 52 82 53 76 54 75 55 31 57 63 58 43 59 62 60
REMARK SMILES IDX 44 61 47 62 61 63 80 64 45 65 46 66 60 68 81 69 48 70 32 71
REMARK SMILES IDX 33 72 41 73 34 74 40 75 42 76 39 77 35 78 36 79 37 80 38 81
REMARK SMILES IDX 64 82 65 83 73 84 66 85 72 86 74 87 71 88 67 89 68 90 69 91
REMARK SMILES IDX 70 92 49 93 50 94 58 95 51 96 57 97 59 98 56 99 52 100
REMARK SMILES IDX 53 101 54 102 55 103
REMARK H PARENT 16 6 11 21 9 23 94 31 92 33 20 37 79 56 47 67
REMARK Flexibility Score: inf
ROOT
ATOM      1  C   UNL A   1      31.693  31.392  26.734  1.00  0.00     0.042 C 
ENDROOT
BRANCH   1   2
ATOM      2  C   UNL A   1      31.678  29.931  27.145  1.00  0.00     0.117 C 
BRANCH   2   3
ATOM      3  N   UNL A   1      32.924  29.231  26.885  1.00  0.00    -0.355 N 
ATOM      4  C   UNL A   1      33.329  28.449  25.843  1.00  0.00     0.231 C 
ATOM      5  O   UNL A   1      34.521  28.131  25.831  1.00  0.00    -0.274 OA
ATOM      6  H   UNL A   1      33.600  29.340  27.592  1.00  0.00     0.163 HD
BRANCH   4   7
ATOM      7  C   UNL A   1      32.327  27.909  24.815  1.00  0.00     0.161 C 
ATOM      8  O   UNL A   1      34.007  27.468  21.688  1.00  0.00    -0.247 OA
ATOM      9  C   UNL A   1      33.285  27.792  22.614  1.00  0.00     0.335 C 
ATOM     10  O   UNL A   1      32.578  28.943  22.684  1.00  0.00    -0.453 OA
ATOM     11  C   UNL A   1      32.999  27.010  23.829  1.00  0.00     0.054 C 
ATOM     12  C   UNL A   1      31.779  28.983  23.880  1.00  0.00     0.224 C 
ATOM     13  C   UNL A   1      33.319  25.708  23.863  1.00  0.00     0.020 C 
BRANCH  12  14
ATOM     14  C   UNL A   1      30.284  28.845  23.573  1.00  0.00    -0.002 A 
ATOM     15  C   UNL A   1      29.650  27.580  23.571  1.00  0.00     0.012 A 
ATOM     16  C   UNL A   1      29.483  29.979  23.371  1.00  0.00     0.057 A 
ATOM     17  C   UNL A   1      28.271  27.447  23.383  1.00  0.00     0.050 A 
ATOM     18  C   UNL A   1      28.114  29.837  23.168  1.00  0.00     0.157 A 
ATOM     19  C   UNL A   1      27.509  28.585  23.182  1.00  0.00     0.157 A 
BRANCH  18  20
ATOM     20  O   UNL A   1      27.353  30.952  22.965  1.00  0.00    -0.504 OA
ATOM     21  H   UNL A   1      27.381  31.395  22.139  1.00  0.00     0.293 HD
ENDBRANCH  18  20
BRANCH  19  22
ATOM     22  O   UNL A   1      26.156  28.524  22.998  1.00  0.00    -0.504 OA
ATOM     23  H   UNL A   1      25.801  28.497  22.131  1.00  0.00     0.293 HD
ENDBRANCH  19  22
ENDBRANCH  12  14
BRANCH  13  24
ATOM     24  C   UNL A   1      33.069  24.815  24.992  1.00  0.00    -0.021 A 
ATOM     25  C   UNL A   1      31.760  24.485  25.379  1.00  0.00     0.012 A 
ATOM     26  C   UNL A   1      34.156  24.243  25.661  1.00  0.00     0.058 A 
ATOM     27  C   UNL A   1      31.535  23.614  26.450  1.00  0.00     0.051 A 
ATOM     28  C   UNL A   1      33.923  23.372  26.716  1.00  0.00     0.157 A 
ATOM     29  C   UNL A   1      32.625  23.064  27.114  1.00  0.00     0.157 A 
BRANCH  28  30
ATOM     30  O   UNL A   1      34.986  22.812  27.366  1.00  0.00    -0.504 OA
ATOM     31  H   UNL A   1      35.333  23.221  28.134  1.00  0.00     0.293 HD
ENDBRANCH  28  30
BRANCH  29  32
ATOM     32  O   UNL A   1      32.471  22.206  28.168  1.00  0.00    -0.504 OA
ATOM     33  H   UNL A   1      31.943  22.455  28.901  1.00  0.00     0.293 HD
ENDBRANCH  29  32
ENDBRANCH  13  24
ENDBRANCH   4   7
ENDBRANCH   2   3
ENDBRANCH   1   2
BRANCH   1  34
ATOM     34  C   UNL A   1      32.951  32.136  27.152  1.00  0.00     0.118 C 
BRANCH  34  35
ATOM     35  N   UNL A   1      32.697  33.538  27.458  1.00  0.00    -0.352 N 
ATOM     36  C   UNL A   1      33.217  34.348  28.440  1.00  0.00     0.251 C 
ATOM     37  H   UNL A   1      32.046  33.977  26.866  1.00  0.00     0.163 HD
ATOM     38  O   UNL A   1      32.693  35.437  28.653  1.00  0.00    -0.269 OA
BRANCH  36  39
ATOM     39  C   UNL A   1      34.373  33.902  29.247  1.00  0.00     0.039 A 
ATOM     40  C   UNL A   1      34.157  33.042  30.326  1.00  0.00     0.014 A 
ATOM     41  C   UNL A   1      35.667  34.336  28.952  1.00  0.00     0.014 A 
ATOM     42  C   UNL A   1      35.245  32.553  31.051  1.00  0.00     0.010 A 
ATOM     43  C   UNL A   1      36.756  33.769  29.607  1.00  0.00     0.010 A 
ATOM     44  C   UNL A   1      36.558  32.872  30.666  1.00  0.00    -0.014 A 
BRANCH  44  45
ATOM     45  C   UNL A   1      37.734  32.274  31.352  1.00  0.00     0.031 A 
ATOM     46  C   UNL A   1      38.499  31.153  30.699  1.00  0.00     0.074 A 
ATOM     47  C   UNL A   1      38.065  32.694  32.590  1.00  0.00     0.049 A 
ATOM     48  N   UNL A   1      39.497  30.450  31.171  1.00  0.00    -0.248 NA
ATOM     49  C   UNL A   1      38.067  30.747  29.352  1.00  0.00     0.031 C 
ATOM     50  C   UNL A   1      37.367  33.740  33.342  1.00  0.00     0.029 A 
ATOM     51  N   UNL A   1      39.061  32.288  33.443  1.00  0.00    -0.354 N 
ATOM     52  C   UNL A   1      39.798  29.511  30.191  1.00  0.00     0.074 A 
ATOM     53  C   UNL A   1      38.842  29.698  29.121  1.00  0.00     0.031 C 
ATOM     54  C   UNL A   1      37.971  33.909  34.528  1.00  0.00     0.029 A 
ATOM     55  C   UNL A   1      39.060  32.947  34.653  1.00  0.00     0.049 A 
ATOM     56  H   UNL A   1      39.716  31.590  33.212  1.00  0.00     0.167 HD
ATOM     57  C   UNL A   1      40.791  28.589  30.179  1.00  0.00     0.034 A 
ATOM     58  C   UNL A   1      39.831  32.780  35.747  1.00  0.00     0.034 A 
ATOM     59  C   UNL A   1      41.749  28.433  31.247  1.00  0.00     0.049 A 
ATOM     60  C   UNL A   1      40.918  31.735  35.712  1.00  0.00     0.074 A 
ATOM     61  C   UNL A   1      42.844  27.589  31.301  1.00  0.00     0.029 A 
ATOM     62  N   UNL A   1      41.719  29.121  32.453  1.00  0.00    -0.354 N 
ATOM     63  N   UNL A   1      41.235  30.905  34.744  1.00  0.00    -0.248 NA
ATOM     64  C   UNL A   1      41.758  31.609  36.910  1.00  0.00     0.031 C 
ATOM     65  C   UNL A   1      43.420  27.699  32.570  1.00  0.00     0.029 A 
ATOM     66  C   UNL A   1      42.747  28.685  33.274  1.00  0.00     0.049 A 
ATOM     67  H   UNL A   1      41.065  29.818  32.690  1.00  0.00     0.167 HD
ATOM     68  C   UNL A   1      42.332  30.183  35.208  1.00  0.00     0.074 A 
ATOM     69  C   UNL A   1      42.633  30.690  36.530  1.00  0.00     0.031 C 
ATOM     70  C   UNL A   1      43.029  29.193  34.596  1.00  0.00     0.034 A 
BRANCH  57  71
ATOM     71  C   UNL A   1      40.877  27.654  28.996  1.00  0.00     0.023 A 
ATOM     72  C   UNL A   1      41.859  27.798  28.001  1.00  0.00     0.031 A 
ATOM     73  C   UNL A   1      39.965  26.591  28.871  1.00  0.00     0.131 A 
ATOM     74  C   UNL A   1      41.871  26.929  26.899  1.00  0.00     0.055 A 
ATOM     75  C   UNL A   1      40.032  25.682  27.815  1.00  0.00     0.041 A 
ATOM     76  F   UNL A   1      38.989  26.418  29.777  1.00  0.00    -0.206 F 
ATOM     77  C   UNL A   1      40.983  25.854  26.814  1.00  0.00     0.022 A 
BRANCH  74  78
ATOM     78  S   UNL A   1      42.984  27.298  25.515  1.00  0.00     0.124 S 
ATOM     79  O   UNL A   1      44.118  27.910  26.203  1.00  0.00    -0.237 OA
ATOM     80  O   UNL A   1      43.222  25.978  24.943  1.00  0.00    -0.237 OA
ATOM     81  O   UNL A   1      42.204  28.209  24.681  1.00  0.00    -0.744 OA
ENDBRANCH  74  78
ENDBRANCH  57  71
BRANCH  58  82
ATOM     82  C   UNL A   1      39.588  33.589  36.979  1.00  0.00     0.023 A 
ATOM     83  C   UNL A   1      40.347  34.736  37.258  1.00  0.00     0.031 A 
ATOM     84  C   UNL A   1      38.635  33.185  37.932  1.00  0.00     0.131 A 
ATOM     85  C   UNL A   1      40.185  35.401  38.484  1.00  0.00     0.055 A 
ATOM     86  C   UNL A   1      38.431  33.890  39.120  1.00  0.00     0.041 A 
ATOM     87  F   UNL A   1      37.879  32.096  37.719  1.00  0.00    -0.206 F 
ATOM     88  C   UNL A   1      39.222  34.996  39.409  1.00  0.00     0.022 A 
BRANCH  85  89
ATOM     89  S   UNL A   1      41.341  36.735  38.906  1.00  0.00     0.124 S 
ATOM     90  O   UNL A   1      42.159  36.102  39.933  1.00  0.00    -0.237 OA
ATOM     91  O   UNL A   1      41.994  36.984  37.626  1.00  0.00    -0.237 OA
ATOM     92  O   UNL A   1      40.465  37.806  39.377  1.00  0.00    -0.744 OA
ENDBRANCH  85  89
ENDBRANCH  58  82
BRANCH  70  93
ATOM     93  C   UNL A   1      44.216  28.624  35.338  1.00  0.00     0.023 A 
ATOM     94  C   UNL A   1      44.081  27.565  36.251  1.00  0.00     0.031 A 
ATOM     95  C   UNL A   1      45.501  29.158  35.130  1.00  0.00     0.131 A 
ATOM     96  C   UNL A   1      45.200  27.113  36.967  1.00  0.00     0.055 A 
ATOM     97  C   UNL A   1      46.622  28.655  35.790  1.00  0.00     0.041 A 
ATOM     98  F   UNL A   1      45.689  30.174  34.274  1.00  0.00    -0.206 F 
ATOM     99  C   UNL A   1      46.472  27.635  36.726  1.00  0.00     0.022 A 
BRANCH  96 100
ATOM    100  S   UNL A   1      44.951  25.902  38.295  1.00  0.00     0.124 S 
ATOM    101  O   UNL A   1      44.190  24.860  37.613  1.00  0.00    -0.237 OA
ATOM    102  O   UNL A   1      46.320  25.555  38.662  1.00  0.00    -0.237 OA
ATOM    103  O   UNL A   1      44.208  26.651  39.307  1.00  0.00    -0.744 OA
ENDBRANCH  96 100
ENDBRANCH  70  93
ENDBRANCH  44  45
ENDBRANCH  36  39
ENDBRANCH  34  35
ENDBRANCH   1  34
TORSDOF 19
ENDMDL
