MODEL 1
REMARK VINA RESULT:     -13.4      0.000      0.000
REMARK SMILES Cc1ccc(CN(CC(=O)NCCCNC(=O)c2ccc(-c3c4nc(c(-c5cc(S(=O)(=O)[O-])ccc5F)c5ccc([nH]5)c(-c5cc(S(=O)(=O)[O-])ccc5F)c5nc(c(-c6cc(S(=O)(=O)[O-])ccc6F)c6ccc3[nH]6)C=C5)C=C4)cc2)C(=O)c2cc3c(s2)CCOC3)cc1
REMARK SMILES IDX 13 1 12 2 11 3 9 4 10 5 8 7 7 8 6 9 5 10 1 11 2 12 3 13
REMARK SMILES IDX 93 14 4 15 92 16 81 17 82 18 83 19 84 20 87 21 85 22 86 23
REMARK SMILES IDX 91 24 88 25 90 26 89 27 14 28 15 29 16 30 17 32 18 33 19 34
REMARK SMILES IDX 80 35 20 36 79 37 21 38 22 39 23 40 73 41 24 42 78 43 72 44
REMARK SMILES IDX 74 45 25 46 77 47 71 48 70 49 26 51 58 52 38 53 57 54 39 55
REMARK SMILES IDX 42 56 56 57 75 58 40 59 41 60 55 62 76 63 43 64 27 65 28 66
REMARK SMILES IDX 36 67 29 68 35 69 37 70 34 71 30 72 31 73 32 74 33 75 59 76
REMARK SMILES IDX 60 77 68 78 61 79 67 80 69 81 66 82 62 83 63 84 64 85 65 86
REMARK SMILES IDX 44 87 45 88 53 89 46 90 52 91 54 92 51 93 47 94 48 95 49 96
REMARK SMILES IDX 50 97
REMARK H PARENT 11 6 15 31 74 50 42 61
REMARK Flexibility Score: inf
ROOT
ATOM      1  C   UNL A   1      39.096  21.603  25.998  1.00  0.00     0.042 C 
ENDROOT
BRANCH   1   2
ATOM      2  C   UNL A   1      37.627  21.690  25.615  1.00  0.00     0.117 C 
BRANCH   2   3
ATOM      3  N   UNL A   1      37.406  21.925  24.200  1.00  0.00    -0.354 N 
ATOM      4  C   UNL A   1      36.492  22.711  23.565  1.00  0.00     0.239 C 
ATOM      5  O   UNL A   1      36.664  22.970  22.368  1.00  0.00    -0.273 OA
ATOM      6  H   UNL A   1      38.018  21.438  23.601  1.00  0.00     0.163 HD
BRANCH   4   7
ATOM      7  C   UNL A   1      35.330  23.407  24.315  1.00  0.00     0.220 C 
BRANCH   7   8
ATOM      8  N   UNL A   1      33.956  23.181  23.848  1.00  0.00    -0.324 N 
BRANCH   8   9
ATOM      9  C   UNL A   1      33.113  22.279  24.622  1.00  0.00     0.156 C 
BRANCH   9  10
ATOM     10  C   UNL A   1      33.266  20.816  24.284  1.00  0.00    -0.029 A 
ATOM     11  C   UNL A   1      33.736  16.603  23.489  1.00  0.00     0.044 C 
ATOM     12  C   UNL A   1      33.568  18.064  23.777  1.00  0.00    -0.051 A 
ATOM     13  C   UNL A   1      32.523  18.787  23.185  1.00  0.00     0.004 A 
ATOM     14  C   UNL A   1      34.462  18.727  24.622  1.00  0.00     0.004 A 
ATOM     15  C   UNL A   1      32.370  20.153  23.438  1.00  0.00     0.006 A 
ATOM     16  C   UNL A   1      34.311  20.087  24.872  1.00  0.00     0.006 A 
ENDBRANCH   9  10
ENDBRANCH   8   9
BRANCH   8  17
ATOM     17  C   UNL A   1      33.381  23.818  22.733  1.00  0.00     0.264 C 
ATOM     18  O   UNL A   1      33.479  23.320  21.608  1.00  0.00    -0.268 OA
BRANCH  17  19
ATOM     19  C   UNL A   1      32.611  25.030  22.960  1.00  0.00     0.093 A 
ATOM     20  C   UNL A   1      31.319  25.206  23.422  1.00  0.00     0.032 A 
ATOM     21  S   UNL A   1      33.367  26.540  22.631  1.00  0.00    -0.135 S 
ATOM     22  C   UNL A   1      30.883  26.559  23.289  1.00  0.00    -0.008 A 
ATOM     23  C   UNL A   1      31.922  27.376  22.901  1.00  0.00     0.013 A 
ATOM     24  C   UNL A   1      29.492  27.094  23.465  1.00  0.00     0.196 C 
ATOM     25  C   UNL A   1      31.751  28.847  22.713  1.00  0.00     0.075 C 
ATOM     26  O   UNL A   1      29.429  28.539  23.407  1.00  0.00    -0.376 OA
ATOM     27  C   UNL A   1      30.271  29.097  22.386  1.00  0.00     0.166 C 
ENDBRANCH  17  19
ENDBRANCH   8  17
ENDBRANCH   7   8
ENDBRANCH   4   7
ENDBRANCH   2   3
ENDBRANCH   1   2
BRANCH   1  28
ATOM     28  C   UNL A   1      39.588  22.736  26.887  1.00  0.00     0.118 C 
BRANCH  28  29
ATOM     29  N   UNL A   1      40.961  23.150  26.578  1.00  0.00    -0.352 N 
ATOM     30  C   UNL A   1      41.480  24.433  26.487  1.00  0.00     0.251 C 
ATOM     31  H   UNL A   1      41.600  22.419  26.412  1.00  0.00     0.163 HD
ATOM     32  O   UNL A   1      42.654  24.650  26.250  1.00  0.00    -0.269 OA
BRANCH  30  33
ATOM     33  C   UNL A   1      40.571  25.552  26.822  1.00  0.00     0.039 A 
ATOM     34  C   UNL A   1      40.815  26.769  26.182  1.00  0.00     0.014 A 
ATOM     35  C   UNL A   1      39.778  25.480  27.962  1.00  0.00     0.014 A 
ATOM     36  C   UNL A   1      40.490  27.950  26.839  1.00  0.00     0.010 A 
ATOM     37  C   UNL A   1      39.533  26.652  28.656  1.00  0.00     0.010 A 
ATOM     38  C   UNL A   1      39.964  27.878  28.132  1.00  0.00    -0.014 A 
BRANCH  38  39
ATOM     39  C   UNL A   1      40.032  29.008  29.056  1.00  0.00     0.031 A 
ATOM     40  C   UNL A   1      38.967  30.023  29.107  1.00  0.00     0.074 A 
ATOM     41  C   UNL A   1      41.098  29.168  29.873  1.00  0.00     0.049 A 
ATOM     42  N   UNL A   1      39.186  31.273  29.360  1.00  0.00    -0.248 NA
ATOM     43  C   UNL A   1      37.567  29.713  28.847  1.00  0.00     0.031 C 
ATOM     44  C   UNL A   1      41.228  30.121  30.972  1.00  0.00     0.029 A 
ATOM     45  N   UNL A   1      42.381  28.654  29.708  1.00  0.00    -0.354 N 
ATOM     46  C   UNL A   1      37.966  31.857  29.583  1.00  0.00     0.074 A 
ATOM     47  C   UNL A   1      36.987  30.873  29.173  1.00  0.00     0.031 C 
ATOM     48  C   UNL A   1      42.530  30.322  31.220  1.00  0.00     0.029 A 
ATOM     49  C   UNL A   1      43.288  29.600  30.216  1.00  0.00     0.049 A 
ATOM     50  H   UNL A   1      42.611  27.784  29.308  1.00  0.00     0.167 HD
ATOM     51  C   UNL A   1      37.875  33.052  30.230  1.00  0.00     0.034 A 
ATOM     52  C   UNL A   1      44.273  30.122  29.430  1.00  0.00     0.034 A 
ATOM     53  C   UNL A   1      39.168  33.575  30.662  1.00  0.00     0.049 A 
ATOM     54  C   UNL A   1      44.178  31.618  29.215  1.00  0.00     0.074 A 
ATOM     55  C   UNL A   1      39.826  33.628  31.880  1.00  0.00     0.029 A 
ATOM     56  N   UNL A   1      40.108  33.935  29.710  1.00  0.00    -0.354 N 
ATOM     57  N   UNL A   1      43.274  32.392  29.749  1.00  0.00    -0.248 NA
ATOM     58  C   UNL A   1      45.039  32.333  28.273  1.00  0.00     0.031 C 
ATOM     59  C   UNL A   1      41.171  34.036  31.647  1.00  0.00     0.029 A 
ATOM     60  C   UNL A   1      41.326  34.244  30.289  1.00  0.00     0.049 A 
ATOM     61  H   UNL A   1      39.931  33.967  28.742  1.00  0.00     0.167 HD
ATOM     62  C   UNL A   1      43.346  33.636  29.170  1.00  0.00     0.074 A 
ATOM     63  C   UNL A   1      44.475  33.551  28.261  1.00  0.00     0.031 C 
ATOM     64  C   UNL A   1      42.437  34.624  29.429  1.00  0.00     0.034 A 
BRANCH  51  65
ATOM     65  C   UNL A   1      36.551  33.579  30.709  1.00  0.00     0.023 A 
ATOM     66  C   UNL A   1      35.686  34.229  29.811  1.00  0.00     0.031 A 
ATOM     67  C   UNL A   1      36.111  33.497  32.044  1.00  0.00     0.131 A 
ATOM     68  C   UNL A   1      34.511  34.853  30.260  1.00  0.00     0.055 A 
ATOM     69  C   UNL A   1      34.973  34.171  32.504  1.00  0.00     0.041 A 
ATOM     70  F   UNL A   1      36.771  32.754  32.948  1.00  0.00    -0.206 F 
ATOM     71  C   UNL A   1      34.173  34.868  31.611  1.00  0.00     0.022 A 
BRANCH  68  72
ATOM     72  S   UNL A   1      33.425  35.646  29.044  1.00  0.00     0.124 S 
ATOM     73  O   UNL A   1      32.649  34.519  28.536  1.00  0.00    -0.237 OA
ATOM     74  O   UNL A   1      32.700  36.610  29.865  1.00  0.00    -0.237 OA
ATOM     75  O   UNL A   1      34.360  36.231  28.084  1.00  0.00    -0.744 OA
ENDBRANCH  68  72
ENDBRANCH  51  65
BRANCH  52  76
ATOM     76  C   UNL A   1      44.792  29.144  28.435  1.00  0.00     0.023 A 
ATOM     77  C   UNL A   1      45.655  28.142  28.920  1.00  0.00     0.031 A 
ATOM     78  C   UNL A   1      44.167  28.935  27.199  1.00  0.00     0.131 A 
ATOM     79  C   UNL A   1      45.732  26.906  28.265  1.00  0.00     0.055 A 
ATOM     80  C   UNL A   1      44.310  27.728  26.508  1.00  0.00     0.041 A 
ATOM     81  F   UNL A   1      43.303  29.835  26.707  1.00  0.00    -0.206 F 
ATOM     82  C   UNL A   1      45.055  26.688  27.065  1.00  0.00     0.022 A 
BRANCH  79  83
ATOM     83  S   UNL A   1      46.462  25.513  29.165  1.00  0.00     0.124 S 
ATOM     84  O   UNL A   1      47.197  26.177  30.232  1.00  0.00    -0.237 OA
ATOM     85  O   UNL A   1      45.283  24.748  29.575  1.00  0.00    -0.237 OA
ATOM     86  O   UNL A   1      47.280  24.841  28.157  1.00  0.00    -0.744 OA
ENDBRANCH  79  83
ENDBRANCH  52  76
BRANCH  64  87
ATOM     87  C   UNL A   1      42.506  36.016  28.839  1.00  0.00     0.023 A 
ATOM     88  C   UNL A   1      43.030  37.107  29.550  1.00  0.00     0.031 A 
ATOM     89  C   UNL A   1      41.988  36.311  27.556  1.00  0.00     0.131 A 
ATOM     90  C   UNL A   1      43.140  38.376  28.955  1.00  0.00     0.055 A 
ATOM     91  C   UNL A   1      42.022  37.593  26.998  1.00  0.00     0.041 A 
ATOM     92  F   UNL A   1      41.446  35.367  26.775  1.00  0.00    -0.206 F 
ATOM     93  C   UNL A   1      42.624  38.633  27.687  1.00  0.00     0.022 A 
BRANCH  90  94
ATOM     94  S   UNL A   1      44.042  39.671  29.846  1.00  0.00     0.124 S 
ATOM     95  O   UNL A   1      43.663  40.880  29.123  1.00  0.00    -0.237 OA
ATOM     96  O   UNL A   1      43.493  39.539  31.193  1.00  0.00    -0.237 OA
ATOM     97  O   UNL A   1      45.443  39.274  29.707  1.00  0.00    -0.744 OA
ENDBRANCH  90  94
ENDBRANCH  64  87
ENDBRANCH  38  39
ENDBRANCH  30  33
ENDBRANCH  28  29
ENDBRANCH   1  28
TORSDOF 18
ENDMDL
MODEL 2
REMARK VINA RESULT:     -13.3      4.168     10.842
REMARK SMILES Cc1ccc(CN(CC(=O)NCCCNC(=O)c2ccc(-c3c4nc(c(-c5cc(S(=O)(=O)[O-])ccc5F)c5ccc([nH]5)c(-c5cc(S(=O)(=O)[O-])ccc5F)c5nc(c(-c6cc(S(=O)(=O)[O-])ccc6F)c6ccc3[nH]6)C=C5)C=C4)cc2)C(=O)c2cc3c(s2)CCOC3)cc1
REMARK SMILES IDX 13 1 12 2 11 3 9 4 10 5 8 7 7 8 6 9 5 10 1 11 2 12 3 13
REMARK SMILES IDX 93 14 4 15 92 16 81 17 82 18 83 19 84 20 87 21 85 22 86 23
REMARK SMILES IDX 91 24 88 25 90 26 89 27 14 28 15 29 16 30 17 32 18 33 19 34
REMARK SMILES IDX 80 35 20 36 79 37 21 38 22 39 23 40 73 41 24 42 78 43 72 44
REMARK SMILES IDX 74 45 25 46 77 47 71 48 70 49 26 51 58 52 38 53 57 54 39 55
REMARK SMILES IDX 42 56 56 57 75 58 40 59 41 60 55 62 76 63 43 64 27 65 28 66
REMARK SMILES IDX 36 67 29 68 35 69 37 70 34 71 30 72 31 73 32 74 33 75 59 76
REMARK SMILES IDX 60 77 68 78 61 79 67 80 69 81 66 82 62 83 63 84 64 85 65 86
REMARK SMILES IDX 44 87 45 88 53 89 46 90 52 91 54 92 51 93 47 94 48 95 49 96
REMARK SMILES IDX 50 97
REMARK H PARENT 11 6 15 31 74 50 42 61
REMARK Flexibility Score: inf
ROOT
ATOM      1  C   UNL A   1      33.164  31.219  27.287  1.00  0.00     0.042 C 
ENDROOT
BRANCH   1   2
ATOM      2  C   UNL A   1      32.444  30.390  26.234  1.00  0.00     0.117 C 
BRANCH   2   3
ATOM      3  N   UNL A   1      31.679  29.287  26.785  1.00  0.00    -0.354 N 
ATOM      4  C   UNL A   1      31.897  27.943  26.728  1.00  0.00     0.239 C 
ATOM      5  O   UNL A   1      31.265  27.208  27.496  1.00  0.00    -0.273 OA
ATOM      6  H   UNL A   1      30.870  29.553  27.280  1.00  0.00     0.163 HD
BRANCH   4   7
ATOM      7  C   UNL A   1      33.001  27.316  25.843  1.00  0.00     0.220 C 
BRANCH   7   8
ATOM      8  N   UNL A   1      32.635  26.235  24.919  1.00  0.00    -0.324 N 
BRANCH   8   9
ATOM      9  C   UNL A   1      32.436  26.575  23.516  1.00  0.00     0.156 C 
BRANCH   9  10
ATOM     10  C   UNL A   1      31.208  27.403  23.229  1.00  0.00    -0.029 A 
ATOM     11  C   UNL A   1      27.634  29.727  22.571  1.00  0.00     0.044 C 
ATOM     12  C   UNL A   1      28.875  28.922  22.812  1.00  0.00    -0.051 A 
ATOM     13  C   UNL A   1      30.129  29.425  22.440  1.00  0.00     0.004 A 
ATOM     14  C   UNL A   1      28.795  27.654  23.393  1.00  0.00     0.004 A 
ATOM     15  C   UNL A   1      31.289  28.673  22.648  1.00  0.00     0.006 A 
ATOM     16  C   UNL A   1      29.949  26.905  23.599  1.00  0.00     0.006 A 
ENDBRANCH   9  10
ENDBRANCH   8   9
BRANCH   8  17
ATOM     17  C   UNL A   1      32.513  24.882  25.288  1.00  0.00     0.264 C 
ATOM     18  O   UNL A   1      31.401  24.361  25.401  1.00  0.00    -0.268 OA
BRANCH  17  19
ATOM     19  C   UNL A   1      33.732  24.109  25.456  1.00  0.00     0.093 A 
ATOM     20  C   UNL A   1      35.020  24.506  25.770  1.00  0.00     0.032 A 
ATOM     21  S   UNL A   1      33.640  22.402  25.255  1.00  0.00    -0.135 S 
ATOM     22  C   UNL A   1      35.960  23.443  25.622  1.00  0.00    -0.008 A 
ATOM     23  C   UNL A   1      35.320  22.248  25.377  1.00  0.00     0.013 A 
ATOM     24  C   UNL A   1      37.458  23.535  25.649  1.00  0.00     0.196 C 
ATOM     25  C   UNL A   1      36.063  20.966  25.208  1.00  0.00     0.075 C 
ATOM     26  O   UNL A   1      38.107  22.241  25.621  1.00  0.00    -0.376 OA
ATOM     27  C   UNL A   1      37.477  21.318  24.719  1.00  0.00     0.166 C 
ENDBRANCH  17  19
ENDBRANCH   8  17
ENDBRANCH   7   8
ENDBRANCH   4   7
ENDBRANCH   2   3
ENDBRANCH   1   2
BRANCH   1  28
ATOM     28  C   UNL A   1      34.239  30.470  28.060  1.00  0.00     0.118 C 
BRANCH  28  29
ATOM     29  N   UNL A   1      35.078  31.353  28.877  1.00  0.00    -0.352 N 
ATOM     30  C   UNL A   1      36.338  31.111  29.401  1.00  0.00     0.251 C 
ATOM     31  H   UNL A   1      34.693  32.236  29.082  1.00  0.00     0.163 HD
ATOM     32  O   UNL A   1      36.951  31.942  30.046  1.00  0.00    -0.269 OA
BRANCH  30  33
ATOM     33  C   UNL A   1      36.985  29.831  29.035  1.00  0.00     0.039 A 
ATOM     34  C   UNL A   1      37.285  28.959  30.084  1.00  0.00     0.014 A 
ATOM     35  C   UNL A   1      37.577  29.689  27.784  1.00  0.00     0.014 A 
ATOM     36  C   UNL A   1      38.381  28.112  29.960  1.00  0.00     0.010 A 
ATOM     37  C   UNL A   1      38.718  28.912  27.692  1.00  0.00     0.010 A 
ATOM     38  C   UNL A   1      39.165  28.190  28.806  1.00  0.00    -0.014 A 
BRANCH  38  39
ATOM     39  C   UNL A   1      40.546  27.715  28.780  1.00  0.00     0.031 A 
ATOM     40  C   UNL A   1      40.881  26.353  28.332  1.00  0.00     0.074 A 
ATOM     41  C   UNL A   1      41.558  28.509  29.198  1.00  0.00     0.049 A 
ATOM     42  N   UNL A   1      41.854  25.659  28.826  1.00  0.00    -0.248 NA
ATOM     43  C   UNL A   1      40.123  25.652  27.303  1.00  0.00     0.031 C 
ATOM     44  C   UNL A   1      42.990  28.257  29.057  1.00  0.00     0.029 A 
ATOM     45  N   UNL A   1      41.483  29.600  30.060  1.00  0.00    -0.354 N 
ATOM     46  C   UNL A   1      42.032  24.574  28.007  1.00  0.00     0.074 A 
ATOM     47  C   UNL A   1      40.885  24.567  27.124  1.00  0.00     0.031 C 
ATOM     48  C   UNL A   1      43.649  28.975  29.977  1.00  0.00     0.029 A 
ATOM     49  C   UNL A   1      42.664  29.624  30.821  1.00  0.00     0.049 A 
ATOM     50  H   UNL A   1      40.736  30.238  30.124  1.00  0.00     0.167 HD
ATOM     51  C   UNL A   1      43.194  23.865  28.035  1.00  0.00     0.034 A 
ATOM     52  C   UNL A   1      42.624  29.576  32.184  1.00  0.00     0.034 A 
ATOM     53  C   UNL A   1      44.178  24.404  28.969  1.00  0.00     0.049 A 
ATOM     54  C   UNL A   1      43.292  28.360  32.788  1.00  0.00     0.074 A 
ATOM     55  C   UNL A   1      45.328  25.164  28.823  1.00  0.00     0.029 A 
ATOM     56  N   UNL A   1      43.904  24.391  30.327  1.00  0.00    -0.354 N 
ATOM     57  N   UNL A   1      43.905  27.430  32.109  1.00  0.00    -0.248 NA
ATOM     58  C   UNL A   1      43.209  28.045  34.215  1.00  0.00     0.031 C 
ATOM     59  C   UNL A   1      45.746  25.598  30.113  1.00  0.00     0.029 A 
ATOM     60  C   UNL A   1      44.859  25.090  31.045  1.00  0.00     0.049 A 
ATOM     61  H   UNL A   1      43.128  23.942  30.731  1.00  0.00     0.167 HD
ATOM     62  C   UNL A   1      44.192  26.376  32.943  1.00  0.00     0.074 A 
ATOM     63  C   UNL A   1      43.747  26.816  34.254  1.00  0.00     0.031 C 
ATOM     64  C   UNL A   1      44.714  25.197  32.488  1.00  0.00     0.034 A 
BRANCH  51  65
ATOM     65  C   UNL A   1      43.508  22.844  26.976  1.00  0.00     0.023 A 
ATOM     66  C   UNL A   1      42.913  21.571  27.028  1.00  0.00     0.031 A 
ATOM     67  C   UNL A   1      44.412  23.064  25.919  1.00  0.00     0.131 A 
ATOM     68  C   UNL A   1      43.295  20.556  26.137  1.00  0.00     0.055 A 
ATOM     69  C   UNL A   1      44.840  22.036  25.069  1.00  0.00     0.041 A 
ATOM     70  F   UNL A   1      44.907  24.288  25.672  1.00  0.00    -0.206 F 
ATOM     71  C   UNL A   1      44.292  20.768  25.187  1.00  0.00     0.022 A 
BRANCH  68  72
ATOM     72  S   UNL A   1      42.465  18.947  26.238  1.00  0.00     0.124 S 
ATOM     73  O   UNL A   1      42.515  18.660  27.667  1.00  0.00    -0.237 OA
ATOM     74  O   UNL A   1      41.148  19.248  25.687  1.00  0.00    -0.237 OA
ATOM     75  O   UNL A   1      43.299  18.082  25.406  1.00  0.00    -0.744 OA
ENDBRANCH  68  72
ENDBRANCH  51  65
BRANCH  52  76
ATOM     76  C   UNL A   1      41.434  30.270  32.747  1.00  0.00     0.023 A 
ATOM     77  C   UNL A   1      41.466  31.679  32.757  1.00  0.00     0.031 A 
ATOM     78  C   UNL A   1      40.190  29.638  32.869  1.00  0.00     0.131 A 
ATOM     79  C   UNL A   1      40.271  32.407  32.708  1.00  0.00     0.055 A 
ATOM     80  C   UNL A   1      39.002  30.374  32.900  1.00  0.00     0.041 A 
ATOM     81  F   UNL A   1      40.094  28.301  32.824  1.00  0.00    -0.206 F 
ATOM     82  C   UNL A   1      39.036  31.762  32.769  1.00  0.00     0.022 A 
BRANCH  79  83
ATOM     83  S   UNL A   1      40.362  34.157  32.247  1.00  0.00     0.124 S 
ATOM     84  O   UNL A   1      39.802  34.158  30.902  1.00  0.00    -0.237 OA
ATOM     85  O   UNL A   1      39.550  34.801  33.281  1.00  0.00    -0.237 OA
ATOM     86  O   UNL A   1      41.788  34.466  32.338  1.00  0.00    -0.744 OA
ENDBRANCH  79  83
ENDBRANCH  52  76
BRANCH  64  87
ATOM     87  C   UNL A   1      45.077  24.030  33.382  1.00  0.00     0.023 A 
ATOM     88  C   UNL A   1      46.322  23.936  34.023  1.00  0.00     0.031 A 
ATOM     89  C   UNL A   1      44.203  22.934  33.573  1.00  0.00     0.131 A 
ATOM     90  C   UNL A   1      46.610  22.873  34.898  1.00  0.00     0.055 A 
ATOM     91  C   UNL A   1      44.525  21.837  34.378  1.00  0.00     0.041 A 
ATOM     92  F   UNL A   1      42.989  22.888  33.009  1.00  0.00    -0.206 F 
ATOM     93  C   UNL A   1      45.725  21.811  35.067  1.00  0.00     0.022 A 
BRANCH  90  94
ATOM     94  S   UNL A   1      48.138  22.944  35.868  1.00  0.00     0.124 S 
ATOM     95  O   UNL A   1      48.148  21.652  36.544  1.00  0.00    -0.237 OA
ATOM     96  O   UNL A   1      49.143  23.122  34.823  1.00  0.00    -0.237 OA
ATOM     97  O   UNL A   1      47.940  24.102  36.739  1.00  0.00    -0.744 OA
ENDBRANCH  90  94
ENDBRANCH  64  87
ENDBRANCH  38  39
ENDBRANCH  30  33
ENDBRANCH  28  29
ENDBRANCH   1  28
TORSDOF 18
ENDMDL
MODEL 3
REMARK VINA RESULT:     -13.2      4.234     10.364
REMARK SMILES Cc1ccc(CN(CC(=O)NCCCNC(=O)c2ccc(-c3c4nc(c(-c5cc(S(=O)(=O)[O-])ccc5F)c5ccc([nH]5)c(-c5cc(S(=O)(=O)[O-])ccc5F)c5nc(c(-c6cc(S(=O)(=O)[O-])ccc6F)c6ccc3[nH]6)C=C5)C=C4)cc2)C(=O)c2cc3c(s2)CCOC3)cc1
REMARK SMILES IDX 13 1 12 2 11 3 9 4 10 5 8 7 7 8 6 9 5 10 1 11 2 12 3 13
REMARK SMILES IDX 93 14 4 15 92 16 81 17 82 18 83 19 84 20 87 21 85 22 86 23
REMARK SMILES IDX 91 24 88 25 90 26 89 27 14 28 15 29 16 30 17 32 18 33 19 34
REMARK SMILES IDX 80 35 20 36 79 37 21 38 22 39 23 40 73 41 24 42 78 43 72 44
REMARK SMILES IDX 74 45 25 46 77 47 71 48 70 49 26 51 58 52 38 53 57 54 39 55
REMARK SMILES IDX 42 56 56 57 75 58 40 59 41 60 55 62 76 63 43 64 27 65 28 66
REMARK SMILES IDX 36 67 29 68 35 69 37 70 34 71 30 72 31 73 32 74 33 75 59 76
REMARK SMILES IDX 60 77 68 78 61 79 67 80 69 81 66 82 62 83 63 84 64 85 65 86
REMARK SMILES IDX 44 87 45 88 53 89 46 90 52 91 54 92 51 93 47 94 48 95 49 96
REMARK SMILES IDX 50 97
REMARK H PARENT 11 6 15 31 74 50 42 61
REMARK Flexibility Score: inf
ROOT
ATOM      1  C   UNL A   1      33.132  31.088  27.321  1.00  0.00     0.042 C 
ENDROOT
BRANCH   1   2
ATOM      2  C   UNL A   1      32.401  30.389  26.184  1.00  0.00     0.117 C 
BRANCH   2   3
ATOM      3  N   UNL A   1      31.598  29.260  26.614  1.00  0.00    -0.354 N 
ATOM      4  C   UNL A   1      31.865  27.924  26.590  1.00  0.00     0.239 C 
ATOM      5  O   UNL A   1      31.150  27.165  27.256  1.00  0.00    -0.273 OA
ATOM      6  H   UNL A   1      30.717  29.498  26.984  1.00  0.00     0.163 HD
BRANCH   4   7
ATOM      7  C   UNL A   1      33.108  27.336  25.879  1.00  0.00     0.220 C 
BRANCH   7   8
ATOM      8  N   UNL A   1      32.918  26.599  24.623  1.00  0.00    -0.324 N 
BRANCH   8   9
ATOM      9  C   UNL A   1      32.776  25.151  24.698  1.00  0.00     0.156 C 
BRANCH   9  10
ATOM     10  C   UNL A   1      34.074  24.384  24.741  1.00  0.00    -0.029 A 
ATOM     11  C   UNL A   1      37.720  22.093  24.999  1.00  0.00     0.044 C 
ATOM     12  C   UNL A   1      36.447  22.878  24.913  1.00  0.00    -0.051 A 
ATOM     13  C   UNL A   1      35.894  23.198  23.665  1.00  0.00     0.004 A 
ATOM     14  C   UNL A   1      35.807  23.319  26.074  1.00  0.00     0.004 A 
ATOM     15  C   UNL A   1      34.715  23.943  23.578  1.00  0.00     0.006 A 
ATOM     16  C   UNL A   1      34.633  24.062  25.988  1.00  0.00     0.006 A 
ENDBRANCH   9  10
ENDBRANCH   8   9
BRANCH   8  17
ATOM     17  C   UNL A   1      32.813  27.202  23.356  1.00  0.00     0.264 C 
ATOM     18  O   UNL A   1      33.743  27.133  22.549  1.00  0.00    -0.268 OA
BRANCH  17  19
ATOM     19  C   UNL A   1      31.554  27.838  23.005  1.00  0.00     0.093 A 
ATOM     20  C   UNL A   1      31.294  29.028  22.348  1.00  0.00     0.032 A 
ATOM     21  S   UNL A   1      30.095  27.035  23.440  1.00  0.00    -0.135 S 
ATOM     22  C   UNL A   1      29.912  29.380  22.405  1.00  0.00    -0.008 A 
ATOM     23  C   UNL A   1      29.164  28.357  22.945  1.00  0.00     0.013 A 
ATOM     24  C   UNL A   1      29.283  30.685  22.013  1.00  0.00     0.196 C 
ATOM     25  C   UNL A   1      27.682  28.449  23.097  1.00  0.00     0.075 C 
ATOM     26  O   UNL A   1      27.836  30.653  22.052  1.00  0.00    -0.376 OA
ATOM     27  C   UNL A   1      27.323  29.940  23.188  1.00  0.00     0.166 C 
ENDBRANCH  17  19
ENDBRANCH   8  17
ENDBRANCH   7   8
ENDBRANCH   4   7
ENDBRANCH   2   3
ENDBRANCH   1   2
BRANCH   1  28
ATOM     28  C   UNL A   1      34.539  30.571  27.584  1.00  0.00     0.118 C 
BRANCH  28  29
ATOM     29  N   UNL A   1      35.287  31.404  28.531  1.00  0.00    -0.352 N 
ATOM     30  C   UNL A   1      36.449  31.099  29.222  1.00  0.00     0.251 C 
ATOM     31  H   UNL A   1      34.913  32.300  28.699  1.00  0.00     0.163 HD
ATOM     32  O   UNL A   1      36.997  31.893  29.966  1.00  0.00    -0.269 OA
BRANCH  30  33
ATOM     33  C   UNL A   1      37.090  29.799  28.924  1.00  0.00     0.039 A 
ATOM     34  C   UNL A   1      37.392  28.984  30.018  1.00  0.00     0.014 A 
ATOM     35  C   UNL A   1      37.675  29.587  27.680  1.00  0.00     0.014 A 
ATOM     36  C   UNL A   1      38.483  28.128  29.935  1.00  0.00     0.010 A 
ATOM     37  C   UNL A   1      38.813  28.802  27.626  1.00  0.00     0.010 A 
ATOM     38  C   UNL A   1      39.263  28.140  28.776  1.00  0.00    -0.014 A 
BRANCH  38  39
ATOM     39  C   UNL A   1      40.642  27.659  28.769  1.00  0.00     0.031 A 
ATOM     40  C   UNL A   1      40.977  26.295  28.325  1.00  0.00     0.074 A 
ATOM     41  C   UNL A   1      41.651  28.448  29.203  1.00  0.00     0.049 A 
ATOM     42  N   UNL A   1      41.940  25.597  28.834  1.00  0.00    -0.248 NA
ATOM     43  C   UNL A   1      40.231  25.598  27.285  1.00  0.00     0.031 C 
ATOM     44  C   UNL A   1      43.083  28.189  29.082  1.00  0.00     0.029 A 
ATOM     45  N   UNL A   1      41.568  29.538  30.064  1.00  0.00    -0.354 N 
ATOM     46  C   UNL A   1      42.125  24.512  28.016  1.00  0.00     0.074 A 
ATOM     47  C   UNL A   1      40.991  24.510  27.117  1.00  0.00     0.031 C 
ATOM     48  C   UNL A   1      43.733  28.904  30.012  1.00  0.00     0.029 A 
ATOM     49  C   UNL A   1      42.738  29.557  30.842  1.00  0.00     0.049 A 
ATOM     50  H   UNL A   1      40.823  30.180  30.118  1.00  0.00     0.167 HD
ATOM     51  C   UNL A   1      43.283  23.797  28.061  1.00  0.00     0.034 A 
ATOM     52  C   UNL A   1      42.678  29.508  32.204  1.00  0.00     0.034 A 
ATOM     53  C   UNL A   1      44.255  24.331  29.010  1.00  0.00     0.049 A 
ATOM     54  C   UNL A   1      43.331  28.288  32.818  1.00  0.00     0.074 A 
ATOM     55  C   UNL A   1      45.411  25.086  28.881  1.00  0.00     0.029 A 
ATOM     56  N   UNL A   1      43.962  24.319  30.363  1.00  0.00    -0.354 N 
ATOM     57  N   UNL A   1      43.950  27.356  32.147  1.00  0.00    -0.248 NA
ATOM     58  C   UNL A   1      43.226  27.973  34.243  1.00  0.00     0.031 C 
ATOM     59  C   UNL A   1      45.811  25.518  30.177  1.00  0.00     0.029 A 
ATOM     60  C   UNL A   1      44.909  25.013  31.096  1.00  0.00     0.049 A 
ATOM     61  H   UNL A   1      43.178  23.873  30.755  1.00  0.00     0.167 HD
ATOM     62  C   UNL A   1      44.220  26.301  32.985  1.00  0.00     0.074 A 
ATOM     63  C   UNL A   1      43.757  26.742  34.289  1.00  0.00     0.031 C 
ATOM     64  C   UNL A   1      44.743  25.119  32.537  1.00  0.00     0.034 A 
BRANCH  51  65
ATOM     65  C   UNL A   1      43.608  22.776  27.006  1.00  0.00     0.023 A 
ATOM     66  C   UNL A   1      42.975  21.520  27.025  1.00  0.00     0.031 A 
ATOM     67  C   UNL A   1      44.557  22.977  25.986  1.00  0.00     0.131 A 
ATOM     68  C   UNL A   1      43.362  20.501  26.140  1.00  0.00     0.055 A 
ATOM     69  C   UNL A   1      44.988  21.944  25.144  1.00  0.00     0.041 A 
ATOM     70  F   UNL A   1      45.096  24.188  25.768  1.00  0.00    -0.206 F 
ATOM     71  C   UNL A   1      44.400  20.690  25.230  1.00  0.00     0.022 A 
BRANCH  68  72
ATOM     72  S   UNL A   1      42.483  18.916  26.195  1.00  0.00     0.124 S 
ATOM     73  O   UNL A   1      42.572  18.559  27.608  1.00  0.00    -0.237 OA
ATOM     74  O   UNL A   1      41.159  19.284  25.705  1.00  0.00    -0.237 OA
ATOM     75  O   UNL A   1      43.260  18.065  25.296  1.00  0.00    -0.744 OA
ENDBRANCH  68  72
ENDBRANCH  51  65
BRANCH  52  76
ATOM     76  C   UNL A   1      41.483  30.207  32.751  1.00  0.00     0.023 A 
ATOM     77  C   UNL A   1      41.510  31.616  32.739  1.00  0.00     0.031 A 
ATOM     78  C   UNL A   1      40.240  29.573  32.876  1.00  0.00     0.131 A 
ATOM     79  C   UNL A   1      40.314  32.340  32.672  1.00  0.00     0.055 A 
ATOM     80  C   UNL A   1      39.049  30.306  32.889  1.00  0.00     0.041 A 
ATOM     81  F   UNL A   1      40.148  28.235  32.851  1.00  0.00    -0.206 F 
ATOM     82  C   UNL A   1      39.080  31.692  32.737  1.00  0.00     0.022 A 
BRANCH  79  83
ATOM     83  S   UNL A   1      40.402  34.083  32.184  1.00  0.00     0.124 S 
ATOM     84  O   UNL A   1      39.001  34.420  31.965  1.00  0.00    -0.237 OA
ATOM     85  O   UNL A   1      41.038  34.706  33.346  1.00  0.00    -0.237 OA
ATOM     86  O   UNL A   1      41.242  34.065  30.989  1.00  0.00    -0.744 OA
ENDBRANCH  79  83
ENDBRANCH  52  76
BRANCH  64  87
ATOM     87  C   UNL A   1      45.088  23.951  33.435  1.00  0.00     0.023 A 
ATOM     88  C   UNL A   1      46.406  23.668  33.824  1.00  0.00     0.031 A 
ATOM     89  C   UNL A   1      44.106  23.037  33.884  1.00  0.00     0.131 A 
ATOM     90  C   UNL A   1      46.692  22.613  34.710  1.00  0.00     0.055 A 
ATOM     91  C   UNL A   1      44.403  21.939  34.697  1.00  0.00     0.041 A 
ATOM     92  F   UNL A   1      42.810  23.179  33.575  1.00  0.00    -0.206 F 
ATOM     93  C   UNL A   1      45.700  21.734  35.137  1.00  0.00     0.022 A 
BRANCH  90  94
ATOM     94  S   UNL A   1      48.379  22.459  35.353  1.00  0.00     0.124 S 
ATOM     95  O   UNL A   1      48.467  21.041  35.682  1.00  0.00    -0.237 OA
ATOM     96  O   UNL A   1      49.172  22.895  34.206  1.00  0.00    -0.237 OA
ATOM     97  O   UNL A   1      48.396  23.367  36.499  1.00  0.00    -0.744 OA
ENDBRANCH  90  94
ENDBRANCH  64  87
ENDBRANCH  38  39
ENDBRANCH  30  33
ENDBRANCH  28  29
ENDBRANCH   1  28
TORSDOF 18
ENDMDL
