MODEL 1
REMARK VINA RESULT:     -11.8      0.000      0.000
REMARK SMILES O=C(NCCCNC(=O)c1ccn(CC(F)(F)F)c1)c1ccc(-c2c3nc(c(-c4cc(S(=O)(=O)[O-])ccc4F)c4ccc([nH]4)c(-c4cc(S(=O)(=O)[O-])ccc4F)c4nc(c(-c5cc(S(=O)(=O)[O-])ccc5F)c5ccc2[nH]5)C=C4)C=C3)cc1
REMARK SMILES IDX 4 1 3 2 1 3 2 4 20 6 21 7 82 8 22 9 81 10 23 11 24 12 25 13
REMARK SMILES IDX 75 14 26 15 80 16 74 17 76 18 27 19 79 20 73 21 72 22 28 24
REMARK SMILES IDX 60 25 40 26 59 27 41 28 44 29 58 30 77 31 42 32 43 33 57 35
REMARK SMILES IDX 78 36 45 37 29 38 30 39 38 40 31 41 37 42 39 43 36 44 32 45
REMARK SMILES IDX 33 46 34 47 35 48 61 49 62 50 70 51 63 52 69 53 71 54 68 55
REMARK SMILES IDX 64 56 65 57 66 58 67 59 46 60 47 61 55 62 48 63 54 64 56 65
REMARK SMILES IDX 53 66 49 67 50 68 51 69 52 70 5 71 6 72 7 73 8 74 9 76 10 77
REMARK SMILES IDX 11 78 19 79 12 80 13 81 14 82 15 83 16 84 17 85 18 86
REMARK H PARENT 3 5 76 23 44 34 7 75
REMARK Flexibility Score: inf
ROOT
ATOM      1  C   UNL A   1      34.716  28.875  26.749  1.00  0.00     0.118 C 
ENDROOT
BRANCH   1   2
ATOM      2  N   UNL A   1      35.005  30.127  27.427  1.00  0.00    -0.352 N 
ATOM      3  O   UNL A   1      36.102  31.799  28.415  1.00  0.00    -0.269 OA
ATOM      4  C   UNL A   1      36.137  30.635  28.015  1.00  0.00     0.251 C 
ATOM      5  H   UNL A   1      34.233  30.735  27.474  1.00  0.00     0.163 HD
BRANCH   4   6
ATOM      6  C   UNL A   1      37.353  29.820  28.261  1.00  0.00     0.039 A 
ATOM      7  C   UNL A   1      38.494  29.874  27.460  1.00  0.00     0.014 A 
ATOM      8  C   UNL A   1      37.342  28.970  29.382  1.00  0.00     0.014 A 
ATOM      9  C   UNL A   1      39.560  29.018  27.702  1.00  0.00     0.010 A 
ATOM     10  C   UNL A   1      38.426  28.132  29.654  1.00  0.00     0.010 A 
ATOM     11  C   UNL A   1      39.535  28.154  28.804  1.00  0.00    -0.014 A 
BRANCH  11  12
ATOM     12  C   UNL A   1      40.829  27.528  29.176  1.00  0.00     0.031 A 
ATOM     13  C   UNL A   1      41.123  26.329  28.215  1.00  0.00     0.074 A 
ATOM     14  C   UNL A   1      41.451  28.004  30.305  1.00  0.00     0.049 A 
ATOM     15  N   UNL A   1      41.733  25.202  28.425  1.00  0.00    -0.248 NA
ATOM     16  C   UNL A   1      40.550  26.350  26.832  1.00  0.00     0.031 C 
ATOM     17  C   UNL A   1      41.045  29.211  31.073  1.00  0.00     0.029 A 
ATOM     18  N   UNL A   1      42.537  27.588  31.053  1.00  0.00    -0.354 N 
ATOM     19  C   UNL A   1      41.849  24.530  27.177  1.00  0.00     0.074 A 
ATOM     20  C   UNL A   1      40.972  25.210  26.280  1.00  0.00     0.031 C 
ATOM     21  C   UNL A   1      41.794  29.363  32.196  1.00  0.00     0.029 A 
ATOM     22  C   UNL A   1      42.771  28.294  32.281  1.00  0.00     0.049 A 
ATOM     23  H   UNL A   1      43.117  26.849  30.759  1.00  0.00     0.167 HD
ATOM     24  C   UNL A   1      42.773  23.551  26.927  1.00  0.00     0.034 A 
ATOM     25  C   UNL A   1      43.661  28.001  33.293  1.00  0.00     0.034 A 
ATOM     26  C   UNL A   1      43.503  23.282  28.118  1.00  0.00     0.049 A 
ATOM     27  C   UNL A   1      44.446  26.897  32.723  1.00  0.00     0.074 A 
ATOM     28  C   UNL A   1      43.156  22.666  29.289  1.00  0.00     0.029 A 
ATOM     29  N   UNL A   1      44.665  23.992  28.301  1.00  0.00    -0.354 N 
ATOM     30  N   UNL A   1      45.353  27.036  31.807  1.00  0.00    -0.248 NA
ATOM     31  C   UNL A   1      44.159  25.525  33.164  1.00  0.00     0.031 C 
ATOM     32  C   UNL A   1      43.800  23.466  30.251  1.00  0.00     0.029 A 
ATOM     33  C   UNL A   1      44.704  24.337  29.626  1.00  0.00     0.049 A 
ATOM     34  H   UNL A   1      45.337  24.210  27.615  1.00  0.00     0.167 HD
ATOM     35  C   UNL A   1      45.501  25.756  31.344  1.00  0.00     0.074 A 
ATOM     36  C   UNL A   1      45.038  24.882  32.402  1.00  0.00     0.031 C 
ATOM     37  C   UNL A   1      45.445  25.517  30.011  1.00  0.00     0.034 A 
BRANCH  24  38
ATOM     38  C   UNL A   1      43.310  22.906  25.669  1.00  0.00     0.023 A 
ATOM     39  C   UNL A   1      43.308  21.485  25.636  1.00  0.00     0.031 A 
ATOM     40  C   UNL A   1      44.090  23.542  24.696  1.00  0.00     0.131 A 
ATOM     41  C   UNL A   1      44.155  20.763  24.786  1.00  0.00     0.055 A 
ATOM     42  C   UNL A   1      44.888  22.814  23.798  1.00  0.00     0.041 A 
ATOM     43  F   UNL A   1      44.178  24.878  24.630  1.00  0.00    -0.206 F 
ATOM     44  C   UNL A   1      44.956  21.424  23.865  1.00  0.00     0.022 A 
BRANCH  41  45
ATOM     45  S   UNL A   1      44.317  18.970  25.048  1.00  0.00     0.124 S 
ATOM     46  O   UNL A   1      43.007  18.615  25.581  1.00  0.00    -0.237 OA
ATOM     47  O   UNL A   1      44.609  18.491  23.700  1.00  0.00    -0.237 OA
ATOM     48  O   UNL A   1      45.424  18.864  25.996  1.00  0.00    -0.744 OA
ENDBRANCH  41  45
ENDBRANCH  24  38
BRANCH  25  49
ATOM     49  C   UNL A   1      44.061  28.366  34.734  1.00  0.00     0.023 A 
ATOM     50  C   UNL A   1      44.160  27.518  35.854  1.00  0.00     0.031 A 
ATOM     51  C   UNL A   1      44.465  29.722  35.006  1.00  0.00     0.131 A 
ATOM     52  C   UNL A   1      44.712  28.008  37.086  1.00  0.00     0.055 A 
ATOM     53  C   UNL A   1      45.094  30.163  36.168  1.00  0.00     0.041 A 
ATOM     54  F   UNL A   1      44.259  30.721  34.138  1.00  0.00    -0.206 F 
ATOM     55  C   UNL A   1      45.238  29.298  37.218  1.00  0.00     0.022 A 
BRANCH  52  56
ATOM     56  S   UNL A   1      44.777  26.991  38.598  1.00  0.00     0.124 S 
ATOM     57  O   UNL A   1      45.943  26.152  38.346  1.00  0.00    -0.237 OA
ATOM     58  O   UNL A   1      44.913  27.985  39.656  1.00  0.00    -0.237 OA
ATOM     59  O   UNL A   1      43.495  26.284  38.583  1.00  0.00    -0.744 OA
ENDBRANCH  52  56
ENDBRANCH  25  49
BRANCH  37  60
ATOM     60  C   UNL A   1      45.795  26.715  29.128  1.00  0.00     0.023 A 
ATOM     61  C   UNL A   1      44.769  27.501  28.565  1.00  0.00     0.031 A 
ATOM     62  C   UNL A   1      47.102  27.045  28.724  1.00  0.00     0.131 A 
ATOM     63  C   UNL A   1      45.059  28.525  27.640  1.00  0.00     0.055 A 
ATOM     64  C   UNL A   1      47.396  28.065  27.807  1.00  0.00     0.041 A 
ATOM     65  F   UNL A   1      48.153  26.379  29.196  1.00  0.00    -0.206 F 
ATOM     66  C   UNL A   1      46.368  28.812  27.256  1.00  0.00     0.022 A 
BRANCH  63  67
ATOM     67  S   UNL A   1      43.698  29.508  26.953  1.00  0.00     0.124 S 
ATOM     68  O   UNL A   1      43.024  30.003  28.148  1.00  0.00    -0.237 OA
ATOM     69  O   UNL A   1      44.404  30.508  26.157  1.00  0.00    -0.237 OA
ATOM     70  O   UNL A   1      42.934  28.537  26.172  1.00  0.00    -0.744 OA
ENDBRANCH  63  67
ENDBRANCH  37  60
ENDBRANCH  11  12
ENDBRANCH   4   6
ENDBRANCH   1   2
BRANCH   1  71
ATOM     71  C   UNL A   1      33.640  28.941  25.666  1.00  0.00     0.042 C 
BRANCH  71  72
ATOM     72  C   UNL A   1      33.032  27.584  25.312  1.00  0.00     0.118 C 
BRANCH  72  73
ATOM     73  N   UNL A   1      33.343  27.187  23.947  1.00  0.00    -0.352 N 
ATOM     74  C   UNL A   1      32.513  27.042  22.864  1.00  0.00     0.252 C 
ATOM     75  H   UNL A   1      34.292  26.995  23.775  1.00  0.00     0.163 HD
ATOM     76  O   UNL A   1      32.927  26.435  21.881  1.00  0.00    -0.269 OA
BRANCH  74  77
ATOM     77  C   UNL A   1      31.174  27.608  22.920  1.00  0.00     0.057 A 
ATOM     78  C   UNL A   1      29.999  27.080  23.531  1.00  0.00     0.033 A 
ATOM     79  C   UNL A   1      30.822  28.854  22.425  1.00  0.00     0.099 A 
ATOM     80  C   UNL A   1      28.975  27.977  23.330  1.00  0.00     0.087 A 
ATOM     81  N   UNL A   1      29.479  29.034  22.622  1.00  0.00    -0.344 N 
BRANCH  81  82
ATOM     82  C   UNL A   1      28.713  30.188  22.189  1.00  0.00     0.236 C 
BRANCH  82  83
ATOM     83  C   UNL A   1      28.498  31.203  23.287  1.00  0.00     0.406 C 
ATOM     84  F   UNL A   1      29.452  31.130  24.236  1.00  0.00    -0.169 F 
ATOM     85  F   UNL A   1      28.542  32.452  22.762  1.00  0.00    -0.169 F 
ATOM     86  F   UNL A   1      27.291  31.060  23.875  1.00  0.00    -0.169 F 
ENDBRANCH  82  83
ENDBRANCH  81  82
ENDBRANCH  74  77
ENDBRANCH  72  73
ENDBRANCH  71  72
ENDBRANCH   1  71
TORSDOF 15
ENDMDL
MODEL 2
REMARK VINA RESULT:     -11.8      5.673     10.907
REMARK SMILES O=C(NCCCNC(=O)c1ccn(CC(F)(F)F)c1)c1ccc(-c2c3nc(c(-c4cc(S(=O)(=O)[O-])ccc4F)c4ccc([nH]4)c(-c4cc(S(=O)(=O)[O-])ccc4F)c4nc(c(-c5cc(S(=O)(=O)[O-])ccc5F)c5ccc2[nH]5)C=C4)C=C3)cc1
REMARK SMILES IDX 4 1 3 2 1 3 2 4 20 6 21 7 82 8 22 9 81 10 23 11 24 12 25 13
REMARK SMILES IDX 75 14 26 15 80 16 74 17 76 18 27 19 79 20 73 21 72 22 28 24
REMARK SMILES IDX 60 25 40 26 59 27 41 28 44 29 58 30 77 31 42 32 43 33 57 35
REMARK SMILES IDX 78 36 45 37 29 38 30 39 38 40 31 41 37 42 39 43 36 44 32 45
REMARK SMILES IDX 33 46 34 47 35 48 61 49 62 50 70 51 63 52 69 53 71 54 68 55
REMARK SMILES IDX 64 56 65 57 66 58 67 59 46 60 47 61 55 62 48 63 54 64 56 65
REMARK SMILES IDX 53 66 49 67 50 68 51 69 52 70 5 71 6 72 7 73 8 74 9 76 10 77
REMARK SMILES IDX 11 78 19 79 12 80 13 81 14 82 15 83 16 84 17 85 18 86
REMARK H PARENT 3 5 76 23 44 34 7 75
REMARK Flexibility Score: inf
ROOT
ATOM      1  C   UNL A   1      37.550  24.094  26.082  1.00  0.00     0.118 C 
ENDROOT
BRANCH   1   2
ATOM      2  N   UNL A   1      38.914  23.636  26.284  1.00  0.00    -0.352 N 
ATOM      3  O   UNL A   1      40.999  23.459  27.056  1.00  0.00    -0.269 OA
ATOM      4  C   UNL A   1      39.983  24.150  26.976  1.00  0.00     0.251 C 
ATOM      5  H   UNL A   1      39.113  22.784  25.833  1.00  0.00     0.163 HD
BRANCH   4   6
ATOM      6  C   UNL A   1      39.992  25.520  27.545  1.00  0.00     0.039 A 
ATOM      7  C   UNL A   1      39.683  25.805  28.876  1.00  0.00     0.014 A 
ATOM      8  C   UNL A   1      40.355  26.573  26.686  1.00  0.00     0.014 A 
ATOM      9  C   UNL A   1      39.628  27.121  29.315  1.00  0.00     0.010 A 
ATOM     10  C   UNL A   1      40.337  27.896  27.130  1.00  0.00     0.010 A 
ATOM     11  C   UNL A   1      39.965  28.169  28.450  1.00  0.00    -0.014 A 
BRANCH  11  12
ATOM     12  C   UNL A   1      40.199  29.491  29.081  1.00  0.00     0.031 A 
ATOM     13  C   UNL A   1      38.826  30.177  29.382  1.00  0.00     0.074 A 
ATOM     14  C   UNL A   1      41.505  29.914  29.179  1.00  0.00     0.049 A 
ATOM     15  N   UNL A   1      38.483  31.429  29.377  1.00  0.00    -0.248 NA
ATOM     16  C   UNL A   1      37.623  29.318  29.620  1.00  0.00     0.031 C 
ATOM     17  C   UNL A   1      42.705  29.087  28.888  1.00  0.00     0.029 A 
ATOM     18  N   UNL A   1      42.104  31.108  29.530  1.00  0.00    -0.354 N 
ATOM     19  C   UNL A   1      37.148  31.517  29.860  1.00  0.00     0.074 A 
ATOM     20  C   UNL A   1      36.633  30.186  29.840  1.00  0.00     0.031 C 
ATOM     21  C   UNL A   1      43.847  29.816  28.979  1.00  0.00     0.029 A 
ATOM     22  C   UNL A   1      43.527  31.182  29.349  1.00  0.00     0.049 A 
ATOM     23  H   UNL A   1      41.585  31.866  29.885  1.00  0.00     0.167 HD
ATOM     24  C   UNL A   1      36.606  32.660  30.384  1.00  0.00     0.034 A 
ATOM     25  C   UNL A   1      44.358  32.278  29.455  1.00  0.00     0.034 A 
ATOM     26  C   UNL A   1      37.552  33.716  30.282  1.00  0.00     0.049 A 
ATOM     27  C   UNL A   1      43.461  33.314  29.985  1.00  0.00     0.074 A 
ATOM     28  C   UNL A   1      38.027  34.423  29.212  1.00  0.00     0.029 A 
ATOM     29  N   UNL A   1      38.382  33.905  31.361  1.00  0.00    -0.354 N 
ATOM     30  N   UNL A   1      43.042  33.366  31.211  1.00  0.00    -0.248 NA
ATOM     31  C   UNL A   1      42.943  34.337  29.066  1.00  0.00     0.031 C 
ATOM     32  C   UNL A   1      39.394  34.555  29.521  1.00  0.00     0.029 A 
ATOM     33  C   UNL A   1      39.624  34.175  30.851  1.00  0.00     0.049 A 
ATOM     34  H   UNL A   1      38.133  33.857  32.312  1.00  0.00     0.167 HD
ATOM     35  C   UNL A   1      41.976  34.220  31.120  1.00  0.00     0.074 A 
ATOM     36  C   UNL A   1      42.185  35.012  29.925  1.00  0.00     0.031 C 
ATOM     37  C   UNL A   1      40.783  33.860  31.656  1.00  0.00     0.034 A 
BRANCH  24  38
ATOM     38  C   UNL A   1      35.379  32.957  31.217  1.00  0.00     0.023 A 
ATOM     39  C   UNL A   1      34.534  34.000  30.748  1.00  0.00     0.031 A 
ATOM     40  C   UNL A   1      35.169  32.543  32.537  1.00  0.00     0.131 A 
ATOM     41  C   UNL A   1      33.656  34.681  31.600  1.00  0.00     0.055 A 
ATOM     42  C   UNL A   1      34.238  33.183  33.373  1.00  0.00     0.041 A 
ATOM     43  F   UNL A   1      35.907  31.574  33.094  1.00  0.00    -0.206 F 
ATOM     44  C   UNL A   1      33.506  34.280  32.921  1.00  0.00     0.022 A 
BRANCH  41  45
ATOM     45  S   UNL A   1      32.867  36.203  30.992  1.00  0.00     0.124 S 
ATOM     46  O   UNL A   1      33.928  37.190  31.159  1.00  0.00    -0.237 OA
ATOM     47  O   UNL A   1      32.538  35.846  29.615  1.00  0.00    -0.237 OA
ATOM     48  O   UNL A   1      31.719  36.369  31.880  1.00  0.00    -0.744 OA
ENDBRANCH  41  45
ENDBRANCH  24  38
BRANCH  25  49
ATOM     49  C   UNL A   1      45.789  32.777  29.182  1.00  0.00     0.023 A 
ATOM     50  C   UNL A   1      46.383  33.091  27.945  1.00  0.00     0.031 A 
ATOM     51  C   UNL A   1      46.643  33.042  30.312  1.00  0.00     0.131 A 
ATOM     52  C   UNL A   1      47.682  33.704  27.901  1.00  0.00     0.055 A 
ATOM     53  C   UNL A   1      47.854  33.730  30.268  1.00  0.00     0.041 A 
ATOM     54  F   UNL A   1      46.346  32.630  31.551  1.00  0.00    -0.206 F 
ATOM     55  C   UNL A   1      48.377  34.084  29.054  1.00  0.00     0.022 A 
BRANCH  52  56
ATOM     56  S   UNL A   1      48.545  34.045  26.332  1.00  0.00     0.124 S 
ATOM     57  O   UNL A   1      49.358  35.205  26.681  1.00  0.00    -0.237 OA
ATOM     58  O   UNL A   1      49.267  32.804  26.080  1.00  0.00    -0.237 OA
ATOM     59  O   UNL A   1      47.451  34.318  25.398  1.00  0.00    -0.744 OA
ENDBRANCH  52  56
ENDBRANCH  25  49
BRANCH  37  60
ATOM     60  C   UNL A   1      40.871  32.832  32.785  1.00  0.00     0.023 A 
ATOM     61  C   UNL A   1      40.717  31.460  32.503  1.00  0.00     0.031 A 
ATOM     62  C   UNL A   1      40.986  33.163  34.148  1.00  0.00     0.131 A 
ATOM     63  C   UNL A   1      40.657  30.504  33.539  1.00  0.00     0.055 A 
ATOM     64  C   UNL A   1      40.930  32.216  35.182  1.00  0.00     0.041 A 
ATOM     65  F   UNL A   1      41.145  34.426  34.535  1.00  0.00    -0.206 F 
ATOM     66  C   UNL A   1      40.762  30.876  34.879  1.00  0.00     0.022 A 
BRANCH  63  67
ATOM     67  S   UNL A   1      40.464  28.752  33.117  1.00  0.00     0.124 S 
ATOM     68  O   UNL A   1      41.495  28.549  32.107  1.00  0.00    -0.237 OA
ATOM     69  O   UNL A   1      40.688  28.093  34.401  1.00  0.00    -0.237 OA
ATOM     70  O   UNL A   1      39.091  28.668  32.622  1.00  0.00    -0.744 OA
ENDBRANCH  63  67
ENDBRANCH  37  60
ENDBRANCH  11  12
ENDBRANCH   4   6
ENDBRANCH   1   2
BRANCH   1  71
ATOM     71  C   UNL A   1      36.550  23.025  25.646  1.00  0.00     0.042 C 
BRANCH  71  72
ATOM     72  C   UNL A   1      35.117  23.537  25.503  1.00  0.00     0.118 C 
BRANCH  72  73
ATOM     73  N   UNL A   1      34.337  23.322  26.712  1.00  0.00    -0.352 N 
ATOM     74  C   UNL A   1      33.271  22.486  26.933  1.00  0.00     0.252 C 
ATOM     75  H   UNL A   1      34.617  23.856  27.489  1.00  0.00     0.163 HD
ATOM     76  O   UNL A   1      32.586  22.657  27.936  1.00  0.00    -0.269 OA
BRANCH  74  77
ATOM     77  C   UNL A   1      32.991  21.432  25.971  1.00  0.00     0.057 A 
ATOM     78  C   UNL A   1      32.526  21.541  24.628  1.00  0.00     0.033 A 
ATOM     79  C   UNL A   1      33.211  20.081  26.192  1.00  0.00     0.099 A 
ATOM     80  C   UNL A   1      32.417  20.270  24.110  1.00  0.00     0.087 A 
ATOM     81  N   UNL A   1      32.799  19.388  25.085  1.00  0.00    -0.344 N 
BRANCH  81  82
ATOM     82  C   UNL A   1      32.808  17.944  24.945  1.00  0.00     0.236 C 
BRANCH  82  83
ATOM     83  C   UNL A   1      33.916  17.442  24.048  1.00  0.00     0.406 C 
ATOM     84  F   UNL A   1      34.107  16.114  24.176  1.00  0.00    -0.169 F 
ATOM     85  F   UNL A   1      33.592  17.682  22.754  1.00  0.00    -0.169 F 
ATOM     86  F   UNL A   1      35.084  18.072  24.291  1.00  0.00    -0.169 F 
ENDBRANCH  82  83
ENDBRANCH  81  82
ENDBRANCH  74  77
ENDBRANCH  72  73
ENDBRANCH  71  72
ENDBRANCH   1  71
TORSDOF 15
ENDMDL
MODEL 3
REMARK VINA RESULT:     -11.5      2.746      3.359
REMARK SMILES O=C(NCCCNC(=O)c1ccn(CC(F)(F)F)c1)c1ccc(-c2c3nc(c(-c4cc(S(=O)(=O)[O-])ccc4F)c4ccc([nH]4)c(-c4cc(S(=O)(=O)[O-])ccc4F)c4nc(c(-c5cc(S(=O)(=O)[O-])ccc5F)c5ccc2[nH]5)C=C4)C=C3)cc1
REMARK SMILES IDX 4 1 3 2 1 3 2 4 20 6 21 7 82 8 22 9 81 10 23 11 24 12 25 13
REMARK SMILES IDX 75 14 26 15 80 16 74 17 76 18 27 19 79 20 73 21 72 22 28 24
REMARK SMILES IDX 60 25 40 26 59 27 41 28 44 29 58 30 77 31 42 32 43 33 57 35
REMARK SMILES IDX 78 36 45 37 29 38 30 39 38 40 31 41 37 42 39 43 36 44 32 45
REMARK SMILES IDX 33 46 34 47 35 48 61 49 62 50 70 51 63 52 69 53 71 54 68 55
REMARK SMILES IDX 64 56 65 57 66 58 67 59 46 60 47 61 55 62 48 63 54 64 56 65
REMARK SMILES IDX 53 66 49 67 50 68 51 69 52 70 5 71 6 72 7 73 8 74 9 76 10 77
REMARK SMILES IDX 11 78 19 79 12 80 13 81 14 82 15 83 16 84 17 85 18 86
REMARK H PARENT 3 5 76 23 44 34 7 75
REMARK Flexibility Score: inf
ROOT
ATOM      1  C   UNL A   1      34.721  28.692  26.787  1.00  0.00     0.118 C 
ENDROOT
BRANCH   1   2
ATOM      2  N   UNL A   1      35.033  29.996  27.347  1.00  0.00    -0.352 N 
ATOM      3  O   UNL A   1      36.163  31.742  28.153  1.00  0.00    -0.269 OA
ATOM      4  C   UNL A   1      36.185  30.548  27.851  1.00  0.00     0.251 C 
ATOM      5  H   UNL A   1      34.263  30.609  27.368  1.00  0.00     0.163 HD
BRANCH   4   6
ATOM      6  C   UNL A   1      37.407  29.754  28.126  1.00  0.00     0.039 A 
ATOM      7  C   UNL A   1      38.551  29.797  27.328  1.00  0.00     0.014 A 
ATOM      8  C   UNL A   1      37.400  28.934  29.269  1.00  0.00     0.014 A 
ATOM      9  C   UNL A   1      39.626  28.959  27.599  1.00  0.00     0.010 A 
ATOM     10  C   UNL A   1      38.491  28.115  29.568  1.00  0.00     0.010 A 
ATOM     11  C   UNL A   1      39.604  28.125  28.723  1.00  0.00    -0.014 A 
BRANCH  11  12
ATOM     12  C   UNL A   1      40.902  27.523  29.118  1.00  0.00     0.031 A 
ATOM     13  C   UNL A   1      41.234  26.328  28.165  1.00  0.00     0.074 A 
ATOM     14  C   UNL A   1      41.498  28.013  30.257  1.00  0.00     0.049 A 
ATOM     15  N   UNL A   1      41.860  25.212  28.387  1.00  0.00    -0.248 NA
ATOM     16  C   UNL A   1      40.684  26.337  26.772  1.00  0.00     0.031 C 
ATOM     17  C   UNL A   1      41.057  29.213  31.015  1.00  0.00     0.029 A 
ATOM     18  N   UNL A   1      42.577  27.617  31.023  1.00  0.00    -0.354 N 
ATOM     19  C   UNL A   1      42.010  24.541  27.142  1.00  0.00     0.074 A 
ATOM     20  C   UNL A   1      41.136  25.204  26.229  1.00  0.00     0.031 C 
ATOM     21  C   UNL A   1      41.784  29.381  32.150  1.00  0.00     0.029 A 
ATOM     22  C   UNL A   1      42.779  28.329  32.253  1.00  0.00     0.049 A 
ATOM     23  H   UNL A   1      43.176  26.888  30.740  1.00  0.00     0.167 HD
ATOM     24  C   UNL A   1      42.955  23.578  26.910  1.00  0.00     0.034 A 
ATOM     25  C   UNL A   1      43.657  28.053  33.280  1.00  0.00     0.034 A 
ATOM     26  C   UNL A   1      43.669  23.324  28.113  1.00  0.00     0.049 A 
ATOM     27  C   UNL A   1      44.471  26.963  32.726  1.00  0.00     0.074 A 
ATOM     28  C   UNL A   1      43.314  22.705  29.278  1.00  0.00     0.029 A 
ATOM     29  N   UNL A   1      44.815  24.056  28.314  1.00  0.00    -0.354 N 
ATOM     30  N   UNL A   1      45.390  27.117  31.825  1.00  0.00    -0.248 NA
ATOM     31  C   UNL A   1      44.201  25.587  33.165  1.00  0.00     0.031 C 
ATOM     32  C   UNL A   1      43.928  23.517  30.250  1.00  0.00     0.029 A 
ATOM     33  C   UNL A   1      44.826  24.403  29.639  1.00  0.00     0.049 A 
ATOM     34  H   UNL A   1      45.495  24.285  27.639  1.00  0.00     0.167 HD
ATOM     35  C   UNL A   1      45.569  25.839  31.367  1.00  0.00     0.074 A 
ATOM     36  C   UNL A   1      45.104  24.958  32.419  1.00  0.00     0.031 C 
ATOM     37  C   UNL A   1      45.539  25.597  30.033  1.00  0.00     0.034 A 
BRANCH  24  38
ATOM     38  C   UNL A   1      43.525  22.942  25.662  1.00  0.00     0.023 A 
ATOM     39  C   UNL A   1      43.572  21.520  25.642  1.00  0.00     0.031 A 
ATOM     40  C   UNL A   1      44.289  23.596  24.689  1.00  0.00     0.131 A 
ATOM     41  C   UNL A   1      44.450  20.821  24.805  1.00  0.00     0.055 A 
ATOM     42  C   UNL A   1      45.120  22.888  23.803  1.00  0.00     0.041 A 
ATOM     43  F   UNL A   1      44.332  24.932  24.611  1.00  0.00    -0.206 F 
ATOM     44  C   UNL A   1      45.236  21.501  23.884  1.00  0.00     0.022 A 
BRANCH  41  45
ATOM     45  S   UNL A   1      44.673  19.037  25.085  1.00  0.00     0.124 S 
ATOM     46  O   UNL A   1      44.788  18.522  23.725  1.00  0.00    -0.237 OA
ATOM     47  O   UNL A   1      45.893  19.004  25.884  1.00  0.00    -0.237 OA
ATOM     48  O   UNL A   1      43.456  18.651  25.795  1.00  0.00    -0.744 OA
ENDBRANCH  41  45
ENDBRANCH  24  38
BRANCH  25  49
ATOM     49  C   UNL A   1      44.026  28.428  34.727  1.00  0.00     0.023 A 
ATOM     50  C   UNL A   1      44.175  27.576  35.839  1.00  0.00     0.031 A 
ATOM     51  C   UNL A   1      44.339  29.804  35.016  1.00  0.00     0.131 A 
ATOM     52  C   UNL A   1      44.689  28.088  37.079  1.00  0.00     0.055 A 
ATOM     53  C   UNL A   1      44.933  30.273  36.185  1.00  0.00     0.041 A 
ATOM     54  F   UNL A   1      44.072  30.798  34.158  1.00  0.00    -0.206 F 
ATOM     55  C   UNL A   1      45.129  29.407  37.227  1.00  0.00     0.022 A 
BRANCH  52  56
ATOM     56  S   UNL A   1      44.814  27.060  38.580  1.00  0.00     0.124 S 
ATOM     57  O   UNL A   1      43.512  26.403  38.605  1.00  0.00    -0.237 OA
ATOM     58  O   UNL A   1      45.963  26.207  38.297  1.00  0.00    -0.237 OA
ATOM     59  O   UNL A   1      45.029  28.043  39.644  1.00  0.00    -0.744 OA
ENDBRANCH  52  56
ENDBRANCH  25  49
BRANCH  37  60
ATOM     60  C   UNL A   1      45.882  26.800  29.154  1.00  0.00     0.023 A 
ATOM     61  C   UNL A   1      44.852  27.573  28.582  1.00  0.00     0.031 A 
ATOM     62  C   UNL A   1      47.189  27.146  28.762  1.00  0.00     0.131 A 
ATOM     63  C   UNL A   1      45.137  28.601  27.660  1.00  0.00     0.055 A 
ATOM     64  C   UNL A   1      47.479  28.170  27.848  1.00  0.00     0.041 A 
ATOM     65  F   UNL A   1      48.244  26.493  29.244  1.00  0.00    -0.206 F 
ATOM     66  C   UNL A   1      46.447  28.904  27.288  1.00  0.00     0.022 A 
BRANCH  63  67
ATOM     67  S   UNL A   1      43.771  29.568  26.961  1.00  0.00     0.124 S 
ATOM     68  O   UNL A   1      43.107  28.603  26.093  1.00  0.00    -0.237 OA
ATOM     69  O   UNL A   1      43.030  29.971  28.153  1.00  0.00    -0.237 OA
ATOM     70  O   UNL A   1      44.447  30.662  26.264  1.00  0.00    -0.744 OA
ENDBRANCH  63  67
ENDBRANCH  37  60
ENDBRANCH  11  12
ENDBRANCH   4   6
ENDBRANCH   1   2
BRANCH   1  71
ATOM     71  C   UNL A   1      33.376  28.584  26.070  1.00  0.00     0.042 C 
BRANCH  71  72
ATOM     72  C   UNL A   1      33.005  27.160  25.659  1.00  0.00     0.118 C 
BRANCH  72  73
ATOM     73  N   UNL A   1      31.815  26.686  26.348  1.00  0.00    -0.352 N 
ATOM     74  C   UNL A   1      30.965  25.656  26.029  1.00  0.00     0.252 C 
ATOM     75  H   UNL A   1      31.584  27.178  27.168  1.00  0.00     0.163 HD
ATOM     76  O   UNL A   1      29.873  25.599  26.584  1.00  0.00    -0.269 OA
BRANCH  74  77
ATOM     77  C   UNL A   1      31.388  24.674  25.043  1.00  0.00     0.057 A 
ATOM     78  C   UNL A   1      30.942  24.496  23.701  1.00  0.00     0.033 A 
ATOM     79  C   UNL A   1      32.400  23.746  25.237  1.00  0.00     0.099 A 
ATOM     80  C   UNL A   1      31.638  23.442  23.157  1.00  0.00     0.087 A 
ATOM     81  N   UNL A   1      32.494  22.968  24.113  1.00  0.00    -0.344 N 
BRANCH  81  82
ATOM     82  C   UNL A   1      33.395  21.843  23.943  1.00  0.00     0.236 C 
BRANCH  82  83
ATOM     83  C   UNL A   1      32.689  20.508  23.968  1.00  0.00     0.406 C 
ATOM     84  F   UNL A   1      31.746  20.454  24.930  1.00  0.00    -0.169 F 
ATOM     85  F   UNL A   1      32.069  20.303  22.780  1.00  0.00    -0.169 F 
ATOM     86  F   UNL A   1      33.551  19.486  24.149  1.00  0.00    -0.169 F 
ENDBRANCH  82  83
ENDBRANCH  81  82
ENDBRANCH  74  77
ENDBRANCH  72  73
ENDBRANCH  71  72
ENDBRANCH   1  71
TORSDOF 15
ENDMDL
