MODEL 1
REMARK VINA RESULT:     -11.8      0.000      0.000
REMARK SMILES CSc1cccc(N2C[C@@H](C(=O)NCCCNC(=O)c3ccc(-c4c5nc(c(-c6cc(S(=O)(=O)[O-])ccc6F)c6ccc([nH]6)c(-c6cc(S(=O)(=O)[O-])ccc6F)c6nc(c(-c7cc(S(=O)(=O)[O-])ccc7F)c7ccc4[nH]7)C=C6)C=C5)cc3)CC2=O)c1
REMARK SMILES IDX 15 1 14 2 13 3 11 4 12 5 10 7 8 8 9 9 84 10 83 11 85 12 7 13
REMARK SMILES IDX 3 14 4 15 86 16 5 17 6 18 2 19 1 20 16 21 17 22 18 23 19 25
REMARK SMILES IDX 20 26 21 27 82 28 22 29 81 30 23 31 24 32 25 33 75 34 26 35
REMARK SMILES IDX 80 36 74 37 76 38 27 39 79 40 73 41 72 42 28 44 60 45 40 46
REMARK SMILES IDX 59 47 41 48 44 49 58 50 77 51 42 52 43 53 57 55 78 56 45 57
REMARK SMILES IDX 29 58 30 59 38 60 31 61 37 62 39 63 36 64 32 65 33 66 34 67
REMARK SMILES IDX 35 68 61 69 62 70 70 71 63 72 69 73 71 74 68 75 64 76 65 77
REMARK SMILES IDX 66 78 67 79 46 80 47 81 55 82 48 83 54 84 56 85 53 86 49 87
REMARK SMILES IDX 50 88 51 89 52 90
REMARK H PARENT 13 6 17 24 76 43 44 54
REMARK Flexibility Score: inf
ROOT
ATOM      1  C   UNL A   1      31.451  31.880  26.507  1.00  0.00     0.042 C 
ENDROOT
BRANCH   1   2
ATOM      2  C   UNL A   1      31.570  30.420  26.084  1.00  0.00     0.117 C 
BRANCH   2   3
ATOM      3  N   UNL A   1      31.294  30.229  24.669  1.00  0.00    -0.356 N 
ATOM      4  C   UNL A   1      31.021  29.119  23.940  1.00  0.00     0.225 C 
ATOM      5  O   UNL A   1      30.797  29.271  22.736  1.00  0.00    -0.275 OA
ATOM      6  H   UNL A   1      31.309  31.060  24.142  1.00  0.00     0.163 HD
BRANCH   4   7
ATOM      7  C   UNL A   1      30.937  27.733  24.546  1.00  0.00     0.107 C 
ATOM      8  N   UNL A   1      32.006  25.666  24.167  1.00  0.00    -0.312 N 
ATOM      9  C   UNL A   1      32.277  27.026  24.566  1.00  0.00     0.139 C 
ATOM     10  C   UNL A   1      30.705  25.500  23.696  1.00  0.00     0.227 C 
ATOM     11  C   UNL A   1      29.951  26.789  23.881  1.00  0.00     0.116 C 
ATOM     12  O   UNL A   1      30.188  24.488  23.240  1.00  0.00    -0.274 OA
BRANCH   8  13
ATOM     13  C   UNL A   1      32.999  24.655  24.198  1.00  0.00     0.045 A 
ATOM     14  C   UNL A   1      34.050  22.739  25.300  1.00  0.00     0.009 A 
ATOM     15  C   UNL A   1      34.995  22.688  24.268  1.00  0.00     0.015 A 
ATOM     16  C   UNL A   1      33.071  23.740  25.264  1.00  0.00     0.041 A 
ATOM     17  C   UNL A   1      34.945  23.593  23.210  1.00  0.00     0.003 A 
ATOM     18  C   UNL A   1      33.937  24.555  23.164  1.00  0.00     0.026 A 
BRANCH  14  19
ATOM     19  S   UNL A   1      34.190  21.477  26.563  1.00  0.00    -0.130 SA
ATOM     20  C   UNL A   1      33.351  22.210  27.993  1.00  0.00     0.091 C 
ENDBRANCH  14  19
ENDBRANCH   8  13
ENDBRANCH   4   7
ENDBRANCH   2   3
ENDBRANCH   1   2
BRANCH   1  21
ATOM     21  C   UNL A   1      32.671  32.420  27.244  1.00  0.00     0.118 C 
BRANCH  21  22
ATOM     22  N   UNL A   1      32.546  33.830  27.577  1.00  0.00    -0.352 N 
ATOM     23  C   UNL A   1      33.187  34.571  28.540  1.00  0.00     0.251 C 
ATOM     24  H   UNL A   1      31.901  34.332  27.027  1.00  0.00     0.163 HD
ATOM     25  O   UNL A   1      32.780  35.701  28.792  1.00  0.00    -0.269 OA
BRANCH  23  26
ATOM     26  C   UNL A   1      34.339  34.008  29.281  1.00  0.00     0.039 A 
ATOM     27  C   UNL A   1      34.097  33.207  30.402  1.00  0.00     0.014 A 
ATOM     28  C   UNL A   1      35.653  34.287  28.899  1.00  0.00     0.014 A 
ATOM     29  C   UNL A   1      35.170  32.642  31.098  1.00  0.00     0.010 A 
ATOM     30  C   UNL A   1      36.715  33.649  29.536  1.00  0.00     0.010 A 
ATOM     31  C   UNL A   1      36.489  32.830  30.652  1.00  0.00    -0.014 A 
BRANCH  31  32
ATOM     32  C   UNL A   1      37.644  32.215  31.359  1.00  0.00     0.031 A 
ATOM     33  C   UNL A   1      38.387  31.069  30.721  1.00  0.00     0.074 A 
ATOM     34  C   UNL A   1      37.993  32.648  32.586  1.00  0.00     0.049 A 
ATOM     35  N   UNL A   1      39.353  30.333  31.209  1.00  0.00    -0.248 NA
ATOM     36  C   UNL A   1      37.965  30.679  29.366  1.00  0.00     0.031 C 
ATOM     37  C   UNL A   1      37.334  33.730  33.322  1.00  0.00     0.029 A 
ATOM     38  N   UNL A   1      38.984  32.229  33.440  1.00  0.00    -0.354 N 
ATOM     39  C   UNL A   1      39.647  29.393  30.227  1.00  0.00     0.074 A 
ATOM     40  C   UNL A   1      38.709  29.605  29.147  1.00  0.00     0.031 C 
ATOM     41  C   UNL A   1      37.952  33.904  34.501  1.00  0.00     0.029 A 
ATOM     42  C   UNL A   1      39.017  32.914  34.634  1.00  0.00     0.049 A 
ATOM     43  H   UNL A   1      39.614  31.505  33.219  1.00  0.00     0.167 HD
ATOM     44  C   UNL A   1      40.629  28.457  30.213  1.00  0.00     0.034 A 
ATOM     45  C   UNL A   1      39.801  32.751  35.719  1.00  0.00     0.034 A 
ATOM     46  C   UNL A   1      41.568  28.265  31.291  1.00  0.00     0.049 A 
ATOM     47  C   UNL A   1      40.862  31.675  35.694  1.00  0.00     0.074 A 
ATOM     48  C   UNL A   1      42.619  27.368  31.367  1.00  0.00     0.029 A 
ATOM     49  N   UNL A   1      41.571  28.982  32.481  1.00  0.00    -0.354 N 
ATOM     50  N   UNL A   1      41.146  30.816  34.741  1.00  0.00    -0.248 NA
ATOM     51  C   UNL A   1      41.715  31.556  36.882  1.00  0.00     0.031 C 
ATOM     52  C   UNL A   1      43.212  27.494  32.627  1.00  0.00     0.029 A 
ATOM     53  C   UNL A   1      42.591  28.530  33.304  1.00  0.00     0.049 A 
ATOM     54  H   UNL A   1      40.941  29.705  32.706  1.00  0.00     0.167 HD
ATOM     55  C   UNL A   1      42.240  30.088  35.202  1.00  0.00     0.074 A 
ATOM     56  C   UNL A   1      42.571  30.619  36.507  1.00  0.00     0.031 C 
ATOM     57  C   UNL A   1      42.914  29.075  34.602  1.00  0.00     0.034 A 
BRANCH  44  58
ATOM     58  C   UNL A   1      40.725  27.562  29.000  1.00  0.00     0.023 A 
ATOM     59  C   UNL A   1      41.676  27.793  27.990  1.00  0.00     0.031 A 
ATOM     60  C   UNL A   1      39.857  26.467  28.849  1.00  0.00     0.131 A 
ATOM     61  C   UNL A   1      41.692  26.982  26.845  1.00  0.00     0.055 A 
ATOM     62  C   UNL A   1      39.933  25.614  27.747  1.00  0.00     0.041 A 
ATOM     63  F   UNL A   1      38.914  26.211  29.768  1.00  0.00    -0.206 F 
ATOM     64  C   UNL A   1      40.847  25.875  26.730  1.00  0.00     0.022 A 
BRANCH  61  65
ATOM     65  S   UNL A   1      42.744  27.471  25.452  1.00  0.00     0.124 S 
ATOM     66  O   UNL A   1      43.995  27.798  26.131  1.00  0.00    -0.237 OA
ATOM     67  O   UNL A   1      42.761  26.267  24.629  1.00  0.00    -0.237 OA
ATOM     68  O   UNL A   1      42.039  28.613  24.874  1.00  0.00    -0.744 OA
ENDBRANCH  61  65
ENDBRANCH  44  58
BRANCH  45  69
ATOM     69  C   UNL A   1      39.615  33.602  36.932  1.00  0.00     0.023 A 
ATOM     70  C   UNL A   1      40.430  34.722  37.163  1.00  0.00     0.031 A 
ATOM     71  C   UNL A   1      38.675  33.262  37.921  1.00  0.00     0.131 A 
ATOM     72  C   UNL A   1      40.341  35.416  38.380  1.00  0.00     0.055 A 
ATOM     73  C   UNL A   1      38.540  33.998  39.100  1.00  0.00     0.041 A 
ATOM     74  F   UNL A   1      37.867  32.201  37.755  1.00  0.00    -0.206 F 
ATOM     75  C   UNL A   1      39.391  35.072  39.343  1.00  0.00     0.022 A 
BRANCH  72  76
ATOM     76  S   UNL A   1      41.576  36.695  38.741  1.00  0.00     0.124 S 
ATOM     77  O   UNL A   1      40.736  37.803  39.180  1.00  0.00    -0.237 OA
ATOM     78  O   UNL A   1      42.382  36.052  39.774  1.00  0.00    -0.237 OA
ATOM     79  O   UNL A   1      42.248  36.890  37.459  1.00  0.00    -0.744 OA
ENDBRANCH  72  76
ENDBRANCH  45  69
BRANCH  57  80
ATOM     80  C   UNL A   1      44.123  28.524  35.322  1.00  0.00     0.023 A 
ATOM     81  C   UNL A   1      44.018  27.494  36.272  1.00  0.00     0.031 A 
ATOM     82  C   UNL A   1      45.399  29.050  35.055  1.00  0.00     0.131 A 
ATOM     83  C   UNL A   1      45.161  27.065  36.965  1.00  0.00     0.055 A 
ATOM     84  C   UNL A   1      46.542  28.572  35.698  1.00  0.00     0.041 A 
ATOM     85  F   UNL A   1      45.559  30.038  34.160  1.00  0.00    -0.206 F 
ATOM     86  C   UNL A   1      46.424  27.585  36.670  1.00  0.00     0.022 A 
BRANCH  83  87
ATOM     87  S   UNL A   1      44.960  25.892  38.335  1.00  0.00     0.124 S 
ATOM     88  O   UNL A   1      46.333  25.729  38.798  1.00  0.00    -0.237 OA
ATOM     89  O   UNL A   1      44.066  26.615  39.234  1.00  0.00    -0.237 OA
ATOM     90  O   UNL A   1      44.376  24.715  37.695  1.00  0.00    -0.744 OA
ENDBRANCH  83  87
ENDBRANCH  57  80
ENDBRANCH  31  32
ENDBRANCH  23  26
ENDBRANCH  21  22
ENDBRANCH   1  21
TORSDOF 15
ENDMDL
MODEL 2
REMARK VINA RESULT:     -11.7      1.710      2.095
REMARK SMILES CSc1cccc(N2C[C@@H](C(=O)NCCCNC(=O)c3ccc(-c4c5nc(c(-c6cc(S(=O)(=O)[O-])ccc6F)c6ccc([nH]6)c(-c6cc(S(=O)(=O)[O-])ccc6F)c6nc(c(-c7cc(S(=O)(=O)[O-])ccc7F)c7ccc4[nH]7)C=C6)C=C5)cc3)CC2=O)c1
REMARK SMILES IDX 15 1 14 2 13 3 11 4 12 5 10 7 8 8 9 9 84 10 83 11 85 12 7 13
REMARK SMILES IDX 3 14 4 15 86 16 5 17 6 18 2 19 1 20 16 21 17 22 18 23 19 25
REMARK SMILES IDX 20 26 21 27 82 28 22 29 81 30 23 31 24 32 25 33 75 34 26 35
REMARK SMILES IDX 80 36 74 37 76 38 27 39 79 40 73 41 72 42 28 44 60 45 40 46
REMARK SMILES IDX 59 47 41 48 44 49 58 50 77 51 42 52 43 53 57 55 78 56 45 57
REMARK SMILES IDX 29 58 30 59 38 60 31 61 37 62 39 63 36 64 32 65 33 66 34 67
REMARK SMILES IDX 35 68 61 69 62 70 70 71 63 72 69 73 71 74 68 75 64 76 65 77
REMARK SMILES IDX 66 78 67 79 46 80 47 81 55 82 48 83 54 84 56 85 53 86 49 87
REMARK SMILES IDX 50 88 51 89 52 90
REMARK H PARENT 13 6 17 24 76 43 44 54
REMARK Flexibility Score: inf
ROOT
ATOM      1  C   UNL A   1      31.436  31.895  26.477  1.00  0.00     0.042 C 
ENDROOT
BRANCH   1   2
ATOM      2  C   UNL A   1      31.630  30.511  25.869  1.00  0.00     0.117 C 
BRANCH   2   3
ATOM      3  N   UNL A   1      32.882  29.896  26.280  1.00  0.00    -0.356 N 
ATOM      4  C   UNL A   1      33.455  28.708  25.965  1.00  0.00     0.225 C 
ATOM      5  O   UNL A   1      34.560  28.463  26.456  1.00  0.00    -0.275 OA
ATOM      6  H   UNL A   1      33.411  30.444  26.903  1.00  0.00     0.163 HD
BRANCH   4   7
ATOM      7  C   UNL A   1      32.822  27.712  25.016  1.00  0.00     0.107 C 
ATOM      8  N   UNL A   1      33.364  25.552  24.240  1.00  0.00    -0.312 N 
ATOM      9  C   UNL A   1      33.047  26.277  25.447  1.00  0.00     0.139 C 
ATOM     10  C   UNL A   1      33.576  26.398  23.153  1.00  0.00     0.227 C 
ATOM     11  C   UNL A   1      33.272  27.813  23.569  1.00  0.00     0.116 C 
ATOM     12  O   UNL A   1      33.909  26.099  22.014  1.00  0.00    -0.274 OA
BRANCH   8  13
ATOM     13  C   UNL A   1      33.506  24.142  24.217  1.00  0.00     0.045 A 
ATOM     14  C   UNL A   1      34.824  22.130  24.671  1.00  0.00     0.009 A 
ATOM     15  C   UNL A   1      33.792  21.355  24.128  1.00  0.00     0.015 A 
ATOM     16  C   UNL A   1      34.677  23.523  24.690  1.00  0.00     0.041 A 
ATOM     17  C   UNL A   1      32.629  21.953  23.645  1.00  0.00     0.003 A 
ATOM     18  C   UNL A   1      32.479  23.336  23.713  1.00  0.00     0.026 A 
BRANCH  14  19
ATOM     19  S   UNL A   1      36.233  21.231  25.313  1.00  0.00    -0.130 SA
ATOM     20  C   UNL A   1      37.555  22.472  25.336  1.00  0.00     0.091 C 
ENDBRANCH  14  19
ENDBRANCH   8  13
ENDBRANCH   4   7
ENDBRANCH   2   3
ENDBRANCH   1   2
BRANCH   1  21
ATOM     21  C   UNL A   1      32.645  32.418  27.244  1.00  0.00     0.118 C 
BRANCH  21  22
ATOM     22  N   UNL A   1      32.538  33.833  27.564  1.00  0.00    -0.352 N 
ATOM     23  C   UNL A   1      33.193  34.575  28.517  1.00  0.00     0.251 C 
ATOM     24  H   UNL A   1      31.894  34.336  27.014  1.00  0.00     0.163 HD
ATOM     25  O   UNL A   1      32.800  35.712  28.761  1.00  0.00    -0.269 OA
BRANCH  23  26
ATOM     26  C   UNL A   1      34.343  34.006  29.256  1.00  0.00     0.039 A 
ATOM     27  C   UNL A   1      34.100  33.126  30.315  1.00  0.00     0.014 A 
ATOM     28  C   UNL A   1      35.657  34.356  28.933  1.00  0.00     0.014 A 
ATOM     29  C   UNL A   1      35.172  32.556  31.006  1.00  0.00     0.010 A 
ATOM     30  C   UNL A   1      36.723  33.717  29.560  1.00  0.00     0.010 A 
ATOM     31  C   UNL A   1      36.495  32.819  30.614  1.00  0.00    -0.014 A 
BRANCH  31  32
ATOM     32  C   UNL A   1      37.653  32.201  31.316  1.00  0.00     0.031 A 
ATOM     33  C   UNL A   1      38.400  31.064  30.667  1.00  0.00     0.074 A 
ATOM     34  C   UNL A   1      37.999  32.623  32.548  1.00  0.00     0.049 A 
ATOM     35  N   UNL A   1      39.369  30.327  31.148  1.00  0.00    -0.248 NA
ATOM     36  C   UNL A   1      37.981  30.687  29.308  1.00  0.00     0.031 C 
ATOM     37  C   UNL A   1      37.336  33.695  33.294  1.00  0.00     0.029 A 
ATOM     38  N   UNL A   1      38.990  32.198  33.399  1.00  0.00    -0.354 N 
ATOM     39  C   UNL A   1      39.667  29.398  30.157  1.00  0.00     0.074 A 
ATOM     40  C   UNL A   1      38.729  29.618  29.078  1.00  0.00     0.031 C 
ATOM     41  C   UNL A   1      37.952  33.858  34.476  1.00  0.00     0.029 A 
ATOM     42  C   UNL A   1      39.020  32.871  34.599  1.00  0.00     0.049 A 
ATOM     43  H   UNL A   1      39.623  31.478  33.170  1.00  0.00     0.167 HD
ATOM     44  C   UNL A   1      40.652  28.466  30.134  1.00  0.00     0.034 A 
ATOM     45  C   UNL A   1      39.804  32.699  35.684  1.00  0.00     0.034 A 
ATOM     46  C   UNL A   1      41.591  28.266  31.210  1.00  0.00     0.049 A 
ATOM     47  C   UNL A   1      40.868  31.628  35.648  1.00  0.00     0.074 A 
ATOM     48  C   UNL A   1      42.645  27.373  31.279  1.00  0.00     0.029 A 
ATOM     49  N   UNL A   1      41.590  28.971  32.408  1.00  0.00    -0.354 N 
ATOM     50  N   UNL A   1      41.156  30.780  34.687  1.00  0.00    -0.248 NA
ATOM     51  C   UNL A   1      41.721  31.500  36.836  1.00  0.00     0.031 C 
ATOM     52  C   UNL A   1      43.237  27.487  32.540  1.00  0.00     0.029 A 
ATOM     53  C   UNL A   1      42.611  28.514  33.228  1.00  0.00     0.049 A 
ATOM     54  H   UNL A   1      40.958  29.689  32.640  1.00  0.00     0.167 HD
ATOM     55  C   UNL A   1      42.253  30.051  35.142  1.00  0.00     0.074 A 
ATOM     56  C   UNL A   1      42.581  30.570  36.453  1.00  0.00     0.031 C 
ATOM     57  C   UNL A   1      42.931  29.046  34.531  1.00  0.00     0.034 A 
BRANCH  44  58
ATOM     58  C   UNL A   1      40.753  27.584  28.912  1.00  0.00     0.023 A 
ATOM     59  C   UNL A   1      41.727  27.807  27.922  1.00  0.00     0.031 A 
ATOM     60  C   UNL A   1      39.865  26.510  28.731  1.00  0.00     0.131 A 
ATOM     61  C   UNL A   1      41.748  27.010  26.768  1.00  0.00     0.055 A 
ATOM     62  C   UNL A   1      39.944  25.668  27.620  1.00  0.00     0.041 A 
ATOM     63  F   UNL A   1      38.900  26.262  29.630  1.00  0.00    -0.206 F 
ATOM     64  C   UNL A   1      40.882  25.923  26.624  1.00  0.00     0.022 A 
BRANCH  61  65
ATOM     65  S   UNL A   1      42.836  27.494  25.401  1.00  0.00     0.124 S 
ATOM     66  O   UNL A   1      42.960  26.238  24.666  1.00  0.00    -0.237 OA
ATOM     67  O   UNL A   1      42.070  28.546  24.743  1.00  0.00    -0.237 OA
ATOM     68  O   UNL A   1      44.055  27.938  26.074  1.00  0.00    -0.744 OA
ENDBRANCH  61  65
ENDBRANCH  44  58
BRANCH  45  69
ATOM     69  C   UNL A   1      39.614  33.537  36.906  1.00  0.00     0.023 A 
ATOM     70  C   UNL A   1      39.011  33.009  38.060  1.00  0.00     0.031 A 
ATOM     71  C   UNL A   1      39.957  34.900  36.912  1.00  0.00     0.131 A 
ATOM     72  C   UNL A   1      38.704  33.852  39.139  1.00  0.00     0.055 A 
ATOM     73  C   UNL A   1      39.714  35.720  38.016  1.00  0.00     0.041 A 
ATOM     74  F   UNL A   1      40.537  35.460  35.838  1.00  0.00    -0.206 F 
ATOM     75  C   UNL A   1      39.065  35.200  39.132  1.00  0.00     0.022 A 
BRANCH  72  76
ATOM     76  S   UNL A   1      37.704  33.188  40.500  1.00  0.00     0.124 S 
ATOM     77  O   UNL A   1      38.420  31.958  40.820  1.00  0.00    -0.237 OA
ATOM     78  O   UNL A   1      37.791  34.258  41.488  1.00  0.00    -0.237 OA
ATOM     79  O   UNL A   1      36.387  33.004  39.896  1.00  0.00    -0.744 OA
ENDBRANCH  72  76
ENDBRANCH  45  69
BRANCH  57  80
ATOM     80  C   UNL A   1      44.141  28.493  35.247  1.00  0.00     0.023 A 
ATOM     81  C   UNL A   1      44.034  27.485  36.220  1.00  0.00     0.031 A 
ATOM     82  C   UNL A   1      45.421  28.993  34.952  1.00  0.00     0.131 A 
ATOM     83  C   UNL A   1      45.180  27.053  36.907  1.00  0.00     0.055 A 
ATOM     84  C   UNL A   1      46.565  28.512  35.589  1.00  0.00     0.041 A 
ATOM     85  F   UNL A   1      45.584  29.960  34.033  1.00  0.00    -0.206 F 
ATOM     86  C   UNL A   1      46.446  27.547  36.584  1.00  0.00     0.022 A 
BRANCH  83  87
ATOM     87  S   UNL A   1      44.979  25.913  38.304  1.00  0.00     0.124 S 
ATOM     88  O   UNL A   1      44.353  24.760  37.666  1.00  0.00    -0.237 OA
ATOM     89  O   UNL A   1      46.356  25.724  38.750  1.00  0.00    -0.237 OA
ATOM     90  O   UNL A   1      44.124  26.651  39.229  1.00  0.00    -0.744 OA
ENDBRANCH  83  87
ENDBRANCH  57  80
ENDBRANCH  31  32
ENDBRANCH  23  26
ENDBRANCH  21  22
ENDBRANCH   1  21
TORSDOF 15
ENDMDL
MODEL 3
REMARK VINA RESULT:     -11.7      3.909      9.125
REMARK SMILES CSc1cccc(N2C[C@@H](C(=O)NCCCNC(=O)c3ccc(-c4c5nc(c(-c6cc(S(=O)(=O)[O-])ccc6F)c6ccc([nH]6)c(-c6cc(S(=O)(=O)[O-])ccc6F)c6nc(c(-c7cc(S(=O)(=O)[O-])ccc7F)c7ccc4[nH]7)C=C6)C=C5)cc3)CC2=O)c1
REMARK SMILES IDX 15 1 14 2 13 3 11 4 12 5 10 7 8 8 9 9 84 10 83 11 85 12 7 13
REMARK SMILES IDX 3 14 4 15 86 16 5 17 6 18 2 19 1 20 16 21 17 22 18 23 19 25
REMARK SMILES IDX 20 26 21 27 82 28 22 29 81 30 23 31 24 32 25 33 75 34 26 35
REMARK SMILES IDX 80 36 74 37 76 38 27 39 79 40 73 41 72 42 28 44 60 45 40 46
REMARK SMILES IDX 59 47 41 48 44 49 58 50 77 51 42 52 43 53 57 55 78 56 45 57
REMARK SMILES IDX 29 58 30 59 38 60 31 61 37 62 39 63 36 64 32 65 33 66 34 67
REMARK SMILES IDX 35 68 61 69 62 70 70 71 63 72 69 73 71 74 68 75 64 76 65 77
REMARK SMILES IDX 66 78 67 79 46 80 47 81 55 82 48 83 54 84 56 85 53 86 49 87
REMARK SMILES IDX 50 88 51 89 52 90
REMARK H PARENT 13 6 17 24 76 43 44 54
REMARK Flexibility Score: inf
ROOT
ATOM      1  C   UNL A   1      32.643  28.016  26.743  1.00  0.00     0.042 C 
ENDROOT
BRANCH   1   2
ATOM      2  C   UNL A   1      32.136  26.896  25.843  1.00  0.00     0.117 C 
BRANCH   2   3
ATOM      3  N   UNL A   1      31.470  25.842  26.592  1.00  0.00    -0.356 N 
ATOM      4  C   UNL A   1      31.564  24.491  26.534  1.00  0.00     0.225 C 
ATOM      5  O   UNL A   1      30.880  23.840  27.330  1.00  0.00    -0.275 OA
ATOM      6  H   UNL A   1      30.831  26.171  27.265  1.00  0.00     0.163 HD
BRANCH   4   7
ATOM      7  C   UNL A   1      32.491  23.767  25.581  1.00  0.00     0.107 C 
ATOM      8  N   UNL A   1      32.922  21.512  25.042  1.00  0.00    -0.312 N 
ATOM      9  C   UNL A   1      31.873  22.503  25.017  1.00  0.00     0.139 C 
ATOM     10  C   UNL A   1      34.043  21.943  25.749  1.00  0.00     0.227 C 
ATOM     11  C   UNL A   1      33.843  23.379  26.154  1.00  0.00     0.116 C 
ATOM     12  O   UNL A   1      35.070  21.322  25.992  1.00  0.00    -0.274 OA
BRANCH   8  13
ATOM     13  C   UNL A   1      32.765  20.228  24.463  1.00  0.00     0.045 A 
ATOM     14  C   UNL A   1      32.881  17.789  24.633  1.00  0.00     0.009 A 
ATOM     15  C   UNL A   1      32.492  17.696  23.292  1.00  0.00     0.015 A 
ATOM     16  C   UNL A   1      33.034  19.062  25.200  1.00  0.00     0.041 A 
ATOM     17  C   UNL A   1      32.232  18.842  22.543  1.00  0.00     0.003 A 
ATOM     18  C   UNL A   1      32.344  20.099  23.134  1.00  0.00     0.026 A 
BRANCH  14  19
ATOM     19  S   UNL A   1      33.121  16.239  25.497  1.00  0.00    -0.130 SA
ATOM     20  C   UNL A   1      34.886  15.895  25.273  1.00  0.00     0.091 C 
ENDBRANCH  14  19
ENDBRANCH   8  13
ENDBRANCH   4   7
ENDBRANCH   2   3
ENDBRANCH   1   2
BRANCH   1  21
ATOM     21  C   UNL A   1      33.698  28.908  26.099  1.00  0.00     0.118 C 
BRANCH  21  22
ATOM     22  N   UNL A   1      33.635  30.283  26.572  1.00  0.00    -0.352 N 
ATOM     23  C   UNL A   1      34.410  30.934  27.500  1.00  0.00     0.251 C 
ATOM     24  H   UNL A   1      32.925  30.831  26.163  1.00  0.00     0.163 HD
ATOM     25  O   UNL A   1      34.052  32.037  27.907  1.00  0.00    -0.269 OA
BRANCH  23  26
ATOM     26  C   UNL A   1      35.647  30.310  28.022  1.00  0.00     0.039 A 
ATOM     27  C   UNL A   1      36.818  30.390  27.264  1.00  0.00     0.014 A 
ATOM     28  C   UNL A   1      35.654  29.622  29.238  1.00  0.00     0.014 A 
ATOM     29  C   UNL A   1      38.003  29.834  27.753  1.00  0.00     0.010 A 
ATOM     30  C   UNL A   1      36.853  29.149  29.766  1.00  0.00     0.010 A 
ATOM     31  C   UNL A   1      38.040  29.237  29.024  1.00  0.00    -0.014 A 
BRANCH  31  32
ATOM     32  C   UNL A   1      39.297  28.663  29.578  1.00  0.00     0.031 A 
ATOM     33  C   UNL A   1      39.912  29.267  30.815  1.00  0.00     0.074 A 
ATOM     34  C   UNL A   1      39.908  27.641  28.948  1.00  0.00     0.049 A 
ATOM     35  N   UNL A   1      41.048  28.981  31.399  1.00  0.00    -0.248 NA
ATOM     36  C   UNL A   1      39.165  30.357  31.462  1.00  0.00     0.031 C 
ATOM     37  C   UNL A   1      39.427  26.990  27.727  1.00  0.00     0.029 A 
ATOM     38  N   UNL A   1      41.071  26.971  29.239  1.00  0.00    -0.354 N 
ATOM     39  C   UNL A   1      41.153  29.859  32.473  1.00  0.00     0.074 A 
ATOM     40  C   UNL A   1      40.003  30.733  32.416  1.00  0.00     0.031 C 
ATOM     41  C   UNL A   1      40.272  26.003  27.389  1.00  0.00     0.029 A 
ATOM     42  C   UNL A   1      41.384  25.981  28.334  1.00  0.00     0.049 A 
ATOM     43  H   UNL A   1      41.630  27.179  30.023  1.00  0.00     0.167 HD
ATOM     44  C   UNL A   1      42.106  29.912  33.437  1.00  0.00     0.034 A 
ATOM     45  C   UNL A   1      42.455  25.163  28.263  1.00  0.00     0.034 A 
ATOM     46  C   UNL A   1      43.241  29.024  33.491  1.00  0.00     0.049 A 
ATOM     47  C   UNL A   1      43.522  25.269  29.327  1.00  0.00     0.074 A 
ATOM     48  C   UNL A   1      44.248  28.971  34.438  1.00  0.00     0.029 A 
ATOM     49  N   UNL A   1      43.521  28.032  32.559  1.00  0.00    -0.354 N 
ATOM     50  N   UNL A   1      43.587  26.085  30.355  1.00  0.00    -0.248 NA
ATOM     51  C   UNL A   1      44.651  24.336  29.230  1.00  0.00     0.031 C 
ATOM     52  C   UNL A   1      45.171  27.998  34.044  1.00  0.00     0.029 A 
ATOM     53  C   UNL A   1      44.696  27.380  32.899  1.00  0.00     0.049 A 
ATOM     54  H   UNL A   1      42.966  27.823  31.773  1.00  0.00     0.167 HD
ATOM     55  C   UNL A   1      44.741  25.729  31.048  1.00  0.00     0.074 A 
ATOM     56  C   UNL A   1      45.330  24.618  30.331  1.00  0.00     0.031 C 
ATOM     57  C   UNL A   1      45.268  26.267  32.178  1.00  0.00     0.034 A 
BRANCH  44  58
ATOM     58  C   UNL A   1      41.966  30.975  34.501  1.00  0.00     0.023 A 
ATOM     59  C   UNL A   1      42.453  32.280  34.306  1.00  0.00     0.031 A 
ATOM     60  C   UNL A   1      41.342  30.681  35.725  1.00  0.00     0.131 A 
ATOM     61  C   UNL A   1      42.366  33.222  35.342  1.00  0.00     0.055 A 
ATOM     62  C   UNL A   1      41.183  31.647  36.721  1.00  0.00     0.041 A 
ATOM     63  F   UNL A   1      40.879  29.448  35.978  1.00  0.00    -0.206 F 
ATOM     64  C   UNL A   1      41.707  32.924  36.538  1.00  0.00     0.022 A 
BRANCH  61  65
ATOM     65  S   UNL A   1      43.238  34.800  35.154  1.00  0.00     0.124 S 
ATOM     66  O   UNL A   1      42.609  35.609  36.195  1.00  0.00    -0.237 OA
ATOM     67  O   UNL A   1      44.627  34.424  35.389  1.00  0.00    -0.237 OA
ATOM     68  O   UNL A   1      42.923  35.204  33.785  1.00  0.00    -0.744 OA
ENDBRANCH  61  65
ENDBRANCH  44  58
BRANCH  45  69
ATOM     69  C   UNL A   1      42.596  24.184  27.145  1.00  0.00     0.023 A 
ATOM     70  C   UNL A   1      41.958  22.933  27.192  1.00  0.00     0.031 A 
ATOM     71  C   UNL A   1      43.436  24.449  26.049  1.00  0.00     0.131 A 
ATOM     72  C   UNL A   1      42.226  21.971  26.206  1.00  0.00     0.055 A 
ATOM     73  C   UNL A   1      43.645  23.515  25.032  1.00  0.00     0.041 A 
ATOM     74  F   UNL A   1      44.072  25.628  25.949  1.00  0.00    -0.206 F 
ATOM     75  C   UNL A   1      43.053  22.259  25.118  1.00  0.00     0.022 A 
BRANCH  72  76
ATOM     76  S   UNL A   1      41.583  20.291  26.437  1.00  0.00     0.124 S 
ATOM     77  O   UNL A   1      42.043  19.982  27.786  1.00  0.00    -0.237 OA
ATOM     78  O   UNL A   1      40.147  20.492  26.278  1.00  0.00    -0.237 OA
ATOM     79  O   UNL A   1      42.227  19.530  25.369  1.00  0.00    -0.744 OA
ENDBRANCH  72  76
ENDBRANCH  45  69
BRANCH  57  80
ATOM     80  C   UNL A   1      46.505  25.613  32.745  1.00  0.00     0.023 A 
ATOM     81  C   UNL A   1      47.783  25.841  32.207  1.00  0.00     0.031 A 
ATOM     82  C   UNL A   1      46.397  24.738  33.841  1.00  0.00     0.131 A 
ATOM     83  C   UNL A   1      48.892  25.155  32.725  1.00  0.00     0.055 A 
ATOM     84  C   UNL A   1      47.513  24.112  34.397  1.00  0.00     0.041 A 
ATOM     85  F   UNL A   1      45.201  24.479  34.395  1.00  0.00    -0.206 F 
ATOM     86  C   UNL A   1      48.768  24.306  33.828  1.00  0.00     0.022 A 
BRANCH  83  87
ATOM     87  S   UNL A   1      50.485  25.303  31.871  1.00  0.00     0.124 S 
ATOM     88  O   UNL A   1      50.874  23.907  31.710  1.00  0.00    -0.237 OA
ATOM     89  O   UNL A   1      50.117  26.008  30.646  1.00  0.00    -0.237 OA
ATOM     90  O   UNL A   1      51.305  26.072  32.805  1.00  0.00    -0.744 OA
ENDBRANCH  83  87
ENDBRANCH  57  80
ENDBRANCH  31  32
ENDBRANCH  23  26
ENDBRANCH  21  22
ENDBRANCH   1  21
TORSDOF 15
ENDMDL
