MODEL 1
REMARK VINA RESULT:     -12.2      0.000      0.000
REMARK SMILES COc1cccc(NC(=O)c2nccnc2C(=O)NCCCNC(=O)c2ccc(-c3c4nc(c(-c5cc(S(=O)(=O)[O-])ccc5F)c5ccc([nH]5)c(-c5cc(S(=O)(=O)[O-])ccc5F)c5nc(c(-c6cc(S(=O)(=O)[O-])ccc6F)c6ccc3[nH]6)C=C5)C=C4)cc2)c1
REMARK SMILES IDX 21 1 20 2 19 3 17 4 18 5 16 7 11 8 12 9 13 10 15 11 14 12
REMARK SMILES IDX 9 13 8 14 10 16 7 17 3 18 4 19 89 20 5 21 6 22 2 23 1 24
REMARK SMILES IDX 22 25 23 26 24 27 25 29 26 30 27 31 88 32 28 33 87 34 29 35
REMARK SMILES IDX 30 36 31 37 81 38 32 39 86 40 80 41 82 42 33 43 85 44 79 45
REMARK SMILES IDX 78 46 34 48 66 49 46 50 65 51 47 52 50 53 64 54 83 55 48 56
REMARK SMILES IDX 49 57 63 59 84 60 51 61 35 62 36 63 44 64 37 65 43 66 45 67
REMARK SMILES IDX 42 68 38 69 39 70 40 71 41 72 67 73 68 74 76 75 69 76 75 77
REMARK SMILES IDX 77 78 74 79 70 80 71 81 72 82 73 83 52 84 53 85 61 86 54 87
REMARK SMILES IDX 60 88 62 89 59 90 55 91 56 92 57 93 58 94
REMARK H PARENT 19 6 8 15 23 28 82 47 50 58
REMARK Flexibility Score: inf
ROOT
ATOM      1  C   UNL A   1      31.136  32.104  26.337  1.00  0.00     0.042 C 
ENDROOT
BRANCH   1   2
ATOM      2  C   UNL A   1      31.162  30.818  25.540  1.00  0.00     0.118 C 
BRANCH   2   3
ATOM      3  N   UNL A   1      32.439  30.172  25.394  1.00  0.00    -0.351 N 
ATOM      4  C   UNL A   1      32.758  28.853  25.162  1.00  0.00     0.272 C 
ATOM      5  O   UNL A   1      33.961  28.623  24.989  1.00  0.00    -0.267 OA
ATOM      6  H   UNL A   1      33.215  30.772  25.474  1.00  0.00     0.163 HD
BRANCH   4   7
ATOM      7  C   UNL A   1      31.811  27.681  25.184  1.00  0.00     0.159 A 
ATOM      8  C   UNL A   1      31.370  26.874  24.140  1.00  0.00     0.159 A 
ATOM      9  N   UNL A   1      30.623  25.733  24.346  1.00  0.00    -0.247 NA
ATOM     10  C   UNL A   1      30.289  25.457  25.621  1.00  0.00     0.132 A 
ATOM     11  N   UNL A   1      31.424  27.376  26.471  1.00  0.00    -0.247 NA
ATOM     12  C   UNL A   1      30.667  26.275  26.661  1.00  0.00     0.132 A 
BRANCH   8  13
ATOM     13  C   UNL A   1      31.621  27.123  22.716  1.00  0.00     0.276 C 
ATOM     14  N   UNL A   1      30.823  27.992  21.974  1.00  0.00    -0.320 N 
ATOM     15  H   UNL A   1      31.054  28.008  21.016  1.00  0.00     0.170 HD
ATOM     16  O   UNL A   1      32.565  26.545  22.179  1.00  0.00    -0.267 OA
BRANCH  14  17
ATOM     17  C   UNL A   1      29.748  28.861  22.305  1.00  0.00     0.045 A 
ATOM     18  C   UNL A   1      28.876  31.148  22.238  1.00  0.00     0.120 A 
ATOM     19  C   UNL A   1      27.684  30.713  22.811  1.00  0.00     0.046 A 
ATOM     20  C   UNL A   1      29.903  30.226  21.988  1.00  0.00     0.072 A 
ATOM     21  C   UNL A   1      27.528  29.381  23.164  1.00  0.00     0.006 A 
ATOM     22  C   UNL A   1      28.563  28.473  22.933  1.00  0.00     0.026 A 
BRANCH  18  23
ATOM     23  O   UNL A   1      28.905  32.491  21.994  1.00  0.00    -0.497 OA
ATOM     24  C   UNL A   1      28.970  33.359  23.115  1.00  0.00     0.278 C 
ENDBRANCH  18  23
ENDBRANCH  14  17
ENDBRANCH   8  13
ENDBRANCH   4   7
ENDBRANCH   2   3
ENDBRANCH   1   2
BRANCH   1  25
ATOM     25  C   UNL A   1      32.424  32.450  27.059  1.00  0.00     0.118 C 
BRANCH  25  26
ATOM     26  N   UNL A   1      32.483  33.818  27.560  1.00  0.00    -0.352 N 
ATOM     27  C   UNL A   1      33.325  34.446  28.450  1.00  0.00     0.251 C 
ATOM     28  H   UNL A   1      31.787  34.408  27.189  1.00  0.00     0.163 HD
ATOM     29  O   UNL A   1      33.075  35.606  28.778  1.00  0.00    -0.269 OA
BRANCH  27  30
ATOM     30  C   UNL A   1      34.480  33.746  29.063  1.00  0.00     0.039 A 
ATOM     31  C   UNL A   1      35.773  34.220  28.815  1.00  0.00     0.014 A 
ATOM     32  C   UNL A   1      34.317  32.621  29.868  1.00  0.00     0.014 A 
ATOM     33  C   UNL A   1      36.872  33.628  29.448  1.00  0.00     0.010 A 
ATOM     34  C   UNL A   1      35.385  32.130  30.611  1.00  0.00     0.010 A 
ATOM     35  C   UNL A   1      36.682  32.612  30.398  1.00  0.00    -0.014 A 
BRANCH  35  36
ATOM     36  C   UNL A   1      37.821  32.007  31.145  1.00  0.00     0.031 A 
ATOM     37  C   UNL A   1      38.610  30.878  30.528  1.00  0.00     0.074 A 
ATOM     38  C   UNL A   1      38.099  32.420  32.399  1.00  0.00     0.049 A 
ATOM     39  N   UNL A   1      39.565  30.150  31.049  1.00  0.00    -0.248 NA
ATOM     40  C   UNL A   1      38.244  30.483  29.159  1.00  0.00     0.031 C 
ATOM     41  C   UNL A   1      37.373  33.464  33.127  1.00  0.00     0.029 A 
ATOM     42  N   UNL A   1      39.063  32.010  33.286  1.00  0.00    -0.354 N 
ATOM     43  C   UNL A   1      39.891  29.202  30.084  1.00  0.00     0.074 A 
ATOM     44  C   UNL A   1      38.975  29.394  28.983  1.00  0.00     0.031 C 
ATOM     45  C   UNL A   1      37.945  33.643  34.329  1.00  0.00     0.029 A 
ATOM     46  C   UNL A   1      39.039  32.691  34.484  1.00  0.00     0.049 A 
ATOM     47  H   UNL A   1      39.711  31.298  33.086  1.00  0.00     0.167 HD
ATOM     48  C   UNL A   1      40.886  28.280  30.096  1.00  0.00     0.034 A 
ATOM     49  C   UNL A   1      39.806  32.556  35.584  1.00  0.00     0.034 A 
ATOM     50  C   UNL A   1      41.812  28.125  31.189  1.00  0.00     0.049 A 
ATOM     51  C   UNL A   1      40.901  31.519  35.580  1.00  0.00     0.074 A 
ATOM     52  C   UNL A   1      42.898  27.273  31.286  1.00  0.00     0.029 A 
ATOM     53  N   UNL A   1      41.763  28.839  32.380  1.00  0.00    -0.354 N 
ATOM     54  N   UNL A   1      41.231  30.668  34.634  1.00  0.00    -0.248 NA
ATOM     55  C   UNL A   1      41.733  31.430  36.786  1.00  0.00     0.031 C 
ATOM     56  C   UNL A   1      43.457  27.418  32.559  1.00  0.00     0.029 A 
ATOM     57  C   UNL A   1      42.777  28.423  33.228  1.00  0.00     0.049 A 
ATOM     58  H   UNL A   1      41.103  29.539  32.591  1.00  0.00     0.167 HD
ATOM     59  C   UNL A   1      42.331  29.966  35.123  1.00  0.00     0.074 A 
ATOM     60  C   UNL A   1      42.616  30.508  36.436  1.00  0.00     0.031 C 
ATOM     61  C   UNL A   1      43.042  28.967  34.539  1.00  0.00     0.034 A 
BRANCH  48  62
ATOM     62  C   UNL A   1      41.006  27.367  28.897  1.00  0.00     0.023 A 
ATOM     63  C   UNL A   1      42.002  27.553  27.921  1.00  0.00     0.031 A 
ATOM     64  C   UNL A   1      40.093  26.315  28.707  1.00  0.00     0.131 A 
ATOM     65  C   UNL A   1      42.008  26.762  26.763  1.00  0.00     0.055 A 
ATOM     66  C   UNL A   1      40.161  25.470  27.597  1.00  0.00     0.041 A 
ATOM     67  F   UNL A   1      39.106  26.097  29.591  1.00  0.00    -0.206 F 
ATOM     68  C   UNL A   1      41.111  25.702  26.607  1.00  0.00     0.022 A 
BRANCH  65  69
ATOM     69  S   UNL A   1      43.099  27.239  25.396  1.00  0.00     0.124 S 
ATOM     70  O   UNL A   1      43.270  25.965  24.699  1.00  0.00    -0.237 OA
ATOM     71  O   UNL A   1      42.311  28.248  24.699  1.00  0.00    -0.237 OA
ATOM     72  O   UNL A   1      44.297  27.736  26.070  1.00  0.00    -0.744 OA
ENDBRANCH  65  69
ENDBRANCH  48  62
BRANCH  49  73
ATOM     73  C   UNL A   1      39.575  33.416  36.781  1.00  0.00     0.023 A 
ATOM     74  C   UNL A   1      38.928  32.912  37.922  1.00  0.00     0.031 A 
ATOM     75  C   UNL A   1      39.958  34.771  36.789  1.00  0.00     0.131 A 
ATOM     76  C   UNL A   1      38.639  33.765  38.998  1.00  0.00     0.055 A 
ATOM     77  C   UNL A   1      39.719  35.600  37.886  1.00  0.00     0.041 A 
ATOM     78  F   UNL A   1      40.583  35.305  35.727  1.00  0.00    -0.206 F 
ATOM     79  C   UNL A   1      39.043  35.102  38.995  1.00  0.00     0.022 A 
BRANCH  76  80
ATOM     80  S   UNL A   1      37.641  33.123  40.370  1.00  0.00     0.124 S 
ATOM     81  O   UNL A   1      38.334  31.880  40.687  1.00  0.00    -0.237 OA
ATOM     82  O   UNL A   1      37.758  34.193  41.356  1.00  0.00    -0.237 OA
ATOM     83  O   UNL A   1      36.313  32.966  39.781  1.00  0.00    -0.744 OA
ENDBRANCH  76  80
ENDBRANCH  49  73
BRANCH  61  84
ATOM     84  C   UNL A   1      44.226  28.431  35.306  1.00  0.00     0.023 A 
ATOM     85  C   UNL A   1      44.084  27.432  36.284  1.00  0.00     0.031 A 
ATOM     86  C   UNL A   1      45.515  28.935  35.059  1.00  0.00     0.131 A 
ATOM     87  C   UNL A   1      45.200  27.013  37.022  1.00  0.00     0.055 A 
ATOM     88  C   UNL A   1      46.634  28.465  35.748  1.00  0.00     0.041 A 
ATOM     89  F   UNL A   1      45.710  29.893  34.138  1.00  0.00    -0.206 F 
ATOM     90  C   UNL A   1      46.478  27.509  36.747  1.00  0.00     0.022 A 
BRANCH  87  91
ATOM     91  S   UNL A   1      44.945  25.885  38.420  1.00  0.00     0.124 S 
ATOM     92  O   UNL A   1      44.036  26.653  39.265  1.00  0.00    -0.237 OA
ATOM     93  O   UNL A   1      44.374  24.709  37.773  1.00  0.00    -0.237 OA
ATOM     94  O   UNL A   1      46.290  25.701  38.962  1.00  0.00    -0.744 OA
ENDBRANCH  87  91
ENDBRANCH  61  84
ENDBRANCH  35  36
ENDBRANCH  27  30
ENDBRANCH  25  26
ENDBRANCH   1  25
TORSDOF 16
ENDMDL
MODEL 2
REMARK VINA RESULT:     -12.0      4.684      9.841
REMARK SMILES COc1cccc(NC(=O)c2nccnc2C(=O)NCCCNC(=O)c2ccc(-c3c4nc(c(-c5cc(S(=O)(=O)[O-])ccc5F)c5ccc([nH]5)c(-c5cc(S(=O)(=O)[O-])ccc5F)c5nc(c(-c6cc(S(=O)(=O)[O-])ccc6F)c6ccc3[nH]6)C=C5)C=C4)cc2)c1
REMARK SMILES IDX 21 1 20 2 19 3 17 4 18 5 16 7 11 8 12 9 13 10 15 11 14 12
REMARK SMILES IDX 9 13 8 14 10 16 7 17 3 18 4 19 89 20 5 21 6 22 2 23 1 24
REMARK SMILES IDX 22 25 23 26 24 27 25 29 26 30 27 31 88 32 28 33 87 34 29 35
REMARK SMILES IDX 30 36 31 37 81 38 32 39 86 40 80 41 82 42 33 43 85 44 79 45
REMARK SMILES IDX 78 46 34 48 66 49 46 50 65 51 47 52 50 53 64 54 83 55 48 56
REMARK SMILES IDX 49 57 63 59 84 60 51 61 35 62 36 63 44 64 37 65 43 66 45 67
REMARK SMILES IDX 42 68 38 69 39 70 40 71 41 72 67 73 68 74 76 75 69 76 75 77
REMARK SMILES IDX 77 78 74 79 70 80 71 81 72 82 73 83 52 84 53 85 61 86 54 87
REMARK SMILES IDX 60 88 62 89 59 90 55 91 56 92 57 93 58 94
REMARK H PARENT 19 6 8 15 23 28 82 47 50 58
REMARK Flexibility Score: inf
ROOT
ATOM      1  C   UNL A   1      33.271  27.462  26.162  1.00  0.00     0.042 C 
ENDROOT
BRANCH   1   2
ATOM      2  C   UNL A   1      33.851  26.112  25.798  1.00  0.00     0.118 C 
BRANCH   2   3
ATOM      3  N   UNL A   1      32.991  25.212  25.076  1.00  0.00    -0.351 N 
ATOM      4  C   UNL A   1      33.199  23.918  24.651  1.00  0.00     0.272 C 
ATOM      5  O   UNL A   1      32.220  23.371  24.131  1.00  0.00    -0.267 OA
ATOM      6  H   UNL A   1      32.108  25.581  24.847  1.00  0.00     0.163 HD
BRANCH   4   7
ATOM      7  C   UNL A   1      34.500  23.159  24.681  1.00  0.00     0.159 A 
ATOM      8  C   UNL A   1      34.855  22.031  25.413  1.00  0.00     0.159 A 
ATOM      9  N   UNL A   1      36.039  21.355  25.212  1.00  0.00    -0.247 NA
ATOM     10  C   UNL A   1      36.877  21.873  24.293  1.00  0.00     0.132 A 
ATOM     11  N   UNL A   1      35.399  23.672  23.770  1.00  0.00    -0.247 NA
ATOM     12  C   UNL A   1      36.569  23.021  23.600  1.00  0.00     0.132 A 
BRANCH   8  13
ATOM     13  C   UNL A   1      34.047  21.428  26.480  1.00  0.00     0.276 C 
ATOM     14  N   UNL A   1      33.243  20.314  26.248  1.00  0.00    -0.320 N 
ATOM     15  H   UNL A   1      32.697  20.061  27.029  1.00  0.00     0.170 HD
ATOM     16  O   UNL A   1      34.096  21.929  27.603  1.00  0.00    -0.267 OA
BRANCH  14  17
ATOM     17  C   UNL A   1      33.041  19.465  25.126  1.00  0.00     0.045 A 
ATOM     18  C   UNL A   1      33.176  17.188  24.238  1.00  0.00     0.120 A 
ATOM     19  C   UNL A   1      32.629  17.623  23.033  1.00  0.00     0.046 A 
ATOM     20  C   UNL A   1      33.382  18.106  25.278  1.00  0.00     0.072 A 
ATOM     21  C   UNL A   1      32.324  18.963  22.852  1.00  0.00     0.006 A 
ATOM     22  C   UNL A   1      32.554  19.876  23.884  1.00  0.00     0.026 A 
BRANCH  18  23
ATOM     23  O   UNL A   1      33.473  15.856  24.252  1.00  0.00    -0.497 OA
ATOM     24  C   UNL A   1      32.908  15.069  25.289  1.00  0.00     0.278 C 
ENDBRANCH  18  23
ENDBRANCH  14  17
ENDBRANCH   8  13
ENDBRANCH   4   7
ENDBRANCH   2   3
ENDBRANCH   1   2
BRANCH   1  25
ATOM     25  C   UNL A   1      34.042  28.663  25.650  1.00  0.00     0.118 C 
BRANCH  25  26
ATOM     26  N   UNL A   1      33.679  29.925  26.284  1.00  0.00    -0.352 N 
ATOM     27  C   UNL A   1      34.274  30.669  27.277  1.00  0.00     0.251 C 
ATOM     28  H   UNL A   1      32.849  30.321  25.934  1.00  0.00     0.163 HD
ATOM     29  O   UNL A   1      33.683  31.662  27.703  1.00  0.00    -0.269 OA
BRANCH  27  30
ATOM     30  C   UNL A   1      35.570  30.276  27.883  1.00  0.00     0.039 A 
ATOM     31  C   UNL A   1      35.576  29.669  29.144  1.00  0.00     0.014 A 
ATOM     32  C   UNL A   1      36.784  30.508  27.240  1.00  0.00     0.014 A 
ATOM     33  C   UNL A   1      36.778  29.215  29.698  1.00  0.00     0.010 A 
ATOM     34  C   UNL A   1      37.952  29.925  27.718  1.00  0.00     0.010 A 
ATOM     35  C   UNL A   1      37.972  29.287  28.964  1.00  0.00    -0.014 A 
BRANCH  35  36
ATOM     36  C   UNL A   1      39.258  28.749  29.491  1.00  0.00     0.031 A 
ATOM     37  C   UNL A   1      39.933  29.425  30.660  1.00  0.00     0.074 A 
ATOM     38  C   UNL A   1      39.852  27.705  28.879  1.00  0.00     0.049 A 
ATOM     39  N   UNL A   1      41.098  29.178  31.202  1.00  0.00    -0.248 NA
ATOM     40  C   UNL A   1      39.222  30.559  31.272  1.00  0.00     0.031 C 
ATOM     41  C   UNL A   1      39.329  27.001  27.705  1.00  0.00     0.029 A 
ATOM     42  N   UNL A   1      41.028  27.053  29.155  1.00  0.00    -0.354 N 
ATOM     43  C   UNL A   1      41.268  30.140  32.194  1.00  0.00     0.074 A 
ATOM     44  C   UNL A   1      40.126  31.023  32.120  1.00  0.00     0.031 C 
ATOM     45  C   UNL A   1      40.155  25.991  27.390  1.00  0.00     0.029 A 
ATOM     46  C   UNL A   1      41.297  26.007  28.299  1.00  0.00     0.049 A 
ATOM     47  H   UNL A   1      41.626  27.308  29.894  1.00  0.00     0.167 HD
ATOM     48  C   UNL A   1      42.264  30.256  33.107  1.00  0.00     0.034 A 
ATOM     49  C   UNL A   1      42.347  25.163  28.248  1.00  0.00     0.034 A 
ATOM     50  C   UNL A   1      43.379  29.346  33.188  1.00  0.00     0.049 A 
ATOM     51  C   UNL A   1      43.448  25.316  29.267  1.00  0.00     0.074 A 
ATOM     52  C   UNL A   1      44.411  29.326  34.109  1.00  0.00     0.029 A 
ATOM     53  N   UNL A   1      43.610  28.294  32.311  1.00  0.00    -0.354 N 
ATOM     54  N   UNL A   1      43.562  26.197  30.235  1.00  0.00    -0.248 NA
ATOM     55  C   UNL A   1      44.554  24.354  29.194  1.00  0.00     0.031 C 
ATOM     56  C   UNL A   1      45.301  28.311  33.747  1.00  0.00     0.029 A 
ATOM     57  C   UNL A   1      44.784  27.640  32.651  1.00  0.00     0.049 A 
ATOM     58  H   UNL A   1      43.025  28.048  31.558  1.00  0.00     0.167 HD
ATOM     59  C   UNL A   1      44.740  25.873  30.905  1.00  0.00     0.074 A 
ATOM     60  C   UNL A   1      45.284  24.705  30.242  1.00  0.00     0.031 C 
ATOM     61  C   UNL A   1      45.318  26.482  31.972  1.00  0.00     0.034 A 
BRANCH  48  62
ATOM     62  C   UNL A   1      42.191  31.416  34.075  1.00  0.00     0.023 A 
ATOM     63  C   UNL A   1      41.348  31.387  35.202  1.00  0.00     0.031 A 
ATOM     64  C   UNL A   1      42.948  32.579  33.854  1.00  0.00     0.131 A 
ATOM     65  C   UNL A   1      41.217  32.526  36.010  1.00  0.00     0.055 A 
ATOM     66  C   UNL A   1      42.883  33.677  34.716  1.00  0.00     0.041 A 
ATOM     67  F   UNL A   1      43.754  32.678  32.786  1.00  0.00    -0.206 F 
ATOM     68  C   UNL A   1      42.000  33.662  35.791  1.00  0.00     0.022 A 
BRANCH  65  69
ATOM     69  S   UNL A   1      39.895  32.558  37.251  1.00  0.00     0.124 S 
ATOM     70  O   UNL A   1      40.651  32.375  38.489  1.00  0.00    -0.237 OA
ATOM     71  O   UNL A   1      39.306  33.876  37.051  1.00  0.00    -0.237 OA
ATOM     72  O   UNL A   1      39.046  31.429  36.878  1.00  0.00    -0.744 OA
ENDBRANCH  65  69
ENDBRANCH  48  62
BRANCH  49  73
ATOM     73  C   UNL A   1      42.417  24.100  27.202  1.00  0.00     0.023 A 
ATOM     74  C   UNL A   1      41.629  22.941  27.295  1.00  0.00     0.031 A 
ATOM     75  C   UNL A   1      43.305  24.206  26.116  1.00  0.00     0.131 A 
ATOM     76  C   UNL A   1      41.780  21.913  26.350  1.00  0.00     0.055 A 
ATOM     77  C   UNL A   1      43.409  23.206  25.147  1.00  0.00     0.041 A 
ATOM     78  F   UNL A   1      44.079  25.294  25.975  1.00  0.00    -0.206 F 
ATOM     79  C   UNL A   1      42.654  22.044  25.269  1.00  0.00     0.022 A 
BRANCH  76  80
ATOM     80  S   UNL A   1      40.883  20.358  26.608  1.00  0.00     0.124 S 
ATOM     81  O   UNL A   1      39.564  20.684  26.076  1.00  0.00    -0.237 OA
ATOM     82  O   UNL A   1      41.677  19.417  25.825  1.00  0.00    -0.237 OA
ATOM     83  O   UNL A   1      40.943  20.166  28.056  1.00  0.00    -0.744 OA
ENDBRANCH  76  80
ENDBRANCH  49  73
BRANCH  61  84
ATOM     84  C   UNL A   1      46.584  25.863  32.512  1.00  0.00     0.023 A 
ATOM     85  C   UNL A   1      47.834  26.091  31.913  1.00  0.00     0.031 A 
ATOM     86  C   UNL A   1      46.535  25.024  33.640  1.00  0.00     0.131 A 
ATOM     87  C   UNL A   1      48.974  25.439  32.404  1.00  0.00     0.055 A 
ATOM     88  C   UNL A   1      47.684  24.432  34.167  1.00  0.00     0.041 A 
ATOM     89  F   UNL A   1      45.367  24.768  34.251  1.00  0.00    -0.206 F 
ATOM     90  C   UNL A   1      48.910  24.627  33.540  1.00  0.00     0.022 A 
BRANCH  87  91
ATOM     91  S   UNL A   1      50.526  25.584  31.477  1.00  0.00     0.124 S 
ATOM     92  O   UNL A   1      51.128  26.770  32.077  1.00  0.00    -0.237 OA
ATOM     93  O   UNL A   1      51.186  24.317  31.772  1.00  0.00    -0.237 OA
ATOM     94  O   UNL A   1      50.085  25.744  30.093  1.00  0.00    -0.744 OA
ENDBRANCH  87  91
ENDBRANCH  61  84
ENDBRANCH  35  36
ENDBRANCH  27  30
ENDBRANCH  25  26
ENDBRANCH   1  25
TORSDOF 16
ENDMDL
MODEL 3
REMARK VINA RESULT:     -11.9      5.768     10.855
REMARK SMILES COc1cccc(NC(=O)c2nccnc2C(=O)NCCCNC(=O)c2ccc(-c3c4nc(c(-c5cc(S(=O)(=O)[O-])ccc5F)c5ccc([nH]5)c(-c5cc(S(=O)(=O)[O-])ccc5F)c5nc(c(-c6cc(S(=O)(=O)[O-])ccc6F)c6ccc3[nH]6)C=C5)C=C4)cc2)c1
REMARK SMILES IDX 21 1 20 2 19 3 17 4 18 5 16 7 11 8 12 9 13 10 15 11 14 12
REMARK SMILES IDX 9 13 8 14 10 16 7 17 3 18 4 19 89 20 5 21 6 22 2 23 1 24
REMARK SMILES IDX 22 25 23 26 24 27 25 29 26 30 27 31 88 32 28 33 87 34 29 35
REMARK SMILES IDX 30 36 31 37 81 38 32 39 86 40 80 41 82 42 33 43 85 44 79 45
REMARK SMILES IDX 78 46 34 48 66 49 46 50 65 51 47 52 50 53 64 54 83 55 48 56
REMARK SMILES IDX 49 57 63 59 84 60 51 61 35 62 36 63 44 64 37 65 43 66 45 67
REMARK SMILES IDX 42 68 38 69 39 70 40 71 41 72 67 73 68 74 76 75 69 76 75 77
REMARK SMILES IDX 77 78 74 79 70 80 71 81 72 82 73 83 52 84 53 85 61 86 54 87
REMARK SMILES IDX 60 88 62 89 59 90 55 91 56 92 57 93 58 94
REMARK H PARENT 19 6 8 15 23 28 82 47 50 58
REMARK Flexibility Score: inf
ROOT
ATOM      1  C   UNL A   1      35.683  20.935  25.373  1.00  0.00     0.042 C 
ENDROOT
BRANCH   1   2
ATOM      2  C   UNL A   1      35.148  21.835  26.467  1.00  0.00     0.118 C 
BRANCH   2   3
ATOM      3  N   UNL A   1      35.242  23.253  26.242  1.00  0.00    -0.351 N 
ATOM      4  C   UNL A   1      34.364  24.128  25.643  1.00  0.00     0.272 C 
ATOM      5  O   UNL A   1      34.693  25.319  25.688  1.00  0.00    -0.267 OA
ATOM      6  H   UNL A   1      36.072  23.667  26.570  1.00  0.00     0.163 HD
BRANCH   4   7
ATOM      7  C   UNL A   1      33.115  23.769  24.882  1.00  0.00     0.159 A 
ATOM      8  C   UNL A   1      31.779  23.956  25.224  1.00  0.00     0.159 A 
ATOM      9  N   UNL A   1      30.745  23.716  24.344  1.00  0.00    -0.247 NA
ATOM     10  C   UNL A   1      31.086  23.235  23.134  1.00  0.00     0.132 A 
ATOM     11  N   UNL A   1      33.418  23.249  23.641  1.00  0.00    -0.247 NA
ATOM     12  C   UNL A   1      32.397  22.989  22.797  1.00  0.00     0.132 A 
BRANCH   8  13
ATOM     13  C   UNL A   1      31.299  24.410  26.534  1.00  0.00     0.276 C 
ATOM     14  N   UNL A   1      31.066  25.757  26.802  1.00  0.00    -0.320 N 
ATOM     15  H   UNL A   1      30.821  25.929  27.741  1.00  0.00     0.170 HD
ATOM     16  O   UNL A   1      31.098  23.565  27.407  1.00  0.00    -0.267 OA
BRANCH  14  17
ATOM     17  C   UNL A   1      31.106  26.937  26.009  1.00  0.00     0.045 A 
ATOM     18  C   UNL A   1      31.887  29.250  25.828  1.00  0.00     0.120 A 
ATOM     19  C   UNL A   1      31.355  29.331  24.544  1.00  0.00     0.046 A 
ATOM     20  C   UNL A   1      31.761  28.058  26.558  1.00  0.00     0.072 A 
ATOM     21  C   UNL A   1      30.676  28.251  24.003  1.00  0.00     0.006 A 
ATOM     22  C   UNL A   1      30.533  27.076  24.744  1.00  0.00     0.026 A 
BRANCH  18  23
ATOM     23  O   UNL A   1      32.481  30.406  26.247  1.00  0.00    -0.497 OA
ATOM     24  C   UNL A   1      31.633  31.487  26.600  1.00  0.00     0.278 C 
ENDBRANCH  18  23
ENDBRANCH  14  17
ENDBRANCH   8  13
ENDBRANCH   4   7
ENDBRANCH   2   3
ENDBRANCH   1   2
BRANCH   1  25
ATOM     25  C   UNL A   1      37.084  21.258  24.890  1.00  0.00     0.118 C 
BRANCH  25  26
ATOM     26  N   UNL A   1      38.088  20.265  25.253  1.00  0.00    -0.352 N 
ATOM     27  C   UNL A   1      39.330  20.371  25.838  1.00  0.00     0.251 C 
ATOM     28  H   UNL A   1      37.828  19.340  25.039  1.00  0.00     0.163 HD
ATOM     29  O   UNL A   1      40.024  19.359  25.934  1.00  0.00    -0.269 OA
BRANCH  27  30
ATOM     30  C   UNL A   1      39.871  21.674  26.298  1.00  0.00     0.039 A 
ATOM     31  C   UNL A   1      41.046  21.692  27.058  1.00  0.00     0.014 A 
ATOM     32  C   UNL A   1      39.236  22.879  26.009  1.00  0.00     0.014 A 
ATOM     33  C   UNL A   1      41.621  22.912  27.433  1.00  0.00     0.010 A 
ATOM     34  C   UNL A   1      39.881  24.087  26.249  1.00  0.00     0.010 A 
ATOM     35  C   UNL A   1      41.073  24.124  26.983  1.00  0.00    -0.014 A 
BRANCH  35  36
ATOM     36  C   UNL A   1      41.697  25.439  27.301  1.00  0.00     0.031 A 
ATOM     37  C   UNL A   1      40.934  26.456  28.114  1.00  0.00     0.074 A 
ATOM     38  C   UNL A   1      42.912  25.746  26.802  1.00  0.00     0.049 A 
ATOM     39  N   UNL A   1      41.254  27.690  28.412  1.00  0.00    -0.248 NA
ATOM     40  C   UNL A   1      39.615  26.047  28.620  1.00  0.00     0.031 C 
ATOM     41  C   UNL A   1      43.727  24.870  25.956  1.00  0.00     0.029 A 
ATOM     42  N   UNL A   1      43.675  26.880  26.930  1.00  0.00    -0.354 N 
ATOM     43  C   UNL A   1      40.168  28.205  29.113  1.00  0.00     0.074 A 
ATOM     44  C   UNL A   1      39.149  27.180  29.120  1.00  0.00     0.031 C 
ATOM     45  C   UNL A   1      44.890  25.480  25.678  1.00  0.00     0.029 A 
ATOM     46  C   UNL A   1      44.885  26.811  26.275  1.00  0.00     0.049 A 
ATOM     47  H   UNL A   1      43.385  27.669  27.441  1.00  0.00     0.167 HD
ATOM     48  C   UNL A   1      40.042  29.409  29.727  1.00  0.00     0.034 A 
ATOM     49  C   UNL A   1      45.874  27.721  26.162  1.00  0.00     0.034 A 
ATOM     50  C   UNL A   1      41.082  30.407  29.737  1.00  0.00     0.049 A 
ATOM     51  C   UNL A   1      45.711  29.055  26.845  1.00  0.00     0.074 A 
ATOM     52  C   UNL A   1      41.093  31.633  30.379  1.00  0.00     0.029 A 
ATOM     53  N   UNL A   1      42.297  30.297  29.072  1.00  0.00    -0.354 N 
ATOM     54  N   UNL A   1      44.698  29.504  27.552  1.00  0.00    -0.248 NA
ATOM     55  C   UNL A   1      46.826  30.001  26.723  1.00  0.00     0.031 C 
ATOM     56  C   UNL A   1      42.280  32.291  30.043  1.00  0.00     0.029 A 
ATOM     57  C   UNL A   1      43.050  31.445  29.262  1.00  0.00     0.049 A 
ATOM     58  H   UNL A   1      42.581  29.516  28.544  1.00  0.00     0.167 HD
ATOM     59  C   UNL A   1      45.072  30.774  27.986  1.00  0.00     0.074 A 
ATOM     60  C   UNL A   1      46.408  31.008  27.476  1.00  0.00     0.031 C 
ATOM     61  C   UNL A   1      44.378  31.666  28.739  1.00  0.00     0.034 A 
BRANCH  48  62
ATOM     62  C   UNL A   1      38.731  29.706  30.419  1.00  0.00     0.023 A 
ATOM     63  C   UNL A   1      37.719  30.460  29.797  1.00  0.00     0.031 A 
ATOM     64  C   UNL A   1      38.501  29.258  31.732  1.00  0.00     0.131 A 
ATOM     65  C   UNL A   1      36.568  30.817  30.514  1.00  0.00     0.055 A 
ATOM     66  C   UNL A   1      37.311  29.538  32.408  1.00  0.00     0.041 A 
ATOM     67  F   UNL A   1      39.434  28.552  32.388  1.00  0.00    -0.206 F 
ATOM     68  C   UNL A   1      36.343  30.338  31.806  1.00  0.00     0.022 A 
BRANCH  65  69
ATOM     69  S   UNL A   1      35.446  32.044  29.791  1.00  0.00     0.124 S 
ATOM     70  O   UNL A   1      36.369  33.129  29.464  1.00  0.00    -0.237 OA
ATOM     71  O   UNL A   1      34.879  31.325  28.658  1.00  0.00    -0.237 OA
ATOM     72  O   UNL A   1      34.513  32.338  30.877  1.00  0.00    -0.744 OA
ENDBRANCH  65  69
ENDBRANCH  48  62
BRANCH  49  73
ATOM     73  C   UNL A   1      47.105  27.411  25.377  1.00  0.00     0.023 A 
ATOM     74  C   UNL A   1      47.222  27.797  24.032  1.00  0.00     0.031 A 
ATOM     75  C   UNL A   1      48.167  26.684  25.945  1.00  0.00     0.131 A 
ATOM     76  C   UNL A   1      48.348  27.414  23.287  1.00  0.00     0.055 A 
ATOM     77  C   UNL A   1      49.311  26.356  25.216  1.00  0.00     0.041 A 
ATOM     78  F   UNL A   1      48.111  26.293  27.228  1.00  0.00    -0.206 F 
ATOM     79  C   UNL A   1      49.400  26.708  23.874  1.00  0.00     0.022 A 
BRANCH  76  80
ATOM     80  S   UNL A   1      48.376  27.771  21.509  1.00  0.00     0.124 S 
ATOM     81  O   UNL A   1      49.411  28.796  21.428  1.00  0.00    -0.237 OA
ATOM     82  O   UNL A   1      48.716  26.469  20.944  1.00  0.00    -0.237 OA
ATOM     83  O   UNL A   1      47.017  28.232  21.232  1.00  0.00    -0.744 OA
ENDBRANCH  76  80
ENDBRANCH  49  73
BRANCH  61  84
ATOM     84  C   UNL A   1      45.075  32.956  29.090  1.00  0.00     0.023 A 
ATOM     85  C   UNL A   1      44.981  34.096  28.272  1.00  0.00     0.031 A 
ATOM     86  C   UNL A   1      45.853  33.044  30.258  1.00  0.00     0.131 A 
ATOM     87  C   UNL A   1      45.703  35.252  28.600  1.00  0.00     0.055 A 
ATOM     88  C   UNL A   1      46.513  34.220  30.616  1.00  0.00     0.041 A 
ATOM     89  F   UNL A   1      45.980  31.986  31.076  1.00  0.00    -0.206 F 
ATOM     90  C   UNL A   1      46.453  35.328  29.777  1.00  0.00     0.022 A 
BRANCH  87  91
ATOM     91  S   UNL A   1      45.734  36.624  27.413  1.00  0.00     0.124 S 
ATOM     92  O   UNL A   1      46.186  35.959  26.195  1.00  0.00    -0.237 OA
ATOM     93  O   UNL A   1      44.346  37.072  27.417  1.00  0.00    -0.237 OA
ATOM     94  O   UNL A   1      46.689  37.563  27.999  1.00  0.00    -0.744 OA
ENDBRANCH  87  91
ENDBRANCH  61  84
ENDBRANCH  35  36
ENDBRANCH  27  30
ENDBRANCH  25  26
ENDBRANCH   1  25
TORSDOF 16
ENDMDL
