MODEL 1
REMARK VINA RESULT:     -12.6      0.000      0.000
REMARK SMILES O=C(NCCCNC(=O)c1ccc(-c2c3nc(c(-c4cc(S(=O)(=O)[O-])ccc4F)c4ccc([nH]4)c(-c4cc(S(=O)(=O)[O-])ccc4F)c4nc(c(-c5cc(S(=O)(=O)[O-])ccc5F)c5ccc2[nH]5)C=C4)C=C3)cc1)C1=Cc2cc(Cl)cc(Cl)c2O[C@@H]1C(F)(F)F
REMARK SMILES IDX 6 1 5 2 4 3 3 4 1 5 2 6 73 8 74 9 84 10 75 11 83 12 76 13
REMARK SMILES IDX 82 14 77 15 80 16 78 17 79 18 81 19 85 20 86 21 87 22 88 23
REMARK SMILES IDX 7 24 8 25 9 27 10 28 11 29 72 30 12 31 71 32 13 33 14 34
REMARK SMILES IDX 15 35 65 36 16 37 70 38 64 39 66 40 17 41 69 42 63 43 62 44
REMARK SMILES IDX 18 46 50 47 30 48 49 49 31 50 34 51 48 52 67 53 32 54 33 55
REMARK SMILES IDX 47 57 68 58 35 59 19 60 20 61 28 62 21 63 27 64 29 65 26 66
REMARK SMILES IDX 22 67 23 68 24 69 25 70 51 71 52 72 60 73 53 74 59 75 61 76
REMARK SMILES IDX 58 77 54 78 55 79 56 80 57 81 36 82 37 83 45 84 38 85 44 86
REMARK SMILES IDX 46 87 43 88 39 89 40 90 41 91 42 92
REMARK H PARENT 3 7 7 26 66 45 34 56
REMARK Flexibility Score: inf
ROOT
ATOM      1  C   UNL A   1      32.622  29.649  25.864  1.00  0.00     0.118 C 
ENDROOT
BRANCH   1   2
ATOM      2  C   UNL A   1      31.845  28.533  26.558  1.00  0.00     0.042 C 
BRANCH   2   3
ATOM      3  C   UNL A   1      32.553  27.183  26.493  1.00  0.00     0.118 C 
BRANCH   3   4
ATOM      4  N   UNL A   1      31.770  26.092  27.084  1.00  0.00    -0.352 N 
ATOM      5  O   UNL A   1      30.607  24.146  27.143  1.00  0.00    -0.270 OA
ATOM      6  C   UNL A   1      31.022  25.100  26.500  1.00  0.00     0.251 C 
ATOM      7  H   UNL A   1      31.784  26.066  28.068  1.00  0.00     0.163 HD
BRANCH   6   8
ATOM      8  C   UNL A   1      30.797  25.195  25.048  1.00  0.00     0.067 C 
ATOM      9  C   UNL A   1      29.780  25.955  24.625  1.00  0.00     0.025 C 
ATOM     10  C   UNL A   1      31.914  24.760  24.156  1.00  0.00     0.314 C 
ATOM     11  C   UNL A   1      30.198  26.920  23.601  1.00  0.00     0.020 A 
ATOM     12  O   UNL A   1      32.348  25.806  23.257  1.00  0.00    -0.474 OA
ATOM     13  C   UNL A   1      29.439  28.092  23.487  1.00  0.00     0.032 A 
ATOM     14  C   UNL A   1      31.505  26.880  23.076  1.00  0.00     0.146 A 
ATOM     15  C   UNL A   1      30.014  29.237  22.940  1.00  0.00     0.043 A 
ATOM     16  C   UNL A   1      32.057  28.036  22.507  1.00  0.00     0.085 A 
ATOM     17  Cl  UNL A   1      29.136  30.714  22.967  1.00  0.00    -0.084 Cl
ATOM     18  C   UNL A   1      31.322  29.221  22.464  1.00  0.00     0.045 A 
ATOM     19  Cl  UNL A   1      33.709  28.078  22.002  1.00  0.00    -0.080 Cl
BRANCH  10  20
ATOM     20  C   UNL A   1      31.519  23.499  23.370  1.00  0.00     0.429 C 
ATOM     21  F   UNL A   1      31.467  22.413  24.180  1.00  0.00    -0.167 F 
ATOM     22  F   UNL A   1      30.297  23.618  22.800  1.00  0.00    -0.167 F 
ATOM     23  F   UNL A   1      32.398  23.216  22.379  1.00  0.00    -0.167 F 
ENDBRANCH  10  20
ENDBRANCH   6   8
ENDBRANCH   3   4
ENDBRANCH   2   3
ENDBRANCH   1   2
BRANCH   1  24
ATOM     24  N   UNL A   1      32.373  30.983  26.391  1.00  0.00    -0.352 N 
ATOM     25  C   UNL A   1      33.132  31.761  27.247  1.00  0.00     0.251 C 
ATOM     26  H   UNL A   1      31.532  31.398  26.088  1.00  0.00     0.163 HD
ATOM     27  O   UNL A   1      32.699  32.846  27.597  1.00  0.00    -0.269 OA
BRANCH  25  28
ATOM     28  C   UNL A   1      34.427  31.261  27.783  1.00  0.00     0.039 A 
ATOM     29  C   UNL A   1      35.462  32.175  28.003  1.00  0.00     0.014 A 
ATOM     30  C   UNL A   1      34.627  29.917  28.096  1.00  0.00     0.014 A 
ATOM     31  C   UNL A   1      36.646  31.756  28.620  1.00  0.00     0.010 A 
ATOM     32  C   UNL A   1      35.746  29.529  28.826  1.00  0.00     0.010 A 
ATOM     33  C   UNL A   1      36.777  30.440  29.092  1.00  0.00    -0.014 A 
BRANCH  33  34
ATOM     34  C   UNL A   1      37.979  29.998  29.854  1.00  0.00     0.031 A 
ATOM     35  C   UNL A   1      38.204  30.490  31.264  1.00  0.00     0.074 A 
ATOM     36  C   UNL A   1      38.901  29.218  29.252  1.00  0.00     0.049 A 
ATOM     37  N   UNL A   1      39.221  30.282  32.060  1.00  0.00    -0.248 NA
ATOM     38  C   UNL A   1      37.176  31.374  31.833  1.00  0.00     0.031 C 
ATOM     39  C   UNL A   1      38.838  28.748  27.865  1.00  0.00     0.029 A 
ATOM     40  N   UNL A   1      40.073  28.682  29.725  1.00  0.00    -0.354 N 
ATOM     41  C   UNL A   1      38.968  31.034  33.205  1.00  0.00     0.074 A 
ATOM     42  C   UNL A   1      37.742  31.761  32.964  1.00  0.00     0.031 C 
ATOM     43  C   UNL A   1      39.894  27.958  27.616  1.00  0.00     0.029 A 
ATOM     44  C   UNL A   1      40.736  27.900  28.804  1.00  0.00     0.049 A 
ATOM     45  H   UNL A   1      40.409  28.842  30.636  1.00  0.00     0.167 HD
ATOM     46  C   UNL A   1      39.671  31.085  34.363  1.00  0.00     0.034 A 
ATOM     47  C   UNL A   1      41.892  27.214  28.909  1.00  0.00     0.034 A 
ATOM     48  C   UNL A   1      40.865  30.312  34.602  1.00  0.00     0.049 A 
ATOM     49  C   UNL A   1      42.630  27.246  30.223  1.00  0.00     0.074 A 
ATOM     50  C   UNL A   1      41.614  30.217  35.762  1.00  0.00     0.029 A 
ATOM     51  N   UNL A   1      41.484  29.498  33.662  1.00  0.00    -0.354 N 
ATOM     52  N   UNL A   1      42.334  27.904  31.321  1.00  0.00    -0.248 NA
ATOM     53  C   UNL A   1      43.846  26.431  30.318  1.00  0.00     0.031 C 
ATOM     54  C   UNL A   1      42.718  29.396  35.504  1.00  0.00     0.029 A 
ATOM     55  C   UNL A   1      42.618  28.917  34.207  1.00  0.00     0.049 A 
ATOM     56  H   UNL A   1      41.164  29.354  32.742  1.00  0.00     0.167 HD
ATOM     57  C   UNL A   1      43.317  27.560  32.245  1.00  0.00     0.074 A 
ATOM     58  C   UNL A   1      44.191  26.613  31.583  1.00  0.00     0.031 C 
ATOM     59  C   UNL A   1      43.487  27.987  33.523  1.00  0.00     0.034 A 
BRANCH  46  60
ATOM     60  C   UNL A   1      39.169  32.012  35.448  1.00  0.00     0.023 A 
ATOM     61  C   UNL A   1      39.607  33.345  35.546  1.00  0.00     0.031 A 
ATOM     62  C   UNL A   1      38.259  31.550  36.415  1.00  0.00     0.131 A 
ATOM     63  C   UNL A   1      39.201  34.141  36.628  1.00  0.00     0.055 A 
ATOM     64  C   UNL A   1      37.790  32.375  37.440  1.00  0.00     0.041 A 
ATOM     65  F   UNL A   1      37.819  30.282  36.390  1.00  0.00    -0.206 F 
ATOM     66  C   UNL A   1      38.274  33.675  37.561  1.00  0.00     0.022 A 
BRANCH  63  67
ATOM     67  S   UNL A   1      40.015  35.743  36.877  1.00  0.00     0.124 S 
ATOM     68  O   UNL A   1      39.653  36.449  35.649  1.00  0.00    -0.237 OA
ATOM     69  O   UNL A   1      39.389  36.229  38.101  1.00  0.00    -0.237 OA
ATOM     70  O   UNL A   1      41.430  35.394  36.993  1.00  0.00    -0.744 OA
ENDBRANCH  63  67
ENDBRANCH  46  60
BRANCH  47  71
ATOM     71  C   UNL A   1      42.423  26.433  27.752  1.00  0.00     0.023 A 
ATOM     72  C   UNL A   1      42.010  25.111  27.519  1.00  0.00     0.031 A 
ATOM     73  C   UNL A   1      43.385  26.982  26.885  1.00  0.00     0.131 A 
ATOM     74  C   UNL A   1      42.595  24.364  26.484  1.00  0.00     0.055 A 
ATOM     75  C   UNL A   1      43.922  26.254  25.821  1.00  0.00     0.041 A 
ATOM     76  F   UNL A   1      43.811  28.243  27.056  1.00  0.00    -0.206 F 
ATOM     77  C   UNL A   1      43.539  24.932  25.625  1.00  0.00     0.022 A 
BRANCH  74  78
ATOM     78  S   UNL A   1      42.173  22.606  26.335  1.00  0.00     0.124 S 
ATOM     79  O   UNL A   1      42.920  22.025  27.444  1.00  0.00    -0.237 OA
ATOM     80  O   UNL A   1      40.722  22.630  26.481  1.00  0.00    -0.237 OA
ATOM     81  O   UNL A   1      42.657  22.251  25.002  1.00  0.00    -0.744 OA
ENDBRANCH  74  78
ENDBRANCH  47  71
BRANCH  59  82
ATOM     82  C   UNL A   1      44.648  27.400  34.285  1.00  0.00     0.023 A 
ATOM     83  C   UNL A   1      44.511  26.221  35.041  1.00  0.00     0.031 A 
ATOM     84  C   UNL A   1      45.898  28.043  34.283  1.00  0.00     0.131 A 
ATOM     85  C   UNL A   1      45.581  25.766  35.824  1.00  0.00     0.055 A 
ATOM     86  C   UNL A   1      46.981  27.545  35.008  1.00  0.00     0.041 A 
ATOM     87  F   UNL A   1      46.085  29.172  33.580  1.00  0.00    -0.206 F 
ATOM     88  C   UNL A   1      46.821  26.411  35.799  1.00  0.00     0.022 A 
BRANCH  85  89
ATOM     89  S   UNL A   1      45.293  24.392  36.970  1.00  0.00     0.124 S 
ATOM     90  O   UNL A   1      44.155  24.878  37.746  1.00  0.00    -0.237 OA
ATOM     91  O   UNL A   1      45.016  23.283  36.063  1.00  0.00    -0.237 OA
ATOM     92  O   UNL A   1      46.550  24.291  37.709  1.00  0.00    -0.744 OA
ENDBRANCH  85  89
ENDBRANCH  59  82
ENDBRANCH  33  34
ENDBRANCH  25  28
ENDBRANCH   1  24
TORSDOF 14
ENDMDL
MODEL 2
REMARK VINA RESULT:     -12.5      1.799      2.670
REMARK SMILES O=C(NCCCNC(=O)c1ccc(-c2c3nc(c(-c4cc(S(=O)(=O)[O-])ccc4F)c4ccc([nH]4)c(-c4cc(S(=O)(=O)[O-])ccc4F)c4nc(c(-c5cc(S(=O)(=O)[O-])ccc5F)c5ccc2[nH]5)C=C4)C=C3)cc1)C1=Cc2cc(Cl)cc(Cl)c2O[C@@H]1C(F)(F)F
REMARK SMILES IDX 6 1 5 2 4 3 3 4 1 5 2 6 73 8 74 9 84 10 75 11 83 12 76 13
REMARK SMILES IDX 82 14 77 15 80 16 78 17 79 18 81 19 85 20 86 21 87 22 88 23
REMARK SMILES IDX 7 24 8 25 9 27 10 28 11 29 72 30 12 31 71 32 13 33 14 34
REMARK SMILES IDX 15 35 65 36 16 37 70 38 64 39 66 40 17 41 69 42 63 43 62 44
REMARK SMILES IDX 18 46 50 47 30 48 49 49 31 50 34 51 48 52 67 53 32 54 33 55
REMARK SMILES IDX 47 57 68 58 35 59 19 60 20 61 28 62 21 63 27 64 29 65 26 66
REMARK SMILES IDX 22 67 23 68 24 69 25 70 51 71 52 72 60 73 53 74 59 75 61 76
REMARK SMILES IDX 58 77 54 78 55 79 56 80 57 81 36 82 37 83 45 84 38 85 44 86
REMARK SMILES IDX 46 87 43 88 39 89 40 90 41 91 42 92
REMARK H PARENT 3 7 7 26 66 45 34 56
REMARK Flexibility Score: inf
ROOT
ATOM      1  C   UNL A   1      31.945  30.809  26.635  1.00  0.00     0.118 C 
ENDROOT
BRANCH   1   2
ATOM      2  C   UNL A   1      31.257  30.444  25.322  1.00  0.00     0.042 C 
BRANCH   2   3
ATOM      3  C   UNL A   1      31.681  29.080  24.785  1.00  0.00     0.118 C 
BRANCH   3   4
ATOM      4  N   UNL A   1      31.287  27.969  25.658  1.00  0.00    -0.352 N 
ATOM      5  O   UNL A   1      31.375  25.896  26.575  1.00  0.00    -0.270 OA
ATOM      6  C   UNL A   1      31.633  26.640  25.639  1.00  0.00     0.251 C 
ATOM      7  H   UNL A   1      30.670  28.218  26.383  1.00  0.00     0.163 HD
BRANCH   6   8
ATOM      8  C   UNL A   1      32.392  26.160  24.472  1.00  0.00     0.067 C 
ATOM      9  C   UNL A   1      33.707  25.965  24.625  1.00  0.00     0.025 C 
ATOM     10  C   UNL A   1      31.608  25.576  23.342  1.00  0.00     0.314 C 
ATOM     11  C   UNL A   1      34.126  24.633  24.173  1.00  0.00     0.020 A 
ATOM     12  O   UNL A   1      32.001  24.219  23.036  1.00  0.00    -0.474 OA
ATOM     13  C   UNL A   1      35.279  24.098  24.760  1.00  0.00     0.032 A 
ATOM     14  C   UNL A   1      33.209  23.779  23.529  1.00  0.00     0.146 A 
ATOM     15  C   UNL A   1      35.465  22.717  24.787  1.00  0.00     0.043 A 
ATOM     16  C   UNL A   1      33.426  22.394  23.544  1.00  0.00     0.085 A 
ATOM     17  Cl  UNL A   1      36.790  22.063  25.663  1.00  0.00    -0.084 Cl
ATOM     18  C   UNL A   1      34.538  21.861  24.197  1.00  0.00     0.045 A 
ATOM     19  Cl  UNL A   1      32.247  21.301  22.912  1.00  0.00    -0.080 Cl
BRANCH  10  20
ATOM     20  C   UNL A   1      31.714  26.466  22.093  1.00  0.00     0.429 C 
ATOM     21  F   UNL A   1      30.677  27.335  22.022  1.00  0.00    -0.167 F 
ATOM     22  F   UNL A   1      32.845  27.210  22.095  1.00  0.00    -0.167 F 
ATOM     23  F   UNL A   1      31.711  25.744  20.947  1.00  0.00    -0.167 F 
ENDBRANCH  10  20
ENDBRANCH   6   8
ENDBRANCH   3   4
ENDBRANCH   2   3
ENDBRANCH   1   2
BRANCH   1  24
ATOM     24  N   UNL A   1      31.982  32.234  26.928  1.00  0.00    -0.352 N 
ATOM     25  C   UNL A   1      32.966  32.996  27.535  1.00  0.00     0.251 C 
ATOM     26  H   UNL A   1      31.182  32.736  26.649  1.00  0.00     0.163 HD
ATOM     27  O   UNL A   1      32.759  34.183  27.722  1.00  0.00    -0.269 OA
BRANCH  25  28
ATOM     28  C   UNL A   1      34.231  32.370  28.007  1.00  0.00     0.039 A 
ATOM     29  C   UNL A   1      35.363  33.175  28.161  1.00  0.00     0.014 A 
ATOM     30  C   UNL A   1      34.309  31.015  28.324  1.00  0.00     0.014 A 
ATOM     31  C   UNL A   1      36.530  32.642  28.720  1.00  0.00     0.010 A 
ATOM     32  C   UNL A   1      35.421  30.519  28.998  1.00  0.00     0.010 A 
ATOM     33  C   UNL A   1      36.551  31.323  29.199  1.00  0.00    -0.014 A 
BRANCH  33  34
ATOM     34  C   UNL A   1      37.741  30.765  29.902  1.00  0.00     0.031 A 
ATOM     35  C   UNL A   1      38.032  31.160  31.330  1.00  0.00     0.074 A 
ATOM     36  C   UNL A   1      38.598  29.966  29.232  1.00  0.00     0.049 A 
ATOM     37  N   UNL A   1      39.053  30.846  32.085  1.00  0.00    -0.248 NA
ATOM     38  C   UNL A   1      37.075  32.071  31.976  1.00  0.00     0.031 C 
ATOM     39  C   UNL A   1      38.472  29.580  27.823  1.00  0.00     0.029 A 
ATOM     40  N   UNL A   1      39.746  29.333  29.642  1.00  0.00    -0.354 N 
ATOM     41  C   UNL A   1      38.875  31.545  33.276  1.00  0.00     0.074 A 
ATOM     42  C   UNL A   1      37.692  32.358  33.111  1.00  0.00     0.031 C 
ATOM     43  C   UNL A   1      39.470  28.743  27.502  1.00  0.00     0.029 A 
ATOM     44  C   UNL A   1      40.336  28.565  28.661  1.00  0.00     0.049 A 
ATOM     45  H   UNL A   1      40.113  29.420  30.551  1.00  0.00     0.167 HD
ATOM     46  C   UNL A   1      39.608  31.487  34.416  1.00  0.00     0.034 A 
ATOM     47  C   UNL A   1      41.449  27.805  28.695  1.00  0.00     0.034 A 
ATOM     48  C   UNL A   1      40.757  30.630  34.578  1.00  0.00     0.049 A 
ATOM     49  C   UNL A   1      42.219  27.717  29.988  1.00  0.00     0.074 A 
ATOM     50  C   UNL A   1      41.527  30.423  35.709  1.00  0.00     0.029 A 
ATOM     51  N   UNL A   1      41.301  29.834  33.577  1.00  0.00    -0.354 N 
ATOM     52  N   UNL A   1      41.991  28.328  31.129  1.00  0.00    -0.248 NA
ATOM     53  C   UNL A   1      43.383  26.825  30.004  1.00  0.00     0.031 C 
ATOM     54  C   UNL A   1      42.570  29.552  35.376  1.00  0.00     0.029 A 
ATOM     55  C   UNL A   1      42.409  29.155  34.058  1.00  0.00     0.049 A 
ATOM     56  H   UNL A   1      40.949  29.763  32.660  1.00  0.00     0.167 HD
ATOM     57  C   UNL A   1      42.973  27.872  32.004  1.00  0.00     0.074 A 
ATOM     58  C   UNL A   1      43.770  26.913  31.267  1.00  0.00     0.031 C 
ATOM     59  C   UNL A   1      43.201  28.214  33.299  1.00  0.00     0.034 A 
BRANCH  46  60
ATOM     60  C   UNL A   1      39.192  32.379  35.564  1.00  0.00     0.023 A 
ATOM     61  C   UNL A   1      39.616  33.717  35.656  1.00  0.00     0.031 A 
ATOM     62  C   UNL A   1      38.378  31.879  36.597  1.00  0.00     0.131 A 
ATOM     63  C   UNL A   1      39.297  34.480  36.789  1.00  0.00     0.055 A 
ATOM     64  C   UNL A   1      37.991  32.671  37.680  1.00  0.00     0.041 A 
ATOM     65  F   UNL A   1      37.957  30.605  36.579  1.00  0.00    -0.206 F 
ATOM     66  C   UNL A   1      38.465  33.976  37.789  1.00  0.00     0.022 A 
BRANCH  63  67
ATOM     67  S   UNL A   1      40.106  36.090  37.005  1.00  0.00     0.124 S 
ATOM     68  O   UNL A   1      39.830  36.731  35.721  1.00  0.00    -0.237 OA
ATOM     69  O   UNL A   1      39.408  36.642  38.159  1.00  0.00    -0.237 OA
ATOM     70  O   UNL A   1      41.508  35.741  37.230  1.00  0.00    -0.744 OA
ENDBRANCH  63  67
ENDBRANCH  46  60
BRANCH  47  71
ATOM     71  C   UNL A   1      41.901  27.061  27.482  1.00  0.00     0.023 A 
ATOM     72  C   UNL A   1      41.717  25.673  27.372  1.00  0.00     0.031 A 
ATOM     73  C   UNL A   1      42.567  27.719  26.432  1.00  0.00     0.131 A 
ATOM     74  C   UNL A   1      42.236  24.980  26.267  1.00  0.00     0.055 A 
ATOM     75  C   UNL A   1      43.031  27.034  25.308  1.00  0.00     0.041 A 
ATOM     76  F   UNL A   1      42.765  29.046  26.480  1.00  0.00    -0.206 F 
ATOM     77  C   UNL A   1      42.881  25.654  25.228  1.00  0.00     0.022 A 
BRANCH  74  78
ATOM     78  S   UNL A   1      42.142  23.169  26.254  1.00  0.00     0.124 S 
ATOM     79  O   UNL A   1      42.996  22.817  27.382  1.00  0.00    -0.237 OA
ATOM     80  O   UNL A   1      40.712  22.940  26.437  1.00  0.00    -0.237 OA
ATOM     81  O   UNL A   1      42.665  22.810  24.937  1.00  0.00    -0.744 OA
ENDBRANCH  74  78
ENDBRANCH  47  71
BRANCH  59  82
ATOM     82  C   UNL A   1      44.341  27.515  33.995  1.00  0.00     0.023 A 
ATOM     83  C   UNL A   1      44.137  26.342  34.744  1.00  0.00     0.031 A 
ATOM     84  C   UNL A   1      45.642  28.045  33.936  1.00  0.00     0.131 A 
ATOM     85  C   UNL A   1      45.199  25.782  35.466  1.00  0.00     0.055 A 
ATOM     86  C   UNL A   1      46.711  27.441  34.600  1.00  0.00     0.041 A 
ATOM     87  F   UNL A   1      45.894  29.163  33.237  1.00  0.00    -0.206 F 
ATOM     88  C   UNL A   1      46.490  26.314  35.385  1.00  0.00     0.022 A 
BRANCH  85  89
ATOM     89  S   UNL A   1      44.847  24.421  36.611  1.00  0.00     0.124 S 
ATOM     90  O   UNL A   1      46.116  24.286  37.321  1.00  0.00    -0.237 OA
ATOM     91  O   UNL A   1      43.735  24.952  37.392  1.00  0.00    -0.237 OA
ATOM     92  O   UNL A   1      44.508  23.307  35.727  1.00  0.00    -0.744 OA
ENDBRANCH  85  89
ENDBRANCH  59  82
ENDBRANCH  33  34
ENDBRANCH  25  28
ENDBRANCH   1  24
TORSDOF 14
ENDMDL
MODEL 3
REMARK VINA RESULT:     -12.5      4.946     10.011
REMARK SMILES O=C(NCCCNC(=O)c1ccc(-c2c3nc(c(-c4cc(S(=O)(=O)[O-])ccc4F)c4ccc([nH]4)c(-c4cc(S(=O)(=O)[O-])ccc4F)c4nc(c(-c5cc(S(=O)(=O)[O-])ccc5F)c5ccc2[nH]5)C=C4)C=C3)cc1)C1=Cc2cc(Cl)cc(Cl)c2O[C@@H]1C(F)(F)F
REMARK SMILES IDX 6 1 5 2 4 3 3 4 1 5 2 6 73 8 74 9 84 10 75 11 83 12 76 13
REMARK SMILES IDX 82 14 77 15 80 16 78 17 79 18 81 19 85 20 86 21 87 22 88 23
REMARK SMILES IDX 7 24 8 25 9 27 10 28 11 29 72 30 12 31 71 32 13 33 14 34
REMARK SMILES IDX 15 35 65 36 16 37 70 38 64 39 66 40 17 41 69 42 63 43 62 44
REMARK SMILES IDX 18 46 50 47 30 48 49 49 31 50 34 51 48 52 67 53 32 54 33 55
REMARK SMILES IDX 47 57 68 58 35 59 19 60 20 61 28 62 21 63 27 64 29 65 26 66
REMARK SMILES IDX 22 67 23 68 24 69 25 70 51 71 52 72 60 73 53 74 59 75 61 76
REMARK SMILES IDX 58 77 54 78 55 79 56 80 57 81 36 82 37 83 45 84 38 85 44 86
REMARK SMILES IDX 46 87 43 88 39 89 40 90 41 91 42 92
REMARK H PARENT 3 7 7 26 66 45 34 56
REMARK Flexibility Score: inf
ROOT
ATOM      1  C   UNL A   1      37.035  21.741  25.181  1.00  0.00     0.118 C 
ENDROOT
BRANCH   1   2
ATOM      2  C   UNL A   1      35.712  21.479  25.895  1.00  0.00     0.042 C 
BRANCH   2   3
ATOM      3  C   UNL A   1      34.560  21.201  24.933  1.00  0.00     0.118 C 
BRANCH   3   4
ATOM      4  N   UNL A   1      34.540  22.108  23.781  1.00  0.00    -0.352 N 
ATOM      5  O   UNL A   1      34.235  24.054  22.656  1.00  0.00    -0.270 OA
ATOM      6  C   UNL A   1      33.972  23.348  23.619  1.00  0.00     0.251 C 
ATOM      7  H   UNL A   1      35.015  21.772  22.988  1.00  0.00     0.163 HD
BRANCH   6   8
ATOM      8  C   UNL A   1      33.082  23.825  24.691  1.00  0.00     0.067 C 
ATOM      9  C   UNL A   1      33.517  24.833  25.456  1.00  0.00     0.025 C 
ATOM     10  C   UNL A   1      31.645  23.423  24.614  1.00  0.00     0.314 C 
ATOM     11  C   UNL A   1      32.539  25.924  25.543  1.00  0.00     0.020 A 
ATOM     12  O   UNL A   1      30.750  24.558  24.586  1.00  0.00    -0.474 OA
ATOM     13  C   UNL A   1      33.040  27.205  25.806  1.00  0.00     0.032 A 
ATOM     14  C   UNL A   1      31.256  25.777  24.979  1.00  0.00     0.146 A 
ATOM     15  C   UNL A   1      32.307  28.326  25.421  1.00  0.00     0.043 A 
ATOM     16  C   UNL A   1      30.524  26.918  24.622  1.00  0.00     0.085 A 
ATOM     17  Cl  UNL A   1      33.008  29.886  25.585  1.00  0.00    -0.084 Cl
ATOM     18  C   UNL A   1      31.061  28.190  24.816  1.00  0.00     0.045 A 
ATOM     19  Cl  UNL A   1      29.022  26.783  23.778  1.00  0.00    -0.080 Cl
BRANCH  10  20
ATOM     20  C   UNL A   1      31.285  22.477  25.772  1.00  0.00     0.429 C 
ATOM     21  F   UNL A   1      29.995  22.638  26.153  1.00  0.00    -0.167 F 
ATOM     22  F   UNL A   1      31.428  21.175  25.426  1.00  0.00    -0.167 F 
ATOM     23  F   UNL A   1      32.055  22.688  26.866  1.00  0.00    -0.167 F 
ENDBRANCH  10  20
ENDBRANCH   6   8
ENDBRANCH   3   4
ENDBRANCH   2   3
ENDBRANCH   1   2
BRANCH   1  24
ATOM     24  N   UNL A   1      38.085  20.775  25.469  1.00  0.00    -0.352 N 
ATOM     25  C   UNL A   1      39.308  20.945  26.096  1.00  0.00     0.251 C 
ATOM     26  H   UNL A   1      37.895  19.855  25.173  1.00  0.00     0.163 HD
ATOM     27  O   UNL A   1      40.060  19.989  26.188  1.00  0.00    -0.269 OA
BRANCH  25  28
ATOM     28  C   UNL A   1      39.728  22.281  26.596  1.00  0.00     0.039 A 
ATOM     29  C   UNL A   1      40.777  22.356  27.517  1.00  0.00     0.014 A 
ATOM     30  C   UNL A   1      39.125  23.457  26.153  1.00  0.00     0.014 A 
ATOM     31  C   UNL A   1      41.275  23.603  27.911  1.00  0.00     0.010 A 
ATOM     32  C   UNL A   1      39.703  24.690  26.441  1.00  0.00     0.010 A 
ATOM     33  C   UNL A   1      40.781  24.782  27.331  1.00  0.00    -0.014 A 
BRANCH  33  34
ATOM     34  C   UNL A   1      41.371  26.115  27.645  1.00  0.00     0.031 A 
ATOM     35  C   UNL A   1      42.739  26.480  27.122  1.00  0.00     0.074 A 
ATOM     36  C   UNL A   1      40.709  26.962  28.461  1.00  0.00     0.049 A 
ATOM     37  N   UNL A   1      43.453  27.553  27.348  1.00  0.00    -0.248 NA
ATOM     38  C   UNL A   1      43.416  25.484  26.278  1.00  0.00     0.031 C 
ATOM     39  C   UNL A   1      39.417  26.688  29.099  1.00  0.00     0.029 A 
ATOM     40  N   UNL A   1      41.026  28.224  28.897  1.00  0.00    -0.354 N 
ATOM     41  C   UNL A   1      44.668  27.345  26.701  1.00  0.00     0.074 A 
ATOM     42  C   UNL A   1      44.622  26.012  26.144  1.00  0.00     0.031 C 
ATOM     43  C   UNL A   1      39.033  27.764  29.801  1.00  0.00     0.029 A 
ATOM     44  C   UNL A   1      40.066  28.789  29.708  1.00  0.00     0.049 A 
ATOM     45  H   UNL A   1      41.863  28.683  28.654  1.00  0.00     0.167 HD
ATOM     46  C   UNL A   1      45.712  28.198  26.554  1.00  0.00     0.034 A 
ATOM     47  C   UNL A   1      40.024  29.997  30.306  1.00  0.00     0.034 A 
ATOM     48  C   UNL A   1      45.718  29.542  27.076  1.00  0.00     0.049 A 
ATOM     49  C   UNL A   1      41.173  30.946  30.087  1.00  0.00     0.074 A 
ATOM     50  C   UNL A   1      46.679  30.526  26.918  1.00  0.00     0.029 A 
ATOM     51  N   UNL A   1      44.710  30.096  27.855  1.00  0.00    -0.354 N 
ATOM     52  N   UNL A   1      42.283  30.759  29.408  1.00  0.00    -0.248 NA
ATOM     53  C   UNL A   1      41.058  32.275  30.697  1.00  0.00     0.031 C 
ATOM     54  C   UNL A   1      46.282  31.648  27.652  1.00  0.00     0.029 A 
ATOM     55  C   UNL A   1      45.037  31.396  28.206  1.00  0.00     0.049 A 
ATOM     56  H   UNL A   1      43.882  29.631  28.120  1.00  0.00     0.167 HD
ATOM     57  C   UNL A   1      42.985  31.958  29.492  1.00  0.00     0.074 A 
ATOM     58  C   UNL A   1      42.157  32.867  30.258  1.00  0.00     0.031 C 
ATOM     59  C   UNL A   1      44.204  32.281  28.986  1.00  0.00     0.034 A 
BRANCH  46  60
ATOM     60  C   UNL A   1      46.929  27.696  25.809  1.00  0.00     0.023 A 
ATOM     61  C   UNL A   1      47.172  28.038  24.467  1.00  0.00     0.031 A 
ATOM     62  C   UNL A   1      47.849  26.840  26.443  1.00  0.00     0.131 A 
ATOM     63  C   UNL A   1      48.253  27.467  23.779  1.00  0.00     0.055 A 
ATOM     64  C   UNL A   1      48.973  26.344  25.778  1.00  0.00     0.041 A 
ATOM     65  F   UNL A   1      47.664  26.459  27.716  1.00  0.00    -0.206 F 
ATOM     66  C   UNL A   1      49.172  26.644  24.433  1.00  0.00     0.022 A 
BRANCH  63  67
ATOM     67  S   UNL A   1      48.358  27.701  21.984  1.00  0.00     0.124 S 
ATOM     68  O   UNL A   1      48.606  26.335  21.524  1.00  0.00    -0.237 OA
ATOM     69  O   UNL A   1      47.049  28.256  21.660  1.00  0.00    -0.237 OA
ATOM     70  O   UNL A   1      49.485  28.619  21.823  1.00  0.00    -0.744 OA
ENDBRANCH  63  67
ENDBRANCH  46  60
BRANCH  47  71
ATOM     71  C   UNL A   1      38.861  30.385  31.159  1.00  0.00     0.023 A 
ATOM     72  C   UNL A   1      37.799  31.140  30.635  1.00  0.00     0.031 A 
ATOM     73  C   UNL A   1      38.815  30.046  32.523  1.00  0.00     0.131 A 
ATOM     74  C   UNL A   1      36.765  31.577  31.479  1.00  0.00     0.055 A 
ATOM     75  C   UNL A   1      37.755  30.434  33.345  1.00  0.00     0.041 A 
ATOM     76  F   UNL A   1      39.799  29.320  33.075  1.00  0.00    -0.206 F 
ATOM     77  C   UNL A   1      36.729  31.217  32.827  1.00  0.00     0.022 A 
BRANCH  74  78
ATOM     78  S   UNL A   1      35.513  32.705  30.807  1.00  0.00     0.124 S 
ATOM     79  O   UNL A   1      35.550  32.379  29.386  1.00  0.00    -0.237 OA
ATOM     80  O   UNL A   1      34.315  32.291  31.529  1.00  0.00    -0.237 OA
ATOM     81  O   UNL A   1      36.024  34.029  31.158  1.00  0.00    -0.744 OA
ENDBRANCH  74  78
ENDBRANCH  47  71
BRANCH  59  82
ATOM     82  C   UNL A   1      44.686  33.690  29.227  1.00  0.00     0.023 A 
ATOM     83  C   UNL A   1      44.285  34.755  28.401  1.00  0.00     0.031 A 
ATOM     84  C   UNL A   1      45.582  33.964  30.274  1.00  0.00     0.131 A 
ATOM     85  C   UNL A   1      44.839  36.029  28.588  1.00  0.00     0.055 A 
ATOM     86  C   UNL A   1      46.075  35.250  30.500  1.00  0.00     0.041 A 
ATOM     87  F   UNL A   1      45.999  32.985  31.093  1.00  0.00    -0.206 F 
ATOM     88  C   UNL A   1      45.718  36.288  29.644  1.00  0.00     0.022 A 
BRANCH  85  89
ATOM     89  S   UNL A   1      44.490  37.315  27.359  1.00  0.00     0.124 S 
ATOM     90  O   UNL A   1      45.710  37.307  26.558  1.00  0.00    -0.237 OA
ATOM     91  O   UNL A   1      43.294  36.799  26.701  1.00  0.00    -0.237 OA
ATOM     92  O   UNL A   1      44.285  38.516  28.166  1.00  0.00    -0.744 OA
ENDBRANCH  85  89
ENDBRANCH  59  82
ENDBRANCH  33  34
ENDBRANCH  25  28
ENDBRANCH   1  24
TORSDOF 14
ENDMDL
