MODEL 1
REMARK VINA RESULT:     -12.8      0.000      0.000
REMARK SMILES C[C@@H]1[C@@H](C(=O)NCCCNC(=O)c2ccc(-c3c4nc(c(-c5cc(S(=O)(=O)[O-])ccc5F)c5ccc([nH]5)c(-c5cc(S(=O)(=O)[O-])ccc5F)c5nc(c(-c6cc(S(=O)(=O)[O-])ccc6F)c6ccc3[nH]6)C=C5)C=C4)cc2)CCN1C(=O)N1CCC[C@H]2CCC[C@@H]21
REMARK SMILES IDX 8 1 7 2 6 3 4 4 5 5 3 7 1 8 2 9 78 10 76 11 77 12 79 13
REMARK SMILES IDX 80 14 81 15 82 16 89 17 83 18 85 19 88 20 84 21 86 22 87 23
REMARK SMILES IDX 9 24 10 25 11 26 12 28 13 29 14 30 75 31 15 32 74 33 16 34
REMARK SMILES IDX 17 35 18 36 68 37 19 38 73 39 67 40 69 41 20 42 72 43 66 44
REMARK SMILES IDX 65 45 21 47 53 48 33 49 52 50 34 51 37 52 51 53 70 54 35 55
REMARK SMILES IDX 36 56 50 58 71 59 38 60 22 61 23 62 31 63 24 64 30 65 32 66
REMARK SMILES IDX 29 67 25 68 26 69 27 70 28 71 54 72 55 73 63 74 56 75 62 76
REMARK SMILES IDX 64 77 61 78 57 79 58 80 59 81 60 82 39 83 40 84 48 85 41 86
REMARK SMILES IDX 47 87 49 88 46 89 42 90 43 91 44 92 45 93
REMARK H PARENT 6 6 10 27 69 46 37 57
REMARK Flexibility Score: inf
ROOT
ATOM      1  C   UNL A   1      31.766  31.572  26.599  1.00  0.00     0.042 C 
ENDROOT
BRANCH   1   2
ATOM      2  C   UNL A   1      32.103  30.154  26.176  1.00  0.00     0.117 C 
BRANCH   2   3
ATOM      3  N   UNL A   1      32.083  29.949  24.738  1.00  0.00    -0.356 N 
ATOM      4  C   UNL A   1      31.616  28.883  24.024  1.00  0.00     0.225 C 
ATOM      5  O   UNL A   1      31.663  28.955  22.797  1.00  0.00    -0.275 OA
ATOM      6  H   UNL A   1      32.461  30.683  24.203  1.00  0.00     0.163 HD
BRANCH   4   7
ATOM      7  C   UNL A   1      31.166  27.632  24.767  1.00  0.00     0.102 C 
ATOM      8  C   UNL A   1      32.125  25.907  26.289  1.00  0.00     0.032 C 
ATOM      9  C   UNL A   1      32.315  26.608  24.937  1.00  0.00     0.096 C 
ATOM     10  N   UNL A   1      32.164  25.701  23.778  1.00  0.00    -0.321 N 
ATOM     11  C   UNL A   1      30.095  26.801  24.051  1.00  0.00     0.037 C 
ATOM     12  C   UNL A   1      30.892  25.914  23.122  1.00  0.00     0.122 C 
BRANCH  10  13
ATOM     13  C   UNL A   1      33.159  25.114  23.011  1.00  0.00     0.320 C 
ATOM     14  O   UNL A   1      33.835  25.766  22.214  1.00  0.00    -0.248 OA
BRANCH  13  15
ATOM     15  N   UNL A   1      33.437  23.800  23.276  1.00  0.00    -0.321 N 
ATOM     16  C   UNL A   1      32.920  22.727  22.441  1.00  0.00     0.121 C 
ATOM     17  C   UNL A   1      34.599  23.407  24.049  1.00  0.00     0.090 C 
ATOM     18  C   UNL A   1      32.493  21.533  23.297  1.00  0.00     0.022 C 
ATOM     19  C   UNL A   1      34.131  22.331  25.031  1.00  0.00     0.012 C 
ATOM     20  C   UNL A   1      35.278  24.405  24.980  1.00  0.00     0.025 C 
ATOM     21  C   UNL A   1      33.599  21.109  24.283  1.00  0.00     0.007 C 
ATOM     22  C   UNL A   1      35.345  22.127  25.921  1.00  0.00     0.006 C 
ATOM     23  C   UNL A   1      35.973  23.525  26.029  1.00  0.00     0.002 C 
ENDBRANCH  13  15
ENDBRANCH  10  13
ENDBRANCH   4   7
ENDBRANCH   2   3
ENDBRANCH   1   2
BRANCH   1  24
ATOM     24  C   UNL A   1      32.903  32.328  27.269  1.00  0.00     0.118 C 
BRANCH  24  25
ATOM     25  N   UNL A   1      32.573  33.710  27.586  1.00  0.00    -0.352 N 
ATOM     26  C   UNL A   1      33.102  34.568  28.526  1.00  0.00     0.251 C 
ATOM     27  H   UNL A   1      31.853  34.096  27.036  1.00  0.00     0.163 HD
ATOM     28  O   UNL A   1      32.564  35.650  28.717  1.00  0.00    -0.269 OA
BRANCH  26  29
ATOM     29  C   UNL A   1      34.281  34.167  29.330  1.00  0.00     0.039 A 
ATOM     30  C   UNL A   1      34.077  33.581  30.584  1.00  0.00     0.014 A 
ATOM     31  C   UNL A   1      35.580  34.354  28.860  1.00  0.00     0.014 A 
ATOM     32  C   UNL A   1      35.169  33.097  31.312  1.00  0.00     0.010 A 
ATOM     33  C   UNL A   1      36.652  33.772  29.529  1.00  0.00     0.010 A 
ATOM     34  C   UNL A   1      36.462  33.138  30.765  1.00  0.00    -0.014 A 
BRANCH  34  35
ATOM     35  C   UNL A   1      37.628  32.535  31.469  1.00  0.00     0.031 A 
ATOM     36  C   UNL A   1      38.372  31.384  30.843  1.00  0.00     0.074 A 
ATOM     37  C   UNL A   1      37.971  32.973  32.697  1.00  0.00     0.049 A 
ATOM     38  N   UNL A   1      39.344  30.659  31.336  1.00  0.00    -0.248 NA
ATOM     39  C   UNL A   1      37.942  30.972  29.499  1.00  0.00     0.031 C 
ATOM     40  C   UNL A   1      37.304  34.052  33.430  1.00  0.00     0.029 A 
ATOM     41  N   UNL A   1      38.963  32.562  33.553  1.00  0.00    -0.354 N 
ATOM     42  C   UNL A   1      39.628  29.697  30.371  1.00  0.00     0.074 A 
ATOM     43  C   UNL A   1      38.675  29.889  29.299  1.00  0.00     0.031 C 
ATOM     44  C   UNL A   1      37.925  34.239  34.604  1.00  0.00     0.029 A 
ATOM     45  C   UNL A   1      38.999  33.259  34.739  1.00  0.00     0.049 A 
ATOM     46  H   UNL A   1      39.592  31.835  33.339  1.00  0.00     0.167 HD
ATOM     47  C   UNL A   1      40.609  28.762  30.365  1.00  0.00     0.034 A 
ATOM     48  C   UNL A   1      39.796  33.121  35.817  1.00  0.00     0.034 A 
ATOM     49  C   UNL A   1      41.564  28.596  31.434  1.00  0.00     0.049 A 
ATOM     50  C   UNL A   1      40.861  32.052  35.802  1.00  0.00     0.074 A 
ATOM     51  C   UNL A   1      42.629  27.716  31.509  1.00  0.00     0.029 A 
ATOM     52  N   UNL A   1      41.565  29.321  32.619  1.00  0.00    -0.354 N 
ATOM     53  N   UNL A   1      41.144  31.180  34.861  1.00  0.00    -0.248 NA
ATOM     54  C   UNL A   1      41.720  31.956  36.989  1.00  0.00     0.031 C 
ATOM     55  C   UNL A   1      43.228  27.859  32.765  1.00  0.00     0.029 A 
ATOM     56  C   UNL A   1      42.593  28.886  33.443  1.00  0.00     0.049 A 
ATOM     57  H   UNL A   1      40.930  30.040  32.842  1.00  0.00     0.167 HD
ATOM     58  C   UNL A   1      42.237  30.457  35.331  1.00  0.00     0.074 A 
ATOM     59  C   UNL A   1      42.569  31.004  36.630  1.00  0.00     0.031 C 
ATOM     60  C   UNL A   1      42.909  29.436  34.740  1.00  0.00     0.034 A 
BRANCH  47  61
ATOM     61  C   UNL A   1      40.681  27.837  29.172  1.00  0.00     0.023 A 
ATOM     62  C   UNL A   1      41.619  28.032  28.143  1.00  0.00     0.031 A 
ATOM     63  C   UNL A   1      39.783  26.762  29.046  1.00  0.00     0.131 A 
ATOM     64  C   UNL A   1      41.584  27.220  26.998  1.00  0.00     0.055 A 
ATOM     65  C   UNL A   1      39.812  25.902  27.946  1.00  0.00     0.041 A 
ATOM     66  F   UNL A   1      38.850  26.536  29.984  1.00  0.00    -0.206 F 
ATOM     67  C   UNL A   1      40.706  26.139  26.905  1.00  0.00     0.022 A 
BRANCH  64  68
ATOM     68  S   UNL A   1      42.598  27.695  25.572  1.00  0.00     0.124 S 
ATOM     69  O   UNL A   1      43.891  27.953  26.203  1.00  0.00    -0.237 OA
ATOM     70  O   UNL A   1      42.526  26.512  24.724  1.00  0.00    -0.237 OA
ATOM     71  O   UNL A   1      41.920  28.881  25.051  1.00  0.00    -0.744 OA
ENDBRANCH  64  68
ENDBRANCH  47  61
BRANCH  48  72
ATOM     72  C   UNL A   1      39.623  34.003  37.009  1.00  0.00     0.023 A 
ATOM     73  C   UNL A   1      39.034  33.517  38.186  1.00  0.00     0.031 A 
ATOM     74  C   UNL A   1      39.999  35.358  36.971  1.00  0.00     0.131 A 
ATOM     75  C   UNL A   1      38.791  34.388  39.260  1.00  0.00     0.055 A 
ATOM     76  C   UNL A   1      39.810  36.207  38.064  1.00  0.00     0.041 A 
ATOM     77  F   UNL A   1      40.570  35.875  35.872  1.00  0.00    -0.206 F 
ATOM     78  C   UNL A   1      39.188  35.727  39.213  1.00  0.00     0.022 A 
BRANCH  75  79
ATOM     79  S   UNL A   1      37.860  33.769  40.689  1.00  0.00     0.124 S 
ATOM     80  O   UNL A   1      36.834  32.957  40.044  1.00  0.00    -0.237 OA
ATOM     81  O   UNL A   1      38.887  33.040  41.426  1.00  0.00    -0.237 OA
ATOM     82  O   UNL A   1      37.379  34.987  41.335  1.00  0.00    -0.744 OA
ENDBRANCH  75  79
ENDBRANCH  48  72
BRANCH  60  83
ATOM     83  C   UNL A   1      44.106  28.883  35.477  1.00  0.00     0.023 A 
ATOM     84  C   UNL A   1      43.994  27.804  36.371  1.00  0.00     0.031 A 
ATOM     85  C   UNL A   1      45.377  29.452  35.284  1.00  0.00     0.131 A 
ATOM     86  C   UNL A   1      45.122  27.367  37.082  1.00  0.00     0.055 A 
ATOM     87  C   UNL A   1      46.507  28.969  35.944  1.00  0.00     0.041 A 
ATOM     88  F   UNL A   1      45.543  30.486  34.443  1.00  0.00    -0.206 F 
ATOM     89  C   UNL A   1      46.381  27.929  36.860  1.00  0.00     0.022 A 
BRANCH  86  90
ATOM     90  S   UNL A   1      44.903  26.113  38.376  1.00  0.00     0.124 S 
ATOM     91  O   UNL A   1      44.099  25.107  37.691  1.00  0.00    -0.237 OA
ATOM     92  O   UNL A   1      46.280  25.732  38.676  1.00  0.00    -0.237 OA
ATOM     93  O   UNL A   1      44.215  26.838  39.442  1.00  0.00    -0.744 OA
ENDBRANCH  86  90
ENDBRANCH  60  83
ENDBRANCH  34  35
ENDBRANCH  26  29
ENDBRANCH  24  25
ENDBRANCH   1  24
TORSDOF 15
ENDMDL
MODEL 2
REMARK VINA RESULT:     -12.7      1.295      1.587
REMARK SMILES C[C@@H]1[C@@H](C(=O)NCCCNC(=O)c2ccc(-c3c4nc(c(-c5cc(S(=O)(=O)[O-])ccc5F)c5ccc([nH]5)c(-c5cc(S(=O)(=O)[O-])ccc5F)c5nc(c(-c6cc(S(=O)(=O)[O-])ccc6F)c6ccc3[nH]6)C=C5)C=C4)cc2)CCN1C(=O)N1CCC[C@H]2CCC[C@@H]21
REMARK SMILES IDX 8 1 7 2 6 3 4 4 5 5 3 7 1 8 2 9 78 10 76 11 77 12 79 13
REMARK SMILES IDX 80 14 81 15 82 16 89 17 83 18 85 19 88 20 84 21 86 22 87 23
REMARK SMILES IDX 9 24 10 25 11 26 12 28 13 29 14 30 75 31 15 32 74 33 16 34
REMARK SMILES IDX 17 35 18 36 68 37 19 38 73 39 67 40 69 41 20 42 72 43 66 44
REMARK SMILES IDX 65 45 21 47 53 48 33 49 52 50 34 51 37 52 51 53 70 54 35 55
REMARK SMILES IDX 36 56 50 58 71 59 38 60 22 61 23 62 31 63 24 64 30 65 32 66
REMARK SMILES IDX 29 67 25 68 26 69 27 70 28 71 54 72 55 73 63 74 56 75 62 76
REMARK SMILES IDX 64 77 61 78 57 79 58 80 59 81 60 82 39 83 40 84 48 85 41 86
REMARK SMILES IDX 47 87 49 88 46 89 42 90 43 91 44 92 45 93
REMARK H PARENT 6 6 10 27 69 46 37 57
REMARK Flexibility Score: inf
ROOT
ATOM      1  C   UNL A   1      31.761  31.646  26.639  1.00  0.00     0.042 C 
ENDROOT
BRANCH   1   2
ATOM      2  C   UNL A   1      32.008  30.187  26.305  1.00  0.00     0.117 C 
BRANCH   2   3
ATOM      3  N   UNL A   1      32.419  29.960  24.931  1.00  0.00    -0.356 N 
ATOM      4  C   UNL A   1      32.165  28.893  24.118  1.00  0.00     0.225 C 
ATOM      5  O   UNL A   1      32.583  28.945  22.962  1.00  0.00    -0.275 OA
ATOM      6  H   UNL A   1      32.960  30.677  24.529  1.00  0.00     0.163 HD
BRANCH   4   7
ATOM      7  C   UNL A   1      31.480  27.663  24.700  1.00  0.00     0.102 C 
ATOM      8  C   UNL A   1      32.055  25.685  26.102  1.00  0.00     0.032 C 
ATOM      9  C   UNL A   1      32.453  26.467  24.843  1.00  0.00     0.096 C 
ATOM     10  N   UNL A   1      32.267  25.699  23.592  1.00  0.00    -0.321 N 
ATOM     11  C   UNL A   1      30.363  27.070  23.834  1.00  0.00     0.037 C 
ATOM     12  C   UNL A   1      31.097  26.159  22.876  1.00  0.00     0.122 C 
BRANCH  10  13
ATOM     13  C   UNL A   1      33.227  25.039  22.839  1.00  0.00     0.320 C 
ATOM     14  O   UNL A   1      33.928  25.631  22.016  1.00  0.00    -0.248 OA
BRANCH  13  15
ATOM     15  N   UNL A   1      33.442  23.723  23.145  1.00  0.00    -0.321 N 
ATOM     16  C   UNL A   1      32.862  22.650  22.352  1.00  0.00     0.121 C 
ATOM     17  C   UNL A   1      34.593  23.298  23.919  1.00  0.00     0.090 C 
ATOM     18  C   UNL A   1      32.387  21.508  23.253  1.00  0.00     0.022 C 
ATOM     19  C   UNL A   1      34.083  22.280  24.942  1.00  0.00     0.012 C 
ATOM     20  C   UNL A   1      35.331  24.291  24.809  1.00  0.00     0.025 C 
ATOM     21  C   UNL A   1      33.482  21.062  24.241  1.00  0.00     0.007 C 
ATOM     22  C   UNL A   1      35.296  22.045  25.826  1.00  0.00     0.006 C 
ATOM     23  C   UNL A   1      35.994  23.412  25.880  1.00  0.00     0.002 C 
ENDBRANCH  13  15
ENDBRANCH  10  13
ENDBRANCH   4   7
ENDBRANCH   2   3
ENDBRANCH   1   2
BRANCH   1  24
ATOM     24  C   UNL A   1      32.904  32.341  27.363  1.00  0.00     0.118 C 
BRANCH  24  25
ATOM     25  N   UNL A   1      32.644  33.745  27.645  1.00  0.00    -0.352 N 
ATOM     26  C   UNL A   1      33.217  34.599  28.563  1.00  0.00     0.251 C 
ATOM     27  H   UNL A   1      31.943  34.153  27.086  1.00  0.00     0.163 HD
ATOM     28  O   UNL A   1      32.735  35.711  28.727  1.00  0.00    -0.269 OA
BRANCH  26  29
ATOM     29  C   UNL A   1      34.377  34.160  29.375  1.00  0.00     0.039 A 
ATOM     30  C   UNL A   1      34.144  33.468  30.567  1.00  0.00     0.014 A 
ATOM     31  C   UNL A   1      35.687  34.415  28.971  1.00  0.00     0.014 A 
ATOM     32  C   UNL A   1      35.221  32.951  31.294  1.00  0.00     0.010 A 
ATOM     33  C   UNL A   1      36.749  33.804  29.630  1.00  0.00     0.010 A 
ATOM     34  C   UNL A   1      36.532  33.066  30.802  1.00  0.00    -0.014 A 
BRANCH  34  35
ATOM     35  C   UNL A   1      37.687  32.434  31.497  1.00  0.00     0.031 A 
ATOM     36  C   UNL A   1      38.422  31.290  30.849  1.00  0.00     0.074 A 
ATOM     37  C   UNL A   1      38.028  32.839  32.738  1.00  0.00     0.049 A 
ATOM     38  N   UNL A   1      39.383  30.543  31.330  1.00  0.00    -0.248 NA
ATOM     39  C   UNL A   1      37.995  30.915  29.493  1.00  0.00     0.031 C 
ATOM     40  C   UNL A   1      37.368  33.907  33.492  1.00  0.00     0.029 A 
ATOM     41  N   UNL A   1      39.011  32.397  33.589  1.00  0.00    -0.354 N 
ATOM     42  C   UNL A   1      39.662  29.601  30.344  1.00  0.00     0.074 A 
ATOM     43  C   UNL A   1      38.717  29.828  29.272  1.00  0.00     0.031 C 
ATOM     44  C   UNL A   1      37.985  34.060  34.674  1.00  0.00     0.029 A 
ATOM     45  C   UNL A   1      39.048  33.066  34.791  1.00  0.00     0.049 A 
ATOM     46  H   UNL A   1      39.632  31.668  33.361  1.00  0.00     0.167 HD
ATOM     47  C   UNL A   1      40.632  28.655  30.321  1.00  0.00     0.034 A 
ATOM     48  C   UNL A   1      39.837  32.894  35.870  1.00  0.00     0.034 A 
ATOM     49  C   UNL A   1      41.579  28.453  31.391  1.00  0.00     0.049 A 
ATOM     50  C   UNL A   1      40.890  31.813  35.835  1.00  0.00     0.074 A 
ATOM     51  C   UNL A   1      42.635  27.560  31.451  1.00  0.00     0.029 A 
ATOM     52  N   UNL A   1      41.582  29.150  32.593  1.00  0.00    -0.354 N 
ATOM     53  N   UNL A   1      41.168  30.961  34.876  1.00  0.00    -0.248 NA
ATOM     54  C   UNL A   1      41.741  31.680  37.024  1.00  0.00     0.031 C 
ATOM     55  C   UNL A   1      43.229  27.666  32.713  1.00  0.00     0.029 A 
ATOM     56  C   UNL A   1      42.601  28.685  33.411  1.00  0.00     0.049 A 
ATOM     57  H   UNL A   1      40.954  29.870  32.830  1.00  0.00     0.167 HD
ATOM     58  C   UNL A   1      42.252  30.214  35.334  1.00  0.00     0.074 A 
ATOM     59  C   UNL A   1      42.582  30.727  36.648  1.00  0.00     0.031 C 
ATOM     60  C   UNL A   1      42.915  29.201  34.723  1.00  0.00     0.034 A 
BRANCH  47  61
ATOM     61  C   UNL A   1      40.701  27.758  29.107  1.00  0.00     0.023 A 
ATOM     62  C   UNL A   1      41.654  27.960  28.093  1.00  0.00     0.031 A 
ATOM     63  C   UNL A   1      39.786  26.703  28.946  1.00  0.00     0.131 A 
ATOM     64  C   UNL A   1      41.617  27.176  26.929  1.00  0.00     0.055 A 
ATOM     65  C   UNL A   1      39.812  25.869  27.826  1.00  0.00     0.041 A 
ATOM     66  F   UNL A   1      38.839  26.471  29.868  1.00  0.00    -0.206 F 
ATOM     67  C   UNL A   1      40.721  26.114  26.800  1.00  0.00     0.022 A 
BRANCH  64  68
ATOM     68  S   UNL A   1      42.655  27.667  25.525  1.00  0.00     0.124 S 
ATOM     69  O   UNL A   1      41.930  28.830  25.016  1.00  0.00    -0.237 OA
ATOM     70  O   UNL A   1      43.938  27.942  26.161  1.00  0.00    -0.237 OA
ATOM     71  O   UNL A   1      42.627  26.495  24.653  1.00  0.00    -0.744 OA
ENDBRANCH  64  68
ENDBRANCH  47  61
BRANCH  48  72
ATOM     72  C   UNL A   1      39.667  33.749  37.081  1.00  0.00     0.023 A 
ATOM     73  C   UNL A   1      40.513  34.844  37.316  1.00  0.00     0.031 A 
ATOM     74  C   UNL A   1      38.687  33.456  38.047  1.00  0.00     0.131 A 
ATOM     75  C   UNL A   1      40.399  35.575  38.508  1.00  0.00     0.055 A 
ATOM     76  C   UNL A   1      38.538  34.223  39.205  1.00  0.00     0.041 A 
ATOM     77  F   UNL A   1      37.848  32.422  37.872  1.00  0.00    -0.206 F 
ATOM     78  C   UNL A   1      39.408  35.282  39.448  1.00  0.00     0.022 A 
BRANCH  75  79
ATOM     79  S   UNL A   1      41.629  36.862  38.860  1.00  0.00     0.124 S 
ATOM     80  O   UNL A   1      40.789  37.948  39.350  1.00  0.00    -0.237 OA
ATOM     81  O   UNL A   1      42.476  36.207  39.851  1.00  0.00    -0.237 OA
ATOM     82  O   UNL A   1      42.257  37.095  37.562  1.00  0.00    -0.744 OA
ENDBRANCH  75  79
ENDBRANCH  48  72
BRANCH  60  83
ATOM     83  C   UNL A   1      44.102  28.617  35.453  1.00  0.00     0.023 A 
ATOM     84  C   UNL A   1      43.962  27.569  36.380  1.00  0.00     0.031 A 
ATOM     85  C   UNL A   1      45.392  29.125  35.220  1.00  0.00     0.131 A 
ATOM     86  C   UNL A   1      45.084  27.104  37.082  1.00  0.00     0.055 A 
ATOM     87  C   UNL A   1      46.514  28.612  35.872  1.00  0.00     0.041 A 
ATOM     88  F   UNL A   1      45.585  30.127  34.346  1.00  0.00    -0.206 F 
ATOM     89  C   UNL A   1      46.361  27.605  36.820  1.00  0.00     0.022 A 
BRANCH  86  90
ATOM     90  S   UNL A   1      44.838  25.898  38.416  1.00  0.00     0.124 S 
ATOM     91  O   UNL A   1      46.211  25.578  38.791  1.00  0.00    -0.237 OA
ATOM     92  O   UNL A   1      44.073  26.666  39.393  1.00  0.00    -0.237 OA
ATOM     93  O   UNL A   1      44.103  24.815  37.767  1.00  0.00    -0.744 OA
ENDBRANCH  86  90
ENDBRANCH  60  83
ENDBRANCH  34  35
ENDBRANCH  26  29
ENDBRANCH  24  25
ENDBRANCH   1  24
TORSDOF 15
ENDMDL
MODEL 3
REMARK VINA RESULT:     -12.7      5.616      8.856
REMARK SMILES C[C@@H]1[C@@H](C(=O)NCCCNC(=O)c2ccc(-c3c4nc(c(-c5cc(S(=O)(=O)[O-])ccc5F)c5ccc([nH]5)c(-c5cc(S(=O)(=O)[O-])ccc5F)c5nc(c(-c6cc(S(=O)(=O)[O-])ccc6F)c6ccc3[nH]6)C=C5)C=C4)cc2)CCN1C(=O)N1CCC[C@H]2CCC[C@@H]21
REMARK SMILES IDX 8 1 7 2 6 3 4 4 5 5 3 7 1 8 2 9 78 10 76 11 77 12 79 13
REMARK SMILES IDX 80 14 81 15 82 16 89 17 83 18 85 19 88 20 84 21 86 22 87 23
REMARK SMILES IDX 9 24 10 25 11 26 12 28 13 29 14 30 75 31 15 32 74 33 16 34
REMARK SMILES IDX 17 35 18 36 68 37 19 38 73 39 67 40 69 41 20 42 72 43 66 44
REMARK SMILES IDX 65 45 21 47 53 48 33 49 52 50 34 51 37 52 51 53 70 54 35 55
REMARK SMILES IDX 36 56 50 58 71 59 38 60 22 61 23 62 31 63 24 64 30 65 32 66
REMARK SMILES IDX 29 67 25 68 26 69 27 70 28 71 54 72 55 73 63 74 56 75 62 76
REMARK SMILES IDX 64 77 61 78 57 79 58 80 59 81 60 82 39 83 40 84 48 85 41 86
REMARK SMILES IDX 47 87 49 88 46 89 42 90 43 91 44 92 45 93
REMARK H PARENT 6 6 10 27 69 46 37 57
REMARK Flexibility Score: inf
ROOT
ATOM      1  C   UNL A   1      36.177  21.511  25.706  1.00  0.00     0.042 C 
ENDROOT
BRANCH   1   2
ATOM      2  C   UNL A   1      35.444  20.379  25.010  1.00  0.00     0.117 C 
BRANCH   2   3
ATOM      3  N   UNL A   1      34.038  20.286  25.361  1.00  0.00    -0.356 N 
ATOM      4  C   UNL A   1      32.971  20.962  24.843  1.00  0.00     0.225 C 
ATOM      5  O   UNL A   1      31.853  20.678  25.272  1.00  0.00    -0.275 OA
ATOM      6  H   UNL A   1      33.824  19.644  26.076  1.00  0.00     0.163 HD
BRANCH   4   7
ATOM      7  C   UNL A   1      33.219  22.092  23.852  1.00  0.00     0.102 C 
ATOM      8  C   UNL A   1      34.339  24.317  23.788  1.00  0.00     0.032 C 
ATOM      9  C   UNL A   1      33.310  23.471  24.550  1.00  0.00     0.096 C 
ATOM     10  N   UNL A   1      31.934  24.007  24.470  1.00  0.00    -0.321 N 
ATOM     11  C   UNL A   1      32.099  22.319  22.831  1.00  0.00     0.037 C 
ATOM     12  C   UNL A   1      31.129  23.223  23.558  1.00  0.00     0.122 C 
BRANCH  10  13
ATOM     13  C   UNL A   1      31.242  24.742  25.422  1.00  0.00     0.320 C 
ATOM     14  O   UNL A   1      31.008  24.294  26.546  1.00  0.00    -0.248 OA
BRANCH  13  15
ATOM     15  N   UNL A   1      30.941  26.035  25.092  1.00  0.00    -0.321 N 
ATOM     16  C   UNL A   1      29.615  26.418  24.633  1.00  0.00     0.121 C 
ATOM     17  C   UNL A   1      31.705  27.153  25.613  1.00  0.00     0.090 C 
ATOM     18  C   UNL A   1      29.709  27.449  23.506  1.00  0.00     0.022 C 
ATOM     19  C   UNL A   1      31.951  28.103  24.439  1.00  0.00     0.012 C 
ATOM     20  C   UNL A   1      33.119  26.939  26.142  1.00  0.00     0.025 C 
ATOM     21  C   UNL A   1      30.629  28.627  23.880  1.00  0.00     0.007 C 
ATOM     22  C   UNL A   1      32.913  29.125  25.020  1.00  0.00     0.006 C 
ATOM     23  C   UNL A   1      33.788  28.312  25.987  1.00  0.00     0.002 C 
ENDBRANCH  13  15
ENDBRANCH  10  13
ENDBRANCH   4   7
ENDBRANCH   2   3
ENDBRANCH   1   2
BRANCH   1  24
ATOM     24  C   UNL A   1      37.584  21.775  25.192  1.00  0.00     0.118 C 
BRANCH  24  25
ATOM     25  N   UNL A   1      38.583  20.872  25.746  1.00  0.00    -0.352 N 
ATOM     26  C   UNL A   1      39.735  21.134  26.456  1.00  0.00     0.251 C 
ATOM     27  H   UNL A   1      38.405  19.916  25.588  1.00  0.00     0.163 HD
ATOM     28  O   UNL A   1      40.509  20.217  26.698  1.00  0.00    -0.269 OA
BRANCH  26  29
ATOM     29  C   UNL A   1      40.057  22.516  26.883  1.00  0.00     0.039 A 
ATOM     30  C   UNL A   1      40.981  22.706  27.915  1.00  0.00     0.014 A 
ATOM     31  C   UNL A   1      39.466  23.622  26.274  1.00  0.00     0.014 A 
ATOM     32  C   UNL A   1      41.380  24.001  28.261  1.00  0.00     0.010 A 
ATOM     33  C   UNL A   1      39.947  24.901  26.538  1.00  0.00     0.010 A 
ATOM     34  C   UNL A   1      40.909  25.109  27.537  1.00  0.00    -0.014 A 
BRANCH  34  35
ATOM     35  C   UNL A   1      41.397  26.488  27.811  1.00  0.00     0.031 A 
ATOM     36  C   UNL A   1      42.791  26.889  27.404  1.00  0.00     0.074 A 
ATOM     37  C   UNL A   1      40.616  27.356  28.488  1.00  0.00     0.049 A 
ATOM     38  N   UNL A   1      43.436  28.002  27.641  1.00  0.00    -0.248 NA
ATOM     39  C   UNL A   1      43.575  25.890  26.663  1.00  0.00     0.031 C 
ATOM     40  C   UNL A   1      39.263  27.076  28.975  1.00  0.00     0.029 A 
ATOM     41  N   UNL A   1      40.848  28.647  28.892  1.00  0.00    -0.354 N 
ATOM     42  C   UNL A   1      44.705  27.831  27.093  1.00  0.00     0.074 A 
ATOM     43  C   UNL A   1      44.757  26.478  26.580  1.00  0.00     0.031 C 
ATOM     44  C   UNL A   1      38.775  28.171  29.578  1.00  0.00     0.029 A 
ATOM     45  C   UNL A   1      39.796  29.214  29.574  1.00  0.00     0.049 A 
ATOM     46  H   UNL A   1      41.690  29.125  28.710  1.00  0.00     0.167 HD
ATOM     47  C   UNL A   1      45.720  28.724  27.001  1.00  0.00     0.034 A 
ATOM     48  C   UNL A   1      39.669  30.430  30.142  1.00  0.00     0.034 A 
ATOM     49  C   UNL A   1      45.645  30.075  27.502  1.00  0.00     0.049 A 
ATOM     50  C   UNL A   1      40.824  31.398  30.055  1.00  0.00     0.074 A 
ATOM     51  C   UNL A   1      46.594  31.080  27.416  1.00  0.00     0.029 A 
ATOM     52  N   UNL A   1      44.563  30.611  28.188  1.00  0.00    -0.354 N 
ATOM     53  N   UNL A   1      42.000  31.233  29.494  1.00  0.00    -0.248 NA
ATOM     54  C   UNL A   1      40.629  32.718  30.668  1.00  0.00     0.031 C 
ATOM     55  C   UNL A   1      46.115  32.195  28.111  1.00  0.00     0.029 A 
ATOM     56  C   UNL A   1      44.833  31.920  28.558  1.00  0.00     0.049 A 
ATOM     57  H   UNL A   1      43.725  30.132  28.384  1.00  0.00     0.167 HD
ATOM     58  C   UNL A   1      42.670  32.443  29.657  1.00  0.00     0.074 A 
ATOM     59  C   UNL A   1      41.762  33.329  30.355  1.00  0.00     0.031 C 
ATOM     60  C   UNL A   1      43.921  32.792  29.261  1.00  0.00     0.034 A 
BRANCH  47  61
ATOM     61  C   UNL A   1      47.001  28.257  26.350  1.00  0.00     0.023 A 
ATOM     62  C   UNL A   1      47.174  28.288  24.954  1.00  0.00     0.031 A 
ATOM     63  C   UNL A   1      48.054  27.748  27.131  1.00  0.00     0.131 A 
ATOM     64  C   UNL A   1      48.333  27.744  24.379  1.00  0.00     0.055 A 
ATOM     65  C   UNL A   1      49.242  27.291  26.556  1.00  0.00     0.041 A 
ATOM     66  F   UNL A   1      47.942  27.672  28.465  1.00  0.00    -0.206 F 
ATOM     67  C   UNL A   1      49.380  27.271  25.171  1.00  0.00     0.022 A 
BRANCH  64  68
ATOM     68  S   UNL A   1      48.380  27.523  22.579  1.00  0.00     0.124 S 
ATOM     69  O   UNL A   1      49.626  28.202  22.233  1.00  0.00    -0.237 OA
ATOM     70  O   UNL A   1      48.383  26.072  22.439  1.00  0.00    -0.237 OA
ATOM     71  O   UNL A   1      47.165  28.194  22.121  1.00  0.00    -0.744 OA
ENDBRANCH  64  68
ENDBRANCH  47  61
BRANCH  48  72
ATOM     72  C   UNL A   1      38.413  30.809  30.854  1.00  0.00     0.023 A 
ATOM     73  C   UNL A   1      37.362  31.445  30.173  1.00  0.00     0.031 A 
ATOM     74  C   UNL A   1      38.263  30.585  32.234  1.00  0.00     0.131 A 
ATOM     75  C   UNL A   1      36.232  31.881  30.881  1.00  0.00     0.055 A 
ATOM     76  C   UNL A   1      37.110  30.968  32.924  1.00  0.00     0.041 A 
ATOM     77  F   UNL A   1      39.234  29.977  32.934  1.00  0.00    -0.206 F 
ATOM     78  C   UNL A   1      36.091  31.634  32.249  1.00  0.00     0.022 A 
BRANCH  75  79
ATOM     79  S   UNL A   1      34.983  32.864  30.005  1.00  0.00     0.124 S 
ATOM     80  O   UNL A   1      34.030  33.150  31.071  1.00  0.00    -0.237 OA
ATOM     81  O   UNL A   1      35.770  33.995  29.525  1.00  0.00    -0.237 OA
ATOM     82  O   UNL A   1      34.504  31.955  28.966  1.00  0.00    -0.744 OA
ENDBRANCH  75  79
ENDBRANCH  48  72
BRANCH  60  83
ATOM     83  C   UNL A   1      44.356  34.212  29.530  1.00  0.00     0.023 A 
ATOM     84  C   UNL A   1      44.097  35.253  28.621  1.00  0.00     0.031 A 
ATOM     85  C   UNL A   1      45.050  34.525  30.713  1.00  0.00     0.131 A 
ATOM     86  C   UNL A   1      44.579  36.545  28.883  1.00  0.00     0.055 A 
ATOM     87  C   UNL A   1      45.469  35.825  30.998  1.00  0.00     0.041 A 
ATOM     88  F   UNL A   1      45.328  33.570  31.615  1.00  0.00    -0.206 F 
ATOM     89  C   UNL A   1      45.246  36.841  30.074  1.00  0.00     0.022 A 
BRANCH  86  90
ATOM     90  S   UNL A   1      44.407  37.815  27.599  1.00  0.00     0.124 S 
ATOM     91  O   UNL A   1      45.622  37.620  26.815  1.00  0.00    -0.237 OA
ATOM     92  O   UNL A   1      43.159  37.432  26.946  1.00  0.00    -0.237 OA
ATOM     93  O   UNL A   1      44.351  39.063  28.357  1.00  0.00    -0.744 OA
ENDBRANCH  86  90
ENDBRANCH  60  83
ENDBRANCH  34  35
ENDBRANCH  26  29
ENDBRANCH  24  25
ENDBRANCH   1  24
TORSDOF 15
ENDMDL
