MODEL 1
REMARK VINA RESULT:     -12.3      0.000      0.000
REMARK SMILES O=C(NCCCNC(=O)c1cccc2cccc(C(=O)NC3COC3)c12)c1ccc(-c2c3nc(c(-c4cc(S(=O)(=O)[O-])ccc4F)c4ccc([nH]4)c(-c4cc(S(=O)(=O)[O-])ccc4F)c4nc(c(-c5cc(S(=O)(=O)[O-])ccc5F)c5ccc2[nH]5)C=C4)C=C3)cc1
REMARK SMILES IDX 4 1 3 2 1 3 2 4 27 6 28 7 89 8 29 9 88 10 30 11 31 12 32 13
REMARK SMILES IDX 82 14 33 15 87 16 81 17 83 18 34 19 86 20 80 21 79 22 35 24
REMARK SMILES IDX 67 25 47 26 66 27 48 28 51 29 65 30 84 31 49 32 50 33 64 35
REMARK SMILES IDX 85 36 52 37 36 38 37 39 45 40 38 41 44 42 46 43 43 44 39 45
REMARK SMILES IDX 40 46 41 47 42 48 68 49 69 50 77 51 70 52 76 53 78 54 75 55
REMARK SMILES IDX 71 56 72 57 73 58 74 59 53 60 54 61 62 62 55 63 61 64 63 65
REMARK SMILES IDX 60 66 56 67 57 68 58 69 59 70 5 71 6 72 7 73 8 74 9 76 10 77
REMARK SMILES IDX 11 78 26 79 12 80 14 81 18 82 13 83 15 84 17 85 16 86 19 87
REMARK SMILES IDX 20 88 21 89 22 91 23 92 25 93 24 94
REMARK H PARENT 3 5 83 23 51 34 7 75 21 90
REMARK Flexibility Score: inf
ROOT
ATOM      1  C   UNL A   1      32.826  32.416  27.131  1.00  0.00     0.118 C 
ENDROOT
BRANCH   1   2
ATOM      2  N   UNL A   1      32.609  33.784  27.591  1.00  0.00    -0.352 N 
ATOM      3  O   UNL A   1      32.750  35.453  29.111  1.00  0.00    -0.269 OA
ATOM      4  C   UNL A   1      33.204  34.421  28.660  1.00  0.00     0.251 C 
ATOM      5  H   UNL A   1      31.960  34.316  27.077  1.00  0.00     0.163 HD
BRANCH   4   6
ATOM      6  C   UNL A   1      34.409  33.789  29.235  1.00  0.00     0.039 A 
ATOM      7  C   UNL A   1      34.243  32.782  30.187  1.00  0.00     0.014 A 
ATOM      8  C   UNL A   1      35.677  34.259  28.899  1.00  0.00     0.014 A 
ATOM      9  C   UNL A   1      35.330  32.378  30.940  1.00  0.00     0.010 A 
ATOM     10  C   UNL A   1      36.791  33.738  29.562  1.00  0.00     0.010 A 
ATOM     11  C   UNL A   1      36.622  32.810  30.603  1.00  0.00    -0.014 A 
BRANCH  11  12
ATOM     12  C   UNL A   1      37.774  32.185  31.297  1.00  0.00     0.031 A 
ATOM     13  C   UNL A   1      38.589  31.104  30.653  1.00  0.00     0.074 A 
ATOM     14  C   UNL A   1      38.088  32.646  32.525  1.00  0.00     0.049 A 
ATOM     15  N   UNL A   1      39.605  30.438  31.141  1.00  0.00    -0.248 NA
ATOM     16  C   UNL A   1      38.208  30.704  29.291  1.00  0.00     0.031 C 
ATOM     17  C   UNL A   1      37.357  33.705  33.234  1.00  0.00     0.029 A 
ATOM     18  N   UNL A   1      39.104  32.322  33.379  1.00  0.00    -0.354 N 
ATOM     19  C   UNL A   1      39.969  29.521  30.162  1.00  0.00     0.074 A 
ATOM     20  C   UNL A   1      39.040  29.697  29.064  1.00  0.00     0.031 C 
ATOM     21  C   UNL A   1      37.996  33.995  34.372  1.00  0.00     0.029 A 
ATOM     22  C   UNL A   1      39.106  33.069  34.534  1.00  0.00     0.049 A 
ATOM     23  H   UNL A   1      39.771  31.623  33.187  1.00  0.00     0.167 HD
ATOM     24  C   UNL A   1      40.984  28.618  30.189  1.00  0.00     0.034 A 
ATOM     25  C   UNL A   1      39.887  32.994  35.626  1.00  0.00     0.034 A 
ATOM     26  C   UNL A   1      41.890  28.473  31.307  1.00  0.00     0.049 A 
ATOM     27  C   UNL A   1      40.962  31.949  35.654  1.00  0.00     0.074 A 
ATOM     28  C   UNL A   1      42.965  27.611  31.441  1.00  0.00     0.029 A 
ATOM     29  N   UNL A   1      41.820  29.200  32.491  1.00  0.00    -0.354 N 
ATOM     30  N   UNL A   1      41.287  31.077  34.727  1.00  0.00    -0.248 NA
ATOM     31  C   UNL A   1      41.770  31.873  36.873  1.00  0.00     0.031 C 
ATOM     32  C   UNL A   1      43.492  27.760  32.730  1.00  0.00     0.029 A 
ATOM     33  C   UNL A   1      42.807  28.780  33.373  1.00  0.00     0.049 A 
ATOM     34  H   UNL A   1      41.166  29.912  32.678  1.00  0.00     0.167 HD
ATOM     35  C   UNL A   1      42.355  30.356  35.247  1.00  0.00     0.074 A 
ATOM     36  C   UNL A   1      42.628  30.914  36.559  1.00  0.00     0.031 C 
ATOM     37  C   UNL A   1      43.049  29.331  34.689  1.00  0.00     0.034 A 
BRANCH  24  38
ATOM     38  C   UNL A   1      41.117  27.683  29.005  1.00  0.00     0.023 A 
ATOM     39  C   UNL A   1      42.100  27.864  28.016  1.00  0.00     0.031 A 
ATOM     40  C   UNL A   1      40.209  26.621  28.837  1.00  0.00     0.131 A 
ATOM     41  C   UNL A   1      42.096  27.057  26.865  1.00  0.00     0.055 A 
ATOM     42  C   UNL A   1      40.269  25.764  27.735  1.00  0.00     0.041 A 
ATOM     43  F   UNL A   1      39.232  26.407  29.731  1.00  0.00    -0.206 F 
ATOM     44  C   UNL A   1      41.204  25.992  26.731  1.00  0.00     0.022 A 
BRANCH  41  45
ATOM     45  S   UNL A   1      43.153  27.535  25.469  1.00  0.00     0.124 S 
ATOM     46  O   UNL A   1      43.599  26.233  24.977  1.00  0.00    -0.237 OA
ATOM     47  O   UNL A   1      42.229  28.264  24.608  1.00  0.00    -0.237 OA
ATOM     48  O   UNL A   1      44.198  28.345  26.091  1.00  0.00    -0.744 OA
ENDBRANCH  41  45
ENDBRANCH  24  38
BRANCH  25  49
ATOM     49  C   UNL A   1      39.641  33.903  36.780  1.00  0.00     0.023 A 
ATOM     50  C   UNL A   1      39.080  33.422  37.970  1.00  0.00     0.031 A 
ATOM     51  C   UNL A   1      39.981  35.268  36.712  1.00  0.00     0.131 A 
ATOM     52  C   UNL A   1      38.848  34.304  39.037  1.00  0.00     0.055 A 
ATOM     53  C   UNL A   1      39.803  36.127  37.795  1.00  0.00     0.041 A 
ATOM     54  F   UNL A   1      40.528  35.777  35.596  1.00  0.00    -0.206 F 
ATOM     55  C   UNL A   1      39.224  35.648  38.964  1.00  0.00     0.022 A 
BRANCH  52  56
ATOM     56  S   UNL A   1      37.986  33.681  40.504  1.00  0.00     0.124 S 
ATOM     57  O   UNL A   1      36.796  33.077  39.916  1.00  0.00    -0.237 OA
ATOM     58  O   UNL A   1      38.967  32.756  41.062  1.00  0.00    -0.237 OA
ATOM     59  O   UNL A   1      37.749  34.887  41.295  1.00  0.00    -0.744 OA
ENDBRANCH  52  56
ENDBRANCH  25  49
BRANCH  37  60
ATOM     60  C   UNL A   1      44.199  28.781  35.497  1.00  0.00     0.023 A 
ATOM     61  C   UNL A   1      44.034  27.697  36.377  1.00  0.00     0.031 A 
ATOM     62  C   UNL A   1      45.469  29.376  35.410  1.00  0.00     0.131 A 
ATOM     63  C   UNL A   1      45.105  27.284  37.182  1.00  0.00     0.055 A 
ATOM     64  C   UNL A   1      46.549  28.915  36.163  1.00  0.00     0.041 A 
ATOM     65  F   UNL A   1      45.681  30.420  34.592  1.00  0.00    -0.206 F 
ATOM     66  C   UNL A   1      46.367  27.873  37.067  1.00  0.00     0.022 A 
BRANCH  63  67
ATOM     67  S   UNL A   1      44.799  26.039  38.467  1.00  0.00     0.124 S 
ATOM     68  O   UNL A   1      43.695  25.277  37.892  1.00  0.00    -0.237 OA
ATOM     69  O   UNL A   1      46.081  25.346  38.541  1.00  0.00    -0.237 OA
ATOM     70  O   UNL A   1      44.457  26.838  39.642  1.00  0.00    -0.744 OA
ENDBRANCH  63  67
ENDBRANCH  37  60
ENDBRANCH  11  12
ENDBRANCH   4   6
ENDBRANCH   1   2
BRANCH   1  71
ATOM     71  C   UNL A   1      31.555  31.830  26.534  1.00  0.00     0.042 C 
BRANCH  71  72
ATOM     72  C   UNL A   1      31.583  30.312  26.612  1.00  0.00     0.118 C 
BRANCH  72  73
ATOM     73  N   UNL A   1      32.571  29.803  25.678  1.00  0.00    -0.352 N 
ATOM     74  C   UNL A   1      33.186  28.579  25.679  1.00  0.00     0.251 C 
ATOM     75  H   UNL A   1      32.833  30.416  24.953  1.00  0.00     0.163 HD
ATOM     76  O   UNL A   1      34.414  28.566  25.642  1.00  0.00    -0.269 OA
BRANCH  74  77
ATOM     77  C   UNL A   1      32.432  27.300  25.544  1.00  0.00     0.048 A 
ATOM     78  C   UNL A   1      31.938  26.623  26.666  1.00  0.00     0.014 A 
ATOM     79  C   UNL A   1      32.427  26.669  24.258  1.00  0.00     0.007 A 
ATOM     80  C   UNL A   1      31.495  25.311  26.563  1.00  0.00     0.001 A 
ATOM     81  C   UNL A   1      32.213  25.265  24.250  1.00  0.00    -0.017 A 
ATOM     82  C   UNL A   1      32.669  27.278  22.989  1.00  0.00     0.048 A 
ATOM     83  C   UNL A   1      31.699  24.618  25.381  1.00  0.00     0.009 A 
ATOM     84  C   UNL A   1      32.554  24.497  23.128  1.00  0.00     0.009 A 
ATOM     85  C   UNL A   1      33.040  26.484  21.887  1.00  0.00     0.014 A 
ATOM     86  C   UNL A   1      33.035  25.098  21.974  1.00  0.00     0.001 A 
BRANCH  82  87
ATOM     87  C   UNL A   1      32.635  28.741  22.715  1.00  0.00     0.252 C 
ATOM     88  O   UNL A   1      33.705  29.341  22.573  1.00  0.00    -0.269 OA
ATOM     89  N   UNL A   1      31.492  29.497  22.562  1.00  0.00    -0.345 N 
ATOM     90  H   UNL A   1      31.602  30.409  22.917  1.00  0.00     0.164 HD
BRANCH  89  91
ATOM     91  C   UNL A   1      30.146  29.283  22.002  1.00  0.00     0.134 C 
ATOM     92  C   UNL A   1      28.940  28.800  22.800  1.00  0.00     0.187 C 
ATOM     93  C   UNL A   1      29.239  30.472  21.665  1.00  0.00     0.187 C 
ATOM     94  O   UNL A   1      28.068  29.665  21.999  1.00  0.00    -0.377 OA
ENDBRANCH  89  91
ENDBRANCH  82  87
ENDBRANCH  74  77
ENDBRANCH  72  73
ENDBRANCH  71  72
ENDBRANCH   1  71
TORSDOF 15
ENDMDL
MODEL 2
REMARK VINA RESULT:     -12.2      5.848     10.823
REMARK SMILES O=C(NCCCNC(=O)c1cccc2cccc(C(=O)NC3COC3)c12)c1ccc(-c2c3nc(c(-c4cc(S(=O)(=O)[O-])ccc4F)c4ccc([nH]4)c(-c4cc(S(=O)(=O)[O-])ccc4F)c4nc(c(-c5cc(S(=O)(=O)[O-])ccc5F)c5ccc2[nH]5)C=C4)C=C3)cc1
REMARK SMILES IDX 4 1 3 2 1 3 2 4 27 6 28 7 89 8 29 9 88 10 30 11 31 12 32 13
REMARK SMILES IDX 82 14 33 15 87 16 81 17 83 18 34 19 86 20 80 21 79 22 35 24
REMARK SMILES IDX 67 25 47 26 66 27 48 28 51 29 65 30 84 31 49 32 50 33 64 35
REMARK SMILES IDX 85 36 52 37 36 38 37 39 45 40 38 41 44 42 46 43 43 44 39 45
REMARK SMILES IDX 40 46 41 47 42 48 68 49 69 50 77 51 70 52 76 53 78 54 75 55
REMARK SMILES IDX 71 56 72 57 73 58 74 59 53 60 54 61 62 62 55 63 61 64 63 65
REMARK SMILES IDX 60 66 56 67 57 68 58 69 59 70 5 71 6 72 7 73 8 74 9 76 10 77
REMARK SMILES IDX 11 78 26 79 12 80 14 81 18 82 13 83 15 84 17 85 16 86 19 87
REMARK SMILES IDX 20 88 21 89 22 91 23 92 25 93 24 94
REMARK H PARENT 3 5 83 23 51 34 7 75 21 90
REMARK Flexibility Score: inf
ROOT
ATOM      1  C   UNL A   1      37.436  21.774  25.467  1.00  0.00     0.118 C 
ENDROOT
BRANCH   1   2
ATOM      2  N   UNL A   1      38.311  20.665  25.835  1.00  0.00    -0.352 N 
ATOM      3  O   UNL A   1      40.327  19.740  26.280  1.00  0.00    -0.269 OA
ATOM      4  C   UNL A   1      39.620  20.728  26.266  1.00  0.00     0.251 C 
ATOM      5  H   UNL A   1      37.919  19.764  25.768  1.00  0.00     0.163 HD
BRANCH   4   6
ATOM      6  C   UNL A   1      40.124  22.046  26.701  1.00  0.00     0.039 A 
ATOM      7  C   UNL A   1      39.669  23.185  26.036  1.00  0.00     0.014 A 
ATOM      8  C   UNL A   1      41.102  22.134  27.690  1.00  0.00     0.014 A 
ATOM      9  C   UNL A   1      40.326  24.387  26.226  1.00  0.00     0.010 A 
ATOM     10  C   UNL A   1      41.660  23.380  27.983  1.00  0.00     0.010 A 
ATOM     11  C   UNL A   1      41.291  24.511  27.237  1.00  0.00    -0.014 A 
BRANCH  11  12
ATOM     12  C   UNL A   1      41.812  25.865  27.547  1.00  0.00     0.031 A 
ATOM     13  C   UNL A   1      41.028  26.839  28.375  1.00  0.00     0.074 A 
ATOM     14  C   UNL A   1      43.037  26.184  27.083  1.00  0.00     0.049 A 
ATOM     15  N   UNL A   1      41.333  28.068  28.707  1.00  0.00    -0.248 NA
ATOM     16  C   UNL A   1      39.727  26.384  28.884  1.00  0.00     0.031 C 
ATOM     17  C   UNL A   1      43.883  25.298  26.273  1.00  0.00     0.029 A 
ATOM     18  N   UNL A   1      43.800  27.307  27.244  1.00  0.00    -0.354 N 
ATOM     19  C   UNL A   1      40.252  28.546  29.439  1.00  0.00     0.074 A 
ATOM     20  C   UNL A   1      39.271  27.481  29.474  1.00  0.00     0.031 C 
ATOM     21  C   UNL A   1      45.072  25.878  26.079  1.00  0.00     0.029 A 
ATOM     22  C   UNL A   1      45.034  27.219  26.643  1.00  0.00     0.049 A 
ATOM     23  H   UNL A   1      43.497  28.101  27.741  1.00  0.00     0.167 HD
ATOM     24  C   UNL A   1      40.103  29.764  30.022  1.00  0.00     0.034 A 
ATOM     25  C   UNL A   1      46.016  28.128  26.521  1.00  0.00     0.034 A 
ATOM     26  C   UNL A   1      41.108  30.803  29.964  1.00  0.00     0.049 A 
ATOM     27  C   UNL A   1      45.801  29.485  27.122  1.00  0.00     0.074 A 
ATOM     28  C   UNL A   1      41.079  32.066  30.531  1.00  0.00     0.029 A 
ATOM     29  N   UNL A   1      42.320  30.704  29.288  1.00  0.00    -0.354 N 
ATOM     30  N   UNL A   1      44.768  29.931  27.800  1.00  0.00    -0.248 NA
ATOM     31  C   UNL A   1      46.877  30.461  26.938  1.00  0.00     0.031 C 
ATOM     32  C   UNL A   1      42.231  32.755  30.132  1.00  0.00     0.029 A 
ATOM     33  C   UNL A   1      43.028  31.895  29.391  1.00  0.00     0.049 A 
ATOM     34  H   UNL A   1      42.633  29.904  28.805  1.00  0.00     0.167 HD
ATOM     35  C   UNL A   1      45.080  31.241  28.141  1.00  0.00     0.074 A 
ATOM     36  C   UNL A   1      46.405  31.501  27.611  1.00  0.00     0.031 C 
ATOM     37  C   UNL A   1      44.339  32.144  28.834  1.00  0.00     0.034 A 
BRANCH  24  38
ATOM     38  C   UNL A   1      38.784  30.052  30.708  1.00  0.00     0.023 A 
ATOM     39  C   UNL A   1      37.740  30.742  30.065  1.00  0.00     0.031 A 
ATOM     40  C   UNL A   1      38.586  29.674  32.049  1.00  0.00     0.131 A 
ATOM     41  C   UNL A   1      36.591  31.109  30.785  1.00  0.00     0.055 A 
ATOM     42  C   UNL A   1      37.402  29.961  32.732  1.00  0.00     0.041 A 
ATOM     43  F   UNL A   1      39.550  29.034  32.730  1.00  0.00    -0.206 F 
ATOM     44  C   UNL A   1      36.403  30.700  32.106  1.00  0.00     0.022 A 
BRANCH  41  45
ATOM     45  S   UNL A   1      35.431  32.280  30.026  1.00  0.00     0.124 S 
ATOM     46  O   UNL A   1      34.403  32.390  31.058  1.00  0.00    -0.237 OA
ATOM     47  O   UNL A   1      36.262  33.460  29.821  1.00  0.00    -0.237 OA
ATOM     48  O   UNL A   1      35.003  31.598  28.806  1.00  0.00    -0.744 OA
ENDBRANCH  41  45
ENDBRANCH  24  38
BRANCH  25  49
ATOM     49  C   UNL A   1      47.254  27.789  25.764  1.00  0.00     0.023 A 
ATOM     50  C   UNL A   1      47.312  27.940  24.372  1.00  0.00     0.031 A 
ATOM     51  C   UNL A   1      48.404  27.322  26.429  1.00  0.00     0.131 A 
ATOM     52  C   UNL A   1      48.488  27.601  23.684  1.00  0.00     0.055 A 
ATOM     53  C   UNL A   1      49.588  27.043  25.748  1.00  0.00     0.041 A 
ATOM     54  F   UNL A   1      48.402  27.167  27.763  1.00  0.00    -0.206 F 
ATOM     55  C   UNL A   1      49.631  27.173  24.364  1.00  0.00     0.022 A 
BRANCH  52  56
ATOM     56  S   UNL A   1      48.481  27.667  21.873  1.00  0.00     0.124 S 
ATOM     57  O   UNL A   1      48.693  26.267  21.524  1.00  0.00    -0.237 OA
ATOM     58  O   UNL A   1      47.153  28.204  21.594  1.00  0.00    -0.237 OA
ATOM     59  O   UNL A   1      49.592  28.564  21.562  1.00  0.00    -0.744 OA
ENDBRANCH  52  56
ENDBRANCH  25  49
BRANCH  37  60
ATOM     60  C   UNL A   1      44.981  33.488  29.083  1.00  0.00     0.023 A 
ATOM     61  C   UNL A   1      44.949  34.514  28.123  1.00  0.00     0.031 A 
ATOM     62  C   UNL A   1      45.665  33.728  30.287  1.00  0.00     0.131 A 
ATOM     63  C   UNL A   1      45.644  35.709  28.357  1.00  0.00     0.055 A 
ATOM     64  C   UNL A   1      46.297  34.945  30.542  1.00  0.00     0.041 A 
ATOM     65  F   UNL A   1      45.735  32.780  31.236  1.00  0.00    -0.206 F 
ATOM     66  C   UNL A   1      46.302  35.938  29.568  1.00  0.00     0.022 A 
BRANCH  63  67
ATOM     67  S   UNL A   1      45.775  36.917  27.009  1.00  0.00     0.124 S 
ATOM     68  O   UNL A   1      46.792  37.830  27.520  1.00  0.00    -0.237 OA
ATOM     69  O   UNL A   1      46.175  36.083  25.880  1.00  0.00    -0.237 OA
ATOM     70  O   UNL A   1      44.427  37.477  26.919  1.00  0.00    -0.744 OA
ENDBRANCH  63  67
ENDBRANCH  37  60
ENDBRANCH  11  12
ENDBRANCH   4   6
ENDBRANCH   1   2
BRANCH   1  71
ATOM     71  C   UNL A   1      36.847  21.569  24.078  1.00  0.00     0.042 C 
BRANCH  71  72
ATOM     72  C   UNL A   1      36.586  22.910  23.411  1.00  0.00     0.118 C 
BRANCH  72  73
ATOM     73  N   UNL A   1      36.241  23.890  24.424  1.00  0.00    -0.352 N 
ATOM     74  C   UNL A   1      35.003  24.184  24.932  1.00  0.00     0.251 C 
ATOM     75  H   UNL A   1      36.991  24.410  24.793  1.00  0.00     0.163 HD
ATOM     76  O   UNL A   1      34.651  25.361  24.912  1.00  0.00    -0.269 OA
BRANCH  74  77
ATOM     77  C   UNL A   1      34.169  23.178  25.651  1.00  0.00     0.048 A 
ATOM     78  C   UNL A   1      34.324  22.951  27.024  1.00  0.00     0.014 A 
ATOM     79  C   UNL A   1      33.369  22.293  24.857  1.00  0.00     0.007 A 
ATOM     80  C   UNL A   1      33.760  21.833  27.625  1.00  0.00     0.001 A 
ATOM     81  C   UNL A   1      33.036  21.048  25.451  1.00  0.00    -0.017 A 
ATOM     82  C   UNL A   1      32.918  22.495  23.517  1.00  0.00     0.048 A 
ATOM     83  C   UNL A   1      33.183  20.856  26.831  1.00  0.00     0.009 A 
ATOM     84  C   UNL A   1      32.597  19.975  24.662  1.00  0.00     0.009 A 
ATOM     85  C   UNL A   1      32.512  21.395  22.738  1.00  0.00     0.014 A 
ATOM     86  C   UNL A   1      32.404  20.128  23.297  1.00  0.00     0.001 A 
BRANCH  82  87
ATOM     87  C   UNL A   1      32.896  23.801  22.802  1.00  0.00     0.252 C 
ATOM     88  O   UNL A   1      33.562  23.921  21.770  1.00  0.00    -0.269 OA
ATOM     89  N   UNL A   1      32.152  24.901  23.175  1.00  0.00    -0.345 N 
ATOM     90  H   UNL A   1      32.618  25.745  22.979  1.00  0.00     0.164 HD
BRANCH  89  91
ATOM     91  C   UNL A   1      30.833  25.130  23.793  1.00  0.00     0.134 C 
ATOM     92  C   UNL A   1      30.596  25.318  25.287  1.00  0.00     0.187 C 
ATOM     93  C   UNL A   1      30.141  26.493  23.680  1.00  0.00     0.187 C 
ATOM     94  O   UNL A   1      29.536  26.287  24.994  1.00  0.00    -0.377 OA
ENDBRANCH  89  91
ENDBRANCH  82  87
ENDBRANCH  74  77
ENDBRANCH  72  73
ENDBRANCH  71  72
ENDBRANCH   1  71
TORSDOF 15
ENDMDL
MODEL 3
REMARK VINA RESULT:     -12.2      2.460      3.844
REMARK SMILES O=C(NCCCNC(=O)c1cccc2cccc(C(=O)NC3COC3)c12)c1ccc(-c2c3nc(c(-c4cc(S(=O)(=O)[O-])ccc4F)c4ccc([nH]4)c(-c4cc(S(=O)(=O)[O-])ccc4F)c4nc(c(-c5cc(S(=O)(=O)[O-])ccc5F)c5ccc2[nH]5)C=C4)C=C3)cc1
REMARK SMILES IDX 4 1 3 2 1 3 2 4 27 6 28 7 89 8 29 9 88 10 30 11 31 12 32 13
REMARK SMILES IDX 82 14 33 15 87 16 81 17 83 18 34 19 86 20 80 21 79 22 35 24
REMARK SMILES IDX 67 25 47 26 66 27 48 28 51 29 65 30 84 31 49 32 50 33 64 35
REMARK SMILES IDX 85 36 52 37 36 38 37 39 45 40 38 41 44 42 46 43 43 44 39 45
REMARK SMILES IDX 40 46 41 47 42 48 68 49 69 50 77 51 70 52 76 53 78 54 75 55
REMARK SMILES IDX 71 56 72 57 73 58 74 59 53 60 54 61 62 62 55 63 61 64 63 65
REMARK SMILES IDX 60 66 56 67 57 68 58 69 59 70 5 71 6 72 7 73 8 74 9 76 10 77
REMARK SMILES IDX 11 78 26 79 12 80 14 81 18 82 13 83 15 84 17 85 16 86 19 87
REMARK SMILES IDX 20 88 21 89 22 91 23 92 25 93 24 94
REMARK H PARENT 3 5 83 23 51 34 7 75 21 90
REMARK Flexibility Score: inf
ROOT
ATOM      1  C   UNL A   1      33.698  29.283  24.831  1.00  0.00     0.118 C 
ENDROOT
BRANCH   1   2
ATOM      2  N   UNL A   1      32.906  30.345  25.444  1.00  0.00    -0.352 N 
ATOM      3  O   UNL A   1      32.198  31.585  27.198  1.00  0.00    -0.269 OA
ATOM      4  C   UNL A   1      33.072  30.912  26.690  1.00  0.00     0.251 C 
ATOM      5  H   UNL A   1      32.164  30.699  24.902  1.00  0.00     0.163 HD
BRANCH   4   6
ATOM      6  C   UNL A   1      34.352  30.657  27.381  1.00  0.00     0.039 A 
ATOM      7  C   UNL A   1      34.624  29.363  27.825  1.00  0.00     0.014 A 
ATOM      8  C   UNL A   1      35.221  31.711  27.661  1.00  0.00     0.014 A 
ATOM      9  C   UNL A   1      35.666  29.156  28.710  1.00  0.00     0.010 A 
ATOM     10  C   UNL A   1      36.357  31.465  28.436  1.00  0.00     0.010 A 
ATOM     11  C   UNL A   1      36.575  30.190  28.984  1.00  0.00    -0.014 A 
BRANCH  11  12
ATOM     12  C   UNL A   1      37.793  29.864  29.764  1.00  0.00     0.031 A 
ATOM     13  C   UNL A   1      38.905  29.043  29.183  1.00  0.00     0.074 A 
ATOM     14  C   UNL A   1      37.886  30.362  31.014  1.00  0.00     0.049 A 
ATOM     15  N   UNL A   1      40.018  28.649  29.746  1.00  0.00    -0.248 NA
ATOM     16  C   UNL A   1      38.742  28.591  27.794  1.00  0.00     0.031 C 
ATOM     17  C   UNL A   1      36.857  31.182  31.667  1.00  0.00     0.029 A 
ATOM     18  N   UNL A   1      38.885  30.289  31.945  1.00  0.00    -0.354 N 
ATOM     19  C   UNL A   1      40.677  27.877  28.795  1.00  0.00     0.074 A 
ATOM     20  C   UNL A   1      39.819  27.836  27.629  1.00  0.00     0.031 C 
ATOM     21  C   UNL A   1      37.313  31.600  32.853  1.00  0.00     0.029 A 
ATOM     22  C   UNL A   1      38.608  30.985  33.099  1.00  0.00     0.049 A 
ATOM     23  H   UNL A   1      39.721  29.788  31.803  1.00  0.00     0.167 HD
ATOM     24  C   UNL A   1      41.885  27.264  28.898  1.00  0.00     0.034 A 
ATOM     25  C   UNL A   1      39.298  31.086  34.247  1.00  0.00     0.034 A 
ATOM     26  C   UNL A   1      42.712  27.329  30.083  1.00  0.00     0.049 A 
ATOM     27  C   UNL A   1      40.601  30.350  34.356  1.00  0.00     0.074 A 
ATOM     28  C   UNL A   1      43.959  26.768  30.298  1.00  0.00     0.029 A 
ATOM     29  N   UNL A   1      42.370  27.987  31.261  1.00  0.00    -0.354 N 
ATOM     30  N   UNL A   1      41.207  29.612  33.455  1.00  0.00    -0.248 NA
ATOM     31  C   UNL A   1      41.307  30.455  35.634  1.00  0.00     0.031 C 
ATOM     32  C   UNL A   1      44.332  27.017  31.625  1.00  0.00     0.029 A 
ATOM     33  C   UNL A   1      43.362  27.813  32.216  1.00  0.00     0.049 A 
ATOM     34  H   UNL A   1      41.542  28.503  31.398  1.00  0.00     0.167 HD
ATOM     35  C   UNL A   1      42.383  29.177  34.054  1.00  0.00     0.074 A 
ATOM     36  C   UNL A   1      42.404  29.755  35.385  1.00  0.00     0.031 C 
ATOM     37  C   UNL A   1      43.356  28.376  33.548  1.00  0.00     0.034 A 
BRANCH  24  38
ATOM     38  C   UNL A   1      42.341  26.422  27.725  1.00  0.00     0.023 A 
ATOM     39  C   UNL A   1      41.870  25.114  27.515  1.00  0.00     0.031 A 
ATOM     40  C   UNL A   1      43.306  26.919  26.830  1.00  0.00     0.131 A 
ATOM     41  C   UNL A   1      42.426  24.321  26.497  1.00  0.00     0.055 A 
ATOM     42  C   UNL A   1      43.787  26.158  25.762  1.00  0.00     0.041 A 
ATOM     43  F   UNL A   1      43.816  28.151  26.987  1.00  0.00    -0.206 F 
ATOM     44  C   UNL A   1      43.362  24.843  25.603  1.00  0.00     0.022 A 
BRANCH  41  45
ATOM     45  S   UNL A   1      42.041  22.548  26.473  1.00  0.00     0.124 S 
ATOM     46  O   UNL A   1      40.584  22.558  26.583  1.00  0.00    -0.237 OA
ATOM     47  O   UNL A   1      42.584  22.124  25.188  1.00  0.00    -0.237 OA
ATOM     48  O   UNL A   1      42.740  22.028  27.647  1.00  0.00    -0.744 OA
ENDBRANCH  41  45
ENDBRANCH  24  38
BRANCH  25  49
ATOM     49  C   UNL A   1      38.742  31.875  35.382  1.00  0.00     0.023 A 
ATOM     50  C   UNL A   1      38.217  31.238  36.514  1.00  0.00     0.031 A 
ATOM     51  C   UNL A   1      38.743  33.283  35.354  1.00  0.00     0.131 A 
ATOM     52  C   UNL A   1      37.688  32.007  37.563  1.00  0.00     0.055 A 
ATOM     53  C   UNL A   1      38.271  34.042  36.423  1.00  0.00     0.041 A 
ATOM     54  F   UNL A   1      39.242  33.942  34.295  1.00  0.00    -0.206 F 
ATOM     55  C   UNL A   1      37.730  33.404  37.534  1.00  0.00     0.022 A 
BRANCH  52  56
ATOM     56  S   UNL A   1      36.884  31.152  38.943  1.00  0.00     0.124 S 
ATOM     57  O   UNL A   1      36.772  29.793  38.426  1.00  0.00    -0.237 OA
ATOM     58  O   UNL A   1      37.843  31.351  40.024  1.00  0.00    -0.237 OA
ATOM     59  O   UNL A   1      35.619  31.868  39.095  1.00  0.00    -0.744 OA
ENDBRANCH  52  56
ENDBRANCH  25  49
BRANCH  37  60
ATOM     60  C   UNL A   1      44.545  28.120  34.442  1.00  0.00     0.023 A 
ATOM     61  C   UNL A   1      44.551  27.078  35.385  1.00  0.00     0.031 A 
ATOM     62  C   UNL A   1      45.672  28.956  34.371  1.00  0.00     0.131 A 
ATOM     63  C   UNL A   1      45.636  26.939  36.263  1.00  0.00     0.055 A 
ATOM     64  C   UNL A   1      46.778  28.769  35.201  1.00  0.00     0.041 A 
ATOM     65  F   UNL A   1      45.716  29.972  33.494  1.00  0.00    -0.206 F 
ATOM     66  C   UNL A   1      46.758  27.766  36.164  1.00  0.00     0.022 A 
BRANCH  63  67
ATOM     67  S   UNL A   1      45.513  25.733  37.614  1.00  0.00     0.124 S 
ATOM     68  O   UNL A   1      46.916  25.505  37.943  1.00  0.00    -0.237 OA
ATOM     69  O   UNL A   1      44.734  26.461  38.611  1.00  0.00    -0.237 OA
ATOM     70  O   UNL A   1      44.826  24.599  36.999  1.00  0.00    -0.744 OA
ENDBRANCH  63  67
ENDBRANCH  37  60
ENDBRANCH  11  12
ENDBRANCH   4   6
ENDBRANCH   1   2
BRANCH   1  71
ATOM     71  C   UNL A   1      33.570  29.310  23.315  1.00  0.00     0.042 C 
BRANCH  71  72
ATOM     72  C   UNL A   1      34.518  28.302  22.685  1.00  0.00     0.118 C 
BRANCH  72  73
ATOM     73  N   UNL A   1      33.800  27.526  21.690  1.00  0.00    -0.352 N 
ATOM     74  C   UNL A   1      32.954  26.467  21.890  1.00  0.00     0.251 C 
ATOM     75  H   UNL A   1      33.939  27.795  20.753  1.00  0.00     0.163 HD
ATOM     76  O   UNL A   1      33.187  25.436  21.265  1.00  0.00    -0.269 OA
BRANCH  74  77
ATOM     77  C   UNL A   1      31.693  26.582  22.679  1.00  0.00     0.048 A 
ATOM     78  C   UNL A   1      30.546  27.173  22.136  1.00  0.00     0.014 A 
ATOM     79  C   UNL A   1      31.759  26.280  24.077  1.00  0.00     0.007 A 
ATOM     80  C   UNL A   1      29.481  27.533  22.952  1.00  0.00     0.001 A 
ATOM     81  C   UNL A   1      30.775  26.891  24.897  1.00  0.00    -0.017 A 
ATOM     82  C   UNL A   1      32.735  25.482  24.749  1.00  0.00     0.048 A 
ATOM     83  C   UNL A   1      29.627  27.457  24.328  1.00  0.00     0.009 A 
ATOM     84  C   UNL A   1      30.955  26.979  26.285  1.00  0.00     0.009 A 
ATOM     85  C   UNL A   1      32.914  25.613  26.140  1.00  0.00     0.014 A 
ATOM     86  C   UNL A   1      32.059  26.403  26.897  1.00  0.00     0.001 A 
BRANCH  82  87
ATOM     87  C   UNL A   1      33.672  24.530  24.092  1.00  0.00     0.252 C 
ATOM     88  O   UNL A   1      34.866  24.832  24.018  1.00  0.00    -0.269 OA
ATOM     89  N   UNL A   1      33.326  23.296  23.582  1.00  0.00    -0.345 N 
ATOM     90  H   UNL A   1      33.848  23.069  22.779  1.00  0.00     0.164 HD
BRANCH  89  91
ATOM     91  C   UNL A   1      32.372  22.230  23.938  1.00  0.00     0.134 C 
ATOM     92  C   UNL A   1      32.639  20.737  23.778  1.00  0.00     0.187 C 
ATOM     93  C   UNL A   1      32.121  21.859  25.404  1.00  0.00     0.187 C 
ATOM     94  O   UNL A   1      31.884  20.474  25.007  1.00  0.00    -0.377 OA
ENDBRANCH  89  91
ENDBRANCH  82  87
ENDBRANCH  74  77
ENDBRANCH  72  73
ENDBRANCH  71  72
ENDBRANCH   1  71
TORSDOF 15
ENDMDL
