MODEL 1
REMARK VINA RESULT:     -10.1      0.000      0.000
REMARK SMILES C[N@@H+]1CCC[C@@H](C[NH2+]CC(=O)NCCCNC(=O)c2ccc(-c3c4nc(c(-c5cc(S(=O)(=O)[O-])ccc5F)c5ccc([nH]5)c(-c5cc(S(=O)(=O)[O-])ccc5F)c5nc(c(-c6cc(S(=O)(=O)[O-])ccc6F)c6ccc3[nH]6)C=C5)C=C4)cc2)C1
REMARK SMILES IDX 14 1 13 2 12 3 10 4 11 5 9 7 8 8 7 11 6 12 1 13 2 14 3 15
REMARK SMILES IDX 82 16 4 18 5 19 15 20 16 21 17 22 18 24 19 25 20 26 81 27
REMARK SMILES IDX 21 28 80 29 22 30 23 31 24 32 74 33 25 34 79 35 73 36 75 37
REMARK SMILES IDX 26 38 78 39 72 40 71 41 27 43 59 44 39 45 58 46 40 47 43 48
REMARK SMILES IDX 57 49 76 50 41 51 42 52 56 54 77 55 44 56 28 57 29 58 37 59
REMARK SMILES IDX 30 60 36 61 38 62 35 63 31 64 32 65 33 66 34 67 60 68 61 69
REMARK SMILES IDX 69 70 62 71 68 72 70 73 67 74 63 75 64 76 65 77 66 78 45 79
REMARK SMILES IDX 46 80 54 81 47 82 53 83 55 84 52 85 48 86 49 87 50 88 51 89
REMARK H PARENT 12 6 8 9 8 10 2 17 16 23 75 42 43 53
REMARK Flexibility Score: inf
ROOT
ATOM      1  C   UNL A   1      33.644  34.068  28.277  1.00  0.00     0.042 C 
ENDROOT
BRANCH   1   2
ATOM      2  C   UNL A   1      34.231  35.422  28.681  1.00  0.00     0.118 C 
BRANCH   2   3
ATOM      3  N   UNL A   1      33.304  36.178  29.513  1.00  0.00    -0.351 N 
ATOM      4  C   UNL A   1      33.126  36.174  30.867  1.00  0.00     0.275 C 
ATOM      5  O   UNL A   1      32.158  36.795  31.319  1.00  0.00    -0.269 OA
ATOM      6  H   UNL A   1      32.712  36.790  29.019  1.00  0.00     0.163 HD
BRANCH   4   7
ATOM      7  C   UNL A   1      34.092  35.435  31.805  1.00  0.00     0.361 C 
BRANCH   7   8
ATOM      8  N   UNL A   1      33.420  34.353  32.558  1.00  0.00    -0.338 N 
ATOM      9  H   UNL A   1      33.052  34.733  33.431  1.00  0.00     0.346 HD
ATOM     10  H   UNL A   1      32.666  33.979  31.981  1.00  0.00     0.346 HD
BRANCH   8  11
ATOM     11  C   UNL A   1      34.349  33.263  32.867  1.00  0.00     0.270 C 
BRANCH  11  12
ATOM     12  C   UNL A   1      35.817  33.512  32.461  1.00  0.00     0.099 C 
ATOM     13  C   UNL A   1      37.558  33.283  35.810  1.00  0.00     0.332 C 
ATOM     14  N   UNL A   1      36.822  32.829  34.628  1.00  0.00    -0.337 N 
ATOM     15  C   UNL A   1      37.498  31.667  34.027  1.00  0.00     0.262 C 
ATOM     16  C   UNL A   1      36.713  33.920  33.644  1.00  0.00     0.271 C 
ATOM     17  H   UNL A   1      35.882  32.554  34.914  1.00  0.00     0.347 HD
ATOM     18  C   UNL A   1      36.736  31.146  32.808  1.00  0.00     0.062 C 
ATOM     19  C   UNL A   1      36.416  32.251  31.799  1.00  0.00     0.021 C 
ENDBRANCH  11  12
ENDBRANCH   8  11
ENDBRANCH   7   8
ENDBRANCH   4   7
ENDBRANCH   2   3
ENDBRANCH   1   2
BRANCH   1  20
ATOM     20  C   UNL A   1      34.541  32.873  28.573  1.00  0.00     0.118 C 
BRANCH  20  21
ATOM     21  N   UNL A   1      33.992  31.635  28.049  1.00  0.00    -0.352 N 
ATOM     22  C   UNL A   1      34.557  30.405  27.806  1.00  0.00     0.251 C 
ATOM     23  H   UNL A   1      33.035  31.686  27.827  1.00  0.00     0.163 HD
ATOM     24  O   UNL A   1      33.898  29.608  27.136  1.00  0.00    -0.269 OA
BRANCH  22  25
ATOM     25  C   UNL A   1      35.911  30.003  28.283  1.00  0.00     0.039 A 
ATOM     26  C   UNL A   1      36.995  30.206  27.415  1.00  0.00     0.014 A 
ATOM     27  C   UNL A   1      36.143  29.331  29.486  1.00  0.00     0.014 A 
ATOM     28  C   UNL A   1      38.285  29.776  27.759  1.00  0.00     0.010 A 
ATOM     29  C   UNL A   1      37.444  28.968  29.864  1.00  0.00     0.010 A 
ATOM     30  C   UNL A   1      38.530  29.171  29.000  1.00  0.00    -0.014 A 
BRANCH  30  31
ATOM     31  C   UNL A   1      39.898  28.716  29.386  1.00  0.00     0.031 A 
ATOM     32  C   UNL A   1      40.666  29.429  30.471  1.00  0.00     0.074 A 
ATOM     33  C   UNL A   1      40.474  27.680  28.745  1.00  0.00     0.049 A 
ATOM     34  N   UNL A   1      41.896  29.236  30.884  1.00  0.00    -0.248 NA
ATOM     35  C   UNL A   1      39.963  30.514  31.168  1.00  0.00     0.031 C 
ATOM     36  C   UNL A   1      39.851  26.892  27.679  1.00  0.00     0.029 A 
ATOM     37  N   UNL A   1      41.717  27.112  28.893  1.00  0.00    -0.354 N 
ATOM     38  C   UNL A   1      42.117  30.182  31.882  1.00  0.00     0.074 A 
ATOM     39  C   UNL A   1      40.910  30.979  31.968  1.00  0.00     0.031 C 
ATOM     40  C   UNL A   1      40.703  25.932  27.287  1.00  0.00     0.029 A 
ATOM     41  C   UNL A   1      41.952  26.064  28.033  1.00  0.00     0.049 A 
ATOM     42  H   UNL A   1      42.377  27.425  29.553  1.00  0.00     0.167 HD
ATOM     43  C   UNL A   1      43.211  30.359  32.667  1.00  0.00     0.034 A 
ATOM     44  C   UNL A   1      43.052  25.306  27.849  1.00  0.00     0.034 A 
ATOM     45  C   UNL A   1      44.409  29.555  32.586  1.00  0.00     0.049 A 
ATOM     46  C   UNL A   1      44.284  25.570  28.673  1.00  0.00     0.074 A 
ATOM     47  C   UNL A   1      45.550  29.623  33.369  1.00  0.00     0.029 A 
ATOM     48  N   UNL A   1      44.628  28.543  31.661  1.00  0.00    -0.354 N 
ATOM     49  N   UNL A   1      44.471  26.463  29.617  1.00  0.00    -0.248 NA
ATOM     50  C   UNL A   1      45.455  24.726  28.402  1.00  0.00     0.031 C 
ATOM     51  C   UNL A   1      46.479  28.698  32.878  1.00  0.00     0.029 A 
ATOM     52  C   UNL A   1      45.896  28.006  31.830  1.00  0.00     0.049 A 
ATOM     53  H   UNL A   1      43.976  28.248  30.984  1.00  0.00     0.167 HD
ATOM     54  C   UNL A   1      45.774  26.268  30.069  1.00  0.00     0.074 A 
ATOM     55  C   UNL A   1      46.324  25.172  29.298  1.00  0.00     0.031 C 
ATOM     56  C   UNL A   1      46.450  26.930  31.041  1.00  0.00     0.034 A 
BRANCH  43  57
ATOM     57  C   UNL A   1      43.168  31.494  33.664  1.00  0.00     0.023 A 
ATOM     58  C   UNL A   1      42.710  31.303  34.980  1.00  0.00     0.031 A 
ATOM     59  C   UNL A   1      43.552  32.793  33.284  1.00  0.00     0.131 A 
ATOM     60  C   UNL A   1      42.565  32.403  35.838  1.00  0.00     0.055 A 
ATOM     61  C   UNL A   1      43.483  33.870  34.171  1.00  0.00     0.041 A 
ATOM     62  F   UNL A   1      43.981  33.041  32.037  1.00  0.00    -0.206 F 
ATOM     63  C   UNL A   1      42.969  33.682  35.450  1.00  0.00     0.022 A 
BRANCH  60  64
ATOM     64  S   UNL A   1      41.689  32.163  37.408  1.00  0.00     0.124 S 
ATOM     65  O   UNL A   1      41.696  33.516  37.960  1.00  0.00    -0.237 OA
ATOM     66  O   UNL A   1      40.395  31.656  36.974  1.00  0.00    -0.237 OA
ATOM     67  O   UNL A   1      42.529  31.204  38.125  1.00  0.00    -0.744 OA
ENDBRANCH  60  64
ENDBRANCH  43  57
BRANCH  44  68
ATOM     68  C   UNL A   1      43.056  24.233  26.816  1.00  0.00     0.023 A 
ATOM     69  C   UNL A   1      42.412  23.009  27.048  1.00  0.00     0.031 A 
ATOM     70  C   UNL A   1      43.732  24.407  25.596  1.00  0.00     0.131 A 
ATOM     71  C   UNL A   1      42.482  21.991  26.086  1.00  0.00     0.055 A 
ATOM     72  C   UNL A   1      43.766  23.406  24.624  1.00  0.00     0.041 A 
ATOM     73  F   UNL A   1      44.360  25.564  25.326  1.00  0.00    -0.206 F 
ATOM     74  C   UNL A   1      43.145  22.185  24.872  1.00  0.00     0.022 A 
BRANCH  71  75
ATOM     75  S   UNL A   1      41.740  20.381  26.468  1.00  0.00     0.124 S 
ATOM     76  O   UNL A   1      42.235  19.557  25.373  1.00  0.00    -0.237 OA
ATOM     77  O   UNL A   1      42.293  20.099  27.789  1.00  0.00    -0.237 OA
ATOM     78  O   UNL A   1      40.304  20.655  26.445  1.00  0.00    -0.744 OA
ENDBRANCH  71  75
ENDBRANCH  44  68
BRANCH  56  79
ATOM     79  C   UNL A   1      47.849  26.457  31.345  1.00  0.00     0.023 A 
ATOM     80  C   UNL A   1      48.952  26.870  30.578  1.00  0.00     0.031 A 
ATOM     81  C   UNL A   1      48.077  25.564  32.409  1.00  0.00     0.131 A 
ATOM     82  C   UNL A   1      50.228  26.355  30.857  1.00  0.00     0.055 A 
ATOM     83  C   UNL A   1      49.355  25.092  32.710  1.00  0.00     0.041 A 
ATOM     84  F   UNL A   1      47.058  25.137  33.171  1.00  0.00    -0.206 F 
ATOM     85  C   UNL A   1      50.438  25.480  31.926  1.00  0.00     0.022 A 
BRANCH  82  86
ATOM     86  S   UNL A   1      51.605  26.791  29.758  1.00  0.00     0.124 S 
ATOM     87  O   UNL A   1      51.344  25.948  28.595  1.00  0.00    -0.237 OA
ATOM     88  O   UNL A   1      51.411  28.224  29.565  1.00  0.00    -0.237 OA
ATOM     89  O   UNL A   1      52.791  26.427  30.533  1.00  0.00    -0.744 OA
ENDBRANCH  82  86
ENDBRANCH  56  79
ENDBRANCH  30  31
ENDBRANCH  22  25
ENDBRANCH  20  21
ENDBRANCH   1  20
TORSDOF 16
ENDMDL
MODEL 2
REMARK VINA RESULT:      -9.9      4.084     11.729
REMARK SMILES C[N@@H+]1CCC[C@@H](C[NH2+]CC(=O)NCCCNC(=O)c2ccc(-c3c4nc(c(-c5cc(S(=O)(=O)[O-])ccc5F)c5ccc([nH]5)c(-c5cc(S(=O)(=O)[O-])ccc5F)c5nc(c(-c6cc(S(=O)(=O)[O-])ccc6F)c6ccc3[nH]6)C=C5)C=C4)cc2)C1
REMARK SMILES IDX 14 1 13 2 12 3 10 4 11 5 9 7 8 8 7 11 6 12 1 13 2 14 3 15
REMARK SMILES IDX 82 16 4 18 5 19 15 20 16 21 17 22 18 24 19 25 20 26 81 27
REMARK SMILES IDX 21 28 80 29 22 30 23 31 24 32 74 33 25 34 79 35 73 36 75 37
REMARK SMILES IDX 26 38 78 39 72 40 71 41 27 43 59 44 39 45 58 46 40 47 43 48
REMARK SMILES IDX 57 49 76 50 41 51 42 52 56 54 77 55 44 56 28 57 29 58 37 59
REMARK SMILES IDX 30 60 36 61 38 62 35 63 31 64 32 65 33 66 34 67 60 68 61 69
REMARK SMILES IDX 69 70 62 71 68 72 70 73 67 74 63 75 64 76 65 77 66 78 45 79
REMARK SMILES IDX 46 80 54 81 47 82 53 83 55 84 52 85 48 86 49 87 50 88 51 89
REMARK H PARENT 12 6 8 9 8 10 2 17 16 23 75 42 43 53
REMARK Flexibility Score: inf
ROOT
ATOM      1  C   UNL A   1      41.207  19.590  26.173  1.00  0.00     0.042 C 
ENDROOT
BRANCH   1   2
ATOM      2  C   UNL A   1      42.634  19.171  26.533  1.00  0.00     0.118 C 
BRANCH   2   3
ATOM      3  N   UNL A   1      43.360  18.693  25.364  1.00  0.00    -0.351 N 
ATOM      4  C   UNL A   1      44.462  19.202  24.737  1.00  0.00     0.275 C 
ATOM      5  O   UNL A   1      44.795  18.695  23.662  1.00  0.00    -0.269 OA
ATOM      6  H   UNL A   1      42.998  17.870  24.962  1.00  0.00     0.163 HD
BRANCH   4   7
ATOM      7  C   UNL A   1      45.271  20.359  25.344  1.00  0.00     0.361 C 
BRANCH   7   8
ATOM      8  N   UNL A   1      45.078  21.624  24.601  1.00  0.00    -0.338 N 
ATOM      9  H   UNL A   1      45.290  21.466  23.615  1.00  0.00     0.346 HD
ATOM     10  H   UNL A   1      44.110  21.922  24.719  1.00  0.00     0.346 HD
BRANCH   8  11
ATOM     11  C   UNL A   1      45.954  22.680  25.114  1.00  0.00     0.270 C 
BRANCH  11  12
ATOM     12  C   UNL A   1      45.233  23.951  25.612  1.00  0.00     0.099 C 
ATOM     13  C   UNL A   1      43.487  22.646  28.702  1.00  0.00     0.332 C 
ATOM     14  N   UNL A   1      44.599  23.053  27.840  1.00  0.00    -0.337 N 
ATOM     15  C   UNL A   1      45.464  24.011  28.549  1.00  0.00     0.262 C 
ATOM     16  C   UNL A   1      44.088  23.652  26.596  1.00  0.00     0.271 C 
ATOM     17  H   UNL A   1      45.148  22.226  27.601  1.00  0.00     0.347 HD
ATOM     18  C   UNL A   1      46.656  24.431  27.687  1.00  0.00     0.062 C 
ATOM     19  C   UNL A   1      46.235  24.908  26.295  1.00  0.00     0.021 C 
ENDBRANCH  11  12
ENDBRANCH   8  11
ENDBRANCH   7   8
ENDBRANCH   4   7
ENDBRANCH   2   3
ENDBRANCH   1   2
BRANCH   1  20
ATOM     20  C   UNL A   1      40.904  21.067  26.391  1.00  0.00     0.118 C 
BRANCH  20  21
ATOM     21  N   UNL A   1      39.553  21.413  25.987  1.00  0.00    -0.352 N 
ATOM     22  C   UNL A   1      38.801  22.551  26.162  1.00  0.00     0.251 C 
ATOM     23  H   UNL A   1      39.088  20.698  25.496  1.00  0.00     0.163 HD
ATOM     24  O   UNL A   1      37.596  22.470  25.914  1.00  0.00    -0.269 OA
BRANCH  22  25
ATOM     25  C   UNL A   1      39.354  23.847  26.650  1.00  0.00     0.039 A 
ATOM     26  C   UNL A   1      39.148  24.177  27.998  1.00  0.00     0.014 A 
ATOM     27  C   UNL A   1      39.954  24.796  25.820  1.00  0.00     0.014 A 
ATOM     28  C   UNL A   1      39.564  25.415  28.509  1.00  0.00     0.010 A 
ATOM     29  C   UNL A   1      40.438  26.004  26.346  1.00  0.00     0.010 A 
ATOM     30  C   UNL A   1      40.235  26.336  27.693  1.00  0.00    -0.014 A 
BRANCH  30  31
ATOM     31  C   UNL A   1      40.694  27.654  28.222  1.00  0.00     0.031 A 
ATOM     32  C   UNL A   1      42.165  27.960  28.352  1.00  0.00     0.074 A 
ATOM     33  C   UNL A   1      39.793  28.575  28.619  1.00  0.00     0.049 A 
ATOM     34  N   UNL A   1      42.754  29.011  28.870  1.00  0.00    -0.248 NA
ATOM     35  C   UNL A   1      43.094  26.938  27.852  1.00  0.00     0.031 C 
ATOM     36  C   UNL A   1      38.339  28.422  28.549  1.00  0.00     0.029 A 
ATOM     37  N   UNL A   1      39.968  29.824  29.166  1.00  0.00    -0.354 N 
ATOM     38  C   UNL A   1      44.122  28.773  28.766  1.00  0.00     0.074 A 
ATOM     39  C   UNL A   1      44.267  27.453  28.187  1.00  0.00     0.031 C 
ATOM     40  C   UNL A   1      37.756  29.539  29.011  1.00  0.00     0.029 A 
ATOM     41  C   UNL A   1      38.789  30.470  29.460  1.00  0.00     0.049 A 
ATOM     42  H   UNL A   1      40.854  30.220  29.333  1.00  0.00     0.167 HD
ATOM     43  C   UNL A   1      45.160  29.582  29.102  1.00  0.00     0.034 A 
ATOM     44  C   UNL A   1      38.561  31.664  30.042  1.00  0.00     0.034 A 
ATOM     45  C   UNL A   1      45.012  30.902  29.670  1.00  0.00     0.049 A 
ATOM     46  C   UNL A   1      39.725  32.513  30.482  1.00  0.00     0.074 A 
ATOM     47  C   UNL A   1      45.999  31.818  29.998  1.00  0.00     0.029 A 
ATOM     48  N   UNL A   1      43.801  31.493  30.006  1.00  0.00    -0.354 N 
ATOM     49  N   UNL A   1      41.011  32.274  30.368  1.00  0.00    -0.248 NA
ATOM     50  C   UNL A   1      39.404  33.790  31.133  1.00  0.00     0.031 C 
ATOM     51  C   UNL A   1      45.390  32.932  30.587  1.00  0.00     0.029 A 
ATOM     52  C   UNL A   1      44.018  32.743  30.570  1.00  0.00     0.049 A 
ATOM     53  H   UNL A   1      42.917  31.085  29.863  1.00  0.00     0.167 HD
ATOM     54  C   UNL A   1      41.650  33.386  30.911  1.00  0.00     0.074 A 
ATOM     55  C   UNL A   1      40.611  34.294  31.348  1.00  0.00     0.031 C 
ATOM     56  C   UNL A   1      42.979  33.634  31.028  1.00  0.00     0.034 A 
BRANCH  43  57
ATOM     57  C   UNL A   1      46.554  29.039  28.890  1.00  0.00     0.023 A 
ATOM     58  C   UNL A   1      47.121  28.944  27.606  1.00  0.00     0.031 A 
ATOM     59  C   UNL A   1      47.312  28.571  29.978  1.00  0.00     0.131 A 
ATOM     60  C   UNL A   1      48.365  28.318  27.433  1.00  0.00     0.055 A 
ATOM     61  C   UNL A   1      48.586  28.024  29.808  1.00  0.00     0.041 A 
ATOM     62  F   UNL A   1      46.818  28.620  31.225  1.00  0.00    -0.206 F 
ATOM     63  C   UNL A   1      49.112  27.878  28.528  1.00  0.00     0.022 A 
BRANCH  60  64
ATOM     64  S   UNL A   1      48.916  27.944  25.746  1.00  0.00     0.124 S 
ATOM     65  O   UNL A   1      49.998  28.909  25.567  1.00  0.00    -0.237 OA
ATOM     66  O   UNL A   1      49.315  26.547  25.847  1.00  0.00    -0.237 OA
ATOM     67  O   UNL A   1      47.727  28.199  24.934  1.00  0.00    -0.744 OA
ENDBRANCH  60  64
ENDBRANCH  43  57
BRANCH  44  68
ATOM     68  C   UNL A   1      37.164  32.128  30.274  1.00  0.00     0.023 A 
ATOM     69  C   UNL A   1      36.452  32.797  29.267  1.00  0.00     0.031 A 
ATOM     70  C   UNL A   1      36.536  31.937  31.517  1.00  0.00     0.131 A 
ATOM     71  C   UNL A   1      35.162  33.279  29.530  1.00  0.00     0.055 A 
ATOM     72  C   UNL A   1      35.237  32.383  31.760  1.00  0.00     0.041 A 
ATOM     73  F   UNL A   1      37.176  31.297  32.510  1.00  0.00    -0.206 F 
ATOM     74  C   UNL A   1      34.545  33.067  30.765  1.00  0.00     0.022 A 
BRANCH  71  75
ATOM     75  S   UNL A   1      34.317  34.242  28.246  1.00  0.00     0.124 S 
ATOM     76  O   UNL A   1      35.339  34.318  27.209  1.00  0.00    -0.237 OA
ATOM     77  O   UNL A   1      33.160  33.402  27.950  1.00  0.00    -0.237 OA
ATOM     78  O   UNL A   1      34.009  35.505  28.914  1.00  0.00    -0.744 OA
ENDBRANCH  71  75
ENDBRANCH  44  68
BRANCH  56  79
ATOM     79  C   UNL A   1      43.376  34.962  31.622  1.00  0.00     0.023 A 
ATOM     80  C   UNL A   1      43.543  36.108  30.825  1.00  0.00     0.031 A 
ATOM     81  C   UNL A   1      43.607  35.076  33.005  1.00  0.00     0.131 A 
ATOM     82  C   UNL A   1      43.975  37.308  31.410  1.00  0.00     0.055 A 
ATOM     83  C   UNL A   1      43.991  36.284  33.588  1.00  0.00     0.041 A 
ATOM     84  F   UNL A   1      43.464  34.012  33.811  1.00  0.00    -0.206 F 
ATOM     85  C   UNL A   1      44.187  37.407  32.788  1.00  0.00     0.022 A 
BRANCH  82  86
ATOM     86  S   UNL A   1      44.325  38.729  30.336  1.00  0.00     0.124 S 
ATOM     87  O   UNL A   1      43.462  39.759  30.905  1.00  0.00    -0.237 OA
ATOM     88  O   UNL A   1      45.759  38.921  30.527  1.00  0.00    -0.237 OA
ATOM     89  O   UNL A   1      43.936  38.258  29.007  1.00  0.00    -0.744 OA
ENDBRANCH  82  86
ENDBRANCH  56  79
ENDBRANCH  30  31
ENDBRANCH  22  25
ENDBRANCH  20  21
ENDBRANCH   1  20
TORSDOF 16
ENDMDL
MODEL 3
REMARK VINA RESULT:      -9.8      6.252      9.984
REMARK SMILES C[N@@H+]1CCC[C@@H](C[NH2+]CC(=O)NCCCNC(=O)c2ccc(-c3c4nc(c(-c5cc(S(=O)(=O)[O-])ccc5F)c5ccc([nH]5)c(-c5cc(S(=O)(=O)[O-])ccc5F)c5nc(c(-c6cc(S(=O)(=O)[O-])ccc6F)c6ccc3[nH]6)C=C5)C=C4)cc2)C1
REMARK SMILES IDX 14 1 13 2 12 3 10 4 11 5 9 7 8 8 7 11 6 12 1 13 2 14 3 15
REMARK SMILES IDX 82 16 4 18 5 19 15 20 16 21 17 22 18 24 19 25 20 26 81 27
REMARK SMILES IDX 21 28 80 29 22 30 23 31 24 32 74 33 25 34 79 35 73 36 75 37
REMARK SMILES IDX 26 38 78 39 72 40 71 41 27 43 59 44 39 45 58 46 40 47 43 48
REMARK SMILES IDX 57 49 76 50 41 51 42 52 56 54 77 55 44 56 28 57 29 58 37 59
REMARK SMILES IDX 30 60 36 61 38 62 35 63 31 64 32 65 33 66 34 67 60 68 61 69
REMARK SMILES IDX 69 70 62 71 68 72 70 73 67 74 63 75 64 76 65 77 66 78 45 79
REMARK SMILES IDX 46 80 54 81 47 82 53 83 55 84 52 85 48 86 49 87 50 88 51 89
REMARK H PARENT 12 6 8 9 8 10 2 17 16 23 75 42 43 53
REMARK Flexibility Score: inf
ROOT
ATOM      1  C   UNL A   1      35.189  22.090  26.194  1.00  0.00     0.042 C 
ENDROOT
BRANCH   1   2
ATOM      2  C   UNL A   1      33.886  22.725  25.705  1.00  0.00     0.118 C 
BRANCH   2   3
ATOM      3  N   UNL A   1      33.995  23.170  24.322  1.00  0.00    -0.351 N 
ATOM      4  C   UNL A   1      33.371  22.716  23.195  1.00  0.00     0.275 C 
ATOM      5  O   UNL A   1      33.756  23.160  22.109  1.00  0.00    -0.269 OA
ATOM      6  H   UNL A   1      34.619  23.918  24.177  1.00  0.00     0.163 HD
BRANCH   4   7
ATOM      7  C   UNL A   1      32.223  21.697  23.264  1.00  0.00     0.361 C 
BRANCH   7   8
ATOM      8  N   UNL A   1      32.696  20.311  23.056  1.00  0.00    -0.338 N 
ATOM      9  H   UNL A   1      32.383  19.987  22.140  1.00  0.00     0.346 HD
ATOM     10  H   UNL A   1      33.714  20.305  23.112  1.00  0.00     0.346 HD
BRANCH   8  11
ATOM     11  C   UNL A   1      32.171  19.409  24.084  1.00  0.00     0.270 C 
BRANCH  11  12
ATOM     12  C   UNL A   1      33.212  18.883  25.095  1.00  0.00     0.099 C 
ATOM     13  C   UNL A   1      31.912  15.391  25.742  1.00  0.00     0.332 C 
ATOM     14  N   UNL A   1      32.511  16.502  24.998  1.00  0.00    -0.337 N 
ATOM     15  C   UNL A   1      33.788  16.078  24.400  1.00  0.00     0.262 C 
ATOM     16  C   UNL A   1      32.722  17.657  25.886  1.00  0.00     0.271 C 
ATOM     17  H   UNL A   1      31.872  16.778  24.252  1.00  0.00     0.347 HD
ATOM     18  C   UNL A   1      34.425  17.206  23.585  1.00  0.00     0.062 C 
ATOM     19  C   UNL A   1      34.527  18.514  24.374  1.00  0.00     0.021 C 
ENDBRANCH  11  12
ENDBRANCH   8  11
ENDBRANCH   7   8
ENDBRANCH   4   7
ENDBRANCH   2   3
ENDBRANCH   1   2
BRANCH   1  20
ATOM     20  C   UNL A   1      36.285  21.997  25.141  1.00  0.00     0.118 C 
BRANCH  20  21
ATOM     21  N   UNL A   1      37.223  20.925  25.421  1.00  0.00    -0.352 N 
ATOM     22  C   UNL A   1      38.541  20.930  25.812  1.00  0.00     0.251 C 
ATOM     23  H   UNL A   1      36.843  20.024  25.310  1.00  0.00     0.163 HD
ATOM     24  O   UNL A   1      39.150  19.861  25.745  1.00  0.00    -0.269 OA
BRANCH  22  25
ATOM     25  C   UNL A   1      39.265  22.147  26.280  1.00  0.00     0.039 A 
ATOM     26  C   UNL A   1      38.742  23.397  25.915  1.00  0.00     0.014 A 
ATOM     27  C   UNL A   1      40.488  22.112  26.953  1.00  0.00     0.014 A 
ATOM     28  C   UNL A   1      39.413  24.584  26.246  1.00  0.00     0.010 A 
ATOM     29  C   UNL A   1      41.122  23.299  27.350  1.00  0.00     0.010 A 
ATOM     30  C   UNL A   1      40.602  24.550  26.988  1.00  0.00    -0.014 A 
BRANCH  30  31
ATOM     31  C   UNL A   1      41.323  25.804  27.358  1.00  0.00     0.031 A 
ATOM     32  C   UNL A   1      40.646  26.862  28.192  1.00  0.00     0.074 A 
ATOM     33  C   UNL A   1      42.581  26.015  26.920  1.00  0.00     0.049 A 
ATOM     34  N   UNL A   1      41.079  28.050  28.540  1.00  0.00    -0.248 NA
ATOM     35  C   UNL A   1      39.298  26.547  28.683  1.00  0.00     0.031 C 
ATOM     36  C   UNL A   1      43.363  25.081  26.109  1.00  0.00     0.029 A 
ATOM     37  N   UNL A   1      43.422  27.088  27.093  1.00  0.00    -0.354 N 
ATOM     38  C   UNL A   1      40.052  28.629  29.281  1.00  0.00     0.074 A 
ATOM     39  C   UNL A   1      38.958  27.678  29.282  1.00  0.00     0.031 C 
ATOM     40  C   UNL A   1      44.574  25.610  25.875  1.00  0.00     0.029 A 
ATOM     41  C   UNL A   1      44.641  26.942  26.472  1.00  0.00     0.049 A 
ATOM     42  H   UNL A   1      43.176  27.888  27.612  1.00  0.00     0.167 HD
ATOM     43  C   UNL A   1      40.027  29.828  29.919  1.00  0.00     0.034 A 
ATOM     44  C   UNL A   1      45.687  27.786  26.375  1.00  0.00     0.034 A 
ATOM     45  C   UNL A   1      41.122  30.770  29.924  1.00  0.00     0.049 A 
ATOM     46  C   UNL A   1      45.609  29.145  27.021  1.00  0.00     0.074 A 
ATOM     47  C   UNL A   1      41.213  31.987  30.580  1.00  0.00     0.029 A 
ATOM     48  N   UNL A   1      42.316  30.606  29.234  1.00  0.00    -0.354 N 
ATOM     49  N   UNL A   1      44.634  29.670  27.724  1.00  0.00    -0.248 NA
ATOM     50  C   UNL A   1      46.774  30.024  26.853  1.00  0.00     0.031 C 
ATOM     51  C   UNL A   1      42.431  32.585  30.236  1.00  0.00     0.029 A 
ATOM     52  C   UNL A   1      43.131  31.714  29.418  1.00  0.00     0.049 A 
ATOM     53  H   UNL A   1      42.551  29.817  28.693  1.00  0.00     0.167 HD
ATOM     54  C   UNL A   1      45.081  30.934  28.104  1.00  0.00     0.074 A 
ATOM     55  C   UNL A   1      46.412  31.088  27.555  1.00  0.00     0.031 C 
ATOM     56  C   UNL A   1      44.448  31.875  28.848  1.00  0.00     0.034 A 
BRANCH  43  57
ATOM     57  C   UNL A   1      38.750  30.200  30.637  1.00  0.00     0.023 A 
ATOM     58  C   UNL A   1      37.783  31.029  30.041  1.00  0.00     0.031 A 
ATOM     59  C   UNL A   1      38.514  29.755  31.950  1.00  0.00     0.131 A 
ATOM     60  C   UNL A   1      36.672  31.457  30.783  1.00  0.00     0.055 A 
ATOM     61  C   UNL A   1      37.363  30.118  32.655  1.00  0.00     0.041 A 
ATOM     62  F   UNL A   1      39.407  28.976  32.578  1.00  0.00    -0.206 F 
ATOM     63  C   UNL A   1      36.444  30.989  32.079  1.00  0.00     0.022 A 
BRANCH  60  64
ATOM     64  S   UNL A   1      35.619  32.760  30.087  1.00  0.00     0.124 S 
ATOM     65  O   UNL A   1      34.583  31.976  29.417  1.00  0.00    -0.237 OA
ATOM     66  O   UNL A   1      35.200  33.494  31.272  1.00  0.00    -0.237 OA
ATOM     67  O   UNL A   1      36.518  33.482  29.188  1.00  0.00    -0.744 OA
ENDBRANCH  60  64
ENDBRANCH  43  57
BRANCH  44  68
ATOM     68  C   UNL A   1      46.902  27.387  25.610  1.00  0.00     0.023 A 
ATOM     69  C   UNL A   1      47.066  27.769  24.271  1.00  0.00     0.031 A 
ATOM     70  C   UNL A   1      47.898  26.590  26.201  1.00  0.00     0.131 A 
ATOM     71  C   UNL A   1      48.188  27.328  23.553  1.00  0.00     0.055 A 
ATOM     72  C   UNL A   1      49.032  26.188  25.496  1.00  0.00     0.041 A 
ATOM     73  F   UNL A   1      47.787  26.203  27.483  1.00  0.00    -0.206 F 
ATOM     74  C   UNL A   1      49.177  26.550  24.159  1.00  0.00     0.022 A 
BRANCH  71  75
ATOM     75  S   UNL A   1      48.310  27.741  21.792  1.00  0.00     0.124 S 
ATOM     76  O   UNL A   1      48.520  26.429  21.192  1.00  0.00    -0.237 OA
ATOM     77  O   UNL A   1      47.015  28.365  21.537  1.00  0.00    -0.237 OA
ATOM     78  O   UNL A   1      49.456  28.647  21.733  1.00  0.00    -0.744 OA
ENDBRANCH  71  75
ENDBRANCH  44  68
BRANCH  56  79
ATOM     79  C   UNL A   1      45.211  33.143  29.139  1.00  0.00     0.023 A 
ATOM     80  C   UNL A   1      45.101  34.278  28.317  1.00  0.00     0.031 A 
ATOM     81  C   UNL A   1      46.076  33.207  30.246  1.00  0.00     0.131 A 
ATOM     82  C   UNL A   1      45.878  35.414  28.588  1.00  0.00     0.055 A 
ATOM     83  C   UNL A   1      46.811  34.357  30.538  1.00  0.00     0.041 A 
ATOM     84  F   UNL A   1      46.221  32.151  31.062  1.00  0.00    -0.206 F 
ATOM     85  C   UNL A   1      46.722  35.466  29.701  1.00  0.00     0.022 A 
BRANCH  82  86
ATOM     86  S   UNL A   1      45.825  36.807  27.426  1.00  0.00     0.124 S 
ATOM     87  O   UNL A   1      46.898  36.468  26.496  1.00  0.00    -0.237 OA
ATOM     88  O   UNL A   1      44.469  36.721  26.894  1.00  0.00    -0.237 OA
ATOM     89  O   UNL A   1      46.084  37.972  28.272  1.00  0.00    -0.744 OA
ENDBRANCH  82  86
ENDBRANCH  56  79
ENDBRANCH  30  31
ENDBRANCH  22  25
ENDBRANCH  20  21
ENDBRANCH   1  20
TORSDOF 16
ENDMDL
