MODEL 1
REMARK VINA RESULT:     -11.9      0.000      0.000
REMARK SMILES CCc1cc(OC(F)(F)F)cc2c1O[C@H](C(F)(F)F)C(C(=O)NCCCNC(=O)c1ccc(-c3c4nc(c(-c5cc(S(=O)(=O)[O-])ccc5F)c5ccc([nH]5)c(-c5cc(S(=O)(=O)[O-])ccc5F)c5nc(c(-c6cc(S(=O)(=O)[O-])ccc6F)c6ccc3[nH]6)C=C5)C=C4)cc1)=C2
REMARK SMILES IDX 25 1 24 2 23 3 21 4 22 5 20 7 3 8 4 9 13 10 5 11 12 12 14 13
REMARK SMILES IDX 11 14 93 15 15 16 2 17 1 18 6 19 7 20 8 21 9 22 10 23 16 24
REMARK SMILES IDX 17 25 18 26 19 27 26 28 27 29 28 30 29 32 30 33 31 34 92 35
REMARK SMILES IDX 32 36 91 37 33 38 34 39 35 40 85 41 36 42 90 43 84 44 86 45
REMARK SMILES IDX 37 46 89 47 83 48 82 49 38 51 70 52 50 53 69 54 51 55 54 56
REMARK SMILES IDX 68 57 87 58 52 59 53 60 67 62 88 63 55 64 39 65 40 66 48 67
REMARK SMILES IDX 41 68 47 69 49 70 46 71 42 72 43 73 44 74 45 75 71 76 72 77
REMARK SMILES IDX 80 78 73 79 79 80 81 81 78 82 74 83 75 84 76 85 77 86 56 87
REMARK SMILES IDX 57 88 65 89 58 90 64 91 66 92 63 93 59 94 60 95 61 96 62 97
REMARK H PARENT 23 6 27 31 86 50 54 61
REMARK Flexibility Score: inf
ROOT
ATOM      1  C   UNL A   1      33.664  28.792  24.528  1.00  0.00     0.042 C 
ENDROOT
BRANCH   1   2
ATOM      2  C   UNL A   1      32.460  27.936  24.135  1.00  0.00     0.118 C 
BRANCH   2   3
ATOM      3  N   UNL A   1      31.622  27.643  25.283  1.00  0.00    -0.352 N 
ATOM      4  C   UNL A   1      31.421  26.523  26.020  1.00  0.00     0.251 C 
ATOM      5  O   UNL A   1      30.706  26.626  27.018  1.00  0.00    -0.270 OA
ATOM      6  H   UNL A   1      31.092  28.414  25.590  1.00  0.00     0.163 HD
BRANCH   4   7
ATOM      7  C   UNL A   1      32.102  25.222  25.751  1.00  0.00     0.067 C 
ATOM      8  C   UNL A   1      33.305  21.206  25.375  1.00  0.00    -0.002 A 
ATOM      9  C   UNL A   1      34.666  20.896  25.558  1.00  0.00     0.054 A 
ATOM     10  C   UNL A   1      32.901  22.547  25.503  1.00  0.00     0.131 A 
ATOM     11  C   UNL A   1      35.599  21.891  25.864  1.00  0.00     0.130 A 
ATOM     12  C   UNL A   1      33.831  23.552  25.785  1.00  0.00     0.021 A 
ATOM     13  O   UNL A   1      31.557  22.815  25.406  1.00  0.00    -0.475 OA
ATOM     14  C   UNL A   1      35.175  23.217  25.966  1.00  0.00     0.058 A 
ATOM     15  C   UNL A   1      33.388  24.927  25.980  1.00  0.00     0.025 C 
ATOM     16  C   UNL A   1      31.189  24.191  25.110  1.00  0.00     0.314 C 
BRANCH   8  17
ATOM     17  C   UNL A   1      32.268  20.161  25.008  1.00  0.00     0.036 C 
ATOM     18  C   UNL A   1      32.591  18.710  25.342  1.00  0.00     0.009 C 
ENDBRANCH   8  17
BRANCH  11  19
ATOM     19  O   UNL A   1      36.934  21.714  26.094  1.00  0.00    -0.406 OA
BRANCH  19  20
ATOM     20  C   UNL A   1      37.795  21.599  24.975  1.00  0.00     0.573 C 
ATOM     21  F   UNL A   1      37.378  22.381  23.956  1.00  0.00    -0.132 F 
ATOM     22  F   UNL A   1      39.064  21.924  25.302  1.00  0.00    -0.132 F 
ATOM     23  F   UNL A   1      37.784  20.318  24.548  1.00  0.00    -0.132 F 
ENDBRANCH  19  20
ENDBRANCH  11  19
BRANCH  16  24
ATOM     24  C   UNL A   1      31.041  24.375  23.584  1.00  0.00     0.429 C 
ATOM     25  F   UNL A   1      30.103  25.305  23.276  1.00  0.00    -0.167 F 
ATOM     26  F   UNL A   1      32.210  24.802  23.040  1.00  0.00    -0.167 F 
ATOM     27  F   UNL A   1      30.691  23.247  22.930  1.00  0.00    -0.167 F 
ENDBRANCH  16  24
ENDBRANCH   4   7
ENDBRANCH   2   3
ENDBRANCH   1   2
BRANCH   1  28
ATOM     28  C   UNL A   1      33.877  28.868  26.038  1.00  0.00     0.118 C 
BRANCH  28  29
ATOM     29  N   UNL A   1      33.793  30.239  26.522  1.00  0.00    -0.352 N 
ATOM     30  C   UNL A   1      34.517  30.877  27.497  1.00  0.00     0.251 C 
ATOM     31  H   UNL A   1      33.109  30.794  26.081  1.00  0.00     0.163 HD
ATOM     32  O   UNL A   1      34.110  31.950  27.934  1.00  0.00    -0.269 OA
BRANCH  30  33
ATOM     33  C   UNL A   1      35.763  30.279  28.027  1.00  0.00     0.039 A 
ATOM     34  C   UNL A   1      36.920  30.327  27.243  1.00  0.00     0.014 A 
ATOM     35  C   UNL A   1      35.785  29.629  29.264  1.00  0.00     0.014 A 
ATOM     36  C   UNL A   1      38.108  29.770  27.723  1.00  0.00     0.010 A 
ATOM     37  C   UNL A   1      36.986  29.137  29.770  1.00  0.00     0.010 A 
ATOM     38  C   UNL A   1      38.158  29.196  29.003  1.00  0.00    -0.014 A 
BRANCH  38  39
ATOM     39  C   UNL A   1      39.424  28.648  29.555  1.00  0.00     0.031 A 
ATOM     40  C   UNL A   1      40.102  29.330  30.711  1.00  0.00     0.074 A 
ATOM     41  C   UNL A   1      39.994  27.576  28.970  1.00  0.00     0.049 A 
ATOM     42  N   UNL A   1      41.249  29.058  31.279  1.00  0.00    -0.248 NA
ATOM     43  C   UNL A   1      39.408  30.493  31.284  1.00  0.00     0.031 C 
ATOM     44  C   UNL A   1      39.445  26.848  27.825  1.00  0.00     0.029 A 
ATOM     45  N   UNL A   1      41.163  26.916  29.251  1.00  0.00    -0.354 N 
ATOM     46  C   UNL A   1      41.424  30.025  32.263  1.00  0.00     0.074 A 
ATOM     47  C   UNL A   1      40.293  30.923  32.171  1.00  0.00     0.031 C 
ATOM     48  C   UNL A   1      40.261  25.827  27.520  1.00  0.00     0.029 A 
ATOM     49  C   UNL A   1      41.416  25.856  28.411  1.00  0.00     0.049 A 
ATOM     50  H   UNL A   1      41.766  27.177  29.985  1.00  0.00     0.167 HD
ATOM     51  C   UNL A   1      42.427  30.140  33.171  1.00  0.00     0.034 A 
ATOM     52  C   UNL A   1      42.464  25.011  28.359  1.00  0.00     0.034 A 
ATOM     53  C   UNL A   1      43.542  29.227  33.252  1.00  0.00     0.049 A 
ATOM     54  C   UNL A   1      43.586  25.183  29.353  1.00  0.00     0.074 A 
ATOM     55  C   UNL A   1      44.579  29.208  34.168  1.00  0.00     0.029 A 
ATOM     56  N   UNL A   1      43.773  28.174  32.373  1.00  0.00    -0.354 N 
ATOM     57  N   UNL A   1      43.713  26.070  30.312  1.00  0.00    -0.248 NA
ATOM     58  C   UNL A   1      44.701  24.233  29.257  1.00  0.00     0.031 C 
ATOM     59  C   UNL A   1      45.471  28.194  33.803  1.00  0.00     0.029 A 
ATOM     60  C   UNL A   1      44.954  27.526  32.704  1.00  0.00     0.049 A 
ATOM     61  H   UNL A   1      43.184  27.925  31.625  1.00  0.00     0.167 HD
ATOM     62  C   UNL A   1      44.907  25.763  30.956  1.00  0.00     0.074 A 
ATOM     63  C   UNL A   1      45.455  24.602  30.282  1.00  0.00     0.031 C 
ATOM     64  C   UNL A   1      45.495  26.378  32.015  1.00  0.00     0.034 A 
BRANCH  51  65
ATOM     65  C   UNL A   1      42.372  31.316  34.120  1.00  0.00     0.023 A 
ATOM     66  C   UNL A   1      41.545  31.312  35.258  1.00  0.00     0.031 A 
ATOM     67  C   UNL A   1      43.126  32.476  33.864  1.00  0.00     0.131 A 
ATOM     68  C   UNL A   1      41.420  32.470  36.040  1.00  0.00     0.055 A 
ATOM     69  C   UNL A   1      43.066  33.594  34.698  1.00  0.00     0.041 A 
ATOM     70  F   UNL A   1      43.919  32.550  32.784  1.00  0.00    -0.206 F 
ATOM     71  C   UNL A   1      42.194  33.604  35.783  1.00  0.00     0.022 A 
BRANCH  68  72
ATOM     72  S   UNL A   1      40.110  32.530  37.293  1.00  0.00     0.124 S 
ATOM     73  O   UNL A   1      39.599  33.889  37.120  1.00  0.00    -0.237 OA
ATOM     74  O   UNL A   1      39.220  31.455  36.871  1.00  0.00    -0.237 OA
ATOM     75  O   UNL A   1      40.823  32.297  38.548  1.00  0.00    -0.744 OA
ENDBRANCH  68  72
ENDBRANCH  51  65
BRANCH  52  76
ATOM     76  C   UNL A   1      42.511  23.928  27.337  1.00  0.00     0.023 A 
ATOM     77  C   UNL A   1      41.954  22.667  27.602  1.00  0.00     0.031 A 
ATOM     78  C   UNL A   1      43.144  24.123  26.096  1.00  0.00     0.131 A 
ATOM     79  C   UNL A   1      42.077  21.635  26.660  1.00  0.00     0.055 A 
ATOM     80  C   UNL A   1      43.218  23.108  25.140  1.00  0.00     0.041 A 
ATOM     81  F   UNL A   1      43.687  25.311  25.789  1.00  0.00    -0.206 F 
ATOM     82  C   UNL A   1      42.693  21.851  25.424  1.00  0.00     0.022 A 
BRANCH  79  83
ATOM     83  S   UNL A   1      41.485  19.979  27.104  1.00  0.00     0.124 S 
ATOM     84  O   UNL A   1      42.739  19.266  27.326  1.00  0.00    -0.237 OA
ATOM     85  O   UNL A   1      40.684  20.254  28.292  1.00  0.00    -0.237 OA
ATOM     86  O   UNL A   1      40.729  19.562  25.926  1.00  0.00    -0.744 OA
ENDBRANCH  79  83
ENDBRANCH  52  76
BRANCH  64  87
ATOM     87  C   UNL A   1      46.777  25.771  32.532  1.00  0.00     0.023 A 
ATOM     88  C   UNL A   1      46.786  24.837  33.582  1.00  0.00     0.031 A 
ATOM     89  C   UNL A   1      48.011  26.147  31.971  1.00  0.00     0.131 A 
ATOM     90  C   UNL A   1      48.006  24.352  34.075  1.00  0.00     0.055 A 
ATOM     91  C   UNL A   1      49.218  25.615  32.425  1.00  0.00     0.041 A 
ATOM     92  F   UNL A   1      48.062  27.039  30.968  1.00  0.00    -0.206 F 
ATOM     93  C   UNL A   1      49.221  24.722  33.491  1.00  0.00     0.022 A 
BRANCH  90  94
ATOM     94  S   UNL A   1      47.993  23.300  35.553  1.00  0.00     0.124 S 
ATOM     95  O   UNL A   1      47.410  24.189  36.553  1.00  0.00    -0.237 OA
ATOM     96  O   UNL A   1      47.157  22.180  35.131  1.00  0.00    -0.237 OA
ATOM     97  O   UNL A   1      49.404  22.976  35.757  1.00  0.00    -0.744 OA
ENDBRANCH  90  94
ENDBRANCH  64  87
ENDBRANCH  38  39
ENDBRANCH  30  33
ENDBRANCH  28  29
ENDBRANCH   1  28
TORSDOF 17
ENDMDL
MODEL 2
REMARK VINA RESULT:     -11.9      5.064      7.703
REMARK SMILES CCc1cc(OC(F)(F)F)cc2c1O[C@H](C(F)(F)F)C(C(=O)NCCCNC(=O)c1ccc(-c3c4nc(c(-c5cc(S(=O)(=O)[O-])ccc5F)c5ccc([nH]5)c(-c5cc(S(=O)(=O)[O-])ccc5F)c5nc(c(-c6cc(S(=O)(=O)[O-])ccc6F)c6ccc3[nH]6)C=C5)C=C4)cc1)=C2
REMARK SMILES IDX 25 1 24 2 23 3 21 4 22 5 20 7 3 8 4 9 13 10 5 11 12 12 14 13
REMARK SMILES IDX 11 14 93 15 15 16 2 17 1 18 6 19 7 20 8 21 9 22 10 23 16 24
REMARK SMILES IDX 17 25 18 26 19 27 26 28 27 29 28 30 29 32 30 33 31 34 92 35
REMARK SMILES IDX 32 36 91 37 33 38 34 39 35 40 85 41 36 42 90 43 84 44 86 45
REMARK SMILES IDX 37 46 89 47 83 48 82 49 38 51 70 52 50 53 69 54 51 55 54 56
REMARK SMILES IDX 68 57 87 58 52 59 53 60 67 62 88 63 55 64 39 65 40 66 48 67
REMARK SMILES IDX 41 68 47 69 49 70 46 71 42 72 43 73 44 74 45 75 71 76 72 77
REMARK SMILES IDX 80 78 73 79 79 80 81 81 78 82 74 83 75 84 76 85 77 86 56 87
REMARK SMILES IDX 57 88 65 89 58 90 64 91 66 92 63 93 59 94 60 95 61 96 62 97
REMARK H PARENT 23 6 27 31 86 50 54 61
REMARK Flexibility Score: inf
ROOT
ATOM      1  C   UNL A   1      34.545  21.628  26.488  1.00  0.00     0.042 C 
ENDROOT
BRANCH   1   2
ATOM      2  C   UNL A   1      33.477  21.809  25.411  1.00  0.00     0.118 C 
BRANCH   2   3
ATOM      3  N   UNL A   1      34.066  22.184  24.139  1.00  0.00    -0.352 N 
ATOM      4  C   UNL A   1      34.104  23.348  23.445  1.00  0.00     0.251 C 
ATOM      5  O   UNL A   1      34.787  23.369  22.420  1.00  0.00    -0.270 OA
ATOM      6  H   UNL A   1      34.533  21.443  23.689  1.00  0.00     0.163 HD
BRANCH   4   7
ATOM      7  C   UNL A   1      33.464  24.612  23.913  1.00  0.00     0.067 C 
ATOM      8  C   UNL A   1      31.661  28.388  24.373  1.00  0.00    -0.002 A 
ATOM      9  C   UNL A   1      32.014  29.165  25.492  1.00  0.00     0.054 A 
ATOM     10  C   UNL A   1      32.265  27.127  24.216  1.00  0.00     0.131 A 
ATOM     11  C   UNL A   1      32.946  28.704  26.427  1.00  0.00     0.130 A 
ATOM     12  C   UNL A   1      33.179  26.647  25.159  1.00  0.00     0.021 A 
ATOM     13  O   UNL A   1      31.971  26.422  23.074  1.00  0.00    -0.475 OA
ATOM     14  C   UNL A   1      33.516  27.441  26.258  1.00  0.00     0.058 A 
ATOM     15  C   UNL A   1      33.846  25.368  24.949  1.00  0.00     0.025 C 
ATOM     16  C   UNL A   1      32.233  24.991  23.108  1.00  0.00     0.314 C 
BRANCH   8  17
ATOM     17  C   UNL A   1      30.630  28.837  23.355  1.00  0.00     0.036 C 
ATOM     18  C   UNL A   1      29.272  28.146  23.385  1.00  0.00     0.009 C 
ENDBRANCH   8  17
BRANCH  11  19
ATOM     19  O   UNL A   1      33.392  29.373  27.531  1.00  0.00    -0.406 OA
BRANCH  19  20
ATOM     20  C   UNL A   1      34.714  29.882  27.515  1.00  0.00     0.573 C 
ATOM     21  F   UNL A   1      34.717  31.230  27.415  1.00  0.00    -0.132 F 
ATOM     22  F   UNL A   1      35.391  29.513  28.623  1.00  0.00    -0.132 F 
ATOM     23  F   UNL A   1      35.360  29.383  26.439  1.00  0.00    -0.132 F 
ENDBRANCH  19  20
ENDBRANCH  11  19
BRANCH  16  24
ATOM     24  C   UNL A   1      30.961  24.239  23.553  1.00  0.00     0.429 C 
ATOM     25  F   UNL A   1      30.870  23.015  22.975  1.00  0.00    -0.167 F 
ATOM     26  F   UNL A   1      30.971  24.037  24.896  1.00  0.00    -0.167 F 
ATOM     27  F   UNL A   1      29.813  24.887  23.260  1.00  0.00    -0.167 F 
ENDBRANCH  16  24
ENDBRANCH   4   7
ENDBRANCH   2   3
ENDBRANCH   1   2
BRANCH   1  28
ATOM     28  C   UNL A   1      35.907  22.186  26.081  1.00  0.00     0.118 C 
BRANCH  28  29
ATOM     29  N   UNL A   1      36.886  21.125  25.891  1.00  0.00    -0.352 N 
ATOM     30  C   UNL A   1      38.255  21.188  25.825  1.00  0.00     0.251 C 
ATOM     31  H   UNL A   1      36.506  20.221  25.794  1.00  0.00     0.163 HD
ATOM     32  O   UNL A   1      38.875  20.219  25.395  1.00  0.00    -0.269 OA
BRANCH  30  33
ATOM     33  C   UNL A   1      38.977  22.408  26.252  1.00  0.00     0.039 A 
ATOM     34  C   UNL A   1      40.061  22.279  27.126  1.00  0.00     0.014 A 
ATOM     35  C   UNL A   1      38.561  23.677  25.839  1.00  0.00     0.014 A 
ATOM     36  C   UNL A   1      40.758  23.416  27.541  1.00  0.00     0.010 A 
ATOM     37  C   UNL A   1      39.299  24.802  26.198  1.00  0.00     0.010 A 
ATOM     38  C   UNL A   1      40.401  24.685  27.058  1.00  0.00    -0.014 A 
BRANCH  38  39
ATOM     39  C   UNL A   1      41.163  25.901  27.443  1.00  0.00     0.031 A 
ATOM     40  C   UNL A   1      40.516  26.960  28.293  1.00  0.00     0.074 A 
ATOM     41  C   UNL A   1      42.412  26.080  26.971  1.00  0.00     0.049 A 
ATOM     42  N   UNL A   1      40.980  28.125  28.666  1.00  0.00    -0.248 NA
ATOM     43  C   UNL A   1      39.150  26.680  28.762  1.00  0.00     0.031 C 
ATOM     44  C   UNL A   1      43.133  25.136  26.115  1.00  0.00     0.029 A 
ATOM     45  N   UNL A   1      43.294  27.117  27.136  1.00  0.00    -0.354 N 
ATOM     46  C   UNL A   1      39.960  28.725  29.395  1.00  0.00     0.074 A 
ATOM     47  C   UNL A   1      38.833  27.818  29.360  1.00  0.00     0.031 C 
ATOM     48  C   UNL A   1      44.356  25.626  25.855  1.00  0.00     0.029 A 
ATOM     49  C   UNL A   1      44.490  26.937  26.479  1.00  0.00     0.049 A 
ATOM     50  H   UNL A   1      43.091  27.916  27.675  1.00  0.00     0.167 HD
ATOM     51  C   UNL A   1      39.971  29.914  30.050  1.00  0.00     0.034 A 
ATOM     52  C   UNL A   1      45.565  27.743  26.382  1.00  0.00     0.034 A 
ATOM     53  C   UNL A   1      41.110  30.800  30.081  1.00  0.00     0.049 A 
ATOM     54  C   UNL A   1      45.539  29.077  27.085  1.00  0.00     0.074 A 
ATOM     55  C   UNL A   1      41.257  31.996  30.762  1.00  0.00     0.029 A 
ATOM     56  N   UNL A   1      42.298  30.592  29.389  1.00  0.00    -0.354 N 
ATOM     57  N   UNL A   1      44.587  29.609  27.815  1.00  0.00    -0.248 NA
ATOM     58  C   UNL A   1      46.739  29.914  26.953  1.00  0.00     0.031 C 
ATOM     59  C   UNL A   1      42.500  32.544  30.427  1.00  0.00     0.029 A 
ATOM     60  C   UNL A   1      43.165  31.655  29.598  1.00  0.00     0.049 A 
ATOM     61  H   UNL A   1      42.496  29.805  28.832  1.00  0.00     0.167 HD
ATOM     62  C   UNL A   1      45.087  30.829  28.258  1.00  0.00     0.074 A 
ATOM     63  C   UNL A   1      46.428  30.948  27.721  1.00  0.00     0.031 C 
ATOM     64  C   UNL A   1      44.495  31.765  29.045  1.00  0.00     0.034 A 
BRANCH  51  65
ATOM     65  C   UNL A   1      38.698  30.332  30.752  1.00  0.00     0.023 A 
ATOM     66  C   UNL A   1      37.797  31.242  30.171  1.00  0.00     0.031 A 
ATOM     67  C   UNL A   1      38.401  29.847  32.038  1.00  0.00     0.131 A 
ATOM     68  C   UNL A   1      36.696  31.707  30.907  1.00  0.00     0.055 A 
ATOM     69  C   UNL A   1      37.256  30.246  32.730  1.00  0.00     0.041 A 
ATOM     70  F   UNL A   1      39.232  28.993  32.655  1.00  0.00    -0.206 F 
ATOM     71  C   UNL A   1      36.405  31.197  32.174  1.00  0.00     0.022 A 
BRANCH  68  72
ATOM     72  S   UNL A   1      35.750  33.111  30.254  1.00  0.00     0.124 S 
ATOM     73  O   UNL A   1      34.399  32.555  30.201  1.00  0.00    -0.237 OA
ATOM     74  O   UNL A   1      35.978  34.141  31.260  1.00  0.00    -0.237 OA
ATOM     75  O   UNL A   1      36.363  33.362  28.951  1.00  0.00    -0.744 OA
ENDBRANCH  68  72
ENDBRANCH  51  65
BRANCH  52  76
ATOM     76  C   UNL A   1      46.757  27.320  25.595  1.00  0.00     0.023 A 
ATOM     77  C   UNL A   1      46.953  27.783  24.284  1.00  0.00     0.031 A 
ATOM     78  C   UNL A   1      47.699  26.419  26.124  1.00  0.00     0.131 A 
ATOM     79  C   UNL A   1      48.037  27.312  23.529  1.00  0.00     0.055 A 
ATOM     80  C   UNL A   1      48.806  25.994  25.386  1.00  0.00     0.041 A 
ATOM     81  F   UNL A   1      47.563  25.950  27.374  1.00  0.00    -0.206 F 
ATOM     82  C   UNL A   1      48.973  26.431  24.077  1.00  0.00     0.022 A 
BRANCH  79  83
ATOM     83  S   UNL A   1      48.165  27.811  21.790  1.00  0.00     0.124 S 
ATOM     84  O   UNL A   1      46.873  28.452  21.570  1.00  0.00    -0.237 OA
ATOM     85  O   UNL A   1      49.325  28.696  21.815  1.00  0.00    -0.237 OA
ATOM     86  O   UNL A   1      48.363  26.546  21.088  1.00  0.00    -0.744 OA
ENDBRANCH  79  83
ENDBRANCH  52  76
BRANCH  64  87
ATOM     87  C   UNL A   1      45.322  32.977  29.405  1.00  0.00     0.023 A 
ATOM     88  C   UNL A   1      45.286  34.154  28.639  1.00  0.00     0.031 A 
ATOM     89  C   UNL A   1      46.169  32.942  30.526  1.00  0.00     0.131 A 
ATOM     90  C   UNL A   1      46.123  35.230  28.971  1.00  0.00     0.055 A 
ATOM     91  C   UNL A   1      46.954  34.038  30.888  1.00  0.00     0.041 A 
ATOM     92  F   UNL A   1      46.246  31.841  31.292  1.00  0.00    -0.206 F 
ATOM     93  C   UNL A   1      46.943  35.185  30.101  1.00  0.00     0.022 A 
BRANCH  90  94
ATOM     94  S   UNL A   1      46.194  36.657  27.854  1.00  0.00     0.124 S 
ATOM     95  O   UNL A   1      45.492  37.680  28.623  1.00  0.00    -0.237 OA
ATOM     96  O   UNL A   1      47.631  36.855  27.692  1.00  0.00    -0.237 OA
ATOM     97  O   UNL A   1      45.495  36.192  26.657  1.00  0.00    -0.744 OA
ENDBRANCH  90  94
ENDBRANCH  64  87
ENDBRANCH  38  39
ENDBRANCH  30  33
ENDBRANCH  28  29
ENDBRANCH   1  28
TORSDOF 17
ENDMDL
MODEL 3
REMARK VINA RESULT:     -11.8      3.371      8.567
REMARK SMILES CCc1cc(OC(F)(F)F)cc2c1O[C@H](C(F)(F)F)C(C(=O)NCCCNC(=O)c1ccc(-c3c4nc(c(-c5cc(S(=O)(=O)[O-])ccc5F)c5ccc([nH]5)c(-c5cc(S(=O)(=O)[O-])ccc5F)c5nc(c(-c6cc(S(=O)(=O)[O-])ccc6F)c6ccc3[nH]6)C=C5)C=C4)cc1)=C2
REMARK SMILES IDX 25 1 24 2 23 3 21 4 22 5 20 7 3 8 4 9 13 10 5 11 12 12 14 13
REMARK SMILES IDX 11 14 93 15 15 16 2 17 1 18 6 19 7 20 8 21 9 22 10 23 16 24
REMARK SMILES IDX 17 25 18 26 19 27 26 28 27 29 28 30 29 32 30 33 31 34 92 35
REMARK SMILES IDX 32 36 91 37 33 38 34 39 35 40 85 41 36 42 90 43 84 44 86 45
REMARK SMILES IDX 37 46 89 47 83 48 82 49 38 51 70 52 50 53 69 54 51 55 54 56
REMARK SMILES IDX 68 57 87 58 52 59 53 60 67 62 88 63 55 64 39 65 40 66 48 67
REMARK SMILES IDX 41 68 47 69 49 70 46 71 42 72 43 73 44 74 45 75 71 76 72 77
REMARK SMILES IDX 80 78 73 79 79 80 81 81 78 82 74 83 75 84 76 85 77 86 56 87
REMARK SMILES IDX 57 88 65 89 58 90 64 91 66 92 63 93 59 94 60 95 61 96 62 97
REMARK H PARENT 23 6 27 31 86 50 54 61
REMARK Flexibility Score: inf
ROOT
ATOM      1  C   UNL A   1      31.421  31.990  26.478  1.00  0.00     0.042 C 
ENDROOT
BRANCH   1   2
ATOM      2  C   UNL A   1      31.553  30.524  26.065  1.00  0.00     0.118 C 
BRANCH   2   3
ATOM      3  N   UNL A   1      31.231  30.339  24.662  1.00  0.00    -0.352 N 
ATOM      4  C   UNL A   1      31.276  29.264  23.837  1.00  0.00     0.251 C 
ATOM      5  O   UNL A   1      30.829  29.410  22.698  1.00  0.00    -0.270 OA
ATOM      6  H   UNL A   1      30.914  31.160  24.220  1.00  0.00     0.163 HD
BRANCH   4   7
ATOM      7  C   UNL A   1      31.727  27.909  24.267  1.00  0.00     0.067 C 
ATOM      8  C   UNL A   1      32.582  24.287  26.235  1.00  0.00    -0.002 A 
ATOM      9  C   UNL A   1      33.845  23.698  26.033  1.00  0.00     0.054 A 
ATOM     10  C   UNL A   1      32.296  25.499  25.581  1.00  0.00     0.131 A 
ATOM     11  C   UNL A   1      34.798  24.300  25.207  1.00  0.00     0.130 A 
ATOM     12  C   UNL A   1      33.235  26.095  24.733  1.00  0.00     0.021 A 
ATOM     13  O   UNL A   1      31.092  26.099  25.859  1.00  0.00    -0.475 OA
ATOM     14  C   UNL A   1      34.482  25.493  24.554  1.00  0.00     0.058 A 
ATOM     15  C   UNL A   1      32.949  27.384  24.114  1.00  0.00     0.025 C 
ATOM     16  C   UNL A   1      30.619  27.082  24.896  1.00  0.00     0.314 C 
BRANCH   8  17
ATOM     17  C   UNL A   1      31.509  23.648  27.096  1.00  0.00     0.036 C 
ATOM     18  C   UNL A   1      30.438  22.830  26.384  1.00  0.00     0.009 C 
ENDBRANCH   8  17
BRANCH  11  19
ATOM     19  O   UNL A   1      36.063  23.847  24.957  1.00  0.00    -0.406 OA
BRANCH  19  20
ATOM     20  C   UNL A   1      36.211  22.687  24.157  1.00  0.00     0.573 C 
ATOM     21  F   UNL A   1      37.504  22.304  24.088  1.00  0.00    -0.132 F 
ATOM     22  F   UNL A   1      35.465  21.668  24.634  1.00  0.00    -0.132 F 
ATOM     23  F   UNL A   1      35.792  22.966  22.904  1.00  0.00    -0.132 F 
ENDBRANCH  19  20
ENDBRANCH  11  19
BRANCH  16  24
ATOM     24  C   UNL A   1      29.707  26.396  23.856  1.00  0.00     0.429 C 
ATOM     25  F   UNL A   1      29.430  25.113  24.196  1.00  0.00    -0.167 F 
ATOM     26  F   UNL A   1      28.517  27.043  23.765  1.00  0.00    -0.167 F 
ATOM     27  F   UNL A   1      30.232  26.358  22.612  1.00  0.00    -0.167 F 
ENDBRANCH  16  24
ENDBRANCH   4   7
ENDBRANCH   2   3
ENDBRANCH   1   2
BRANCH   1  28
ATOM     28  C   UNL A   1      32.572  32.469  27.359  1.00  0.00     0.118 C 
BRANCH  28  29
ATOM     29  N   UNL A   1      32.478  33.897  27.633  1.00  0.00    -0.352 N 
ATOM     30  C   UNL A   1      33.118  34.658  28.578  1.00  0.00     0.251 C 
ATOM     31  H   UNL A   1      31.858  34.392  27.050  1.00  0.00     0.163 HD
ATOM     32  O   UNL A   1      32.700  35.788  28.814  1.00  0.00    -0.269 OA
BRANCH  30  33
ATOM     33  C   UNL A   1      34.288  34.126  29.312  1.00  0.00     0.039 A 
ATOM     34  C   UNL A   1      34.074  33.402  30.490  1.00  0.00     0.014 A 
ATOM     35  C   UNL A   1      35.592  34.377  28.875  1.00  0.00     0.014 A 
ATOM     36  C   UNL A   1      35.163  32.889  31.198  1.00  0.00     0.010 A 
ATOM     37  C   UNL A   1      36.672  33.805  29.544  1.00  0.00     0.010 A 
ATOM     38  C   UNL A   1      36.470  33.060  30.715  1.00  0.00    -0.014 A 
BRANCH  38  39
ATOM     39  C   UNL A   1      37.638  32.476  31.423  1.00  0.00     0.031 A 
ATOM     40  C   UNL A   1      38.397  31.331  30.810  1.00  0.00     0.074 A 
ATOM     41  C   UNL A   1      37.970  32.933  32.646  1.00  0.00     0.049 A 
ATOM     42  N   UNL A   1      39.387  30.632  31.304  1.00  0.00    -0.248 NA
ATOM     43  C   UNL A   1      37.963  30.898  29.473  1.00  0.00     0.031 C 
ATOM     44  C   UNL A   1      37.289  34.019  33.355  1.00  0.00     0.029 A 
ATOM     45  N   UNL A   1      38.956  32.539  33.514  1.00  0.00    -0.354 N 
ATOM     46  C   UNL A   1      39.682  29.664  30.349  1.00  0.00     0.074 A 
ATOM     47  C   UNL A   1      38.726  29.833  29.276  1.00  0.00     0.031 C 
ATOM     48  C   UNL A   1      37.897  34.222  34.535  1.00  0.00     0.029 A 
ATOM     49  C   UNL A   1      38.974  33.251  34.691  1.00  0.00     0.049 A 
ATOM     50  H   UNL A   1      39.593  31.815  33.314  1.00  0.00     0.167 HD
ATOM     51  C   UNL A   1      40.672  28.736  30.359  1.00  0.00     0.034 A 
ATOM     52  C   UNL A   1      39.763  33.127  35.777  1.00  0.00     0.034 A 
ATOM     53  C   UNL A   1      41.622  28.591  31.436  1.00  0.00     0.049 A 
ATOM     54  C   UNL A   1      40.830  32.062  35.783  1.00  0.00     0.074 A 
ATOM     55  C   UNL A   1      42.703  27.731  31.526  1.00  0.00     0.029 A 
ATOM     56  N   UNL A   1      41.598  29.320  32.621  1.00  0.00    -0.354 N 
ATOM     57  N   UNL A   1      41.131  31.188  34.851  1.00  0.00    -0.248 NA
ATOM     58  C   UNL A   1      41.665  31.973  36.987  1.00  0.00     0.031 C 
ATOM     59  C   UNL A   1      43.287  27.887  32.788  1.00  0.00     0.029 A 
ATOM     60  C   UNL A   1      42.621  28.901  33.460  1.00  0.00     0.049 A 
ATOM     61  H   UNL A   1      40.950  30.029  32.833  1.00  0.00     0.167 HD
ATOM     62  C   UNL A   1      42.215  30.468  35.343  1.00  0.00     0.074 A 
ATOM     63  C   UNL A   1      42.519  31.018  36.649  1.00  0.00     0.031 C 
ATOM     64  C   UNL A   1      42.903  29.450  34.766  1.00  0.00     0.034 A 
BRANCH  51  65
ATOM     65  C   UNL A   1      40.746  27.787  29.184  1.00  0.00     0.023 A 
ATOM     66  C   UNL A   1      41.671  27.971  28.142  1.00  0.00     0.031 A 
ATOM     67  C   UNL A   1      39.852  26.706  29.083  1.00  0.00     0.131 A 
ATOM     68  C   UNL A   1      41.622  27.150  27.005  1.00  0.00     0.055 A 
ATOM     69  C   UNL A   1      39.867  25.837  27.990  1.00  0.00     0.041 A 
ATOM     70  F   UNL A   1      38.931  26.489  30.035  1.00  0.00    -0.206 F 
ATOM     71  C   UNL A   1      40.742  26.067  26.932  1.00  0.00     0.022 A 
BRANCH  68  72
ATOM     72  S   UNL A   1      42.605  27.619  25.555  1.00  0.00     0.124 S 
ATOM     73  O   UNL A   1      42.421  26.459  24.686  1.00  0.00    -0.237 OA
ATOM     74  O   UNL A   1      41.959  28.852  25.121  1.00  0.00    -0.237 OA
ATOM     75  O   UNL A   1      43.956  27.777  26.092  1.00  0.00    -0.744 OA
ENDBRANCH  68  72
ENDBRANCH  51  65
BRANCH  52  76
ATOM     76  C   UNL A   1      39.580  34.029  36.949  1.00  0.00     0.023 A 
ATOM     77  C   UNL A   1      39.008  33.552  38.139  1.00  0.00     0.031 A 
ATOM     78  C   UNL A   1      39.939  35.387  36.888  1.00  0.00     0.131 A 
ATOM     79  C   UNL A   1      38.771  34.433  39.205  1.00  0.00     0.055 A 
ATOM     80  C   UNL A   1      39.749  36.249  37.970  1.00  0.00     0.041 A 
ATOM     81  F   UNL A   1      40.495  35.894  35.776  1.00  0.00    -0.206 F 
ATOM     82  C   UNL A   1      39.150  35.776  39.133  1.00  0.00     0.022 A 
BRANCH  79  83
ATOM     83  S   UNL A   1      37.887  33.814  40.663  1.00  0.00     0.124 S 
ATOM     84  O   UNL A   1      36.790  33.071  40.050  1.00  0.00    -0.237 OA
ATOM     85  O   UNL A   1      38.914  33.015  41.322  1.00  0.00    -0.237 OA
ATOM     86  O   UNL A   1      37.499  35.033  41.367  1.00  0.00    -0.744 OA
ENDBRANCH  79  83
ENDBRANCH  52  76
BRANCH  64  87
ATOM     87  C   UNL A   1      44.082  28.900  35.533  1.00  0.00     0.023 A 
ATOM     88  C   UNL A   1      43.961  27.790  36.385  1.00  0.00     0.031 A 
ATOM     89  C   UNL A   1      45.344  29.511  35.417  1.00  0.00     0.131 A 
ATOM     90  C   UNL A   1      45.068  27.357  37.131  1.00  0.00     0.055 A 
ATOM     91  C   UNL A   1      46.456  29.038  36.115  1.00  0.00     0.041 A 
ATOM     92  F   UNL A   1      45.516  30.578  34.620  1.00  0.00    -0.206 F 
ATOM     93  C   UNL A   1      46.319  27.963  36.988  1.00  0.00     0.022 A 
BRANCH  90  94
ATOM     94  S   UNL A   1      44.831  26.047  38.363  1.00  0.00     0.124 S 
ATOM     95  O   UNL A   1      46.195  25.567  38.562  1.00  0.00    -0.237 OA
ATOM     96  O   UNL A   1      44.241  26.774  39.482  1.00  0.00    -0.237 OA
ATOM     97  O   UNL A   1      43.933  25.106  37.695  1.00  0.00    -0.744 OA
ENDBRANCH  90  94
ENDBRANCH  64  87
ENDBRANCH  38  39
ENDBRANCH  30  33
ENDBRANCH  28  29
ENDBRANCH   1  28
TORSDOF 17
ENDMDL
