MODEL 1
REMARK VINA RESULT:     -12.8      0.000      0.000
REMARK SMILES Cc1cc(OC(F)(F)F)cc2c1O[C@@H](C(F)(F)F)C(C(=O)NCCCNC(=O)c1ccc(-c3c4nc(c(-c5cc(S(=O)(=O)[O-])ccc5F)c5ccc([nH]5)c(-c5cc(S(=O)(=O)[O-])ccc5F)c5nc(c(-c6cc(S(=O)(=O)[O-])ccc6F)c6ccc3[nH]6)C=C5)C=C4)cc1)=C2
REMARK SMILES IDX 24 1 23 2 22 3 20 4 21 5 19 7 1 8 2 9 3 10 12 11 4 12 11 13
REMARK SMILES IDX 13 14 10 15 92 16 14 17 5 18 6 19 7 20 8 21 9 22 15 23 16 24
REMARK SMILES IDX 17 25 18 26 25 27 26 28 27 29 28 31 29 32 30 33 91 34 31 35
REMARK SMILES IDX 90 36 32 37 33 38 34 39 84 40 35 41 89 42 83 43 85 44 36 45
REMARK SMILES IDX 88 46 82 47 81 48 37 50 69 51 49 52 68 53 50 54 53 55 67 56
REMARK SMILES IDX 86 57 51 58 52 59 66 61 87 62 54 63 38 64 39 65 47 66 40 67
REMARK SMILES IDX 46 68 48 69 45 70 41 71 42 72 43 73 44 74 70 75 71 76 79 77
REMARK SMILES IDX 72 78 78 79 80 80 77 81 73 82 74 83 75 84 76 85 55 86 56 87
REMARK SMILES IDX 64 88 57 89 63 90 65 91 62 92 58 93 59 94 60 95 61 96
REMARK H PARENT 22 6 26 30 85 49 53 60
REMARK Flexibility Score: inf
ROOT
ATOM      1  C   UNL A   1      31.549  32.019  26.572  1.00  0.00     0.042 C 
ENDROOT
BRANCH   1   2
ATOM      2  C   UNL A   1      31.742  30.634  25.967  1.00  0.00     0.118 C 
BRANCH   2   3
ATOM      3  N   UNL A   1      31.527  29.589  26.954  1.00  0.00    -0.352 N 
ATOM      4  C   UNL A   1      31.664  28.246  27.026  1.00  0.00     0.251 C 
ATOM      5  O   UNL A   1      31.405  27.757  28.131  1.00  0.00    -0.270 OA
ATOM      6  H   UNL A   1      31.188  29.959  27.800  1.00  0.00     0.163 HD
BRANCH   4   7
ATOM      7  C   UNL A   1      32.105  27.357  25.912  1.00  0.00     0.067 C 
ATOM      8  C   UNL A   1      32.946  24.868  21.501  1.00  0.00     0.048 C 
ATOM      9  C   UNL A   1      33.549  24.843  22.877  1.00  0.00    -0.005 A 
ATOM     10  C   UNL A   1      34.588  23.945  23.166  1.00  0.00     0.054 A 
ATOM     11  C   UNL A   1      33.122  25.727  23.874  1.00  0.00     0.131 A 
ATOM     12  C   UNL A   1      35.179  23.922  24.432  1.00  0.00     0.130 A 
ATOM     13  C   UNL A   1      33.692  25.704  25.147  1.00  0.00     0.021 A 
ATOM     14  O   UNL A   1      32.170  26.644  23.533  1.00  0.00    -0.475 OA
ATOM     15  C   UNL A   1      34.719  24.798  25.422  1.00  0.00     0.058 A 
ATOM     16  C   UNL A   1      33.226  26.651  26.153  1.00  0.00     0.025 C 
ATOM     17  C   UNL A   1      31.355  27.147  24.625  1.00  0.00     0.314 C 
BRANCH  12  18
ATOM     18  O   UNL A   1      36.202  23.106  24.828  1.00  0.00    -0.406 OA
BRANCH  18  19
ATOM     19  C   UNL A   1      35.909  21.732  25.013  1.00  0.00     0.573 C 
ATOM     20  F   UNL A   1      34.723  21.403  24.458  1.00  0.00    -0.132 F 
ATOM     21  F   UNL A   1      36.881  20.949  24.496  1.00  0.00    -0.132 F 
ATOM     22  F   UNL A   1      35.835  21.478  26.340  1.00  0.00    -0.132 F 
ENDBRANCH  18  19
ENDBRANCH  12  18
BRANCH  17  23
ATOM     23  C   UNL A   1      30.068  26.313  24.771  1.00  0.00     0.429 C 
ATOM     24  F   UNL A   1      28.964  26.998  24.396  1.00  0.00    -0.167 F 
ATOM     25  F   UNL A   1      30.101  25.173  24.045  1.00  0.00    -0.167 F 
ATOM     26  F   UNL A   1      29.893  25.956  26.068  1.00  0.00    -0.167 F 
ENDBRANCH  17  23
ENDBRANCH   4   7
ENDBRANCH   2   3
ENDBRANCH   1   2
BRANCH   1  27
ATOM     27  C   UNL A   1      32.835  32.564  27.182  1.00  0.00     0.118 C 
BRANCH  27  28
ATOM     28  N   UNL A   1      32.672  33.946  27.622  1.00  0.00    -0.352 N 
ATOM     29  C   UNL A   1      33.213  34.583  28.712  1.00  0.00     0.251 C 
ATOM     30  H   UNL A   1      32.088  34.501  27.056  1.00  0.00     0.163 HD
ATOM     31  O   UNL A   1      32.734  35.646  29.094  1.00  0.00    -0.269 OA
BRANCH  29  32
ATOM     32  C   UNL A   1      34.369  33.989  29.414  1.00  0.00     0.039 A 
ATOM     33  C   UNL A   1      35.664  34.309  28.997  1.00  0.00     0.014 A 
ATOM     34  C   UNL A   1      34.170  33.080  30.457  1.00  0.00     0.014 A 
ATOM     35  C   UNL A   1      36.759  33.746  29.657  1.00  0.00     0.010 A 
ATOM     36  C   UNL A   1      35.259  32.583  31.162  1.00  0.00     0.010 A 
ATOM     37  C   UNL A   1      36.563  32.892  30.754  1.00  0.00    -0.014 A 
BRANCH  37  38
ATOM     38  C   UNL A   1      37.706  32.255  31.450  1.00  0.00     0.031 A 
ATOM     39  C   UNL A   1      38.401  31.084  30.812  1.00  0.00     0.074 A 
ATOM     40  C   UNL A   1      38.080  32.688  32.669  1.00  0.00     0.049 A 
ATOM     41  N   UNL A   1      39.372  30.349  31.283  1.00  0.00    -0.248 NA
ATOM     42  C   UNL A   1      37.928  30.669  29.479  1.00  0.00     0.031 C 
ATOM     43  C   UNL A   1      37.442  33.779  33.406  1.00  0.00     0.029 A 
ATOM     44  N   UNL A   1      39.071  32.249  33.512  1.00  0.00    -0.354 N 
ATOM     45  C   UNL A   1      39.628  29.391  30.309  1.00  0.00     0.074 A 
ATOM     46  C   UNL A   1      38.667  29.594  29.249  1.00  0.00     0.031 C 
ATOM     47  C   UNL A   1      38.058  33.924  34.591  1.00  0.00     0.029 A 
ATOM     48  C   UNL A   1      39.113  32.920  34.711  1.00  0.00     0.049 A 
ATOM     49  H   UNL A   1      39.694  31.523  33.279  1.00  0.00     0.167 HD
ATOM     50  C   UNL A   1      40.599  28.452  30.287  1.00  0.00     0.034 A 
ATOM     51  C   UNL A   1      39.902  32.739  35.791  1.00  0.00     0.034 A 
ATOM     52  C   UNL A   1      41.567  28.276  31.334  1.00  0.00     0.049 A 
ATOM     53  C   UNL A   1      40.985  31.692  35.738  1.00  0.00     0.074 A 
ATOM     54  C   UNL A   1      42.620  27.379  31.378  1.00  0.00     0.029 A 
ATOM     55  N   UNL A   1      41.615  29.012  32.506  1.00  0.00    -0.354 N 
ATOM     56  N   UNL A   1      41.266  30.850  34.771  1.00  0.00    -0.248 NA
ATOM     57  C   UNL A   1      41.873  31.579  36.904  1.00  0.00     0.031 C 
ATOM     58  C   UNL A   1      43.277  27.542  32.597  1.00  0.00     0.029 A 
ATOM     59  C   UNL A   1      42.673  28.582  33.286  1.00  0.00     0.049 A 
ATOM     60  H   UNL A   1      40.989  29.732  32.749  1.00  0.00     0.167 HD
ATOM     61  C   UNL A   1      42.377  30.128  35.201  1.00  0.00     0.074 A 
ATOM     62  C   UNL A   1      42.728  30.644  36.507  1.00  0.00     0.031 C 
ATOM     63  C   UNL A   1      43.038  29.127  34.571  1.00  0.00     0.034 A 
BRANCH  50  64
ATOM     64  C   UNL A   1      40.718  27.566  29.076  1.00  0.00     0.023 A 
ATOM     65  C   UNL A   1      41.628  27.886  28.054  1.00  0.00     0.031 A 
ATOM     66  C   UNL A   1      39.820  26.505  28.868  1.00  0.00     0.131 A 
ATOM     67  C   UNL A   1      41.584  27.182  26.845  1.00  0.00     0.055 A 
ATOM     68  C   UNL A   1      39.808  25.781  27.677  1.00  0.00     0.041 A 
ATOM     69  F   UNL A   1      38.938  26.161  29.822  1.00  0.00    -0.206 F 
ATOM     70  C   UNL A   1      40.683  26.128  26.653  1.00  0.00     0.022 A 
BRANCH  67  71
ATOM     71  S   UNL A   1      42.661  27.639  25.460  1.00  0.00     0.124 S 
ATOM     72  O   UNL A   1      43.904  27.993  26.145  1.00  0.00    -0.237 OA
ATOM     73  O   UNL A   1      42.703  26.401  24.688  1.00  0.00    -0.237 OA
ATOM     74  O   UNL A   1      41.965  28.758  24.831  1.00  0.00    -0.744 OA
ENDBRANCH  67  71
ENDBRANCH  50  64
BRANCH  51  75
ATOM     75  C   UNL A   1      39.708  33.609  36.986  1.00  0.00     0.023 A 
ATOM     76  C   UNL A   1      39.035  33.125  38.121  1.00  0.00     0.031 A 
ATOM     77  C   UNL A   1      40.109  34.955  36.977  1.00  0.00     0.131 A 
ATOM     78  C   UNL A   1      38.737  33.994  39.178  1.00  0.00     0.055 A 
ATOM     79  C   UNL A   1      39.866  35.802  38.058  1.00  0.00     0.041 A 
ATOM     80  F   UNL A   1      40.743  35.464  35.908  1.00  0.00    -0.206 F 
ATOM     81  C   UNL A   1      39.165  35.326  39.162  1.00  0.00     0.022 A 
BRANCH  78  82
ATOM     82  S   UNL A   1      37.699  33.454  40.563  1.00  0.00     0.124 S 
ATOM     83  O   UNL A   1      37.555  34.683  41.336  1.00  0.00    -0.237 OA
ATOM     84  O   UNL A   1      36.496  32.998  39.870  1.00  0.00    -0.237 OA
ATOM     85  O   UNL A   1      38.489  32.402  41.196  1.00  0.00    -0.744 OA
ENDBRANCH  78  82
ENDBRANCH  51  75
BRANCH  63  86
ATOM     86  C   UNL A   1      44.239  28.510  35.242  1.00  0.00     0.023 A 
ATOM     87  C   UNL A   1      44.056  27.522  36.228  1.00  0.00     0.031 A 
ATOM     88  C   UNL A   1      45.531  29.024  35.041  1.00  0.00     0.131 A 
ATOM     89  C   UNL A   1      45.140  27.114  37.014  1.00  0.00     0.055 A 
ATOM     90  C   UNL A   1      46.617  28.580  35.795  1.00  0.00     0.041 A 
ATOM     91  F   UNL A   1      45.750  29.976  34.119  1.00  0.00    -0.206 F 
ATOM     92  C   UNL A   1      46.421  27.633  36.797  1.00  0.00     0.022 A 
BRANCH  89  93
ATOM     93  S   UNL A   1      44.913  25.959  38.393  1.00  0.00     0.124 S 
ATOM     94  O   UNL A   1      44.230  24.842  37.744  1.00  0.00    -0.237 OA
ATOM     95  O   UNL A   1      46.290  25.696  38.802  1.00  0.00    -0.237 OA
ATOM     96  O   UNL A   1      44.104  26.706  39.350  1.00  0.00    -0.744 OA
ENDBRANCH  89  93
ENDBRANCH  63  86
ENDBRANCH  37  38
ENDBRANCH  29  32
ENDBRANCH  27  28
ENDBRANCH   1  27
TORSDOF 16
ENDMDL
MODEL 2
REMARK VINA RESULT:     -12.7      3.359      8.487
REMARK SMILES Cc1cc(OC(F)(F)F)cc2c1O[C@@H](C(F)(F)F)C(C(=O)NCCCNC(=O)c1ccc(-c3c4nc(c(-c5cc(S(=O)(=O)[O-])ccc5F)c5ccc([nH]5)c(-c5cc(S(=O)(=O)[O-])ccc5F)c5nc(c(-c6cc(S(=O)(=O)[O-])ccc6F)c6ccc3[nH]6)C=C5)C=C4)cc1)=C2
REMARK SMILES IDX 24 1 23 2 22 3 20 4 21 5 19 7 1 8 2 9 3 10 12 11 4 12 11 13
REMARK SMILES IDX 13 14 10 15 92 16 14 17 5 18 6 19 7 20 8 21 9 22 15 23 16 24
REMARK SMILES IDX 17 25 18 26 25 27 26 28 27 29 28 31 29 32 30 33 91 34 31 35
REMARK SMILES IDX 90 36 32 37 33 38 34 39 84 40 35 41 89 42 83 43 85 44 36 45
REMARK SMILES IDX 88 46 82 47 81 48 37 50 69 51 49 52 68 53 50 54 53 55 67 56
REMARK SMILES IDX 86 57 51 58 52 59 66 61 87 62 54 63 38 64 39 65 47 66 40 67
REMARK SMILES IDX 46 68 48 69 45 70 41 71 42 72 43 73 44 74 70 75 71 76 79 77
REMARK SMILES IDX 72 78 78 79 80 80 77 81 73 82 74 83 75 84 76 85 55 86 56 87
REMARK SMILES IDX 64 88 57 89 63 90 65 91 62 92 58 93 59 94 60 95 61 96
REMARK H PARENT 22 6 26 30 85 49 53 60
REMARK Flexibility Score: inf
ROOT
ATOM      1  C   UNL A   1      33.318  27.900  26.851  1.00  0.00     0.042 C 
ENDROOT
BRANCH   1   2
ATOM      2  C   UNL A   1      31.805  28.006  26.713  1.00  0.00     0.118 C 
BRANCH   2   3
ATOM      3  N   UNL A   1      31.401  28.052  25.317  1.00  0.00    -0.352 N 
ATOM      4  C   UNL A   1      31.357  27.204  24.267  1.00  0.00     0.251 C 
ATOM      5  O   UNL A   1      30.865  27.679  23.237  1.00  0.00    -0.270 OA
ATOM      6  H   UNL A   1      31.069  28.946  25.070  1.00  0.00     0.163 HD
BRANCH   4   7
ATOM      7  C   UNL A   1      31.828  25.789  24.273  1.00  0.00     0.067 C 
ATOM      8  C   UNL A   1      32.420  20.689  24.203  1.00  0.00     0.048 C 
ATOM      9  C   UNL A   1      33.343  21.875  24.189  1.00  0.00    -0.005 A 
ATOM     10  C   UNL A   1      34.732  21.677  24.180  1.00  0.00     0.054 A 
ATOM     11  C   UNL A   1      32.846  23.182  24.145  1.00  0.00     0.131 A 
ATOM     12  C   UNL A   1      35.607  22.765  24.143  1.00  0.00     0.130 A 
ATOM     13  C   UNL A   1      33.708  24.279  24.123  1.00  0.00     0.021 A 
ATOM     14  O   UNL A   1      31.491  23.336  24.067  1.00  0.00    -0.475 OA
ATOM     15  C   UNL A   1      35.088  24.065  24.125  1.00  0.00     0.058 A 
ATOM     16  C   UNL A   1      33.148  25.624  24.064  1.00  0.00     0.025 C 
ATOM     17  C   UNL A   1      30.967  24.592  24.572  1.00  0.00     0.314 C 
BRANCH  12  18
ATOM     18  O   UNL A   1      36.973  22.700  24.119  1.00  0.00    -0.406 OA
BRANCH  18  19
ATOM     19  C   UNL A   1      37.656  22.813  25.355  1.00  0.00     0.573 C 
ATOM     20  F   UNL A   1      36.843  22.524  26.393  1.00  0.00    -0.132 F 
ATOM     21  F   UNL A   1      38.740  22.008  25.393  1.00  0.00    -0.132 F 
ATOM     22  F   UNL A   1      38.082  24.089  25.500  1.00  0.00    -0.132 F 
ENDBRANCH  18  19
ENDBRANCH  12  18
BRANCH  17  23
ATOM     23  C   UNL A   1      30.563  24.456  26.052  1.00  0.00     0.429 C 
ATOM     24  F   UNL A   1      30.040  23.242  26.336  1.00  0.00    -0.167 F 
ATOM     25  F   UNL A   1      31.600  24.657  26.896  1.00  0.00    -0.167 F 
ATOM     26  F   UNL A   1      29.615  25.378  26.359  1.00  0.00    -0.167 F 
ENDBRANCH  17  23
ENDBRANCH   4   7
ENDBRANCH   2   3
ENDBRANCH   1   2
BRANCH   1  27
ATOM     27  C   UNL A   1      34.046  28.958  26.030  1.00  0.00     0.118 C 
BRANCH  27  28
ATOM     28  N   UNL A   1      33.881  30.287  26.607  1.00  0.00    -0.352 N 
ATOM     29  C   UNL A   1      34.549  30.870  27.657  1.00  0.00     0.251 C 
ATOM     30  H   UNL A   1      33.190  30.847  26.185  1.00  0.00     0.163 HD
ATOM     31  O   UNL A   1      34.079  31.867  28.197  1.00  0.00    -0.269 OA
BRANCH  29  32
ATOM     32  C   UNL A   1      35.827  30.298  28.126  1.00  0.00     0.039 A 
ATOM     33  C   UNL A   1      35.880  29.662  29.370  1.00  0.00     0.014 A 
ATOM     34  C   UNL A   1      36.985  30.431  27.354  1.00  0.00     0.014 A 
ATOM     35  C   UNL A   1      37.088  29.123  29.818  1.00  0.00     0.010 A 
ATOM     36  C   UNL A   1      38.166  29.828  27.765  1.00  0.00     0.010 A 
ATOM     37  C   UNL A   1      38.235  29.189  29.011  1.00  0.00    -0.014 A 
BRANCH  37  38
ATOM     38  C   UNL A   1      39.537  28.655  29.477  1.00  0.00     0.031 A 
ATOM     39  C   UNL A   1      40.304  29.397  30.537  1.00  0.00     0.074 A 
ATOM     40  C   UNL A   1      40.053  27.547  28.912  1.00  0.00     0.049 A 
ATOM     41  N   UNL A   1      41.484  29.136  31.032  1.00  0.00    -0.248 NA
ATOM     42  C   UNL A   1      39.672  30.604  31.099  1.00  0.00     0.031 C 
ATOM     43  C   UNL A   1      39.423  26.779  27.838  1.00  0.00     0.029 A 
ATOM     44  N   UNL A   1      41.235  26.887  29.147  1.00  0.00    -0.354 N 
ATOM     45  C   UNL A   1      41.734  30.138  31.961  1.00  0.00     0.074 A 
ATOM     46  C   UNL A   1      40.614  31.051  31.916  1.00  0.00     0.031 C 
ATOM     47  C   UNL A   1      40.224  25.753  27.507  1.00  0.00     0.029 A 
ATOM     48  C   UNL A   1      41.436  25.806  28.323  1.00  0.00     0.049 A 
ATOM     49  H   UNL A   1      41.876  27.162  29.842  1.00  0.00     0.167 HD
ATOM     50  C   UNL A   1      42.786  30.264  32.801  1.00  0.00     0.034 A 
ATOM     51  C   UNL A   1      42.483  24.960  28.224  1.00  0.00     0.034 A 
ATOM     52  C   UNL A   1      43.881  29.335  32.857  1.00  0.00     0.049 A 
ATOM     53  C   UNL A   1      43.639  25.114  29.179  1.00  0.00     0.074 A 
ATOM     54  C   UNL A   1      44.970  29.355  33.709  1.00  0.00     0.029 A 
ATOM     55  N   UNL A   1      44.023  28.220  32.047  1.00  0.00    -0.354 N 
ATOM     56  N   UNL A   1      43.820  26.021  30.110  1.00  0.00    -0.248 NA
ATOM     57  C   UNL A   1      44.724  24.126  29.090  1.00  0.00     0.031 C 
ATOM     58  C   UNL A   1      45.794  28.277  33.385  1.00  0.00     0.029 A 
ATOM     59  C   UNL A   1      45.188  27.550  32.373  1.00  0.00     0.049 A 
ATOM     60  H   UNL A   1      43.389  27.946  31.344  1.00  0.00     0.167 HD
ATOM     61  C   UNL A   1      45.021  25.697  30.735  1.00  0.00     0.074 A 
ATOM     62  C   UNL A   1      45.516  24.501  30.088  1.00  0.00     0.031 C 
ATOM     63  C   UNL A   1      45.655  26.338  31.747  1.00  0.00     0.034 A 
BRANCH  50  64
ATOM     64  C   UNL A   1      42.797  31.410  33.775  1.00  0.00     0.023 A 
ATOM     65  C   UNL A   1      42.135  31.295  35.009  1.00  0.00     0.031 A 
ATOM     66  C   UNL A   1      43.325  32.661  33.410  1.00  0.00     0.131 A 
ATOM     67  C   UNL A   1      41.971  32.428  35.814  1.00  0.00     0.055 A 
ATOM     68  C   UNL A   1      43.194  33.777  34.235  1.00  0.00     0.041 A 
ATOM     69  F   UNL A   1      43.972  32.815  32.243  1.00  0.00    -0.206 F 
ATOM     70  C   UNL A   1      42.502  33.666  35.437  1.00  0.00     0.022 A 
BRANCH  67  71
ATOM     71  S   UNL A   1      41.023  32.346  37.358  1.00  0.00     0.124 S 
ATOM     72  O   UNL A   1      39.815  31.639  36.935  1.00  0.00    -0.237 OA
ATOM     73  O   UNL A   1      41.920  31.589  38.224  1.00  0.00    -0.237 OA
ATOM     74  O   UNL A   1      40.822  33.747  37.717  1.00  0.00    -0.744 OA
ENDBRANCH  67  71
ENDBRANCH  50  64
BRANCH  51  75
ATOM     75  C   UNL A   1      42.445  23.873  27.205  1.00  0.00     0.023 A 
ATOM     76  C   UNL A   1      41.849  22.634  27.501  1.00  0.00     0.031 A 
ATOM     77  C   UNL A   1      43.081  24.021  25.962  1.00  0.00     0.131 A 
ATOM     78  C   UNL A   1      41.945  21.578  26.587  1.00  0.00     0.055 A 
ATOM     79  C   UNL A   1      43.121  22.986  25.028  1.00  0.00     0.041 A 
ATOM     80  F   UNL A   1      43.675  25.182  25.641  1.00  0.00    -0.206 F 
ATOM     81  C   UNL A   1      42.562  21.751  25.344  1.00  0.00     0.022 A 
BRANCH  78  82
ATOM     82  S   UNL A   1      41.363  19.916  27.021  1.00  0.00     0.124 S 
ATOM     83  O   UNL A   1      42.612  19.166  27.104  1.00  0.00    -0.237 OA
ATOM     84  O   UNL A   1      40.689  20.163  28.294  1.00  0.00    -0.237 OA
ATOM     85  O   UNL A   1      40.487  19.558  25.912  1.00  0.00    -0.744 OA
ENDBRANCH  78  82
ENDBRANCH  51  75
BRANCH  63  86
ATOM     86  C   UNL A   1      46.951  25.773  32.271  1.00  0.00     0.023 A 
ATOM     87  C   UNL A   1      46.944  24.964  33.423  1.00  0.00     0.031 A 
ATOM     88  C   UNL A   1      48.189  26.181  31.747  1.00  0.00     0.131 A 
ATOM     89  C   UNL A   1      48.153  24.630  34.045  1.00  0.00     0.055 A 
ATOM     90  C   UNL A   1      49.393  25.807  32.345  1.00  0.00     0.041 A 
ATOM     91  F   UNL A   1      48.243  26.963  30.656  1.00  0.00    -0.206 F 
ATOM     92  C   UNL A   1      49.377  25.041  33.508  1.00  0.00     0.022 A 
BRANCH  89  93
ATOM     93  S   UNL A   1      48.176  23.720  35.614  1.00  0.00     0.124 S 
ATOM     94  O   UNL A   1      48.840  24.669  36.505  1.00  0.00    -0.237 OA
ATOM     95  O   UNL A   1      46.753  23.515  35.869  1.00  0.00    -0.237 OA
ATOM     96  O   UNL A   1      48.942  22.516  35.312  1.00  0.00    -0.744 OA
ENDBRANCH  89  93
ENDBRANCH  63  86
ENDBRANCH  37  38
ENDBRANCH  29  32
ENDBRANCH  27  28
ENDBRANCH   1  27
TORSDOF 16
ENDMDL
MODEL 3
REMARK VINA RESULT:     -12.6      3.691      8.666
REMARK SMILES Cc1cc(OC(F)(F)F)cc2c1O[C@@H](C(F)(F)F)C(C(=O)NCCCNC(=O)c1ccc(-c3c4nc(c(-c5cc(S(=O)(=O)[O-])ccc5F)c5ccc([nH]5)c(-c5cc(S(=O)(=O)[O-])ccc5F)c5nc(c(-c6cc(S(=O)(=O)[O-])ccc6F)c6ccc3[nH]6)C=C5)C=C4)cc1)=C2
REMARK SMILES IDX 24 1 23 2 22 3 20 4 21 5 19 7 1 8 2 9 3 10 12 11 4 12 11 13
REMARK SMILES IDX 13 14 10 15 92 16 14 17 5 18 6 19 7 20 8 21 9 22 15 23 16 24
REMARK SMILES IDX 17 25 18 26 25 27 26 28 27 29 28 31 29 32 30 33 91 34 31 35
REMARK SMILES IDX 90 36 32 37 33 38 34 39 84 40 35 41 89 42 83 43 85 44 36 45
REMARK SMILES IDX 88 46 82 47 81 48 37 50 69 51 49 52 68 53 50 54 53 55 67 56
REMARK SMILES IDX 86 57 51 58 52 59 66 61 87 62 54 63 38 64 39 65 47 66 40 67
REMARK SMILES IDX 46 68 48 69 45 70 41 71 42 72 43 73 44 74 70 75 71 76 79 77
REMARK SMILES IDX 72 78 78 79 80 80 77 81 73 82 74 83 75 84 76 85 55 86 56 87
REMARK SMILES IDX 64 88 57 89 63 90 65 91 62 92 58 93 59 94 60 95 61 96
REMARK H PARENT 22 6 26 30 85 49 53 60
REMARK Flexibility Score: inf
ROOT
ATOM      1  C   UNL A   1      33.274  27.820  26.897  1.00  0.00     0.042 C 
ENDROOT
BRANCH   1   2
ATOM      2  C   UNL A   1      31.773  27.864  26.640  1.00  0.00     0.118 C 
BRANCH   2   3
ATOM      3  N   UNL A   1      31.480  27.909  25.216  1.00  0.00    -0.352 N 
ATOM      4  C   UNL A   1      31.507  27.057  24.168  1.00  0.00     0.251 C 
ATOM      5  O   UNL A   1      31.103  27.534  23.101  1.00  0.00    -0.270 OA
ATOM      6  H   UNL A   1      31.180  28.805  24.941  1.00  0.00     0.163 HD
BRANCH   4   7
ATOM      7  C   UNL A   1      31.958  25.636  24.215  1.00  0.00     0.067 C 
ATOM      8  C   UNL A   1      32.479  20.529  24.281  1.00  0.00     0.048 C 
ATOM      9  C   UNL A   1      33.418  21.701  24.248  1.00  0.00    -0.005 A 
ATOM     10  C   UNL A   1      34.804  21.483  24.261  1.00  0.00     0.054 A 
ATOM     11  C   UNL A   1      32.941  23.013  24.165  1.00  0.00     0.131 A 
ATOM     12  C   UNL A   1      35.696  22.558  24.207  1.00  0.00     0.130 A 
ATOM     13  C   UNL A   1      33.818  24.097  24.126  1.00  0.00     0.021 A 
ATOM     14  O   UNL A   1      31.589  23.184  24.067  1.00  0.00    -0.475 OA
ATOM     15  C   UNL A   1      35.195  23.864  24.150  1.00  0.00     0.058 A 
ATOM     16  C   UNL A   1      33.278  25.448  24.027  1.00  0.00     0.025 C 
ATOM     17  C   UNL A   1      31.076  24.459  24.534  1.00  0.00     0.314 C 
BRANCH  12  18
ATOM     18  O   UNL A   1      37.060  22.473  24.201  1.00  0.00    -0.406 OA
BRANCH  18  19
ATOM     19  C   UNL A   1      37.726  22.547  25.449  1.00  0.00     0.573 C 
ATOM     20  F   UNL A   1      38.086  23.815  25.740  1.00  0.00    -0.132 F 
ATOM     21  F   UNL A   1      36.958  22.056  26.446  1.00  0.00    -0.132 F 
ATOM     22  F   UNL A   1      38.850  21.797  25.386  1.00  0.00    -0.132 F 
ENDBRANCH  18  19
ENDBRANCH  12  18
BRANCH  17  23
ATOM     23  C   UNL A   1      30.653  24.366  26.012  1.00  0.00     0.429 C 
ATOM     24  F   UNL A   1      30.152  23.152  26.331  1.00  0.00    -0.167 F 
ATOM     25  F   UNL A   1      31.673  24.618  26.863  1.00  0.00    -0.167 F 
ATOM     26  F   UNL A   1      29.682  25.277  26.273  1.00  0.00    -0.167 F 
ENDBRANCH  17  23
ENDBRANCH   4   7
ENDBRANCH   2   3
ENDBRANCH   1   2
BRANCH   1  27
ATOM     27  C   UNL A   1      34.031  28.846  26.062  1.00  0.00     0.118 C 
BRANCH  27  28
ATOM     28  N   UNL A   1      33.857  30.195  26.591  1.00  0.00    -0.352 N 
ATOM     29  C   UNL A   1      34.523  30.821  27.617  1.00  0.00     0.251 C 
ATOM     30  H   UNL A   1      33.161  30.733  26.150  1.00  0.00     0.163 HD
ATOM     31  O   UNL A   1      34.048  31.833  28.121  1.00  0.00    -0.269 OA
BRANCH  29  32
ATOM     32  C   UNL A   1      35.807  30.276  28.103  1.00  0.00     0.039 A 
ATOM     33  C   UNL A   1      35.859  29.650  29.352  1.00  0.00     0.014 A 
ATOM     34  C   UNL A   1      36.970  30.425  27.342  1.00  0.00     0.014 A 
ATOM     35  C   UNL A   1      37.073  29.137  29.815  1.00  0.00     0.010 A 
ATOM     36  C   UNL A   1      38.158  29.847  27.769  1.00  0.00     0.010 A 
ATOM     37  C   UNL A   1      38.227  29.218  29.020  1.00  0.00    -0.014 A 
BRANCH  37  38
ATOM     38  C   UNL A   1      39.534  28.712  29.502  1.00  0.00     0.031 A 
ATOM     39  C   UNL A   1      40.273  29.472  30.569  1.00  0.00     0.074 A 
ATOM     40  C   UNL A   1      40.079  27.614  28.946  1.00  0.00     0.049 A 
ATOM     41  N   UNL A   1      41.451  29.236  31.078  1.00  0.00    -0.248 NA
ATOM     42  C   UNL A   1      39.610  30.667  31.121  1.00  0.00     0.031 C 
ATOM     43  C   UNL A   1      39.477  26.830  27.867  1.00  0.00     0.029 A 
ATOM     44  N   UNL A   1      41.270  26.978  29.198  1.00  0.00    -0.354 N 
ATOM     45  C   UNL A   1      41.670  30.246  32.008  1.00  0.00     0.074 A 
ATOM     46  C   UNL A   1      40.533  31.135  31.947  1.00  0.00     0.031 C 
ATOM     47  C   UNL A   1      40.302  25.820  27.549  1.00  0.00     0.029 A 
ATOM     48  C   UNL A   1      41.503  25.899  28.378  1.00  0.00     0.049 A 
ATOM     49  H   UNL A   1      41.897  27.268  29.899  1.00  0.00     0.167 HD
ATOM     50  C   UNL A   1      42.709  30.395  32.859  1.00  0.00     0.034 A 
ATOM     51  C   UNL A   1      42.568  25.075  28.295  1.00  0.00     0.034 A 
ATOM     52  C   UNL A   1      43.822  29.489  32.931  1.00  0.00     0.049 A 
ATOM     53  C   UNL A   1      43.710  25.255  29.262  1.00  0.00     0.074 A 
ATOM     54  C   UNL A   1      44.901  29.533  33.796  1.00  0.00     0.029 A 
ATOM     55  N   UNL A   1      43.996  28.375  32.126  1.00  0.00    -0.354 N 
ATOM     56  N   UNL A   1      43.861  26.167  30.193  1.00  0.00    -0.248 NA
ATOM     57  C   UNL A   1      44.816  24.288  29.189  1.00  0.00     0.031 C 
ATOM     58  C   UNL A   1      45.750  28.471  33.485  1.00  0.00     0.029 A 
ATOM     59  C   UNL A   1      45.171  27.729  32.467  1.00  0.00     0.049 A 
ATOM     60  H   UNL A   1      43.377  28.086  31.417  1.00  0.00     0.167 HD
ATOM     61  C   UNL A   1      45.061  25.869  30.833  1.00  0.00     0.074 A 
ATOM     62  C   UNL A   1      45.588  24.681  30.195  1.00  0.00     0.031 C 
ATOM     63  C   UNL A   1      45.670  26.525  31.850  1.00  0.00     0.034 A 
BRANCH  50  64
ATOM     64  C   UNL A   1      42.686  31.543  33.831  1.00  0.00     0.023 A 
ATOM     65  C   UNL A   1      42.070  31.395  35.085  1.00  0.00     0.031 A 
ATOM     66  C   UNL A   1      43.130  32.821  33.447  1.00  0.00     0.131 A 
ATOM     67  C   UNL A   1      41.867  32.520  35.893  1.00  0.00     0.055 A 
ATOM     68  C   UNL A   1      42.962  33.931  34.274  1.00  0.00     0.041 A 
ATOM     69  F   UNL A   1      43.731  33.006  32.261  1.00  0.00    -0.206 F 
ATOM     70  C   UNL A   1      42.315  33.785  35.497  1.00  0.00     0.022 A 
BRANCH  67  71
ATOM     71  S   UNL A   1      40.973  32.391  37.465  1.00  0.00     0.124 S 
ATOM     72  O   UNL A   1      39.737  31.725  37.058  1.00  0.00    -0.237 OA
ATOM     73  O   UNL A   1      41.885  31.581  38.266  1.00  0.00    -0.237 OA
ATOM     74  O   UNL A   1      40.814  33.778  37.891  1.00  0.00    -0.744 OA
ENDBRANCH  67  71
ENDBRANCH  50  64
BRANCH  51  75
ATOM     75  C   UNL A   1      42.564  23.984  27.278  1.00  0.00     0.023 A 
ATOM     76  C   UNL A   1      41.996  22.732  27.573  1.00  0.00     0.031 A 
ATOM     77  C   UNL A   1      43.206  24.145  26.039  1.00  0.00     0.131 A 
ATOM     78  C   UNL A   1      42.125  21.677  26.662  1.00  0.00     0.055 A 
ATOM     79  C   UNL A   1      43.277  23.109  25.108  1.00  0.00     0.041 A 
ATOM     80  F   UNL A   1      43.774  25.319  25.719  1.00  0.00    -0.206 F 
ATOM     81  C   UNL A   1      42.746  21.862  25.423  1.00  0.00     0.022 A 
BRANCH  78  82
ATOM     82  S   UNL A   1      41.581  20.002  27.096  1.00  0.00     0.124 S 
ATOM     83  O   UNL A   1      40.380  20.264  27.883  1.00  0.00    -0.237 OA
ATOM     84  O   UNL A   1      41.356  19.414  25.778  1.00  0.00    -0.237 OA
ATOM     85  O   UNL A   1      42.711  19.454  27.838  1.00  0.00    -0.744 OA
ENDBRANCH  78  82
ENDBRANCH  51  75
BRANCH  63  86
ATOM     86  C   UNL A   1      46.971  25.988  32.391  1.00  0.00     0.023 A 
ATOM     87  C   UNL A   1      48.170  26.237  31.697  1.00  0.00     0.031 A 
ATOM     88  C   UNL A   1      46.997  25.089  33.470  1.00  0.00     0.131 A 
ATOM     89  C   UNL A   1      49.338  25.555  32.059  1.00  0.00     0.055 A 
ATOM     90  C   UNL A   1      48.173  24.446  33.856  1.00  0.00     0.041 A 
ATOM     91  F   UNL A   1      45.874  24.811  34.153  1.00  0.00    -0.206 F 
ATOM     92  C   UNL A   1      49.347  24.667  33.139  1.00  0.00     0.022 A 
BRANCH  89  93
ATOM     93  S   UNL A   1      50.863  25.735  31.093  1.00  0.00     0.124 S 
ATOM     94  O   UNL A   1      50.392  25.483  29.733  1.00  0.00    -0.237 OA
ATOM     95  O   UNL A   1      51.243  27.116  31.377  1.00  0.00    -0.237 OA
ATOM     96  O   UNL A   1      51.749  24.713  31.639  1.00  0.00    -0.744 OA
ENDBRANCH  89  93
ENDBRANCH  63  86
ENDBRANCH  37  38
ENDBRANCH  29  32
ENDBRANCH  27  28
ENDBRANCH   1  27
TORSDOF 16
ENDMDL
