MODEL 1
REMARK VINA RESULT:     -11.3      0.000      0.000
REMARK SMILES Cc1cc(=O)oc2c(C[N@@H+]3CCC[C@H]3C(=O)NCCCNC(=O)c3ccc(-c4c5nc(c(-c6cc(S(=O)(=O)[O-])ccc6F)c6ccc([nH]6)c(-c6cc(S(=O)(=O)[O-])ccc6F)c6nc(c(-c7cc(S(=O)(=O)[O-])ccc7F)c7ccc4[nH]7)C=C6)C=C5)cc3)c(O)ccc12
REMARK SMILES IDX 19 1 18 2 17 3 15 4 16 5 14 7 10 8 11 9 12 11 13 12 9 13
REMARK SMILES IDX 8 14 1 15 2 16 3 17 91 18 4 19 7 20 90 21 5 22 6 23 89 24
REMARK SMILES IDX 87 25 88 26 20 28 21 29 22 30 23 32 24 33 25 34 86 35 26 36
REMARK SMILES IDX 85 37 27 38 28 39 29 40 79 41 30 42 84 43 78 44 80 45 31 46
REMARK SMILES IDX 83 47 77 48 76 49 32 51 64 52 44 53 63 54 45 55 48 56 62 57
REMARK SMILES IDX 81 58 46 59 47 60 61 62 82 63 49 64 33 65 34 66 42 67 35 68
REMARK SMILES IDX 41 69 43 70 40 71 36 72 37 73 38 74 39 75 65 76 66 77 74 78
REMARK SMILES IDX 67 79 73 80 75 81 72 82 68 83 69 84 70 85 71 86 50 87 51 88
REMARK SMILES IDX 59 89 52 90 58 91 60 92 57 93 53 94 54 95 55 96 56 97
REMARK H PARENT 17 6 10 10 88 27 21 31 80 50 48 61
REMARK Flexibility Score: inf
ROOT
ATOM      1  C   UNL A   1      33.492  33.997  27.850  1.00  0.00     0.042 C 
ENDROOT
BRANCH   1   2
ATOM      2  C   UNL A   1      34.577  35.052  28.080  1.00  0.00     0.118 C 
BRANCH   2   3
ATOM      3  N   UNL A   1      34.061  36.361  28.451  1.00  0.00    -0.351 N 
ATOM      4  C   UNL A   1      33.496  36.791  29.625  1.00  0.00     0.278 C 
ATOM      5  O   UNL A   1      33.236  37.994  29.708  1.00  0.00    -0.268 OA
ATOM      6  H   UNL A   1      34.127  37.046  27.747  1.00  0.00     0.163 HD
BRANCH   4   7
ATOM      7  C   UNL A   1      33.236  35.766  30.762  1.00  0.00     0.274 C 
ATOM      8  N   UNL A   1      34.366  35.741  31.715  1.00  0.00    -0.321 N 
ATOM      9  C   UNL A   1      34.021  36.633  32.817  1.00  0.00     0.263 C 
ATOM     10  H   UNL A   1      35.199  36.096  31.246  1.00  0.00     0.349 HD
ATOM     11  C   UNL A   1      32.519  36.531  32.975  1.00  0.00     0.068 C 
ATOM     12  C   UNL A   1      32.019  36.200  31.585  1.00  0.00     0.081 C 
BRANCH   8  13
ATOM     13  C   UNL A   1      34.900  34.421  32.079  1.00  0.00     0.307 C 
BRANCH  13  14
ATOM     14  C   UNL A   1      36.355  34.332  32.496  1.00  0.00     0.091 A 
ATOM     15  C   UNL A   1      41.174  34.460  30.964  1.00  0.00     0.045 C 
ATOM     16  C   UNL A   1      39.717  34.163  30.762  1.00  0.00    -0.033 A 
ATOM     17  C   UNL A   1      39.271  33.911  29.522  1.00  0.00     0.098 A 
ATOM     18  C   UNL A   1      38.741  34.214  31.865  1.00  0.00     0.021 A 
ATOM     19  C   UNL A   1      37.864  33.645  29.201  1.00  0.00     0.336 A 
ATOM     20  C   UNL A   1      37.378  34.083  31.562  1.00  0.00     0.151 A 
ATOM     21  C   UNL A   1      39.081  34.454  33.200  1.00  0.00     0.016 A 
ATOM     22  O   UNL A   1      37.511  33.403  28.058  1.00  0.00    -0.246 OA
ATOM     23  O   UNL A   1      36.978  33.698  30.261  1.00  0.00    -0.422 OA
ATOM     24  C   UNL A   1      38.093  34.583  34.180  1.00  0.00     0.047 A 
ATOM     25  C   UNL A   1      36.747  34.540  33.823  1.00  0.00     0.128 A 
BRANCH  25  26
ATOM     26  O   UNL A   1      35.792  34.708  34.786  1.00  0.00    -0.507 OA
ATOM     27  H   UNL A   1      35.197  35.430  34.735  1.00  0.00     0.293 HD
ENDBRANCH  25  26
ENDBRANCH  13  14
ENDBRANCH   8  13
ENDBRANCH   4   7
ENDBRANCH   2   3
ENDBRANCH   1   2
BRANCH   1  28
ATOM     28  C   UNL A   1      33.793  32.628  28.448  1.00  0.00     0.118 C 
BRANCH  28  29
ATOM     29  N   UNL A   1      33.375  31.548  27.572  1.00  0.00    -0.352 N 
ATOM     30  C   UNL A   1      34.070  30.443  27.141  1.00  0.00     0.251 C 
ATOM     31  H   UNL A   1      32.454  31.619  27.234  1.00  0.00     0.163 HD
ATOM     32  O   UNL A   1      33.614  29.791  26.204  1.00  0.00    -0.269 OA
BRANCH  30  33
ATOM     33  C   UNL A   1      35.353  30.044  27.771  1.00  0.00     0.039 A 
ATOM     34  C   UNL A   1      35.324  29.495  29.057  1.00  0.00     0.014 A 
ATOM     35  C   UNL A   1      36.583  30.258  27.142  1.00  0.00     0.014 A 
ATOM     36  C   UNL A   1      36.516  29.125  29.689  1.00  0.00     0.010 A 
ATOM     37  C   UNL A   1      37.765  29.820  27.742  1.00  0.00     0.010 A 
ATOM     38  C   UNL A   1      37.747  29.261  29.029  1.00  0.00    -0.014 A 
BRANCH  38  39
ATOM     39  C   UNL A   1      39.020  28.849  29.683  1.00  0.00     0.031 A 
ATOM     40  C   UNL A   1      39.442  29.477  30.987  1.00  0.00     0.074 A 
ATOM     41  C   UNL A   1      39.816  27.938  29.089  1.00  0.00     0.049 A 
ATOM     42  N   UNL A   1      40.532  29.286  31.686  1.00  0.00    -0.248 NA
ATOM     43  C   UNL A   1      38.527  30.471  31.566  1.00  0.00     0.031 C 
ATOM     44  C   UNL A   1      39.537  27.284  27.808  1.00  0.00     0.029 A 
ATOM     45  N   UNL A   1      41.021  27.406  29.475  1.00  0.00    -0.354 N 
ATOM     46  C   UNL A   1      40.442  30.144  32.777  1.00  0.00     0.074 A 
ATOM     47  C   UNL A   1      39.219  30.900  32.612  1.00  0.00     0.031 C 
ATOM     48  C   UNL A   1      40.528  26.422  27.529  1.00  0.00     0.029 A 
ATOM     49  C   UNL A   1      41.534  26.491  28.584  1.00  0.00     0.049 A 
ATOM     50  H   UNL A   1      41.476  27.657  30.311  1.00  0.00     0.167 HD
ATOM     51  C   UNL A   1      41.288  30.275  33.831  1.00  0.00     0.034 A 
ATOM     52  C   UNL A   1      42.687  25.792  28.610  1.00  0.00     0.034 A 
ATOM     53  C   UNL A   1      42.498  29.505  33.989  1.00  0.00     0.049 A 
ATOM     54  C   UNL A   1      43.619  25.963  29.783  1.00  0.00     0.074 A 
ATOM     55  C   UNL A   1      43.401  29.522  35.039  1.00  0.00     0.029 A 
ATOM     56  N   UNL A   1      42.981  28.583  33.069  1.00  0.00    -0.354 N 
ATOM     57  N   UNL A   1      43.494  26.746  30.830  1.00  0.00    -0.248 NA
ATOM     58  C   UNL A   1      44.837  25.145  29.785  1.00  0.00     0.031 C 
ATOM     59  C   UNL A   1      44.460  28.663  34.724  1.00  0.00     0.029 A 
ATOM     60  C   UNL A   1      44.180  28.046  33.514  1.00  0.00     0.049 A 
ATOM     61  H   UNL A   1      42.537  28.345  32.223  1.00  0.00     0.167 HD
ATOM     62  C   UNL A   1      44.602  26.485  31.632  1.00  0.00     0.074 A 
ATOM     63  C   UNL A   1      45.374  25.465  30.953  1.00  0.00     0.031 C 
ATOM     64  C   UNL A   1      44.945  27.033  32.826  1.00  0.00     0.034 A 
BRANCH  51  65
ATOM     65  C   UNL A   1      40.938  31.307  34.879  1.00  0.00     0.023 A 
ATOM     66  C   UNL A   1      39.878  31.114  35.783  1.00  0.00     0.031 A 
ATOM     67  C   UNL A   1      41.658  32.513  34.962  1.00  0.00     0.131 A 
ATOM     68  C   UNL A   1      39.516  32.139  36.671  1.00  0.00     0.055 A 
ATOM     69  C   UNL A   1      41.347  33.494  35.906  1.00  0.00     0.041 A 
ATOM     70  F   UNL A   1      42.669  32.764  34.115  1.00  0.00    -0.206 F 
ATOM     71  C   UNL A   1      40.260  33.317  36.757  1.00  0.00     0.022 A 
BRANCH  68  72
ATOM     72  S   UNL A   1      37.972  31.969  37.606  1.00  0.00     0.124 S 
ATOM     73  O   UNL A   1      37.622  30.574  37.347  1.00  0.00    -0.237 OA
ATOM     74  O   UNL A   1      38.391  32.281  38.968  1.00  0.00    -0.237 OA
ATOM     75  O   UNL A   1      37.085  32.951  36.985  1.00  0.00    -0.744 OA
ENDBRANCH  68  72
ENDBRANCH  51  65
BRANCH  52  76
ATOM     76  C   UNL A   1      43.033  24.868  27.491  1.00  0.00     0.023 A 
ATOM     77  C   UNL A   1      42.430  23.605  27.381  1.00  0.00     0.031 A 
ATOM     78  C   UNL A   1      44.005  25.220  26.536  1.00  0.00     0.131 A 
ATOM     79  C   UNL A   1      42.836  22.720  26.369  1.00  0.00     0.055 A 
ATOM     80  C   UNL A   1      44.366  24.357  25.501  1.00  0.00     0.041 A 
ATOM     81  F   UNL A   1      44.608  26.417  26.591  1.00  0.00    -0.206 F 
ATOM     82  C   UNL A   1      43.791  23.093  25.421  1.00  0.00     0.022 A 
BRANCH  79  83
ATOM     83  S   UNL A   1      42.157  21.038  26.362  1.00  0.00     0.124 S 
ATOM     84  O   UNL A   1      42.383  20.621  27.740  1.00  0.00    -0.237 OA
ATOM     85  O   UNL A   1      40.768  21.276  25.980  1.00  0.00    -0.237 OA
ATOM     86  O   UNL A   1      42.967  20.350  25.359  1.00  0.00    -0.744 OA
ENDBRANCH  79  83
ENDBRANCH  52  76
BRANCH  64  87
ATOM     87  C   UNL A   1      46.186  26.493  33.498  1.00  0.00     0.023 A 
ATOM     88  C   UNL A   1      46.149  25.360  34.329  1.00  0.00     0.031 A 
ATOM     89  C   UNL A   1      47.422  27.137  33.311  1.00  0.00     0.131 A 
ATOM     90  C   UNL A   1      47.314  24.942  34.991  1.00  0.00     0.055 A 
ATOM     91  C   UNL A   1      48.590  26.678  33.922  1.00  0.00     0.041 A 
ATOM     92  F   UNL A   1      47.516  28.225  32.530  1.00  0.00    -0.206 F 
ATOM     93  C   UNL A   1      48.537  25.584  34.779  1.00  0.00     0.022 A 
BRANCH  90  94
ATOM     94  S   UNL A   1      47.191  23.605  36.211  1.00  0.00     0.124 S 
ATOM     95  O   UNL A   1      48.310  23.900  37.099  1.00  0.00    -0.237 OA
ATOM     96  O   UNL A   1      45.860  23.814  36.769  1.00  0.00    -0.237 OA
ATOM     97  O   UNL A   1      47.341  22.392  35.406  1.00  0.00    -0.744 OA
ENDBRANCH  90  94
ENDBRANCH  64  87
ENDBRANCH  38  39
ENDBRANCH  30  33
ENDBRANCH  28  29
ENDBRANCH   1  28
TORSDOF 16
ENDMDL
MODEL 2
REMARK VINA RESULT:     -11.2      5.162     11.267
REMARK SMILES Cc1cc(=O)oc2c(C[N@@H+]3CCC[C@H]3C(=O)NCCCNC(=O)c3ccc(-c4c5nc(c(-c6cc(S(=O)(=O)[O-])ccc6F)c6ccc([nH]6)c(-c6cc(S(=O)(=O)[O-])ccc6F)c6nc(c(-c7cc(S(=O)(=O)[O-])ccc7F)c7ccc4[nH]7)C=C6)C=C5)cc3)c(O)ccc12
REMARK SMILES IDX 19 1 18 2 17 3 15 4 16 5 14 7 10 8 11 9 12 11 13 12 9 13
REMARK SMILES IDX 8 14 1 15 2 16 3 17 91 18 4 19 7 20 90 21 5 22 6 23 89 24
REMARK SMILES IDX 87 25 88 26 20 28 21 29 22 30 23 32 24 33 25 34 86 35 26 36
REMARK SMILES IDX 85 37 27 38 28 39 29 40 79 41 30 42 84 43 78 44 80 45 31 46
REMARK SMILES IDX 83 47 77 48 76 49 32 51 64 52 44 53 63 54 45 55 48 56 62 57
REMARK SMILES IDX 81 58 46 59 47 60 61 62 82 63 49 64 33 65 34 66 42 67 35 68
REMARK SMILES IDX 41 69 43 70 40 71 36 72 37 73 38 74 39 75 65 76 66 77 74 78
REMARK SMILES IDX 67 79 73 80 75 81 72 82 68 83 69 84 70 85 71 86 50 87 51 88
REMARK SMILES IDX 59 89 52 90 58 91 60 92 57 93 53 94 54 95 55 96 56 97
REMARK H PARENT 17 6 10 10 88 27 21 31 80 50 48 61
REMARK Flexibility Score: inf
ROOT
ATOM      1  C   UNL A   1      36.080  21.871  24.465  1.00  0.00     0.042 C 
ENDROOT
BRANCH   1   2
ATOM      2  C   UNL A   1      35.865  23.052  23.515  1.00  0.00     0.118 C 
BRANCH   2   3
ATOM      3  N   UNL A   1      34.480  23.242  23.112  1.00  0.00    -0.351 N 
ATOM      4  C   UNL A   1      33.452  23.890  23.750  1.00  0.00     0.278 C 
ATOM      5  O   UNL A   1      32.391  23.993  23.131  1.00  0.00    -0.268 OA
ATOM      6  H   UNL A   1      34.243  22.843  22.244  1.00  0.00     0.163 HD
BRANCH   4   7
ATOM      7  C   UNL A   1      33.683  24.456  25.178  1.00  0.00     0.274 C 
ATOM      8  N   UNL A   1      32.832  25.640  25.417  1.00  0.00    -0.321 N 
ATOM      9  C   UNL A   1      31.627  25.177  26.095  1.00  0.00     0.263 C 
ATOM     10  H   UNL A   1      32.575  26.046  24.518  1.00  0.00     0.349 HD
ATOM     11  C   UNL A   1      32.061  24.012  26.959  1.00  0.00     0.068 C 
ATOM     12  C   UNL A   1      33.246  23.424  26.223  1.00  0.00     0.081 C 
BRANCH   8  13
ATOM     13  C   UNL A   1      33.490  26.828  25.982  1.00  0.00     0.307 C 
BRANCH  13  14
ATOM     14  C   UNL A   1      32.778  28.162  25.856  1.00  0.00     0.091 A 
ATOM     15  C   UNL A   1      29.123  30.766  23.524  1.00  0.00     0.045 C 
ATOM     16  C   UNL A   1      30.177  29.699  23.575  1.00  0.00    -0.033 A 
ATOM     17  C   UNL A   1      30.203  28.765  22.612  1.00  0.00     0.098 A 
ATOM     18  C   UNL A   1      31.139  29.593  24.686  1.00  0.00     0.021 A 
ATOM     19  C   UNL A   1      31.163  27.655  22.580  1.00  0.00     0.336 A 
ATOM     20  C   UNL A   1      31.983  28.474  24.738  1.00  0.00     0.151 A 
ATOM     21  C   UNL A   1      31.221  30.508  25.740  1.00  0.00     0.016 A 
ATOM     22  O   UNL A   1      31.157  26.840  21.671  1.00  0.00    -0.246 OA
ATOM     23  O   UNL A   1      32.051  27.589  23.636  1.00  0.00    -0.422 OA
ATOM     24  C   UNL A   1      32.095  30.293  26.810  1.00  0.00     0.047 A 
ATOM     25  C   UNL A   1      32.849  29.123  26.871  1.00  0.00     0.128 A 
BRANCH  25  26
ATOM     26  O   UNL A   1      33.667  28.907  27.944  1.00  0.00    -0.507 OA
ATOM     27  H   UNL A   1      34.180  29.609  28.291  1.00  0.00     0.293 HD
ENDBRANCH  25  26
ENDBRANCH  13  14
ENDBRANCH   8  13
ENDBRANCH   4   7
ENDBRANCH   2   3
ENDBRANCH   1   2
BRANCH   1  28
ATOM     28  C   UNL A   1      36.852  22.204  25.736  1.00  0.00     0.118 C 
BRANCH  28  29
ATOM     29  N   UNL A   1      37.912  21.246  25.996  1.00  0.00    -0.352 N 
ATOM     30  C   UNL A   1      39.238  21.456  26.289  1.00  0.00     0.251 C 
ATOM     31  H   UNL A   1      37.639  20.302  25.955  1.00  0.00     0.163 HD
ATOM     32  O   UNL A   1      40.012  20.504  26.222  1.00  0.00    -0.269 OA
BRANCH  30  33
ATOM     33  C   UNL A   1      39.743  22.801  26.660  1.00  0.00     0.039 A 
ATOM     34  C   UNL A   1      40.661  22.904  27.711  1.00  0.00     0.014 A 
ATOM     35  C   UNL A   1      39.282  23.963  26.034  1.00  0.00     0.014 A 
ATOM     36  C   UNL A   1      41.144  24.157  28.102  1.00  0.00     0.010 A 
ATOM     37  C   UNL A   1      39.821  25.206  26.374  1.00  0.00     0.010 A 
ATOM     38  C   UNL A   1      40.748  25.319  27.422  1.00  0.00    -0.014 A 
BRANCH  38  39
ATOM     39  C   UNL A   1      41.273  26.656  27.814  1.00  0.00     0.031 A 
ATOM     40  C   UNL A   1      42.702  27.029  27.511  1.00  0.00     0.074 A 
ATOM     41  C   UNL A   1      40.480  27.522  28.475  1.00  0.00     0.049 A 
ATOM     42  N   UNL A   1      43.356  28.122  27.811  1.00  0.00    -0.248 NA
ATOM     43  C   UNL A   1      43.508  26.027  26.799  1.00  0.00     0.031 C 
ATOM     44  C   UNL A   1      39.090  27.266  28.860  1.00  0.00     0.029 A 
ATOM     45  N   UNL A   1      40.724  28.788  28.946  1.00  0.00    -0.354 N 
ATOM     46  C   UNL A   1      44.652  27.935  27.339  1.00  0.00     0.074 A 
ATOM     47  C   UNL A   1      44.703  26.598  26.789  1.00  0.00     0.031 C 
ATOM     48  C   UNL A   1      38.598  28.349  29.482  1.00  0.00     0.029 A 
ATOM     49  C   UNL A   1      39.646  29.361  29.582  1.00  0.00     0.049 A 
ATOM     50  H   UNL A   1      41.590  29.245  28.838  1.00  0.00     0.167 HD
ATOM     51  C   UNL A   1      45.694  28.804  27.343  1.00  0.00     0.034 A 
ATOM     52  C   UNL A   1      39.517  30.559  30.186  1.00  0.00     0.034 A 
ATOM     53  C   UNL A   1      45.624  30.140  27.884  1.00  0.00     0.049 A 
ATOM     54  C   UNL A   1      40.694  31.504  30.191  1.00  0.00     0.074 A 
ATOM     55  C   UNL A   1      46.603  31.119  27.897  1.00  0.00     0.029 A 
ATOM     56  N   UNL A   1      44.513  30.686  28.516  1.00  0.00    -0.354 N 
ATOM     57  N   UNL A   1      41.898  31.327  29.699  1.00  0.00    -0.248 NA
ATOM     58  C   UNL A   1      40.486  32.814  30.819  1.00  0.00     0.031 C 
ATOM     59  C   UNL A   1      46.109  32.228  28.592  1.00  0.00     0.029 A 
ATOM     60  C   UNL A   1      44.792  31.975  28.944  1.00  0.00     0.049 A 
ATOM     61  H   UNL A   1      43.652  30.224  28.641  1.00  0.00     0.167 HD
ATOM     62  C   UNL A   1      42.579  32.520  29.926  1.00  0.00     0.074 A 
ATOM     63  C   UNL A   1      41.647  33.410  30.588  1.00  0.00     0.031 C 
ATOM     64  C   UNL A   1      43.856  32.852  29.609  1.00  0.00     0.034 A 
BRANCH  51  65
ATOM     65  C   UNL A   1      47.004  28.321  26.763  1.00  0.00     0.023 A 
ATOM     66  C   UNL A   1      47.233  28.289  25.376  1.00  0.00     0.031 A 
ATOM     67  C   UNL A   1      48.032  27.861  27.607  1.00  0.00     0.131 A 
ATOM     68  C   UNL A   1      48.420  27.735  24.872  1.00  0.00     0.055 A 
ATOM     69  C   UNL A   1      49.246  27.390  27.102  1.00  0.00     0.041 A 
ATOM     70  F   UNL A   1      47.868  27.849  28.940  1.00  0.00    -0.206 F 
ATOM     71  C   UNL A   1      49.439  27.309  25.726  1.00  0.00     0.022 A 
BRANCH  68  72
ATOM     72  S   UNL A   1      48.549  27.442  23.087  1.00  0.00     0.124 S 
ATOM     73  O   UNL A   1      47.424  28.225  22.578  1.00  0.00    -0.237 OA
ATOM     74  O   UNL A   1      49.878  27.958  22.777  1.00  0.00    -0.237 OA
ATOM     75  O   UNL A   1      48.395  25.994  22.964  1.00  0.00    -0.744 OA
ENDBRANCH  68  72
ENDBRANCH  51  65
BRANCH  52  76
ATOM     76  C   UNL A   1      38.232  30.940  30.840  1.00  0.00     0.023 A 
ATOM     77  C   UNL A   1      37.251  31.663  30.143  1.00  0.00     0.031 A 
ATOM     78  C   UNL A   1      37.983  30.621  32.187  1.00  0.00     0.131 A 
ATOM     79  C   UNL A   1      36.088  32.085  30.807  1.00  0.00     0.055 A 
ATOM     80  C   UNL A   1      36.801  30.996  32.827  1.00  0.00     0.041 A 
ATOM     81  F   UNL A   1      38.884  29.926  32.898  1.00  0.00    -0.206 F 
ATOM     82  C   UNL A   1      35.851  31.744  32.140  1.00  0.00     0.022 A 
BRANCH  79  83
ATOM     83  S   UNL A   1      34.923  33.159  29.923  1.00  0.00     0.124 S 
ATOM     84  O   UNL A   1      35.827  34.082  29.246  1.00  0.00    -0.237 OA
ATOM     85  O   UNL A   1      34.221  32.205  29.071  1.00  0.00    -0.237 OA
ATOM     86  O   UNL A   1      34.121  33.743  30.995  1.00  0.00    -0.744 OA
ENDBRANCH  79  83
ENDBRANCH  52  76
BRANCH  64  87
ATOM     87  C   UNL A   1      44.299  34.261  29.927  1.00  0.00     0.023 A 
ATOM     88  C   UNL A   1      44.136  35.317  29.013  1.00  0.00     0.031 A 
ATOM     89  C   UNL A   1      44.906  34.545  31.163  1.00  0.00     0.131 A 
ATOM     90  C   UNL A   1      44.631  36.592  29.324  1.00  0.00     0.055 A 
ATOM     91  C   UNL A   1      45.339  35.830  31.493  1.00  0.00     0.041 A 
ATOM     92  F   UNL A   1      45.090  33.575  32.074  1.00  0.00    -0.206 F 
ATOM     93  C   UNL A   1      45.216  36.859  30.565  1.00  0.00     0.022 A 
BRANCH  90  94
ATOM     94  S   UNL A   1      44.588  37.879  28.046  1.00  0.00     0.124 S 
ATOM     95  O   UNL A   1      44.340  39.082  28.834  1.00  0.00    -0.237 OA
ATOM     96  O   UNL A   1      45.914  37.770  27.448  1.00  0.00    -0.237 OA
ATOM     97  O   UNL A   1      43.483  37.467  27.181  1.00  0.00    -0.744 OA
ENDBRANCH  90  94
ENDBRANCH  64  87
ENDBRANCH  38  39
ENDBRANCH  30  33
ENDBRANCH  28  29
ENDBRANCH   1  28
TORSDOF 16
ENDMDL
MODEL 3
REMARK VINA RESULT:     -11.2      3.641      7.191
REMARK SMILES Cc1cc(=O)oc2c(C[N@@H+]3CCC[C@H]3C(=O)NCCCNC(=O)c3ccc(-c4c5nc(c(-c6cc(S(=O)(=O)[O-])ccc6F)c6ccc([nH]6)c(-c6cc(S(=O)(=O)[O-])ccc6F)c6nc(c(-c7cc(S(=O)(=O)[O-])ccc7F)c7ccc4[nH]7)C=C6)C=C5)cc3)c(O)ccc12
REMARK SMILES IDX 19 1 18 2 17 3 15 4 16 5 14 7 10 8 11 9 12 11 13 12 9 13
REMARK SMILES IDX 8 14 1 15 2 16 3 17 91 18 4 19 7 20 90 21 5 22 6 23 89 24
REMARK SMILES IDX 87 25 88 26 20 28 21 29 22 30 23 32 24 33 25 34 86 35 26 36
REMARK SMILES IDX 85 37 27 38 28 39 29 40 79 41 30 42 84 43 78 44 80 45 31 46
REMARK SMILES IDX 83 47 77 48 76 49 32 51 64 52 44 53 63 54 45 55 48 56 62 57
REMARK SMILES IDX 81 58 46 59 47 60 61 62 82 63 49 64 33 65 34 66 42 67 35 68
REMARK SMILES IDX 41 69 43 70 40 71 36 72 37 73 38 74 39 75 65 76 66 77 74 78
REMARK SMILES IDX 67 79 73 80 75 81 72 82 68 83 69 84 70 85 71 86 50 87 51 88
REMARK SMILES IDX 59 89 52 90 58 91 60 92 57 93 53 94 54 95 55 96 56 97
REMARK H PARENT 17 6 10 10 88 27 21 31 80 50 48 61
REMARK Flexibility Score: inf
ROOT
ATOM      1  C   UNL A   1      31.777  29.227  26.980  1.00  0.00     0.042 C 
ENDROOT
BRANCH   1   2
ATOM      2  C   UNL A   1      31.963  27.808  27.523  1.00  0.00     0.118 C 
BRANCH   2   3
ATOM      3  N   UNL A   1      31.301  26.781  26.734  1.00  0.00    -0.351 N 
ATOM      4  C   UNL A   1      31.802  25.950  25.762  1.00  0.00     0.278 C 
ATOM      5  O   UNL A   1      31.037  25.089  25.320  1.00  0.00    -0.268 OA
ATOM      6  H   UNL A   1      30.343  26.663  26.926  1.00  0.00     0.163 HD
BRANCH   4   7
ATOM      7  C   UNL A   1      33.272  26.128  25.297  1.00  0.00     0.274 C 
ATOM      8  N   UNL A   1      33.842  24.838  24.854  1.00  0.00    -0.321 N 
ATOM      9  C   UNL A   1      33.683  24.769  23.406  1.00  0.00     0.263 C 
ATOM     10  H   UNL A   1      33.313  24.080  25.285  1.00  0.00     0.349 HD
ATOM     11  C   UNL A   1      33.812  26.193  22.909  1.00  0.00     0.068 C 
ATOM     12  C   UNL A   1      33.321  27.038  24.065  1.00  0.00     0.081 C 
BRANCH   8  13
ATOM     13  C   UNL A   1      35.164  24.476  25.389  1.00  0.00     0.307 C 
BRANCH  13  14
ATOM     14  C   UNL A   1      35.594  23.025  25.300  1.00  0.00     0.091 A 
ATOM     15  C   UNL A   1      34.148  18.268  24.368  1.00  0.00     0.045 C 
ATOM     16  C   UNL A   1      33.903  19.667  24.854  1.00  0.00    -0.033 A 
ATOM     17  C   UNL A   1      32.641  20.067  25.072  1.00  0.00     0.098 A 
ATOM     18  C   UNL A   1      34.992  20.644  25.028  1.00  0.00     0.021 A 
ATOM     19  C   UNL A   1      32.280  21.420  25.510  1.00  0.00     0.336 A 
ATOM     20  C   UNL A   1      34.659  21.973  25.328  1.00  0.00     0.151 A 
ATOM     21  C   UNL A   1      36.346  20.347  24.844  1.00  0.00     0.016 A 
ATOM     22  O   UNL A   1      31.117  21.731  25.713  1.00  0.00    -0.246 OA
ATOM     23  O   UNL A   1      33.327  22.308  25.665  1.00  0.00    -0.422 OA
ATOM     24  C   UNL A   1      37.318  21.348  24.933  1.00  0.00     0.047 A 
ATOM     25  C   UNL A   1      36.939  22.673  25.141  1.00  0.00     0.128 A 
BRANCH  25  26
ATOM     26  O   UNL A   1      37.897  23.646  25.184  1.00  0.00    -0.507 OA
ATOM     27  H   UNL A   1      38.391  23.852  24.416  1.00  0.00     0.293 HD
ENDBRANCH  25  26
ENDBRANCH  13  14
ENDBRANCH   8  13
ENDBRANCH   4   7
ENDBRANCH   2   3
ENDBRANCH   1   2
BRANCH   1  28
ATOM     28  C   UNL A   1      33.053  29.895  26.482  1.00  0.00     0.118 C 
BRANCH  28  29
ATOM     29  N   UNL A   1      33.054  31.324  26.736  1.00  0.00    -0.352 N 
ATOM     30  C   UNL A   1      33.838  32.069  27.584  1.00  0.00     0.251 C 
ATOM     31  H   UNL A   1      32.391  31.838  26.221  1.00  0.00     0.163 HD
ATOM     32  O   UNL A   1      33.502  33.225  27.830  1.00  0.00    -0.269 OA
BRANCH  30  33
ATOM     33  C   UNL A   1      35.055  31.498  28.212  1.00  0.00     0.039 A 
ATOM     34  C   UNL A   1      36.232  32.253  28.196  1.00  0.00     0.014 A 
ATOM     35  C   UNL A   1      35.071  30.211  28.758  1.00  0.00     0.014 A 
ATOM     36  C   UNL A   1      37.404  31.738  28.761  1.00  0.00     0.010 A 
ATOM     37  C   UNL A   1      36.220  29.729  29.389  1.00  0.00     0.010 A 
ATOM     38  C   UNL A   1      37.405  30.481  29.385  1.00  0.00    -0.014 A 
BRANCH  38  39
ATOM     39  C   UNL A   1      38.640  29.934  30.010  1.00  0.00     0.031 A 
ATOM     40  C   UNL A   1      39.078  30.412  31.371  1.00  0.00     0.074 A 
ATOM     41  C   UNL A   1      39.389  29.035  29.342  1.00  0.00     0.049 A 
ATOM     42  N   UNL A   1      40.144  30.092  32.060  1.00  0.00    -0.248 NA
ATOM     43  C   UNL A   1      38.215  31.402  32.031  1.00  0.00     0.031 C 
ATOM     44  C   UNL A   1      39.093  28.520  28.003  1.00  0.00     0.029 A 
ATOM     45  N   UNL A   1      40.555  28.398  29.689  1.00  0.00    -0.354 N 
ATOM     46  C   UNL A   1      40.088  30.849  33.226  1.00  0.00     0.074 A 
ATOM     47  C   UNL A   1      38.914  31.689  33.119  1.00  0.00     0.031 C 
ATOM     48  C   UNL A   1      40.034  27.629  27.655  1.00  0.00     0.029 A 
ATOM     49  C   UNL A   1      41.026  27.538  28.722  1.00  0.00     0.049 A 
ATOM     50  H   UNL A   1      41.010  28.542  30.550  1.00  0.00     0.167 HD
ATOM     51  C   UNL A   1      40.923  30.829  34.296  1.00  0.00     0.034 A 
ATOM     52  C   UNL A   1      42.134  26.771  28.694  1.00  0.00     0.034 A 
ATOM     53  C   UNL A   1      42.082  29.976  34.394  1.00  0.00     0.049 A 
ATOM     54  C   UNL A   1      43.056  26.776  29.888  1.00  0.00     0.074 A 
ATOM     55  C   UNL A   1      42.968  29.841  35.450  1.00  0.00     0.029 A 
ATOM     56  N   UNL A   1      42.524  29.115  33.396  1.00  0.00    -0.354 N 
ATOM     57  N   UNL A   1      42.962  27.466  31.002  1.00  0.00    -0.248 NA
ATOM     58  C   UNL A   1      44.223  25.889  29.826  1.00  0.00     0.031 C 
ATOM     59  C   UNL A   1      43.978  28.952  35.067  1.00  0.00     0.029 A 
ATOM     60  C   UNL A   1      43.682  28.467  33.803  1.00  0.00     0.049 A 
ATOM     61  H   UNL A   1      42.080  28.984  32.528  1.00  0.00     0.167 HD
ATOM     62  C   UNL A   1      44.039  27.064  31.788  1.00  0.00     0.074 A 
ATOM     63  C   UNL A   1      44.760  26.066  31.024  1.00  0.00     0.031 C 
ATOM     64  C   UNL A   1      44.396  27.477  33.030  1.00  0.00     0.034 A 
BRANCH  51  65
ATOM     65  C   UNL A   1      40.619  31.780  35.432  1.00  0.00     0.023 A 
ATOM     66  C   UNL A   1      39.491  31.612  36.255  1.00  0.00     0.031 A 
ATOM     67  C   UNL A   1      41.454  32.884  35.682  1.00  0.00     0.131 A 
ATOM     68  C   UNL A   1      39.184  32.573  37.231  1.00  0.00     0.055 A 
ATOM     69  C   UNL A   1      41.190  33.791  36.712  1.00  0.00     0.041 A 
ATOM     70  F   UNL A   1      42.536  33.109  34.920  1.00  0.00    -0.206 F 
ATOM     71  C   UNL A   1      40.040  33.647  37.482  1.00  0.00     0.022 A 
BRANCH  68  72
ATOM     72  S   UNL A   1      37.576  32.479  38.064  1.00  0.00     0.124 S 
ATOM     73  O   UNL A   1      37.815  33.286  39.258  1.00  0.00    -0.237 OA
ATOM     74  O   UNL A   1      36.673  33.054  37.073  1.00  0.00    -0.237 OA
ATOM     75  O   UNL A   1      37.401  31.050  38.313  1.00  0.00    -0.744 OA
ENDBRANCH  68  72
ENDBRANCH  51  65
BRANCH  52  76
ATOM     76  C   UNL A   1      42.443  25.935  27.498  1.00  0.00     0.023 A 
ATOM     77  C   UNL A   1      42.001  24.605  27.410  1.00  0.00     0.031 A 
ATOM     78  C   UNL A   1      43.219  26.443  26.441  1.00  0.00     0.131 A 
ATOM     79  C   UNL A   1      42.378  23.813  26.314  1.00  0.00     0.055 A 
ATOM     80  C   UNL A   1      43.546  25.668  25.328  1.00  0.00     0.041 A 
ATOM     81  F   UNL A   1      43.662  27.710  26.470  1.00  0.00    -0.206 F 
ATOM     82  C   UNL A   1      43.136  24.340  25.266  1.00  0.00     0.022 A 
BRANCH  79  83
ATOM     83  S   UNL A   1      41.932  22.055  26.318  1.00  0.00     0.124 S 
ATOM     84  O   UNL A   1      40.504  22.110  26.029  1.00  0.00    -0.237 OA
ATOM     85  O   UNL A   1      42.783  21.525  25.258  1.00  0.00    -0.237 OA
ATOM     86  O   UNL A   1      42.279  21.620  27.669  1.00  0.00    -0.744 OA
ENDBRANCH  79  83
ENDBRANCH  52  76
BRANCH  64  87
ATOM     87  C   UNL A   1      45.591  26.804  33.662  1.00  0.00     0.023 A 
ATOM     88  C   UNL A   1      45.468  25.623  34.415  1.00  0.00     0.031 A 
ATOM     89  C   UNL A   1      46.873  27.365  33.516  1.00  0.00     0.131 A 
ATOM     90  C   UNL A   1      46.597  25.076  35.045  1.00  0.00     0.055 A 
ATOM     91  C   UNL A   1      48.001  26.781  34.093  1.00  0.00     0.041 A 
ATOM     92  F   UNL A   1      47.049  28.493  32.810  1.00  0.00    -0.206 F 
ATOM     93  C   UNL A   1      47.865  25.638  34.874  1.00  0.00     0.022 A 
BRANCH  90  94
ATOM     94  S   UNL A   1      46.372  23.673  36.172  1.00  0.00     0.124 S 
ATOM     95  O   UNL A   1      47.241  24.035  37.286  1.00  0.00    -0.237 OA
ATOM     96  O   UNL A   1      44.939  23.716  36.441  1.00  0.00    -0.237 OA
ATOM     97  O   UNL A   1      46.820  22.525  35.384  1.00  0.00    -0.744 OA
ENDBRANCH  90  94
ENDBRANCH  64  87
ENDBRANCH  38  39
ENDBRANCH  30  33
ENDBRANCH  28  29
ENDBRANCH   1  28
TORSDOF 16
ENDMDL
