MODEL 1
REMARK VINA RESULT:     -11.2      0.000      0.000
REMARK SMILES N#CCNC(=O)Cn1ccc(C(=O)NCCCNC(=O)c2ccc(-c3c4nc(c(-c5cc(S(=O)(=O)[O-])ccc5F)c5ccc([nH]5)c(-c5cc(S(=O)(=O)[O-])ccc5F)c5nc(c(-c6cc(S(=O)(=O)[O-])ccc6F)c6ccc3[nH]6)C=C5)C=C4)cc2)c1
REMARK SMILES IDX 15 1 14 2 12 3 13 4 11 6 8 7 9 8 84 9 10 10 7 11 5 12 4 13
REMARK SMILES IDX 6 15 3 16 2 17 1 18 16 19 17 20 18 21 19 22 20 24 21 25
REMARK SMILES IDX 22 26 83 27 23 28 82 29 24 30 25 31 26 32 76 33 27 34 81 35
REMARK SMILES IDX 75 36 77 37 28 38 80 39 74 40 73 41 29 43 61 44 41 45 60 46
REMARK SMILES IDX 42 47 45 48 59 49 78 50 43 51 44 52 58 54 79 55 46 56 30 57
REMARK SMILES IDX 31 58 39 59 32 60 38 61 40 62 37 63 33 64 34 65 35 66 36 67
REMARK SMILES IDX 62 68 63 69 71 70 64 71 70 72 72 73 69 74 65 75 66 76 67 77
REMARK SMILES IDX 68 78 47 79 48 80 56 81 49 82 55 83 57 84 54 85 50 86 51 87
REMARK SMILES IDX 52 88 53 89
REMARK H PARENT 14 5 4 14 18 23 77 42 45 53
REMARK Flexibility Score: inf
ROOT
ATOM      1  C   UNL A   1      32.646  29.332  26.499  1.00  0.00     0.118 C 
ENDROOT
BRANCH   1   2
ATOM      2  N   UNL A   1      31.753  29.534  25.379  1.00  0.00    -0.352 N 
ATOM      3  C   UNL A   1      31.130  28.633  24.544  1.00  0.00     0.252 C 
ATOM      4  O   UNL A   1      30.284  29.061  23.770  1.00  0.00    -0.269 OA
ATOM      5  H   UNL A   1      31.559  30.477  25.179  1.00  0.00     0.163 HD
BRANCH   3   6
ATOM      6  C   UNL A   1      31.423  27.203  24.633  1.00  0.00     0.057 A 
ATOM      7  N   UNL A   1      31.255  24.989  24.872  1.00  0.00    -0.344 N 
ATOM      8  C   UNL A   1      32.467  25.207  24.284  1.00  0.00     0.087 A 
ATOM      9  C   UNL A   1      30.713  26.190  25.257  1.00  0.00     0.100 A 
ATOM     10  C   UNL A   1      32.592  26.567  24.106  1.00  0.00     0.033 A 
BRANCH   7  11
ATOM     11  C   UNL A   1      30.594  23.701  24.998  1.00  0.00     0.221 C 
BRANCH  11  12
ATOM     12  C   UNL A   1      31.005  22.964  26.260  1.00  0.00     0.240 C 
ATOM     13  N   UNL A   1      31.684  21.780  26.208  1.00  0.00    -0.341 N 
ATOM     14  H   UNL A   1      31.863  21.368  27.083  1.00  0.00     0.164 HD
ATOM     15  O   UNL A   1      30.680  23.385  27.373  1.00  0.00    -0.273 OA
BRANCH  13  16
ATOM     16  C   UNL A   1      32.187  21.028  25.063  1.00  0.00     0.236 C 
BRANCH  16  17
ATOM     17  C   UNL A   1      33.535  21.554  24.597  1.00  0.00     0.084 C 
ATOM     18  N   UNL A   1      34.652  21.991  24.209  1.00  0.00    -0.196 NA
ENDBRANCH  16  17
ENDBRANCH  13  16
ENDBRANCH  11  12
ENDBRANCH   7  11
ENDBRANCH   3   6
ENDBRANCH   1   2
BRANCH   1  19
ATOM     19  C   UNL A   1      34.102  29.166  26.068  1.00  0.00     0.042 C 
BRANCH  19  20
ATOM     20  C   UNL A   1      35.022  29.007  27.270  1.00  0.00     0.118 C 
BRANCH  20  21
ATOM     21  N   UNL A   1      35.327  30.307  27.855  1.00  0.00    -0.352 N 
ATOM     22  C   UNL A   1      36.330  30.657  28.720  1.00  0.00     0.251 C 
ATOM     23  H   UNL A   1      34.725  31.039  27.590  1.00  0.00     0.163 HD
ATOM     24  O   UNL A   1      36.222  31.698  29.363  1.00  0.00    -0.269 OA
BRANCH  22  25
ATOM     25  C   UNL A   1      37.508  29.789  28.904  1.00  0.00     0.039 A 
ATOM     26  C   UNL A   1      38.602  29.975  28.052  1.00  0.00     0.014 A 
ATOM     27  C   UNL A   1      37.517  28.766  29.861  1.00  0.00     0.014 A 
ATOM     28  C   UNL A   1      39.731  29.181  28.205  1.00  0.00     0.010 A 
ATOM     29  C   UNL A   1      38.659  27.996  30.040  1.00  0.00     0.010 A 
ATOM     30  C   UNL A   1      39.767  28.213  29.217  1.00  0.00    -0.014 A 
BRANCH  30  31
ATOM     31  C   UNL A   1      41.056  27.545  29.505  1.00  0.00     0.031 A 
ATOM     32  C   UNL A   1      41.318  26.416  28.466  1.00  0.00     0.074 A 
ATOM     33  C   UNL A   1      41.733  27.988  30.615  1.00  0.00     0.049 A 
ATOM     34  N   UNL A   1      41.856  25.242  28.607  1.00  0.00    -0.248 NA
ATOM     35  C   UNL A   1      40.789  26.574  27.076  1.00  0.00     0.031 C 
ATOM     36  C   UNL A   1      41.321  29.129  31.477  1.00  0.00     0.029 A 
ATOM     37  N   UNL A   1      42.888  27.593  31.256  1.00  0.00    -0.354 N 
ATOM     38  C   UNL A   1      41.949  24.641  27.323  1.00  0.00     0.074 A 
ATOM     39  C   UNL A   1      41.141  25.443  26.456  1.00  0.00     0.031 C 
ATOM     40  C   UNL A   1      42.141  29.266  32.546  1.00  0.00     0.029 A 
ATOM     41  C   UNL A   1      43.168  28.246  32.498  1.00  0.00     0.049 A 
ATOM     42  H   UNL A   1      43.483  26.905  30.883  1.00  0.00     0.167 HD
ATOM     43  C   UNL A   1      42.809  23.614  27.032  1.00  0.00     0.034 A 
ATOM     44  C   UNL A   1      44.119  27.932  33.441  1.00  0.00     0.034 A 
ATOM     45  C   UNL A   1      43.569  23.309  28.197  1.00  0.00     0.049 A 
ATOM     46  C   UNL A   1      44.872  26.834  32.815  1.00  0.00     0.074 A 
ATOM     47  C   UNL A   1      43.258  22.687  29.373  1.00  0.00     0.029 A 
ATOM     48  N   UNL A   1      44.766  23.972  28.335  1.00  0.00    -0.354 N 
ATOM     49  N   UNL A   1      45.725  26.964  31.844  1.00  0.00    -0.248 NA
ATOM     50  C   UNL A   1      44.554  25.459  33.224  1.00  0.00     0.031 C 
ATOM     51  C   UNL A   1      43.980  23.446  30.315  1.00  0.00     0.029 A 
ATOM     52  C   UNL A   1      44.877  24.303  29.659  1.00  0.00     0.049 A 
ATOM     53  H   UNL A   1      45.416  24.171  27.622  1.00  0.00     0.167 HD
ATOM     54  C   UNL A   1      45.809  25.686  31.350  1.00  0.00     0.074 A 
ATOM     55  C   UNL A   1      45.376  24.804  32.412  1.00  0.00     0.031 C 
ATOM     56  C   UNL A   1      45.672  25.460  30.017  1.00  0.00     0.034 A 
BRANCH  43  57
ATOM     57  C   UNL A   1      43.294  22.941  25.765  1.00  0.00     0.023 A 
ATOM     58  C   UNL A   1      43.368  21.521  25.800  1.00  0.00     0.031 A 
ATOM     59  C   UNL A   1      43.972  23.565  24.713  1.00  0.00     0.131 A 
ATOM     60  C   UNL A   1      44.211  20.799  24.946  1.00  0.00     0.055 A 
ATOM     61  C   UNL A   1      44.760  22.830  23.806  1.00  0.00     0.041 A 
ATOM     62  F   UNL A   1      43.971  24.897  24.570  1.00  0.00    -0.206 F 
ATOM     63  C   UNL A   1      44.917  21.450  23.945  1.00  0.00     0.022 A 
BRANCH  60  64
ATOM     64  S   UNL A   1      44.499  19.039  25.307  1.00  0.00     0.124 S 
ATOM     65  O   UNL A   1      43.422  18.736  26.243  1.00  0.00    -0.237 OA
ATOM     66  O   UNL A   1      44.383  18.433  23.984  1.00  0.00    -0.237 OA
ATOM     67  O   UNL A   1      45.844  19.025  25.878  1.00  0.00    -0.744 OA
ENDBRANCH  60  64
ENDBRANCH  43  57
BRANCH  44  68
ATOM     68  C   UNL A   1      44.509  28.268  34.884  1.00  0.00     0.023 A 
ATOM     69  C   UNL A   1      44.476  27.419  36.008  1.00  0.00     0.031 A 
ATOM     70  C   UNL A   1      45.004  29.584  35.170  1.00  0.00     0.131 A 
ATOM     71  C   UNL A   1      44.988  27.869  37.268  1.00  0.00     0.055 A 
ATOM     72  C   UNL A   1      45.593  29.981  36.369  1.00  0.00     0.041 A 
ATOM     73  F   UNL A   1      44.927  30.590  34.290  1.00  0.00    -0.206 F 
ATOM     74  C   UNL A   1      45.604  29.113  37.429  1.00  0.00     0.022 A 
BRANCH  71  75
ATOM     75  S   UNL A   1      44.869  26.854  38.778  1.00  0.00     0.124 S 
ATOM     76  O   UNL A   1      43.516  26.319  38.675  1.00  0.00    -0.237 OA
ATOM     77  O   UNL A   1      45.956  25.896  38.612  1.00  0.00    -0.237 OA
ATOM     78  O   UNL A   1      45.068  27.826  39.854  1.00  0.00    -0.744 OA
ENDBRANCH  71  75
ENDBRANCH  44  68
BRANCH  56  79
ATOM     79  C   UNL A   1      46.015  26.644  29.117  1.00  0.00     0.023 A 
ATOM     80  C   UNL A   1      44.990  27.403  28.522  1.00  0.00     0.031 A 
ATOM     81  C   UNL A   1      47.326  26.996  28.748  1.00  0.00     0.131 A 
ATOM     82  C   UNL A   1      45.288  28.434  27.605  1.00  0.00     0.055 A 
ATOM     83  C   UNL A   1      47.629  28.021  27.840  1.00  0.00     0.041 A 
ATOM     84  F   UNL A   1      48.372  26.347  29.249  1.00  0.00    -0.206 F 
ATOM     85  C   UNL A   1      46.604  28.747  27.260  1.00  0.00     0.022 A 
BRANCH  82  86
ATOM     86  S   UNL A   1      43.932  29.397  26.884  1.00  0.00     0.124 S 
ATOM     87  O   UNL A   1      43.333  28.454  25.948  1.00  0.00    -0.237 OA
ATOM     88  O   UNL A   1      43.130  29.734  28.057  1.00  0.00    -0.237 OA
ATOM     89  O   UNL A   1      44.612  30.535  26.264  1.00  0.00    -0.744 OA
ENDBRANCH  82  86
ENDBRANCH  56  79
ENDBRANCH  30  31
ENDBRANCH  22  25
ENDBRANCH  20  21
ENDBRANCH  19  20
ENDBRANCH   1  19
TORSDOF 17
ENDMDL
MODEL 2
REMARK VINA RESULT:     -11.1      1.622      2.176
REMARK SMILES N#CCNC(=O)Cn1ccc(C(=O)NCCCNC(=O)c2ccc(-c3c4nc(c(-c5cc(S(=O)(=O)[O-])ccc5F)c5ccc([nH]5)c(-c5cc(S(=O)(=O)[O-])ccc5F)c5nc(c(-c6cc(S(=O)(=O)[O-])ccc6F)c6ccc3[nH]6)C=C5)C=C4)cc2)c1
REMARK SMILES IDX 15 1 14 2 12 3 13 4 11 6 8 7 9 8 84 9 10 10 7 11 5 12 4 13
REMARK SMILES IDX 6 15 3 16 2 17 1 18 16 19 17 20 18 21 19 22 20 24 21 25
REMARK SMILES IDX 22 26 83 27 23 28 82 29 24 30 25 31 26 32 76 33 27 34 81 35
REMARK SMILES IDX 75 36 77 37 28 38 80 39 74 40 73 41 29 43 61 44 41 45 60 46
REMARK SMILES IDX 42 47 45 48 59 49 78 50 43 51 44 52 58 54 79 55 46 56 30 57
REMARK SMILES IDX 31 58 39 59 32 60 38 61 40 62 37 63 33 64 34 65 35 66 36 67
REMARK SMILES IDX 62 68 63 69 71 70 64 71 70 72 72 73 69 74 65 75 66 76 67 77
REMARK SMILES IDX 68 78 47 79 48 80 56 81 49 82 55 83 57 84 54 85 50 86 51 87
REMARK SMILES IDX 52 88 53 89
REMARK H PARENT 14 5 4 14 18 23 77 42 45 53
REMARK Flexibility Score: inf
ROOT
ATOM      1  C   UNL A   1      33.767  27.344  25.018  1.00  0.00     0.118 C 
ENDROOT
BRANCH   1   2
ATOM      2  N   UNL A   1      33.846  27.292  23.575  1.00  0.00    -0.352 N 
ATOM      3  C   UNL A   1      33.741  26.234  22.699  1.00  0.00     0.252 C 
ATOM      4  O   UNL A   1      33.677  26.485  21.503  1.00  0.00    -0.269 OA
ATOM      5  H   UNL A   1      34.002  28.163  23.145  1.00  0.00     0.163 HD
BRANCH   3   6
ATOM      6  C   UNL A   1      33.639  24.861  23.193  1.00  0.00     0.057 A 
ATOM      7  N   UNL A   1      34.091  22.853  24.060  1.00  0.00    -0.344 N 
ATOM      8  C   UNL A   1      32.731  22.970  24.086  1.00  0.00     0.087 A 
ATOM      9  C   UNL A   1      34.624  23.900  23.350  1.00  0.00     0.100 A 
ATOM     10  C   UNL A   1      32.421  24.211  23.573  1.00  0.00     0.033 A 
BRANCH   7  11
ATOM     11  C   UNL A   1      34.865  21.833  24.745  1.00  0.00     0.221 C 
BRANCH  11  12
ATOM     12  C   UNL A   1      35.036  22.135  26.223  1.00  0.00     0.240 C 
ATOM     13  N   UNL A   1      36.124  22.814  26.693  1.00  0.00    -0.341 N 
ATOM     14  H   UNL A   1      36.155  22.918  27.671  1.00  0.00     0.164 HD
ATOM     15  O   UNL A   1      34.223  21.719  27.053  1.00  0.00    -0.273 OA
BRANCH  13  16
ATOM     16  C   UNL A   1      37.249  23.409  25.979  1.00  0.00     0.236 C 
BRANCH  16  17
ATOM     17  C   UNL A   1      38.457  22.487  25.972  1.00  0.00     0.084 C 
ATOM     18  N   UNL A   1      39.460  21.723  25.967  1.00  0.00    -0.196 NA
ENDBRANCH  16  17
ENDBRANCH  13  16
ENDBRANCH  11  12
ENDBRANCH   7  11
ENDBRANCH   3   6
ENDBRANCH   1   2
BRANCH   1  19
ATOM     19  C   UNL A   1      33.939  28.760  25.566  1.00  0.00     0.042 C 
BRANCH  19  20
ATOM     20  C   UNL A   1      34.778  28.766  26.837  1.00  0.00     0.118 C 
BRANCH  20  21
ATOM     21  N   UNL A   1      35.107  30.131  27.225  1.00  0.00    -0.352 N 
ATOM     22  C   UNL A   1      36.129  30.588  28.016  1.00  0.00     0.251 C 
ATOM     23  H   UNL A   1      34.508  30.826  26.868  1.00  0.00     0.163 HD
ATOM     24  O   UNL A   1      36.042  31.711  28.505  1.00  0.00    -0.269 OA
BRANCH  22  25
ATOM     25  C   UNL A   1      37.300  29.739  28.303  1.00  0.00     0.039 A 
ATOM     26  C   UNL A   1      38.382  29.790  27.417  1.00  0.00     0.014 A 
ATOM     27  C   UNL A   1      37.313  28.861  29.394  1.00  0.00     0.014 A 
ATOM     28  C   UNL A   1      39.505  29.012  27.665  1.00  0.00     0.010 A 
ATOM     29  C   UNL A   1      38.449  28.110  29.663  1.00  0.00     0.010 A 
ATOM     30  C   UNL A   1      39.546  28.195  28.803  1.00  0.00    -0.014 A 
BRANCH  30  31
ATOM     31  C   UNL A   1      40.833  27.558  29.163  1.00  0.00     0.031 A 
ATOM     32  C   UNL A   1      41.151  26.396  28.176  1.00  0.00     0.074 A 
ATOM     33  C   UNL A   1      41.461  28.051  30.281  1.00  0.00     0.049 A 
ATOM     34  N   UNL A   1      41.699  25.237  28.381  1.00  0.00    -0.248 NA
ATOM     35  C   UNL A   1      40.673  26.496  26.763  1.00  0.00     0.031 C 
ATOM     36  C   UNL A   1      41.000  29.216  31.084  1.00  0.00     0.029 A 
ATOM     37  N   UNL A   1      42.595  27.697  30.980  1.00  0.00    -0.354 N 
ATOM     38  C   UNL A   1      41.850  24.591  27.124  1.00  0.00     0.074 A 
ATOM     39  C   UNL A   1      41.064  25.349  26.199  1.00  0.00     0.031 C 
ATOM     40  C   UNL A   1      41.776  29.403  32.178  1.00  0.00     0.029 A 
ATOM     41  C   UNL A   1      42.818  28.398  32.207  1.00  0.00     0.049 A 
ATOM     42  H   UNL A   1      43.214  27.005  30.654  1.00  0.00     0.167 HD
ATOM     43  C   UNL A   1      42.735  23.568  26.904  1.00  0.00     0.034 A 
ATOM     44  C   UNL A   1      43.737  28.133  33.196  1.00  0.00     0.034 A 
ATOM     45  C   UNL A   1      43.454  23.316  28.106  1.00  0.00     0.049 A 
ATOM     46  C   UNL A   1      44.528  27.025  32.639  1.00  0.00     0.074 A 
ATOM     47  C   UNL A   1      43.107  22.733  29.292  1.00  0.00     0.029 A 
ATOM     48  N   UNL A   1      44.635  24.003  28.266  1.00  0.00    -0.354 N 
ATOM     49  N   UNL A   1      45.416  27.133  31.697  1.00  0.00    -0.248 NA
ATOM     50  C   UNL A   1      44.214  25.660  33.085  1.00  0.00     0.031 C 
ATOM     51  C   UNL A   1      43.781  23.536  30.233  1.00  0.00     0.029 A 
ATOM     52  C   UNL A   1      44.691  24.382  29.580  1.00  0.00     0.049 A 
ATOM     53  H   UNL A   1      45.309  24.186  27.571  1.00  0.00     0.167 HD
ATOM     54  C   UNL A   1      45.537  25.840  31.253  1.00  0.00     0.074 A 
ATOM     55  C   UNL A   1      45.077  24.990  32.330  1.00  0.00     0.031 C 
ATOM     56  C   UNL A   1      45.455  25.563  29.926  1.00  0.00     0.034 A 
BRANCH  43  57
ATOM     57  C   UNL A   1      43.278  22.858  25.681  1.00  0.00     0.023 A 
ATOM     58  C   UNL A   1      43.277  21.436  25.733  1.00  0.00     0.031 A 
ATOM     59  C   UNL A   1      44.062  23.435  24.678  1.00  0.00     0.131 A 
ATOM     60  C   UNL A   1      44.143  20.663  24.949  1.00  0.00     0.055 A 
ATOM     61  C   UNL A   1      44.877  22.652  23.837  1.00  0.00     0.041 A 
ATOM     62  F   UNL A   1      44.139  24.763  24.525  1.00  0.00    -0.206 F 
ATOM     63  C   UNL A   1      44.954  21.267  23.998  1.00  0.00     0.022 A 
BRANCH  60  64
ATOM     64  S   UNL A   1      44.314  18.895  25.343  1.00  0.00     0.124 S 
ATOM     65  O   UNL A   1      43.943  18.262  24.083  1.00  0.00    -0.237 OA
ATOM     66  O   UNL A   1      45.723  18.799  25.715  1.00  0.00    -0.237 OA
ATOM     67  O   UNL A   1      43.370  18.699  26.441  1.00  0.00    -0.744 OA
ENDBRANCH  60  64
ENDBRANCH  43  57
BRANCH  44  68
ATOM     68  C   UNL A   1      44.066  28.526  34.639  1.00  0.00     0.023 A 
ATOM     69  C   UNL A   1      45.294  28.386  35.314  1.00  0.00     0.031 A 
ATOM     70  C   UNL A   1      43.041  29.144  35.431  1.00  0.00     0.131 A 
ATOM     71  C   UNL A   1      45.457  28.917  36.635  1.00  0.00     0.055 A 
ATOM     72  C   UNL A   1      43.234  29.747  36.672  1.00  0.00     0.041 A 
ATOM     73  F   UNL A   1      41.759  29.185  35.045  1.00  0.00    -0.206 F 
ATOM     74  C   UNL A   1      44.458  29.651  37.280  1.00  0.00     0.022 A 
BRANCH  71  75
ATOM     75  S   UNL A   1      46.988  28.668  37.594  1.00  0.00     0.124 S 
ATOM     76  O   UNL A   1      47.789  29.817  37.187  1.00  0.00    -0.237 OA
ATOM     77  O   UNL A   1      46.512  28.668  38.972  1.00  0.00    -0.237 OA
ATOM     78  O   UNL A   1      47.479  27.374  37.116  1.00  0.00    -0.744 OA
ENDBRANCH  71  75
ENDBRANCH  44  68
BRANCH  56  79
ATOM     79  C   UNL A   1      45.815  26.720  28.997  1.00  0.00     0.023 A 
ATOM     80  C   UNL A   1      44.805  27.536  28.455  1.00  0.00     0.031 A 
ATOM     81  C   UNL A   1      47.121  26.990  28.549  1.00  0.00     0.131 A 
ATOM     82  C   UNL A   1      45.111  28.542  27.513  1.00  0.00     0.055 A 
ATOM     83  C   UNL A   1      47.432  27.989  27.616  1.00  0.00     0.041 A 
ATOM     84  F   UNL A   1      48.154  26.281  28.994  1.00  0.00    -0.206 F 
ATOM     85  C   UNL A   1      46.420  28.773  27.089  1.00  0.00     0.022 A 
BRANCH  82  86
ATOM     86  S   UNL A   1      43.775  29.582  26.863  1.00  0.00     0.124 S 
ATOM     87  O   UNL A   1      43.105  28.691  25.924  1.00  0.00    -0.237 OA
ATOM     88  O   UNL A   1      43.028  29.921  28.070  1.00  0.00    -0.237 OA
ATOM     89  O   UNL A   1      44.484  30.706  26.249  1.00  0.00    -0.744 OA
ENDBRANCH  82  86
ENDBRANCH  56  79
ENDBRANCH  30  31
ENDBRANCH  22  25
ENDBRANCH  20  21
ENDBRANCH  19  20
ENDBRANCH   1  19
TORSDOF 17
ENDMDL
MODEL 3
REMARK VINA RESULT:     -10.8      3.698      9.463
REMARK SMILES N#CCNC(=O)Cn1ccc(C(=O)NCCCNC(=O)c2ccc(-c3c4nc(c(-c5cc(S(=O)(=O)[O-])ccc5F)c5ccc([nH]5)c(-c5cc(S(=O)(=O)[O-])ccc5F)c5nc(c(-c6cc(S(=O)(=O)[O-])ccc6F)c6ccc3[nH]6)C=C5)C=C4)cc2)c1
REMARK SMILES IDX 15 1 14 2 12 3 13 4 11 6 8 7 9 8 84 9 10 10 7 11 5 12 4 13
REMARK SMILES IDX 6 15 3 16 2 17 1 18 16 19 17 20 18 21 19 22 20 24 21 25
REMARK SMILES IDX 22 26 83 27 23 28 82 29 24 30 25 31 26 32 76 33 27 34 81 35
REMARK SMILES IDX 75 36 77 37 28 38 80 39 74 40 73 41 29 43 61 44 41 45 60 46
REMARK SMILES IDX 42 47 45 48 59 49 78 50 43 51 44 52 58 54 79 55 46 56 30 57
REMARK SMILES IDX 31 58 39 59 32 60 38 61 40 62 37 63 33 64 34 65 35 66 36 67
REMARK SMILES IDX 62 68 63 69 71 70 64 71 70 72 72 73 69 74 65 75 66 76 67 77
REMARK SMILES IDX 68 78 47 79 48 80 56 81 49 82 55 83 57 84 54 85 50 86 51 87
REMARK SMILES IDX 52 88 53 89
REMARK H PARENT 14 5 4 14 18 23 77 42 45 53
REMARK Flexibility Score: inf
ROOT
ATOM      1  C   UNL A   1      36.602  21.508  25.023  1.00  0.00     0.118 C 
ENDROOT
BRANCH   1   2
ATOM      2  N   UNL A   1      35.826  21.506  26.243  1.00  0.00    -0.352 N 
ATOM      3  C   UNL A   1      34.474  21.662  26.457  1.00  0.00     0.252 C 
ATOM      4  O   UNL A   1      34.044  21.451  27.584  1.00  0.00    -0.269 OA
ATOM      5  H   UNL A   1      36.355  21.371  27.062  1.00  0.00     0.163 HD
BRANCH   3   6
ATOM      6  C   UNL A   1      33.575  22.001  25.353  1.00  0.00     0.057 A 
ATOM      7  N   UNL A   1      32.329  23.098  23.861  1.00  0.00    -0.344 N 
ATOM      8  C   UNL A   1      32.465  21.832  23.370  1.00  0.00     0.087 A 
ATOM      9  C   UNL A   1      32.829  23.147  25.138  1.00  0.00     0.100 A 
ATOM     10  C   UNL A   1      33.248  21.134  24.263  1.00  0.00     0.033 A 
BRANCH   7  11
ATOM     11  C   UNL A   1      31.816  24.241  23.124  1.00  0.00     0.221 C 
BRANCH  11  12
ATOM     12  C   UNL A   1      32.859  25.331  22.954  1.00  0.00     0.240 C 
ATOM     13  N   UNL A   1      32.817  26.482  23.688  1.00  0.00    -0.341 N 
ATOM     14  H   UNL A   1      33.517  27.138  23.467  1.00  0.00     0.164 HD
ATOM     15  O   UNL A   1      33.743  25.234  22.098  1.00  0.00    -0.273 OA
BRANCH  13  16
ATOM     16  C   UNL A   1      31.902  26.896  24.746  1.00  0.00     0.236 C 
BRANCH  16  17
ATOM     17  C   UNL A   1      31.308  28.267  24.467  1.00  0.00     0.084 C 
ATOM     18  N   UNL A   1      30.816  29.404  24.236  1.00  0.00    -0.196 NA
ENDBRANCH  16  17
ENDBRANCH  13  16
ENDBRANCH  11  12
ENDBRANCH   7  11
ENDBRANCH   3   6
ENDBRANCH   1   2
BRANCH   1  19
ATOM     19  C   UNL A   1      37.042  22.911  24.608  1.00  0.00     0.042 C 
BRANCH  19  20
ATOM     20  C   UNL A   1      37.726  23.640  25.757  1.00  0.00     0.118 C 
BRANCH  20  21
ATOM     21  N   UNL A   1      39.034  23.056  26.025  1.00  0.00    -0.352 N 
ATOM     22  C   UNL A   1      40.161  23.646  26.535  1.00  0.00     0.251 C 
ATOM     23  H   UNL A   1      39.120  22.100  25.809  1.00  0.00     0.163 HD
ATOM     24  O   UNL A   1      41.246  23.094  26.367  1.00  0.00    -0.269 OA
BRANCH  22  25
ATOM     25  C   UNL A   1      40.085  24.935  27.246  1.00  0.00     0.039 A 
ATOM     26  C   UNL A   1      39.375  24.979  28.452  1.00  0.00     0.014 A 
ATOM     27  C   UNL A   1      40.651  26.098  26.711  1.00  0.00     0.014 A 
ATOM     28  C   UNL A   1      39.293  26.175  29.153  1.00  0.00     0.010 A 
ATOM     29  C   UNL A   1      40.601  27.286  27.427  1.00  0.00     0.010 A 
ATOM     30  C   UNL A   1      39.930  27.319  28.652  1.00  0.00    -0.014 A 
BRANCH  30  31
ATOM     31  C   UNL A   1      40.021  28.510  29.525  1.00  0.00     0.031 A 
ATOM     32  C   UNL A   1      41.128  28.304  30.600  1.00  0.00     0.074 A 
ATOM     33  C   UNL A   1      39.121  29.517  29.272  1.00  0.00     0.049 A 
ATOM     34  N   UNL A   1      41.173  28.660  31.848  1.00  0.00    -0.248 NA
ATOM     35  C   UNL A   1      42.318  27.464  30.262  1.00  0.00     0.031 C 
ATOM     36  C   UNL A   1      38.144  29.537  28.149  1.00  0.00     0.029 A 
ATOM     37  N   UNL A   1      38.826  30.718  29.882  1.00  0.00    -0.354 N 
ATOM     38  C   UNL A   1      42.454  28.316  32.360  1.00  0.00     0.074 A 
ATOM     39  C   UNL A   1      43.045  27.452  31.384  1.00  0.00     0.031 C 
ATOM     40  C   UNL A   1      37.331  30.618  28.217  1.00  0.00     0.029 A 
ATOM     41  C   UNL A   1      37.686  31.415  29.373  1.00  0.00     0.049 A 
ATOM     42  H   UNL A   1      39.368  31.074  30.622  1.00  0.00     0.167 HD
ATOM     43  C   UNL A   1      42.997  28.889  33.480  1.00  0.00     0.034 A 
ATOM     44  C   UNL A   1      37.044  32.514  29.895  1.00  0.00     0.034 A 
ATOM     45  C   UNL A   1      42.091  29.866  33.981  1.00  0.00     0.049 A 
ATOM     46  C   UNL A   1      37.884  32.887  31.043  1.00  0.00     0.074 A 
ATOM     47  C   UNL A   1      40.894  29.775  34.635  1.00  0.00     0.029 A 
ATOM     48  N   UNL A   1      42.259  31.149  33.516  1.00  0.00    -0.354 N 
ATOM     49  N   UNL A   1      39.044  33.467  30.971  1.00  0.00    -0.248 NA
ATOM     50  C   UNL A   1      37.448  32.465  32.382  1.00  0.00     0.031 C 
ATOM     51  C   UNL A   1      40.157  30.831  34.064  1.00  0.00     0.029 A 
ATOM     52  C   UNL A   1      41.003  31.654  33.305  1.00  0.00     0.049 A 
ATOM     53  H   UNL A   1      43.113  31.615  33.365  1.00  0.00     0.167 HD
ATOM     54  C   UNL A   1      39.582  33.208  32.206  1.00  0.00     0.074 A 
ATOM     55  C   UNL A   1      38.472  32.929  33.090  1.00  0.00     0.031 C 
ATOM     56  C   UNL A   1      40.836  32.694  32.310  1.00  0.00     0.034 A 
BRANCH  43  57
ATOM     57  C   UNL A   1      44.369  28.910  34.121  1.00  0.00     0.023 A 
ATOM     58  C   UNL A   1      44.404  28.701  35.528  1.00  0.00     0.031 A 
ATOM     59  C   UNL A   1      45.535  29.429  33.549  1.00  0.00     0.131 A 
ATOM     60  C   UNL A   1      45.468  29.150  36.320  1.00  0.00     0.055 A 
ATOM     61  C   UNL A   1      46.636  29.811  34.338  1.00  0.00     0.041 A 
ATOM     62  F   UNL A   1      45.625  29.664  32.233  1.00  0.00    -0.206 F 
ATOM     63  C   UNL A   1      46.590  29.714  35.731  1.00  0.00     0.022 A 
BRANCH  60  64
ATOM     64  S   UNL A   1      45.255  29.153  38.127  1.00  0.00     0.124 S 
ATOM     65  O   UNL A   1      44.333  30.266  38.327  1.00  0.00    -0.237 OA
ATOM     66  O   UNL A   1      44.710  27.821  38.374  1.00  0.00    -0.237 OA
ATOM     67  O   UNL A   1      46.610  29.370  38.629  1.00  0.00    -0.744 OA
ENDBRANCH  60  64
ENDBRANCH  43  57
BRANCH  44  68
ATOM     68  C   UNL A   1      35.749  33.316  29.729  1.00  0.00     0.023 A 
ATOM     69  C   UNL A   1      35.143  34.181  30.661  1.00  0.00     0.031 A 
ATOM     70  C   UNL A   1      35.048  33.233  28.479  1.00  0.00     0.131 A 
ATOM     71  C   UNL A   1      33.987  34.943  30.294  1.00  0.00     0.055 A 
ATOM     72  C   UNL A   1      33.987  34.050  28.094  1.00  0.00     0.041 A 
ATOM     73  F   UNL A   1      35.348  32.323  27.545  1.00  0.00    -0.206 F 
ATOM     74  C   UNL A   1      33.457  34.929  29.001  1.00  0.00     0.022 A 
BRANCH  71  75
ATOM     75  S   UNL A   1      33.100  35.992  31.493  1.00  0.00     0.124 S 
ATOM     76  O   UNL A   1      34.116  36.202  32.519  1.00  0.00    -0.237 OA
ATOM     77  O   UNL A   1      32.735  37.158  30.697  1.00  0.00    -0.237 OA
ATOM     78  O   UNL A   1      31.973  35.154  31.905  1.00  0.00    -0.744 OA
ENDBRANCH  71  75
ENDBRANCH  44  68
BRANCH  56  79
ATOM     79  C   UNL A   1      41.757  32.980  31.127  1.00  0.00     0.023 A 
ATOM     80  C   UNL A   1      42.233  31.925  30.326  1.00  0.00     0.031 A 
ATOM     81  C   UNL A   1      42.261  34.255  30.815  1.00  0.00     0.131 A 
ATOM     82  C   UNL A   1      43.167  32.159  29.295  1.00  0.00     0.055 A 
ATOM     83  C   UNL A   1      43.187  34.495  29.790  1.00  0.00     0.041 A 
ATOM     84  F   UNL A   1      41.881  35.326  31.505  1.00  0.00    -0.206 F 
ATOM     85  C   UNL A   1      43.648  33.440  29.022  1.00  0.00     0.022 A 
BRANCH  82  86
ATOM     86  S   UNL A   1      43.730  30.768  28.278  1.00  0.00     0.124 S 
ATOM     87  O   UNL A   1      42.479  30.122  27.900  1.00  0.00    -0.237 OA
ATOM     88  O   UNL A   1      44.455  31.439  27.203  1.00  0.00    -0.237 OA
ATOM     89  O   UNL A   1      44.573  29.995  29.192  1.00  0.00    -0.744 OA
ENDBRANCH  82  86
ENDBRANCH  56  79
ENDBRANCH  30  31
ENDBRANCH  22  25
ENDBRANCH  20  21
ENDBRANCH  19  20
ENDBRANCH   1  19
TORSDOF 17
ENDMDL
