MODEL 1
REMARK VINA RESULT:     -12.5      0.000      0.000
REMARK SMILES CC(C)N1C[C@@]2(CCCN(c3ccc(C(=O)NCCCNC(=O)c4ccc(-c5c6nc(c(-c7cc(S(=O)(=O)[O-])ccc7F)c7ccc([nH]7)c(-c7cc(S(=O)(=O)[O-])ccc7F)c7nc(c(-c8cc(S(=O)(=O)[O-])ccc8F)c8ccc5[nH]8)C=C7)C=C6)cc4)cn3)C2)CCC1=O
REMARK SMILES IDX 19 1 18 2 17 3 15 4 16 5 14 7 11 8 12 9 88 10 13 11 87 12
REMARK SMILES IDX 10 13 4 14 5 15 92 16 6 17 91 18 93 19 7 20 89 21 90 22 8 23
REMARK SMILES IDX 9 24 2 25 1 26 3 27 20 28 21 29 22 30 23 32 24 33 25 34
REMARK SMILES IDX 86 35 26 36 85 37 27 38 28 39 29 40 79 41 30 42 84 43 78 44
REMARK SMILES IDX 80 45 31 46 83 47 77 48 76 49 32 51 64 52 44 53 63 54 45 55
REMARK SMILES IDX 48 56 62 57 81 58 46 59 47 60 61 62 82 63 49 64 33 65 34 66
REMARK SMILES IDX 42 67 35 68 41 69 43 70 40 71 36 72 37 73 38 74 39 75 65 76
REMARK SMILES IDX 66 77 74 78 67 79 73 80 75 81 72 82 68 83 69 84 70 85 71 86
REMARK SMILES IDX 50 87 51 88 59 89 52 90 58 91 60 92 57 93 53 94 54 95 55 96
REMARK SMILES IDX 56 97
REMARK H PARENT 17 6 21 31 80 50 48 61
REMARK Flexibility Score: inf
ROOT
ATOM      1  C   UNL A   1      32.081  29.460  24.745  1.00  0.00     0.042 C 
ENDROOT
BRANCH   1   2
ATOM      2  C   UNL A   1      30.799  28.703  24.412  1.00  0.00     0.118 C 
BRANCH   2   3
ATOM      3  N   UNL A   1      30.905  27.869  23.220  1.00  0.00    -0.352 N 
ATOM      4  C   UNL A   1      31.288  26.546  23.111  1.00  0.00     0.252 C 
ATOM      5  O   UNL A   1      31.394  26.006  22.026  1.00  0.00    -0.269 OA
ATOM      6  H   UNL A   1      30.670  28.311  22.373  1.00  0.00     0.163 HD
BRANCH   4   7
ATOM      7  C   UNL A   1      31.622  25.805  24.335  1.00  0.00     0.058 A 
ATOM      8  C   UNL A   1      32.456  23.960  26.207  1.00  0.00     0.128 A 
ATOM      9  C   UNL A   1      33.149  25.164  26.062  1.00  0.00     0.048 A 
ATOM     10  N   UNL A   1      31.265  23.792  25.587  1.00  0.00    -0.239 NA
ATOM     11  C   UNL A   1      32.741  26.090  25.102  1.00  0.00     0.019 A 
ATOM     12  C   UNL A   1      30.862  24.707  24.672  1.00  0.00     0.127 A 
BRANCH   8  13
ATOM     13  N   UNL A   1      33.011  22.856  26.836  1.00  0.00    -0.356 N 
ATOM     14  N   UNL A   1      33.023  19.655  23.688  1.00  0.00    -0.340 N 
ATOM     15  C   UNL A   1      34.108  19.918  24.628  1.00  0.00     0.128 C 
ATOM     16  C   UNL A   1      32.572  20.612  22.790  1.00  0.00     0.222 C 
ATOM     17  C   UNL A   1      34.129  21.351  25.190  1.00  0.00     0.006 C 
ATOM     18  C   UNL A   1      33.006  22.044  23.011  1.00  0.00     0.101 C 
ATOM     19  O   UNL A   1      31.753  20.378  21.900  1.00  0.00    -0.275 OA
ATOM     20  C   UNL A   1      35.425  21.526  26.035  1.00  0.00     0.012 C 
ATOM     21  C   UNL A   1      32.889  21.577  26.112  1.00  0.00     0.127 C 
ATOM     22  C   UNL A   1      34.179  22.265  23.950  1.00  0.00     0.020 C 
ATOM     23  C   UNL A   1      35.445  22.798  26.892  1.00  0.00     0.022 C 
ATOM     24  C   UNL A   1      34.166  22.937  27.718  1.00  0.00     0.118 C 
BRANCH  14  25
ATOM     25  C   UNL A   1      32.423  18.308  23.724  1.00  0.00     0.078 C 
ATOM     26  C   UNL A   1      33.270  17.347  22.889  1.00  0.00     0.031 C 
ATOM     27  C   UNL A   1      32.153  17.746  25.120  1.00  0.00     0.031 C 
ENDBRANCH  14  25
ENDBRANCH   8  13
ENDBRANCH   4   7
ENDBRANCH   2   3
ENDBRANCH   1   2
BRANCH   1  28
ATOM     28  C   UNL A   1      32.258  29.818  26.215  1.00  0.00     0.118 C 
BRANCH  28  29
ATOM     29  N   UNL A   1      32.103  31.240  26.483  1.00  0.00    -0.352 N 
ATOM     30  C   UNL A   1      32.860  32.099  27.247  1.00  0.00     0.251 C 
ATOM     31  H   UNL A   1      31.327  31.658  26.044  1.00  0.00     0.163 HD
ATOM     32  O   UNL A   1      32.441  33.237  27.444  1.00  0.00    -0.269 OA
BRANCH  30  33
ATOM     33  C   UNL A   1      34.141  31.664  27.858  1.00  0.00     0.039 A 
ATOM     34  C   UNL A   1      35.169  32.602  28.004  1.00  0.00     0.014 A 
ATOM     35  C   UNL A   1      34.351  30.345  28.265  1.00  0.00     0.014 A 
ATOM     36  C   UNL A   1      36.367  32.238  28.629  1.00  0.00     0.010 A 
ATOM     37  C   UNL A   1      35.510  30.006  28.964  1.00  0.00     0.010 A 
ATOM     38  C   UNL A   1      36.532  30.949  29.157  1.00  0.00    -0.014 A 
BRANCH  38  39
ATOM     39  C   UNL A   1      37.757  30.564  29.911  1.00  0.00     0.031 A 
ATOM     40  C   UNL A   1      38.754  29.613  29.304  1.00  0.00     0.074 A 
ATOM     41  C   UNL A   1      37.933  31.007  31.174  1.00  0.00     0.049 A 
ATOM     42  N   UNL A   1      39.821  29.074  29.839  1.00  0.00    -0.248 NA
ATOM     43  C   UNL A   1      38.498  29.186  27.920  1.00  0.00     0.031 C 
ATOM     44  C   UNL A   1      37.021  31.900  31.892  1.00  0.00     0.029 A 
ATOM     45  N   UNL A   1      38.932  30.757  32.082  1.00  0.00    -0.354 N 
ATOM     46  C   UNL A   1      40.347  28.225  28.869  1.00  0.00     0.074 A 
ATOM     47  C   UNL A   1      39.449  28.283  27.735  1.00  0.00     0.031 C 
ATOM     48  C   UNL A   1      37.514  32.140  33.117  1.00  0.00     0.029 A 
ATOM     49  C   UNL A   1      38.749  31.383  33.294  1.00  0.00     0.049 A 
ATOM     50  H   UNL A   1      39.708  30.183  31.884  1.00  0.00     0.167 HD
ATOM     51  C   UNL A   1      41.482  27.483  28.913  1.00  0.00     0.034 A 
ATOM     52  C   UNL A   1      39.481  31.341  34.424  1.00  0.00     0.034 A 
ATOM     53  C   UNL A   1      42.381  27.455  30.042  1.00  0.00     0.049 A 
ATOM     54  C   UNL A   1      40.731  30.498  34.455  1.00  0.00     0.074 A 
ATOM     55  C   UNL A   1      43.592  26.795  30.164  1.00  0.00     0.029 A 
ATOM     56  N   UNL A   1      42.163  28.108  31.249  1.00  0.00    -0.354 N 
ATOM     57  N   UNL A   1      41.242  29.743  33.510  1.00  0.00    -0.248 NA
ATOM     58  C   UNL A   1      41.506  30.509  35.702  1.00  0.00     0.031 C 
ATOM     59  C   UNL A   1      44.073  26.995  31.463  1.00  0.00     0.029 A 
ATOM     60  C   UNL A   1      43.202  27.841  32.129  1.00  0.00     0.049 A 
ATOM     61  H   UNL A   1      41.386  28.677  31.451  1.00  0.00     0.167 HD
ATOM     62  C   UNL A   1      42.417  29.215  34.040  1.00  0.00     0.074 A 
ATOM     63  C   UNL A   1      42.543  29.749  35.380  1.00  0.00     0.031 C 
ATOM     64  C   UNL A   1      43.312  28.371  33.468  1.00  0.00     0.034 A 
BRANCH  51  65
ATOM     65  C   UNL A   1      41.796  26.623  27.710  1.00  0.00     0.023 A 
ATOM     66  C   UNL A   1      41.459  25.258  27.666  1.00  0.00     0.031 A 
ATOM     67  C   UNL A   1      42.469  27.168  26.602  1.00  0.00     0.131 A 
ATOM     68  C   UNL A   1      41.868  24.469  26.582  1.00  0.00     0.055 A 
ATOM     69  C   UNL A   1      42.798  26.395  25.486  1.00  0.00     0.041 A 
ATOM     70  F   UNL A   1      42.833  28.460  26.590  1.00  0.00    -0.206 F 
ATOM     71  C   UNL A   1      42.512  25.033  25.479  1.00  0.00     0.022 A 
BRANCH  68  72
ATOM     72  S   UNL A   1      41.679  22.669  26.703  1.00  0.00     0.124 S 
ATOM     73  O   UNL A   1      42.620  22.346  27.772  1.00  0.00    -0.237 OA
ATOM     74  O   UNL A   1      40.265  22.521  27.029  1.00  0.00    -0.237 OA
ATOM     75  O   UNL A   1      42.068  22.193  25.376  1.00  0.00    -0.744 OA
ENDBRANCH  68  72
ENDBRANCH  51  65
BRANCH  52  76
ATOM     76  C   UNL A   1      39.057  32.109  35.631  1.00  0.00     0.023 A 
ATOM     77  C   UNL A   1      38.390  31.475  36.690  1.00  0.00     0.031 A 
ATOM     78  C   UNL A   1      39.276  33.495  35.722  1.00  0.00     0.131 A 
ATOM     79  C   UNL A   1      37.922  32.232  37.776  1.00  0.00     0.055 A 
ATOM     80  C   UNL A   1      38.854  34.235  36.828  1.00  0.00     0.041 A 
ATOM     81  F   UNL A   1      39.916  34.148  34.740  1.00  0.00    -0.206 F 
ATOM     82  C   UNL A   1      38.161  33.606  37.858  1.00  0.00     0.022 A 
BRANCH  79  83
ATOM     83  S   UNL A   1      36.926  31.406  39.046  1.00  0.00     0.124 S 
ATOM     84  O   UNL A   1      36.785  30.066  38.489  1.00  0.00    -0.237 OA
ATOM     85  O   UNL A   1      37.779  31.525  40.224  1.00  0.00    -0.237 OA
ATOM     86  O   UNL A   1      35.699  32.199  39.086  1.00  0.00    -0.744 OA
ENDBRANCH  79  83
ENDBRANCH  52  76
BRANCH  64  87
ATOM     87  C   UNL A   1      44.535  28.018  34.280  1.00  0.00     0.023 A 
ATOM     88  C   UNL A   1      44.572  26.887  35.113  1.00  0.00     0.031 A 
ATOM     89  C   UNL A   1      45.676  28.839  34.227  1.00  0.00     0.131 A 
ATOM     90  C   UNL A   1      45.704  26.637  35.903  1.00  0.00     0.055 A 
ATOM     91  C   UNL A   1      46.822  28.553  34.970  1.00  0.00     0.041 A 
ATOM     92  F   UNL A   1      45.696  29.933  33.450  1.00  0.00    -0.206 F 
ATOM     93  C   UNL A   1      46.836  27.453  35.824  1.00  0.00     0.022 A 
BRANCH  90  94
ATOM     94  S   UNL A   1      45.649  25.279  37.105  1.00  0.00     0.124 S 
ATOM     95  O   UNL A   1      44.235  25.255  37.469  1.00  0.00    -0.237 OA
ATOM     96  O   UNL A   1      46.124  24.146  36.318  1.00  0.00    -0.237 OA
ATOM     97  O   UNL A   1      46.554  25.722  38.164  1.00  0.00    -0.744 OA
ENDBRANCH  90  94
ENDBRANCH  64  87
ENDBRANCH  38  39
ENDBRANCH  30  33
ENDBRANCH  28  29
ENDBRANCH   1  28
TORSDOF 15
ENDMDL
MODEL 2
REMARK VINA RESULT:     -12.5      1.750      7.581
REMARK SMILES CC(C)N1C[C@@]2(CCCN(c3ccc(C(=O)NCCCNC(=O)c4ccc(-c5c6nc(c(-c7cc(S(=O)(=O)[O-])ccc7F)c7ccc([nH]7)c(-c7cc(S(=O)(=O)[O-])ccc7F)c7nc(c(-c8cc(S(=O)(=O)[O-])ccc8F)c8ccc5[nH]8)C=C7)C=C6)cc4)cn3)C2)CCC1=O
REMARK SMILES IDX 19 1 18 2 17 3 15 4 16 5 14 7 11 8 12 9 88 10 13 11 87 12
REMARK SMILES IDX 10 13 4 14 5 15 92 16 6 17 91 18 93 19 7 20 89 21 90 22 8 23
REMARK SMILES IDX 9 24 2 25 1 26 3 27 20 28 21 29 22 30 23 32 24 33 25 34
REMARK SMILES IDX 86 35 26 36 85 37 27 38 28 39 29 40 79 41 30 42 84 43 78 44
REMARK SMILES IDX 80 45 31 46 83 47 77 48 76 49 32 51 64 52 44 53 63 54 45 55
REMARK SMILES IDX 48 56 62 57 81 58 46 59 47 60 61 62 82 63 49 64 33 65 34 66
REMARK SMILES IDX 42 67 35 68 41 69 43 70 40 71 36 72 37 73 38 74 39 75 65 76
REMARK SMILES IDX 66 77 74 78 67 79 73 80 75 81 72 82 68 83 69 84 70 85 71 86
REMARK SMILES IDX 50 87 51 88 59 89 52 90 58 91 60 92 57 93 53 94 54 95 55 96
REMARK SMILES IDX 56 97
REMARK H PARENT 17 6 21 31 80 50 48 61
REMARK Flexibility Score: inf
ROOT
ATOM      1  C   UNL A   1      30.875  31.349  25.641  1.00  0.00     0.042 C 
ENDROOT
BRANCH   1   2
ATOM      2  C   UNL A   1      31.122  30.033  24.911  1.00  0.00     0.118 C 
BRANCH   2   3
ATOM      3  N   UNL A   1      30.467  29.953  23.610  1.00  0.00    -0.352 N 
ATOM      4  C   UNL A   1      30.289  28.857  22.787  1.00  0.00     0.252 C 
ATOM      5  O   UNL A   1      29.778  28.968  21.688  1.00  0.00    -0.269 OA
ATOM      6  H   UNL A   1      30.100  30.800  23.269  1.00  0.00     0.163 HD
BRANCH   4   7
ATOM      7  C   UNL A   1      30.777  27.548  23.240  1.00  0.00     0.058 A 
ATOM      8  C   UNL A   1      31.956  25.443  24.576  1.00  0.00     0.128 A 
ATOM      9  C   UNL A   1      30.563  25.554  24.546  1.00  0.00     0.048 A 
ATOM     10  N   UNL A   1      32.710  26.235  23.780  1.00  0.00    -0.239 NA
ATOM     11  C   UNL A   1      29.965  26.629  23.889  1.00  0.00     0.019 A 
ATOM     12  C   UNL A   1      32.120  27.265  23.124  1.00  0.00     0.127 A 
BRANCH   8  13
ATOM     13  N   UNL A   1      32.617  24.657  25.507  1.00  0.00    -0.356 N 
ATOM     14  N   UNL A   1      32.844  20.600  23.595  1.00  0.00    -0.340 N 
ATOM     15  C   UNL A   1      33.920  21.242  24.343  1.00  0.00     0.128 C 
ATOM     16  C   UNL A   1      32.293  21.167  22.454  1.00  0.00     0.222 C 
ATOM     17  C   UNL A   1      33.828  22.778  24.399  1.00  0.00     0.006 C 
ATOM     18  C   UNL A   1      32.606  22.620  22.169  1.00  0.00     0.101 C 
ATOM     19  O   UNL A   1      31.480  20.589  21.731  1.00  0.00    -0.275 OA
ATOM     20  C   UNL A   1      35.121  23.321  25.076  1.00  0.00     0.012 C 
ATOM     21  C   UNL A   1      32.592  23.204  25.252  1.00  0.00     0.127 C 
ATOM     22  C   UNL A   1      33.774  23.228  22.926  1.00  0.00     0.020 C 
ATOM     23  C   UNL A   1      35.047  24.804  25.463  1.00  0.00     0.022 C 
ATOM     24  C   UNL A   1      33.779  25.113  26.256  1.00  0.00     0.118 C 
BRANCH  14  25
ATOM     25  C   UNL A   1      32.363  19.301  24.102  1.00  0.00     0.078 C 
ATOM     26  C   UNL A   1      32.765  18.192  23.131  1.00  0.00     0.031 C 
ATOM     27  C   UNL A   1      32.774  18.963  25.536  1.00  0.00     0.031 C 
ENDBRANCH  14  25
ENDBRANCH   8  13
ENDBRANCH   4   7
ENDBRANCH   2   3
ENDBRANCH   1   2
BRANCH   1  28
ATOM     28  C   UNL A   1      31.830  31.641  26.791  1.00  0.00     0.118 C 
BRANCH  28  29
ATOM     29  N   UNL A   1      32.018  33.063  27.036  1.00  0.00    -0.352 N 
ATOM     30  C   UNL A   1      32.995  33.734  27.734  1.00  0.00     0.251 C 
ATOM     31  H   UNL A   1      31.331  33.643  26.634  1.00  0.00     0.163 HD
ATOM     32  O   UNL A   1      32.858  34.940  27.930  1.00  0.00    -0.269 OA
BRANCH  30  33
ATOM     33  C   UNL A   1      34.179  33.025  28.280  1.00  0.00     0.039 A 
ATOM     34  C   UNL A   1      35.379  33.731  28.424  1.00  0.00     0.014 A 
ATOM     35  C   UNL A   1      34.133  31.673  28.626  1.00  0.00     0.014 A 
ATOM     36  C   UNL A   1      36.497  33.107  28.990  1.00  0.00     0.010 A 
ATOM     37  C   UNL A   1      35.219  31.078  29.268  1.00  0.00     0.010 A 
ATOM     38  C   UNL A   1      36.414  31.788  29.460  1.00  0.00    -0.014 A 
BRANCH  38  39
ATOM     39  C   UNL A   1      37.558  31.132  30.152  1.00  0.00     0.031 A 
ATOM     40  C   UNL A   1      37.880  31.478  31.582  1.00  0.00     0.074 A 
ATOM     41  C   UNL A   1      38.357  30.285  29.470  1.00  0.00     0.049 A 
ATOM     42  N   UNL A   1      38.892  31.100  32.320  1.00  0.00    -0.248 NA
ATOM     43  C   UNL A   1      36.954  32.398  32.260  1.00  0.00     0.031 C 
ATOM     44  C   UNL A   1      38.179  29.898  28.068  1.00  0.00     0.029 A 
ATOM     45  N   UNL A   1      39.486  29.606  29.857  1.00  0.00    -0.354 N 
ATOM     46  C   UNL A   1      38.741  31.756  33.539  1.00  0.00     0.074 A 
ATOM     47  C   UNL A   1      37.568  32.596  33.416  1.00  0.00     0.031 C 
ATOM     48  C   UNL A   1      39.147  29.035  27.723  1.00  0.00     0.029 A 
ATOM     49  C   UNL A   1      40.045  28.843  28.857  1.00  0.00     0.049 A 
ATOM     50  H   UNL A   1      39.860  29.660  30.766  1.00  0.00     0.167 HD
ATOM     51  C   UNL A   1      39.498  31.653  34.660  1.00  0.00     0.034 A 
ATOM     52  C   UNL A   1      41.161  28.087  28.848  1.00  0.00     0.034 A 
ATOM     53  C   UNL A   1      40.651  30.792  34.776  1.00  0.00     0.049 A 
ATOM     54  C   UNL A   1      41.994  27.999  30.101  1.00  0.00     0.074 A 
ATOM     55  C   UNL A   1      41.445  30.558  35.886  1.00  0.00     0.029 A 
ATOM     56  N   UNL A   1      41.182  30.030  33.742  1.00  0.00    -0.354 N 
ATOM     57  N   UNL A   1      41.807  28.585  31.262  1.00  0.00    -0.248 NA
ATOM     58  C   UNL A   1      43.184  27.140  30.046  1.00  0.00     0.031 C 
ATOM     59  C   UNL A   1      42.490  29.708  35.508  1.00  0.00     0.029 A 
ATOM     60  C   UNL A   1      42.309  29.350  34.181  1.00  0.00     0.049 A 
ATOM     61  H   UNL A   1      40.812  29.979  32.831  1.00  0.00     0.167 HD
ATOM     62  C   UNL A   1      42.840  28.139  32.082  1.00  0.00     0.074 A 
ATOM     63  C   UNL A   1      43.636  27.226  31.288  1.00  0.00     0.031 C 
ATOM     64  C   UNL A   1      43.102  28.450  33.377  1.00  0.00     0.034 A 
BRANCH  51  65
ATOM     65  C   UNL A   1      39.111  32.514  35.841  1.00  0.00     0.023 A 
ATOM     66  C   UNL A   1      39.531  33.852  35.951  1.00  0.00     0.031 A 
ATOM     67  C   UNL A   1      38.336  31.983  36.887  1.00  0.00     0.131 A 
ATOM     68  C   UNL A   1      39.247  34.583  37.113  1.00  0.00     0.055 A 
ATOM     69  C   UNL A   1      37.984  32.744  38.004  1.00  0.00     0.041 A 
ATOM     70  F   UNL A   1      37.920  30.707  36.849  1.00  0.00    -0.206 F 
ATOM     71  C   UNL A   1      38.454  34.047  38.130  1.00  0.00     0.022 A 
BRANCH  68  72
ATOM     72  S   UNL A   1      40.055  36.191  37.343  1.00  0.00     0.124 S 
ATOM     73  O   UNL A   1      41.392  35.789  37.772  1.00  0.00    -0.237 OA
ATOM     74  O   UNL A   1      39.963  36.784  36.013  1.00  0.00    -0.237 OA
ATOM     75  O   UNL A   1      39.246  36.838  38.374  1.00  0.00    -0.744 OA
ENDBRANCH  68  72
ENDBRANCH  51  65
BRANCH  52  76
ATOM     76  C   UNL A   1      41.570  27.356  27.614  1.00  0.00     0.023 A 
ATOM     77  C   UNL A   1      41.473  25.958  27.540  1.00  0.00     0.031 A 
ATOM     78  C   UNL A   1      42.103  28.041  26.508  1.00  0.00     0.131 A 
ATOM     79  C   UNL A   1      41.945  25.283  26.404  1.00  0.00     0.055 A 
ATOM     80  C   UNL A   1      42.524  27.368  25.359  1.00  0.00     0.041 A 
ATOM     81  F   UNL A   1      42.211  29.379  26.525  1.00  0.00    -0.206 F 
ATOM     82  C   UNL A   1      42.458  25.980  25.307  1.00  0.00     0.022 A 
BRANCH  79  83
ATOM     83  S   UNL A   1      41.951  23.469  26.410  1.00  0.00     0.124 S 
ATOM     84  O   UNL A   1      40.524  23.167  26.441  1.00  0.00    -0.237 OA
ATOM     85  O   UNL A   1      42.644  23.165  25.163  1.00  0.00    -0.237 OA
ATOM     86  O   UNL A   1      42.687  23.135  27.627  1.00  0.00    -0.744 OA
ENDBRANCH  79  83
ENDBRANCH  52  76
BRANCH  64  87
ATOM     87  C   UNL A   1      44.273  27.753  34.025  1.00  0.00     0.023 A 
ATOM     88  C   UNL A   1      44.151  26.479  34.604  1.00  0.00     0.031 A 
ATOM     89  C   UNL A   1      45.529  28.386  34.075  1.00  0.00     0.131 A 
ATOM     90  C   UNL A   1      45.250  25.900  35.257  1.00  0.00     0.055 A 
ATOM     91  C   UNL A   1      46.634  27.780  34.674  1.00  0.00     0.041 A 
ATOM     92  F   UNL A   1      45.702  29.605  33.540  1.00  0.00    -0.206 F 
ATOM     93  C   UNL A   1      46.495  26.535  35.281  1.00  0.00     0.022 A 
BRANCH  90  94
ATOM     94  S   UNL A   1      45.011  24.342  36.155  1.00  0.00     0.124 S 
ATOM     95  O   UNL A   1      46.014  23.479  35.539  1.00  0.00    -0.237 OA
ATOM     96  O   UNL A   1      45.270  24.735  37.537  1.00  0.00    -0.237 OA
ATOM     97  O   UNL A   1      43.624  23.986  35.863  1.00  0.00    -0.744 OA
ENDBRANCH  90  94
ENDBRANCH  64  87
ENDBRANCH  38  39
ENDBRANCH  30  33
ENDBRANCH  28  29
ENDBRANCH   1  28
TORSDOF 15
ENDMDL
MODEL 3
REMARK VINA RESULT:     -12.5      2.853      3.836
REMARK SMILES CC(C)N1C[C@@]2(CCCN(c3ccc(C(=O)NCCCNC(=O)c4ccc(-c5c6nc(c(-c7cc(S(=O)(=O)[O-])ccc7F)c7ccc([nH]7)c(-c7cc(S(=O)(=O)[O-])ccc7F)c7nc(c(-c8cc(S(=O)(=O)[O-])ccc8F)c8ccc5[nH]8)C=C7)C=C6)cc4)cn3)C2)CCC1=O
REMARK SMILES IDX 19 1 18 2 17 3 15 4 16 5 14 7 11 8 12 9 88 10 13 11 87 12
REMARK SMILES IDX 10 13 4 14 5 15 92 16 6 17 91 18 93 19 7 20 89 21 90 22 8 23
REMARK SMILES IDX 9 24 2 25 1 26 3 27 20 28 21 29 22 30 23 32 24 33 25 34
REMARK SMILES IDX 86 35 26 36 85 37 27 38 28 39 29 40 79 41 30 42 84 43 78 44
REMARK SMILES IDX 80 45 31 46 83 47 77 48 76 49 32 51 64 52 44 53 63 54 45 55
REMARK SMILES IDX 48 56 62 57 81 58 46 59 47 60 61 62 82 63 49 64 33 65 34 66
REMARK SMILES IDX 42 67 35 68 41 69 43 70 40 71 36 72 37 73 38 74 39 75 65 76
REMARK SMILES IDX 66 77 74 78 67 79 73 80 75 81 72 82 68 83 69 84 70 85 71 86
REMARK SMILES IDX 50 87 51 88 59 89 52 90 58 91 60 92 57 93 53 94 54 95 55 96
REMARK SMILES IDX 56 97
REMARK H PARENT 17 6 21 31 80 50 48 61
REMARK Flexibility Score: inf
ROOT
ATOM      1  C   UNL A   1      31.547  32.181  26.828  1.00  0.00     0.042 C 
ENDROOT
BRANCH   1   2
ATOM      2  C   UNL A   1      31.770  30.800  26.223  1.00  0.00     0.118 C 
BRANCH   2   3
ATOM      3  N   UNL A   1      31.539  29.706  27.160  1.00  0.00    -0.352 N 
ATOM      4  C   UNL A   1      31.714  28.348  26.978  1.00  0.00     0.252 C 
ATOM      5  O   UNL A   1      31.407  27.549  27.843  1.00  0.00    -0.269 OA
ATOM      6  H   UNL A   1      31.211  29.973  28.049  1.00  0.00     0.163 HD
BRANCH   4   7
ATOM      7  C   UNL A   1      32.234  27.870  25.689  1.00  0.00     0.058 A 
ATOM      8  C   UNL A   1      33.256  26.402  23.590  1.00  0.00     0.128 A 
ATOM      9  C   UNL A   1      31.937  26.861  23.539  1.00  0.00     0.048 A 
ATOM     10  N   UNL A   1      34.087  26.853  24.558  1.00  0.00    -0.239 NA
ATOM     11  C   UNL A   1      31.411  27.586  24.609  1.00  0.00     0.019 A 
ATOM     12  C   UNL A   1      33.575  27.577  25.583  1.00  0.00     0.127 A 
BRANCH   8  13
ATOM     13  N   UNL A   1      33.715  25.375  22.780  1.00  0.00    -0.356 N 
ATOM     14  N   UNL A   1      34.870  22.115  25.643  1.00  0.00    -0.340 N 
ATOM     15  C   UNL A   1      34.167  21.918  24.380  1.00  0.00     0.128 C 
ATOM     16  C   UNL A   1      34.355  22.902  26.663  1.00  0.00     0.222 C 
ATOM     17  C   UNL A   1      33.402  23.156  23.877  1.00  0.00     0.006 C 
ATOM     18  C   UNL A   1      33.197  23.818  26.329  1.00  0.00     0.101 C 
ATOM     19  O   UNL A   1      34.859  22.980  27.785  1.00  0.00    -0.275 OA
ATOM     20  C   UNL A   1      32.575  22.746  22.624  1.00  0.00     0.012 C 
ATOM     21  C   UNL A   1      34.413  24.276  23.473  1.00  0.00     0.127 C 
ATOM     22  C   UNL A   1      32.456  23.536  25.033  1.00  0.00     0.020 C 
ATOM     23  C   UNL A   1      31.992  23.931  21.844  1.00  0.00     0.022 C 
ATOM     24  C   UNL A   1      33.059  24.982  21.541  1.00  0.00     0.118 C 
BRANCH  14  25
ATOM     25  C   UNL A   1      36.164  21.425  25.800  1.00  0.00     0.078 C 
ATOM     26  C   UNL A   1      36.156  20.130  24.988  1.00  0.00     0.031 C 
ATOM     27  C   UNL A   1      37.401  22.270  25.490  1.00  0.00     0.031 C 
ENDBRANCH  14  25
ENDBRANCH   8  13
ENDBRANCH   4   7
ENDBRANCH   2   3
ENDBRANCH   1   2
BRANCH   1  28
ATOM     28  C   UNL A   1      32.783  32.827  27.442  1.00  0.00     0.118 C 
BRANCH  28  29
ATOM     29  N   UNL A   1      32.571  34.211  27.841  1.00  0.00    -0.352 N 
ATOM     30  C   UNL A   1      33.196  34.977  28.797  1.00  0.00     0.251 C 
ATOM     31  H   UNL A   1      31.861  34.677  27.342  1.00  0.00     0.163 HD
ATOM     32  O   UNL A   1      32.738  36.088  29.056  1.00  0.00    -0.269 OA
BRANCH  30  33
ATOM     33  C   UNL A   1      34.380  34.473  29.537  1.00  0.00     0.039 A 
ATOM     34  C   UNL A   1      34.186  33.865  30.782  1.00  0.00     0.014 A 
ATOM     35  C   UNL A   1      35.675  34.612  29.036  1.00  0.00     0.014 A 
ATOM     36  C   UNL A   1      35.275  33.327  31.478  1.00  0.00     0.010 A 
ATOM     37  C   UNL A   1      36.747  34.001  29.687  1.00  0.00     0.010 A 
ATOM     38  C   UNL A   1      36.560  33.349  30.916  1.00  0.00    -0.014 A 
BRANCH  38  39
ATOM     39  C   UNL A   1      37.719  32.701  31.590  1.00  0.00     0.031 A 
ATOM     40  C   UNL A   1      38.433  31.549  30.932  1.00  0.00     0.074 A 
ATOM     41  C   UNL A   1      38.079  33.095  32.829  1.00  0.00     0.049 A 
ATOM     42  N   UNL A   1      39.387  30.786  31.402  1.00  0.00    -0.248 NA
ATOM     43  C   UNL A   1      37.989  31.189  29.577  1.00  0.00     0.031 C 
ATOM     44  C   UNL A   1      37.444  34.171  33.593  1.00  0.00     0.029 A 
ATOM     45  N   UNL A   1      39.059  32.629  33.671  1.00  0.00    -0.354 N 
ATOM     46  C   UNL A   1      39.640  29.840  30.413  1.00  0.00     0.074 A 
ATOM     47  C   UNL A   1      38.699  30.096  29.342  1.00  0.00     0.031 C 
ATOM     48  C   UNL A   1      38.064  34.297  34.777  1.00  0.00     0.029 A 
ATOM     49  C   UNL A   1      39.107  33.282  34.882  1.00  0.00     0.049 A 
ATOM     50  H   UNL A   1      39.671  31.896  33.430  1.00  0.00     0.167 HD
ATOM     51  C   UNL A   1      40.580  28.862  30.391  1.00  0.00     0.034 A 
ATOM     52  C   UNL A   1      39.890  33.079  35.959  1.00  0.00     0.034 A 
ATOM     53  C   UNL A   1      41.528  28.635  31.456  1.00  0.00     0.049 A 
ATOM     54  C   UNL A   1      40.919  31.977  35.918  1.00  0.00     0.074 A 
ATOM     55  C   UNL A   1      42.567  27.720  31.505  1.00  0.00     0.029 A 
ATOM     56  N   UNL A   1      41.549  29.321  32.664  1.00  0.00    -0.354 N 
ATOM     57  N   UNL A   1      41.180  31.125  34.954  1.00  0.00    -0.248 NA
ATOM     58  C   UNL A   1      41.764  31.816  37.108  1.00  0.00     0.031 C 
ATOM     59  C   UNL A   1      43.172  27.810  32.764  1.00  0.00     0.029 A 
ATOM     60  C   UNL A   1      42.562  28.831  33.475  1.00  0.00     0.049 A 
ATOM     61  H   UNL A   1      40.934  30.051  32.908  1.00  0.00     0.167 HD
ATOM     62  C   UNL A   1      42.241  30.348  35.411  1.00  0.00     0.074 A 
ATOM     63  C   UNL A   1      42.579  30.843  36.729  1.00  0.00     0.031 C 
ATOM     64  C   UNL A   1      42.883  29.324  34.793  1.00  0.00     0.034 A 
BRANCH  51  65
ATOM     65  C   UNL A   1      40.608  27.952  29.185  1.00  0.00     0.023 A 
ATOM     66  C   UNL A   1      41.552  28.114  28.155  1.00  0.00     0.031 A 
ATOM     67  C   UNL A   1      39.659  26.923  29.047  1.00  0.00     0.131 A 
ATOM     68  C   UNL A   1      41.475  27.322  27.001  1.00  0.00     0.055 A 
ATOM     69  C   UNL A   1      39.641  26.081  27.933  1.00  0.00     0.041 A 
ATOM     70  F   UNL A   1      38.722  26.728  29.988  1.00  0.00    -0.206 F 
ATOM     71  C   UNL A   1      40.542  26.289  26.893  1.00  0.00     0.022 A 
BRANCH  68  72
ATOM     72  S   UNL A   1      42.513  27.760  25.579  1.00  0.00     0.124 S 
ATOM     73  O   UNL A   1      41.842  28.960  25.085  1.00  0.00    -0.237 OA
ATOM     74  O   UNL A   1      43.819  27.966  26.194  1.00  0.00    -0.237 OA
ATOM     75  O   UNL A   1      42.410  26.593  24.705  1.00  0.00    -0.744 OA
ENDBRANCH  68  72
ENDBRANCH  51  65
BRANCH  52  76
ATOM     76  C   UNL A   1      39.736  33.925  37.178  1.00  0.00     0.023 A 
ATOM     77  C   UNL A   1      40.612  34.991  37.430  1.00  0.00     0.031 A 
ATOM     78  C   UNL A   1      38.736  33.652  38.129  1.00  0.00     0.131 A 
ATOM     79  C   UNL A   1      40.503  35.720  38.625  1.00  0.00     0.055 A 
ATOM     80  C   UNL A   1      38.600  34.412  39.292  1.00  0.00     0.041 A 
ATOM     81  F   UNL A   1      37.868  32.647  37.933  1.00  0.00    -0.206 F 
ATOM     82  C   UNL A   1      39.495  35.445  39.552  1.00  0.00     0.022 A 
BRANCH  79  83
ATOM     83  S   UNL A   1      41.751  36.985  38.988  1.00  0.00     0.124 S 
ATOM     84  O   UNL A   1      40.922  38.107  39.414  1.00  0.00    -0.237 OA
ATOM     85  O   UNL A   1      42.541  36.339  40.031  1.00  0.00    -0.237 OA
ATOM     86  O   UNL A   1      42.437  37.164  37.711  1.00  0.00    -0.744 OA
ENDBRANCH  79  83
ENDBRANCH  52  76
BRANCH  64  87
ATOM     87  C   UNL A   1      44.050  28.707  35.525  1.00  0.00     0.023 A 
ATOM     88  C   UNL A   1      43.884  27.632  36.415  1.00  0.00     0.031 A 
ATOM     89  C   UNL A   1      45.347  29.217  35.336  1.00  0.00     0.131 A 
ATOM     90  C   UNL A   1      44.988  27.137  37.125  1.00  0.00     0.055 A 
ATOM     91  C   UNL A   1      46.451  28.681  36.001  1.00  0.00     0.041 A 
ATOM     92  F   UNL A   1      45.564  30.244  34.499  1.00  0.00    -0.206 F 
ATOM     93  C   UNL A   1      46.273  27.643  36.912  1.00  0.00     0.022 A 
BRANCH  90  94
ATOM     94  S   UNL A   1      44.711  25.878  38.403  1.00  0.00     0.124 S 
ATOM     95  O   UNL A   1      43.938  24.875  37.677  1.00  0.00    -0.237 OA
ATOM     96  O   UNL A   1      46.072  25.496  38.764  1.00  0.00    -0.237 OA
ATOM     97  O   UNL A   1      43.974  26.598  39.439  1.00  0.00    -0.744 OA
ENDBRANCH  90  94
ENDBRANCH  64  87
ENDBRANCH  38  39
ENDBRANCH  30  33
ENDBRANCH  28  29
ENDBRANCH   1  28
TORSDOF 15
ENDMDL
