MODEL 1
REMARK VINA RESULT:     -13.0      0.000      0.000
REMARK SMILES [NH3+][C@H]1C=C[C@H](C(=O)N2CCCc3c(C(=O)NCCCNC(=O)c4ccc(-c5c6nc(c(-c7cc(S(=O)(=O)[O-])ccc7F)c7ccc([nH]7)c(-c7cc(S(=O)(=O)[O-])ccc7F)c7nc(c(-c8cc(S(=O)(=O)[O-])ccc8F)c8ccc5[nH]8)C=C7)C=C6)cc4)cccc32)C1
REMARK SMILES IDX 18 1 17 2 16 3 14 4 15 5 13 7 8 8 9 9 89 10 10 11 12 12
REMARK SMILES IDX 88 13 11 14 87 15 86 16 6 17 7 18 5 19 2 20 3 21 90 22 4 23
REMARK SMILES IDX 1 24 19 28 20 29 21 30 22 32 23 33 24 34 85 35 25 36 84 37
REMARK SMILES IDX 26 38 27 39 28 40 78 41 29 42 83 43 77 44 79 45 30 46 82 47
REMARK SMILES IDX 76 48 75 49 31 51 63 52 43 53 62 54 44 55 47 56 61 57 80 58
REMARK SMILES IDX 45 59 46 60 60 62 81 63 48 64 32 65 33 66 41 67 34 68 40 69
REMARK SMILES IDX 42 70 39 71 35 72 36 73 37 74 38 75 64 76 65 77 73 78 66 79
REMARK SMILES IDX 72 80 74 81 71 82 67 83 68 84 69 85 70 86 49 87 50 88 58 89
REMARK SMILES IDX 51 90 57 91 59 92 56 93 52 94 53 95 54 96 55 97
REMARK H PARENT 16 6 1 25 1 26 1 27 20 31 79 50 47 61
REMARK Flexibility Score: inf
ROOT
ATOM      1  C   UNL A   1      31.528  32.268  26.621  1.00  0.00     0.042 C 
ENDROOT
BRANCH   1   2
ATOM      2  C   UNL A   1      31.637  30.804  26.195  1.00  0.00     0.118 C 
BRANCH   2   3
ATOM      3  N   UNL A   1      30.888  30.554  24.979  1.00  0.00    -0.352 N 
ATOM      4  C   UNL A   1      30.800  29.604  24.000  1.00  0.00     0.251 C 
ATOM      5  O   UNL A   1      29.899  29.857  23.187  1.00  0.00    -0.269 OA
ATOM      6  H   UNL A   1      30.253  31.286  24.808  1.00  0.00     0.163 HD
BRANCH   4   7
ATOM      7  C   UNL A   1      31.590  28.327  23.784  1.00  0.00     0.045 A 
ATOM      8  N   UNL A   1      32.206  24.649  24.537  1.00  0.00    -0.312 N 
ATOM      9  C   UNL A   1      30.893  24.289  25.042  1.00  0.00     0.126 C 
ATOM     10  C   UNL A   1      32.385  26.000  24.056  1.00  0.00     0.048 A 
ATOM     11  C   UNL A   1      30.362  25.365  25.951  1.00  0.00     0.027 C 
ATOM     12  C   UNL A   1      31.411  27.014  24.299  1.00  0.00    -0.011 A 
ATOM     13  C   UNL A   1      33.541  26.314  23.329  1.00  0.00     0.027 A 
ATOM     14  C   UNL A   1      30.260  26.661  25.181  1.00  0.00     0.040 C 
ATOM     15  C   UNL A   1      33.734  27.589  22.822  1.00  0.00     0.003 A 
ATOM     16  C   UNL A   1      32.770  28.567  23.038  1.00  0.00     0.014 A 
BRANCH   8  17
ATOM     17  C   UNL A   1      33.313  23.851  24.828  1.00  0.00     0.234 C 
ATOM     18  O   UNL A   1      34.000  24.059  25.837  1.00  0.00    -0.274 OA
BRANCH  17  19
ATOM     19  C   UNL A   1      33.809  22.867  23.735  1.00  0.00     0.108 C 
ATOM     20  C   UNL A   1      31.985  21.653  22.675  1.00  0.00     0.205 C 
ATOM     21  C   UNL A   1      32.659  20.801  23.698  1.00  0.00     0.033 C 
ATOM     22  C   UNL A   1      33.077  22.696  22.401  1.00  0.00     0.087 C 
ATOM     23  C   UNL A   1      33.677  21.456  24.269  1.00  0.00    -0.012 C 
BRANCH  20  24
ATOM     24  N   UNL A   1      31.635  20.922  21.476  1.00  0.00    -0.352 N 
ATOM     25  H   UNL A   1      31.337  21.577  20.753  1.00  0.00     0.345 HD
ATOM     26  H   UNL A   1      30.876  20.274  21.681  1.00  0.00     0.345 HD
ATOM     27  H   UNL A   1      32.448  20.400  21.146  1.00  0.00     0.345 HD
ENDBRANCH  20  24
ENDBRANCH  17  19
ENDBRANCH   8  17
ENDBRANCH   4   7
ENDBRANCH   2   3
ENDBRANCH   1   2
BRANCH   1  28
ATOM     28  C   UNL A   1      32.766  32.839  27.277  1.00  0.00     0.118 C 
BRANCH  28  29
ATOM     29  N   UNL A   1      32.562  34.209  27.713  1.00  0.00    -0.352 N 
ATOM     30  C   UNL A   1      33.136  34.890  28.761  1.00  0.00     0.251 C 
ATOM     31  H   UNL A   1      31.916  34.727  27.180  1.00  0.00     0.163 HD
ATOM     32  O   UNL A   1      32.658  35.968  29.099  1.00  0.00    -0.269 OA
BRANCH  30  33
ATOM     33  C   UNL A   1      34.294  34.319  29.493  1.00  0.00     0.039 A 
ATOM     34  C   UNL A   1      34.056  33.547  30.634  1.00  0.00     0.014 A 
ATOM     35  C   UNL A   1      35.610  34.551  29.081  1.00  0.00     0.014 A 
ATOM     36  C   UNL A   1      35.127  32.976  31.325  1.00  0.00     0.010 A 
ATOM     37  C   UNL A   1      36.665  33.891  29.702  1.00  0.00     0.010 A 
ATOM     38  C   UNL A   1      36.440  33.115  30.847  1.00  0.00    -0.014 A 
BRANCH  38  39
ATOM     39  C   UNL A   1      37.594  32.498  31.551  1.00  0.00     0.031 A 
ATOM     40  C   UNL A   1      38.341  31.361  30.902  1.00  0.00     0.074 A 
ATOM     41  C   UNL A   1      37.931  32.923  32.783  1.00  0.00     0.049 A 
ATOM     42  N   UNL A   1      39.323  30.638  31.377  1.00  0.00    -0.248 NA
ATOM     43  C   UNL A   1      37.902  30.960  29.556  1.00  0.00     0.031 C 
ATOM     44  C   UNL A   1      37.252  33.989  33.524  1.00  0.00     0.029 A 
ATOM     45  N   UNL A   1      38.924  32.512  33.635  1.00  0.00    -0.354 N 
ATOM     46  C   UNL A   1      39.606  29.692  30.396  1.00  0.00     0.074 A 
ATOM     47  C   UNL A   1      38.644  29.888  29.334  1.00  0.00     0.031 C 
ATOM     48  C   UNL A   1      37.872  34.171  34.702  1.00  0.00     0.029 A 
ATOM     49  C   UNL A   1      38.954  33.201  34.827  1.00  0.00     0.049 A 
ATOM     50  H   UNL A   1      39.557  31.790  33.415  1.00  0.00     0.167 HD
ATOM     51  C   UNL A   1      40.593  28.764  30.372  1.00  0.00     0.034 A 
ATOM     52  C   UNL A   1      39.755  33.057  35.902  1.00  0.00     0.034 A 
ATOM     53  C   UNL A   1      41.554  28.600  31.435  1.00  0.00     0.049 A 
ATOM     54  C   UNL A   1      40.831  31.999  35.862  1.00  0.00     0.074 A 
ATOM     55  C   UNL A   1      42.630  27.732  31.497  1.00  0.00     0.029 A 
ATOM     56  N   UNL A   1      41.551  29.314  32.626  1.00  0.00    -0.354 N 
ATOM     57  N   UNL A   1      41.117  31.147  34.904  1.00  0.00    -0.248 NA
ATOM     58  C   UNL A   1      41.697  31.891  37.042  1.00  0.00     0.031 C 
ATOM     59  C   UNL A   1      43.230  27.867  32.753  1.00  0.00     0.029 A 
ATOM     60  C   UNL A   1      42.585  28.883  33.443  1.00  0.00     0.049 A 
ATOM     61  H   UNL A   1      40.908  30.023  32.858  1.00  0.00     0.167 HD
ATOM     62  C   UNL A   1      42.221  30.428  35.354  1.00  0.00     0.074 A 
ATOM     63  C   UNL A   1      42.555  30.959  36.660  1.00  0.00     0.031 C 
ATOM     64  C   UNL A   1      42.899  29.421  34.745  1.00  0.00     0.034 A 
BRANCH  51  65
ATOM     65  C   UNL A   1      40.665  27.847  29.173  1.00  0.00     0.023 A 
ATOM     66  C   UNL A   1      41.602  28.046  28.143  1.00  0.00     0.031 A 
ATOM     67  C   UNL A   1      39.772  26.768  29.047  1.00  0.00     0.131 A 
ATOM     68  C   UNL A   1      41.575  27.229  27.003  1.00  0.00     0.055 A 
ATOM     69  C   UNL A   1      39.808  25.905  27.950  1.00  0.00     0.041 A 
ATOM     70  F   UNL A   1      38.840  26.540  29.986  1.00  0.00    -0.206 F 
ATOM     71  C   UNL A   1      40.703  26.141  26.912  1.00  0.00     0.022 A 
BRANCH  68  72
ATOM     72  S   UNL A   1      42.596  27.695  25.578  1.00  0.00     0.124 S 
ATOM     73  O   UNL A   1      42.505  26.498  24.745  1.00  0.00    -0.237 OA
ATOM     74  O   UNL A   1      41.911  28.879  25.073  1.00  0.00    -0.237 OA
ATOM     75  O   UNL A   1      43.913  27.939  26.164  1.00  0.00    -0.744 OA
ENDBRANCH  68  72
ENDBRANCH  51  65
BRANCH  52  76
ATOM     76  C   UNL A   1      39.576  33.919  37.106  1.00  0.00     0.023 A 
ATOM     77  C   UNL A   1      38.963  33.421  38.267  1.00  0.00     0.031 A 
ATOM     78  C   UNL A   1      39.968  35.270  37.099  1.00  0.00     0.131 A 
ATOM     79  C   UNL A   1      38.707  34.278  39.349  1.00  0.00     0.055 A 
ATOM     80  C   UNL A   1      39.768  36.103  38.202  1.00  0.00     0.041 A 
ATOM     81  F   UNL A   1      40.561  35.800  36.018  1.00  0.00    -0.206 F 
ATOM     82  C   UNL A   1      39.119  35.613  39.330  1.00  0.00     0.022 A 
BRANCH  79  83
ATOM     83  S   UNL A   1      37.729  33.650  40.742  1.00  0.00     0.124 S 
ATOM     84  O   UNL A   1      37.363  34.885  41.426  1.00  0.00    -0.237 OA
ATOM     85  O   UNL A   1      36.647  32.949  40.059  1.00  0.00    -0.237 OA
ATOM     86  O   UNL A   1      38.671  32.794  41.459  1.00  0.00    -0.744 OA
ENDBRANCH  79  83
ENDBRANCH  52  76
BRANCH  64  87
ATOM     87  C   UNL A   1      44.104  28.870  35.468  1.00  0.00     0.023 A 
ATOM     88  C   UNL A   1      44.002  27.792  36.364  1.00  0.00     0.031 A 
ATOM     89  C   UNL A   1      45.372  29.441  35.262  1.00  0.00     0.131 A 
ATOM     90  C   UNL A   1      45.137  27.358  37.065  1.00  0.00     0.055 A 
ATOM     91  C   UNL A   1      46.510  28.959  35.909  1.00  0.00     0.041 A 
ATOM     92  F   UNL A   1      45.527  30.476  34.420  1.00  0.00    -0.206 F 
ATOM     93  C   UNL A   1      46.394  27.921  36.828  1.00  0.00     0.022 A 
BRANCH  90  94
ATOM     94  S   UNL A   1      44.931  26.114  38.369  1.00  0.00     0.124 S 
ATOM     95  O   UNL A   1      44.394  26.913  39.466  1.00  0.00    -0.237 OA
ATOM     96  O   UNL A   1      44.004  25.169  37.755  1.00  0.00    -0.237 OA
ATOM     97  O   UNL A   1      46.286  25.607  38.576  1.00  0.00    -0.744 OA
ENDBRANCH  90  94
ENDBRANCH  64  87
ENDBRANCH  38  39
ENDBRANCH  30  33
ENDBRANCH  28  29
ENDBRANCH   1  28
TORSDOF 16
ENDMDL
MODEL 2
REMARK VINA RESULT:     -12.8      5.445      9.027
REMARK SMILES [NH3+][C@H]1C=C[C@H](C(=O)N2CCCc3c(C(=O)NCCCNC(=O)c4ccc(-c5c6nc(c(-c7cc(S(=O)(=O)[O-])ccc7F)c7ccc([nH]7)c(-c7cc(S(=O)(=O)[O-])ccc7F)c7nc(c(-c8cc(S(=O)(=O)[O-])ccc8F)c8ccc5[nH]8)C=C7)C=C6)cc4)cccc32)C1
REMARK SMILES IDX 18 1 17 2 16 3 14 4 15 5 13 7 8 8 9 9 89 10 10 11 12 12
REMARK SMILES IDX 88 13 11 14 87 15 86 16 6 17 7 18 5 19 2 20 3 21 90 22 4 23
REMARK SMILES IDX 1 24 19 28 20 29 21 30 22 32 23 33 24 34 85 35 25 36 84 37
REMARK SMILES IDX 26 38 27 39 28 40 78 41 29 42 83 43 77 44 79 45 30 46 82 47
REMARK SMILES IDX 76 48 75 49 31 51 63 52 43 53 62 54 44 55 47 56 61 57 80 58
REMARK SMILES IDX 45 59 46 60 60 62 81 63 48 64 32 65 33 66 41 67 34 68 40 69
REMARK SMILES IDX 42 70 39 71 35 72 36 73 37 74 38 75 64 76 65 77 73 78 66 79
REMARK SMILES IDX 72 80 74 81 71 82 67 83 68 84 69 85 70 86 49 87 50 88 58 89
REMARK SMILES IDX 51 90 57 91 59 92 56 93 52 94 53 95 54 96 55 97
REMARK H PARENT 16 6 1 25 1 26 1 27 20 31 79 50 47 61
REMARK Flexibility Score: inf
ROOT
ATOM      1  C   UNL A   1      35.804  22.278  25.068  1.00  0.00     0.042 C 
ENDROOT
BRANCH   1   2
ATOM      2  C   UNL A   1      35.101  21.058  25.663  1.00  0.00     0.118 C 
BRANCH   2   3
ATOM      3  N   UNL A   1      33.990  20.634  24.834  1.00  0.00    -0.352 N 
ATOM      4  C   UNL A   1      32.784  21.113  24.403  1.00  0.00     0.251 C 
ATOM      5  O   UNL A   1      32.232  20.334  23.612  1.00  0.00    -0.269 OA
ATOM      6  H   UNL A   1      34.153  19.733  24.474  1.00  0.00     0.163 HD
BRANCH   4   7
ATOM      7  C   UNL A   1      32.064  22.410  24.715  1.00  0.00     0.045 A 
ATOM      8  N   UNL A   1      31.650  26.162  24.242  1.00  0.00    -0.312 N 
ATOM      9  C   UNL A   1      32.323  26.315  22.964  1.00  0.00     0.126 C 
ATOM     10  C   UNL A   1      31.519  24.824  24.769  1.00  0.00     0.048 A 
ATOM     11  C   UNL A   1      33.581  25.489  22.927  1.00  0.00     0.027 C 
ATOM     12  C   UNL A   1      32.236  23.726  24.204  1.00  0.00    -0.011 A 
ATOM     13  C   UNL A   1      30.662  24.601  25.854  1.00  0.00     0.027 A 
ATOM     14  C   UNL A   1      33.228  24.034  23.133  1.00  0.00     0.040 C 
ATOM     15  C   UNL A   1      30.483  23.327  26.367  1.00  0.00     0.003 A 
ATOM     16  C   UNL A   1      31.163  22.256  25.797  1.00  0.00     0.014 A 
BRANCH   8  17
ATOM     17  C   UNL A   1      31.461  27.269  25.071  1.00  0.00     0.234 C 
ATOM     18  O   UNL A   1      30.857  28.271  24.666  1.00  0.00    -0.274 OA
BRANCH  17  19
ATOM     19  C   UNL A   1      32.239  27.316  26.414  1.00  0.00     0.108 C 
ATOM     20  C   UNL A   1      33.133  29.527  26.897  1.00  0.00     0.205 C 
ATOM     21  C   UNL A   1      34.199  28.638  26.350  1.00  0.00     0.033 C 
ATOM     22  C   UNL A   1      32.112  28.490  27.387  1.00  0.00     0.087 C 
ATOM     23  C   UNL A   1      33.718  27.413  26.103  1.00  0.00    -0.012 C 
BRANCH  20  24
ATOM     24  N   UNL A   1      33.599  30.366  27.981  1.00  0.00    -0.352 N 
ATOM     25  H   UNL A   1      34.095  31.172  27.598  1.00  0.00     0.345 HD
ATOM     26  H   UNL A   1      34.229  29.832  28.578  1.00  0.00     0.345 HD
ATOM     27  H   UNL A   1      32.801  30.688  28.529  1.00  0.00     0.345 HD
ENDBRANCH  20  24
ENDBRANCH  17  19
ENDBRANCH   8  17
ENDBRANCH   4   7
ENDBRANCH   2   3
ENDBRANCH   1   2
BRANCH   1  28
ATOM     28  C   UNL A   1      37.192  22.018  24.525  1.00  0.00     0.118 C 
BRANCH  28  29
ATOM     29  N   UNL A   1      37.877  20.979  25.273  1.00  0.00    -0.352 N 
ATOM     30  C   UNL A   1      39.009  21.060  26.050  1.00  0.00     0.251 C 
ATOM     31  H   UNL A   1      37.471  20.084  25.215  1.00  0.00     0.163 HD
ATOM     32  O   UNL A   1      39.554  20.021  26.410  1.00  0.00    -0.269 OA
BRANCH  30  33
ATOM     33  C   UNL A   1      39.581  22.378  26.422  1.00  0.00     0.039 A 
ATOM     34  C   UNL A   1      40.811  22.414  27.086  1.00  0.00     0.014 A 
ATOM     35  C   UNL A   1      38.912  23.574  26.144  1.00  0.00     0.014 A 
ATOM     36  C   UNL A   1      41.384  23.644  27.423  1.00  0.00     0.010 A 
ATOM     37  C   UNL A   1      39.535  24.795  26.378  1.00  0.00     0.010 A 
ATOM     38  C   UNL A   1      40.767  24.846  27.043  1.00  0.00    -0.014 A 
BRANCH  38  39
ATOM     39  C   UNL A   1      41.369  26.165  27.369  1.00  0.00     0.031 A 
ATOM     40  C   UNL A   1      42.741  26.507  26.850  1.00  0.00     0.074 A 
ATOM     41  C   UNL A   1      40.706  27.024  28.167  1.00  0.00     0.049 A 
ATOM     42  N   UNL A   1      43.473  27.568  27.079  1.00  0.00    -0.248 NA
ATOM     43  C   UNL A   1      43.393  25.508  25.987  1.00  0.00     0.031 C 
ATOM     44  C   UNL A   1      39.388  26.781  28.759  1.00  0.00     0.029 A 
ATOM     45  N   UNL A   1      41.046  28.272  28.624  1.00  0.00    -0.354 N 
ATOM     46  C   UNL A   1      44.671  27.355  26.403  1.00  0.00     0.074 A 
ATOM     47  C   UNL A   1      44.594  26.035  25.818  1.00  0.00     0.031 C 
ATOM     48  C   UNL A   1      39.018  27.859  29.469  1.00  0.00     0.029 A 
ATOM     49  C   UNL A   1      40.091  28.847  29.431  1.00  0.00     0.049 A 
ATOM     50  H   UNL A   1      41.895  28.715  28.395  1.00  0.00     0.167 HD
ATOM     51  C   UNL A   1      45.726  28.194  26.263  1.00  0.00     0.034 A 
ATOM     52  C   UNL A   1      40.088  30.030  30.077  1.00  0.00     0.034 A 
ATOM     53  C   UNL A   1      45.772  29.515  26.840  1.00  0.00     0.049 A 
ATOM     54  C   UNL A   1      41.285  30.936  29.926  1.00  0.00     0.074 A 
ATOM     55  C   UNL A   1      46.762  30.474  26.719  1.00  0.00     0.029 A 
ATOM     56  N   UNL A   1      44.787  30.062  27.653  1.00  0.00    -0.354 N 
ATOM     57  N   UNL A   1      42.389  30.741  29.240  1.00  0.00    -0.248 NA
ATOM     58  C   UNL A   1      41.232  32.226  30.626  1.00  0.00     0.031 C 
ATOM     59  C   UNL A   1      46.414  31.567  27.519  1.00  0.00     0.029 A 
ATOM     60  C   UNL A   1      45.163  31.330  28.068  1.00  0.00     0.049 A 
ATOM     61  H   UNL A   1      43.946  29.614  27.900  1.00  0.00     0.167 HD
ATOM     62  C   UNL A   1      43.144  31.900  29.399  1.00  0.00     0.074 A 
ATOM     63  C   UNL A   1      42.361  32.793  30.229  1.00  0.00     0.031 C 
ATOM     64  C   UNL A   1      44.371  32.203  28.902  1.00  0.00     0.034 A 
BRANCH  51  65
ATOM     65  C   UNL A   1      46.917  27.698  25.476  1.00  0.00     0.023 A 
ATOM     66  C   UNL A   1      47.123  28.064  24.134  1.00  0.00     0.031 A 
ATOM     67  C   UNL A   1      47.851  26.831  26.069  1.00  0.00     0.131 A 
ATOM     68  C   UNL A   1      48.190  27.508  23.410  1.00  0.00     0.055 A 
ATOM     69  C   UNL A   1      48.960  26.350  25.369  1.00  0.00     0.041 A 
ATOM     70  F   UNL A   1      47.696  26.426  27.340  1.00  0.00    -0.206 F 
ATOM     71  C   UNL A   1      49.126  26.676  24.027  1.00  0.00     0.022 A 
BRANCH  68  72
ATOM     72  S   UNL A   1      48.252  27.774  21.617  1.00  0.00     0.124 S 
ATOM     73  O   UNL A   1      49.332  28.752  21.501  1.00  0.00    -0.237 OA
ATOM     74  O   UNL A   1      48.543  26.438  21.110  1.00  0.00    -0.237 OA
ATOM     75  O   UNL A   1      46.921  28.287  21.299  1.00  0.00    -0.744 OA
ENDBRANCH  68  72
ENDBRANCH  51  65
BRANCH  52  76
ATOM     76  C   UNL A   1      38.930  30.430  30.929  1.00  0.00     0.023 A 
ATOM     77  C   UNL A   1      37.853  31.154  30.392  1.00  0.00     0.031 A 
ATOM     78  C   UNL A   1      38.905  30.141  32.305  1.00  0.00     0.131 A 
ATOM     79  C   UNL A   1      36.827  31.613  31.232  1.00  0.00     0.055 A 
ATOM     80  C   UNL A   1      37.851  30.547  33.127  1.00  0.00     0.041 A 
ATOM     81  F   UNL A   1      39.906  29.450  32.873  1.00  0.00    -0.206 F 
ATOM     82  C   UNL A   1      36.811  31.302  32.594  1.00  0.00     0.022 A 
BRANCH  79  83
ATOM     83  S   UNL A   1      35.567  32.718  30.540  1.00  0.00     0.124 S 
ATOM     84  O   UNL A   1      34.404  32.389  31.356  1.00  0.00    -0.237 OA
ATOM     85  O   UNL A   1      36.160  34.032  30.767  1.00  0.00    -0.237 OA
ATOM     86  O   UNL A   1      35.486  32.306  29.140  1.00  0.00    -0.744 OA
ENDBRANCH  79  83
ENDBRANCH  52  76
BRANCH  64  87
ATOM     87  C   UNL A   1      44.913  33.579  29.204  1.00  0.00     0.023 A 
ATOM     88  C   UNL A   1      44.643  34.681  28.374  1.00  0.00     0.031 A 
ATOM     89  C   UNL A   1      45.719  33.786  30.336  1.00  0.00     0.131 A 
ATOM     90  C   UNL A   1      45.224  35.926  28.657  1.00  0.00     0.055 A 
ATOM     91  C   UNL A   1      46.237  35.042  30.652  1.00  0.00     0.041 A 
ATOM     92  F   UNL A   1      46.013  32.767  31.162  1.00  0.00    -0.206 F 
ATOM     93  C   UNL A   1      46.003  36.118  29.801  1.00  0.00     0.022 A 
BRANCH  90  94
ATOM     94  S   UNL A   1      45.034  37.268  27.452  1.00  0.00     0.124 S 
ATOM     95  O   UNL A   1      43.717  36.985  26.890  1.00  0.00    -0.237 OA
ATOM     96  O   UNL A   1      45.128  38.458  28.292  1.00  0.00    -0.237 OA
ATOM     97  O   UNL A   1      46.156  37.068  26.536  1.00  0.00    -0.744 OA
ENDBRANCH  90  94
ENDBRANCH  64  87
ENDBRANCH  38  39
ENDBRANCH  30  33
ENDBRANCH  28  29
ENDBRANCH   1  28
TORSDOF 16
ENDMDL
MODEL 3
REMARK VINA RESULT:     -12.6      3.105      8.456
REMARK SMILES [NH3+][C@H]1C=C[C@H](C(=O)N2CCCc3c(C(=O)NCCCNC(=O)c4ccc(-c5c6nc(c(-c7cc(S(=O)(=O)[O-])ccc7F)c7ccc([nH]7)c(-c7cc(S(=O)(=O)[O-])ccc7F)c7nc(c(-c8cc(S(=O)(=O)[O-])ccc8F)c8ccc5[nH]8)C=C7)C=C6)cc4)cccc32)C1
REMARK SMILES IDX 18 1 17 2 16 3 14 4 15 5 13 7 8 8 9 9 89 10 10 11 12 12
REMARK SMILES IDX 88 13 11 14 87 15 86 16 6 17 7 18 5 19 2 20 3 21 90 22 4 23
REMARK SMILES IDX 1 24 19 28 20 29 21 30 22 32 23 33 24 34 85 35 25 36 84 37
REMARK SMILES IDX 26 38 27 39 28 40 78 41 29 42 83 43 77 44 79 45 30 46 82 47
REMARK SMILES IDX 76 48 75 49 31 51 63 52 43 53 62 54 44 55 47 56 61 57 80 58
REMARK SMILES IDX 45 59 46 60 60 62 81 63 48 64 32 65 33 66 41 67 34 68 40 69
REMARK SMILES IDX 42 70 39 71 35 72 36 73 37 74 38 75 64 76 65 77 73 78 66 79
REMARK SMILES IDX 72 80 74 81 71 82 67 83 68 84 69 85 70 86 49 87 50 88 58 89
REMARK SMILES IDX 51 90 57 91 59 92 56 93 52 94 53 95 54 96 55 97
REMARK H PARENT 16 6 1 25 1 26 1 27 20 31 79 50 47 61
REMARK Flexibility Score: inf
ROOT
ATOM      1  C   UNL A   1      33.007  29.154  25.083  1.00  0.00     0.042 C 
ENDROOT
BRANCH   1   2
ATOM      2  C   UNL A   1      31.531  29.548  25.106  1.00  0.00     0.118 C 
BRANCH   2   3
ATOM      3  N   UNL A   1      30.900  29.301  23.824  1.00  0.00    -0.352 N 
ATOM      4  C   UNL A   1      30.764  28.284  22.922  1.00  0.00     0.251 C 
ATOM      5  O   UNL A   1      30.025  28.597  21.976  1.00  0.00    -0.269 OA
ATOM      6  H   UNL A   1      30.429  30.106  23.511  1.00  0.00     0.163 HD
BRANCH   4   7
ATOM      7  C   UNL A   1      31.337  26.880  22.917  1.00  0.00     0.045 A 
ATOM      8  N   UNL A   1      31.908  23.533  24.633  1.00  0.00    -0.312 N 
ATOM      9  C   UNL A   1      30.827  23.577  25.602  1.00  0.00     0.126 C 
ATOM     10  C   UNL A   1      32.007  24.629  23.698  1.00  0.00     0.048 A 
ATOM     11  C   UNL A   1      30.720  24.948  26.214  1.00  0.00     0.027 C 
ATOM     12  C   UNL A   1      31.251  25.828  23.870  1.00  0.00    -0.011 A 
ATOM     13  C   UNL A   1      32.861  24.505  22.593  1.00  0.00     0.027 A 
ATOM     14  C   UNL A   1      30.453  25.960  25.123  1.00  0.00     0.040 C 
ATOM     15  C   UNL A   1      32.959  25.520  21.656  1.00  0.00     0.003 A 
ATOM     16  C   UNL A   1      32.201  26.676  21.814  1.00  0.00     0.014 A 
BRANCH   8  17
ATOM     17  C   UNL A   1      32.986  22.668  24.825  1.00  0.00     0.234 C 
ATOM     18  O   UNL A   1      32.974  21.522  24.356  1.00  0.00    -0.274 OA
BRANCH  17  19
ATOM     19  C   UNL A   1      34.080  23.083  25.845  1.00  0.00     0.108 C 
ATOM     20  C   UNL A   1      36.325  22.938  24.917  1.00  0.00     0.205 C 
ATOM     21  C   UNL A   1      36.031  21.748  25.768  1.00  0.00     0.033 C 
ATOM     22  C   UNL A   1      35.286  23.937  25.443  1.00  0.00     0.087 C 
ATOM     23  C   UNL A   1      34.805  21.834  26.299  1.00  0.00    -0.012 C 
BRANCH  20  24
ATOM     24  N   UNL A   1      37.674  23.434  25.088  1.00  0.00    -0.352 N 
ATOM     25  H   UNL A   1      37.646  24.344  25.548  1.00  0.00     0.345 HD
ATOM     26  H   UNL A   1      38.121  23.528  24.177  1.00  0.00     0.345 HD
ATOM     27  H   UNL A   1      38.206  22.780  25.663  1.00  0.00     0.345 HD
ENDBRANCH  20  24
ENDBRANCH  17  19
ENDBRANCH   8  17
ENDBRANCH   4   7
ENDBRANCH   2   3
ENDBRANCH   1   2
BRANCH   1  28
ATOM     28  C   UNL A   1      33.763  29.420  26.366  1.00  0.00     0.118 C 
BRANCH  28  29
ATOM     29  N   UNL A   1      33.614  30.796  26.804  1.00  0.00    -0.352 N 
ATOM     30  C   UNL A   1      34.333  31.499  27.743  1.00  0.00     0.251 C 
ATOM     31  H   UNL A   1      32.892  31.300  26.365  1.00  0.00     0.163 HD
ATOM     32  O   UNL A   1      33.900  32.580  28.130  1.00  0.00    -0.269 OA
BRANCH  30  33
ATOM     33  C   UNL A   1      35.592  30.948  28.304  1.00  0.00     0.039 A 
ATOM     34  C   UNL A   1      35.519  29.871  29.192  1.00  0.00     0.014 A 
ATOM     35  C   UNL A   1      36.839  31.492  27.981  1.00  0.00     0.014 A 
ATOM     36  C   UNL A   1      36.692  29.317  29.713  1.00  0.00     0.010 A 
ATOM     37  C   UNL A   1      38.006  30.869  28.410  1.00  0.00     0.010 A 
ATOM     38  C   UNL A   1      37.947  29.790  29.301  1.00  0.00    -0.014 A 
BRANCH  38  39
ATOM     39  C   UNL A   1      39.209  29.202  29.822  1.00  0.00     0.031 A 
ATOM     40  C   UNL A   1      39.860  29.797  31.043  1.00  0.00     0.074 A 
ATOM     41  C   UNL A   1      39.788  28.175  29.170  1.00  0.00     0.049 A 
ATOM     42  N   UNL A   1      40.996  29.483  31.613  1.00  0.00    -0.248 NA
ATOM     43  C   UNL A   1      39.159  30.919  31.689  1.00  0.00     0.031 C 
ATOM     44  C   UNL A   1      39.266  27.545  27.954  1.00  0.00     0.029 A 
ATOM     45  N   UNL A   1      40.941  27.480  29.431  1.00  0.00    -0.354 N 
ATOM     46  C   UNL A   1      41.150  30.376  32.669  1.00  0.00     0.074 A 
ATOM     47  C   UNL A   1      40.029  31.287  32.616  1.00  0.00     0.031 C 
ATOM     48  C   UNL A   1      40.077  26.535  27.599  1.00  0.00     0.029 A 
ATOM     49  C   UNL A   1      41.204  26.479  28.523  1.00  0.00     0.049 A 
ATOM     50  H   UNL A   1      41.527  27.679  30.198  1.00  0.00     0.167 HD
ATOM     51  C   UNL A   1      42.123  30.414  33.612  1.00  0.00     0.034 A 
ATOM     52  C   UNL A   1      42.243  25.624  28.440  1.00  0.00     0.034 A 
ATOM     53  C   UNL A   1      43.222  29.481  33.657  1.00  0.00     0.049 A 
ATOM     54  C   UNL A   1      43.327  25.703  29.487  1.00  0.00     0.074 A 
ATOM     55  C   UNL A   1      44.235  29.388  34.595  1.00  0.00     0.029 A 
ATOM     56  N   UNL A   1      43.456  28.483  32.719  1.00  0.00    -0.354 N 
ATOM     57  N   UNL A   1      43.430  26.520  30.511  1.00  0.00    -0.248 NA
ATOM     58  C   UNL A   1      44.427  24.738  29.374  1.00  0.00     0.031 C 
ATOM     59  C   UNL A   1      45.121  28.388  34.184  1.00  0.00     0.029 A 
ATOM     60  C   UNL A   1      44.615  27.794  33.038  1.00  0.00     0.049 A 
ATOM     61  H   UNL A   1      42.884  28.294  31.942  1.00  0.00     0.167 HD
ATOM     62  C   UNL A   1      44.589  26.142  31.182  1.00  0.00     0.074 A 
ATOM     63  C   UNL A   1      45.137  25.014  30.458  1.00  0.00     0.031 C 
ATOM     64  C   UNL A   1      45.150  26.674  32.299  1.00  0.00     0.034 A 
BRANCH  51  65
ATOM     65  C   UNL A   1      42.050  31.509  34.651  1.00  0.00     0.023 A 
ATOM     66  C   UNL A   1      41.070  31.510  35.660  1.00  0.00     0.031 A 
ATOM     67  C   UNL A   1      42.962  32.580  34.622  1.00  0.00     0.131 A 
ATOM     68  C   UNL A   1      40.979  32.593  36.548  1.00  0.00     0.055 A 
ATOM     69  C   UNL A   1      42.919  33.611  35.563  1.00  0.00     0.041 A 
ATOM     70  F   UNL A   1      43.905  32.648  33.669  1.00  0.00    -0.206 F 
ATOM     71  C   UNL A   1      41.914  33.629  36.524  1.00  0.00     0.022 A 
BRANCH  68  72
ATOM     72  S   UNL A   1      39.534  32.698  37.639  1.00  0.00     0.124 S 
ATOM     73  O   UNL A   1      38.738  31.558  37.187  1.00  0.00    -0.237 OA
ATOM     74  O   UNL A   1      40.128  32.576  38.964  1.00  0.00    -0.237 OA
ATOM     75  O   UNL A   1      38.963  34.008  37.328  1.00  0.00    -0.744 OA
ENDBRANCH  68  72
ENDBRANCH  51  65
BRANCH  52  76
ATOM     76  C   UNL A   1      42.322  24.627  27.332  1.00  0.00     0.023 A 
ATOM     77  C   UNL A   1      41.550  23.455  27.358  1.00  0.00     0.031 A 
ATOM     78  C   UNL A   1      43.209  24.806  26.255  1.00  0.00     0.131 A 
ATOM     79  C   UNL A   1      41.720  22.481  26.362  1.00  0.00     0.055 A 
ATOM     80  C   UNL A   1      43.329  23.862  25.233  1.00  0.00     0.041 A 
ATOM     81  F   UNL A   1      43.970  25.909  26.176  1.00  0.00    -0.206 F 
ATOM     82  C   UNL A   1      42.593  22.683  25.291  1.00  0.00     0.022 A 
BRANCH  79  83
ATOM     83  S   UNL A   1      40.860  20.894  26.544  1.00  0.00     0.124 S 
ATOM     84  O   UNL A   1      39.565  21.189  25.942  1.00  0.00    -0.237 OA
ATOM     85  O   UNL A   1      41.727  19.993  25.792  1.00  0.00    -0.237 OA
ATOM     86  O   UNL A   1      40.845  20.680  27.989  1.00  0.00    -0.744 OA
ENDBRANCH  79  83
ENDBRANCH  52  76
BRANCH  64  87
ATOM     87  C   UNL A   1      46.393  26.003  32.830  1.00  0.00     0.023 A 
ATOM     88  C   UNL A   1      46.328  24.931  33.736  1.00  0.00     0.031 A 
ATOM     89  C   UNL A   1      47.663  26.451  32.425  1.00  0.00     0.131 A 
ATOM     90  C   UNL A   1      47.511  24.383  34.255  1.00  0.00     0.055 A 
ATOM     91  C   UNL A   1      48.836  25.856  32.890  1.00  0.00     0.041 A 
ATOM     92  F   UNL A   1      47.785  27.474  31.564  1.00  0.00    -0.206 F 
ATOM     93  C   UNL A   1      48.764  24.825  33.822  1.00  0.00     0.022 A 
BRANCH  90  94
ATOM     94  S   UNL A   1      47.390  23.153  35.582  1.00  0.00     0.124 S 
ATOM     95  O   UNL A   1      48.567  22.326  35.336  1.00  0.00    -0.237 OA
ATOM     96  O   UNL A   1      47.433  23.983  36.782  1.00  0.00    -0.237 OA
ATOM     97  O   UNL A   1      46.107  22.499  35.328  1.00  0.00    -0.744 OA
ENDBRANCH  90  94
ENDBRANCH  64  87
ENDBRANCH  38  39
ENDBRANCH  30  33
ENDBRANCH  28  29
ENDBRANCH   1  28
TORSDOF 16
ENDMDL
