MODEL 1
REMARK VINA RESULT:     -11.0      0.000      0.000
REMARK SMILES CCC(CC)C[N@H+]1[C@@H]2CC[C@H]1C[C@H](CC(=O)NCCCNC(=O)c1ccc(-c3c4nc(c(-c5cc(S(=O)(=O)[O-])ccc5F)c5ccc([nH]5)c(-c5cc(S(=O)(=O)[O-])ccc5F)c5nc(c(-c6cc(S(=O)(=O)[O-])ccc6F)c6ccc3[nH]6)C=C5)C=C4)cc1)C2
REMARK SMILES IDX 18 1 17 2 15 3 16 4 14 6 13 7 7 8 8 9 11 10 9 12 87 13 10 14
REMARK SMILES IDX 12 15 6 16 3 17 2 18 1 19 4 20 5 21 19 22 20 23 21 24 22 25
REMARK SMILES IDX 23 27 24 28 25 29 86 30 26 31 85 32 27 33 28 34 29 35 79 36
REMARK SMILES IDX 30 37 84 38 78 39 80 40 31 41 83 42 77 43 76 44 32 46 64 47
REMARK SMILES IDX 44 48 63 49 45 50 48 51 62 52 81 53 46 54 47 55 61 57 82 58
REMARK SMILES IDX 49 59 33 60 34 61 42 62 35 63 41 64 43 65 40 66 36 67 37 68
REMARK SMILES IDX 38 69 39 70 65 71 66 72 74 73 67 74 73 75 75 76 72 77 68 78
REMARK SMILES IDX 69 79 70 80 71 81 50 82 51 83 59 84 52 85 58 86 60 87 57 88
REMARK SMILES IDX 53 89 54 90 55 91 56 92
REMARK H PARENT 17 5 7 11 21 26 80 45 48 56
REMARK Flexibility Score: inf
ROOT
ATOM      1  C   UNL A   1      31.417  29.345  24.374  1.00  0.00     0.117 C 
ENDROOT
BRANCH   1   2
ATOM      2  N   UNL A   1      32.574  29.320  23.487  1.00  0.00    -0.356 N 
ATOM      3  C   UNL A   1      33.173  28.302  22.808  1.00  0.00     0.220 C 
ATOM      4  O   UNL A   1      34.144  28.572  22.097  1.00  0.00    -0.275 OA
ATOM      5  H   UNL A   1      32.998  30.198  23.353  1.00  0.00     0.163 HD
BRANCH   3   6
ATOM      6  C   UNL A   1      32.673  26.875  22.912  1.00  0.00     0.104 C 
BRANCH   6   7
ATOM      7  C   UNL A   1      33.784  25.857  23.246  1.00  0.00     0.010 C 
ATOM      8  N   UNL A   1      33.658  23.357  24.860  1.00  0.00    -0.330 N 
ATOM      9  C   UNL A   1      34.006  23.289  23.437  1.00  0.00     0.184 C 
ATOM     10  C   UNL A   1      34.497  24.464  25.341  1.00  0.00     0.184 C 
ATOM     11  H   UNL A   1      33.839  22.462  25.315  1.00  0.00     0.348 HD
ATOM     12  C   UNL A   1      35.540  23.331  23.498  1.00  0.00     0.071 C 
ATOM     13  C   UNL A   1      33.428  24.478  22.651  1.00  0.00     0.069 C 
ATOM     14  C   UNL A   1      35.864  24.078  24.787  1.00  0.00     0.071 C 
ATOM     15  C   UNL A   1      34.036  25.808  24.763  1.00  0.00     0.069 C 
BRANCH   8  16
ATOM     16  C   UNL A   1      32.238  23.471  25.220  1.00  0.00     0.266 C 
BRANCH  16  17
ATOM     17  C   UNL A   1      31.460  22.134  25.277  1.00  0.00     0.044 C 
BRANCH  17  18
ATOM     18  C   UNL A   1      32.401  20.932  25.482  1.00  0.00     0.006 C 
ATOM     19  C   UNL A   1      32.460  20.032  24.256  1.00  0.00     0.004 C 
ENDBRANCH  17  18
BRANCH  17  20
ATOM     20  C   UNL A   1      30.309  22.213  26.310  1.00  0.00     0.006 C 
ATOM     21  C   UNL A   1      30.014  23.596  26.873  1.00  0.00     0.004 C 
ENDBRANCH  17  20
ENDBRANCH  16  17
ENDBRANCH   8  16
ENDBRANCH   6   7
ENDBRANCH   3   6
ENDBRANCH   1   2
BRANCH   1  22
ATOM     22  C   UNL A   1      31.777  29.035  25.828  1.00  0.00     0.042 C 
BRANCH  22  23
ATOM     23  C   UNL A   1      33.144  29.535  26.269  1.00  0.00     0.118 C 
BRANCH  23  24
ATOM     24  N   UNL A   1      33.098  30.935  26.633  1.00  0.00    -0.352 N 
ATOM     25  C   UNL A   1      33.882  31.639  27.516  1.00  0.00     0.251 C 
ATOM     26  H   UNL A   1      32.401  31.463  26.182  1.00  0.00     0.163 HD
ATOM     27  O   UNL A   1      33.472  32.730  27.908  1.00  0.00    -0.269 OA
BRANCH  25  28
ATOM     28  C   UNL A   1      35.190  31.120  28.001  1.00  0.00     0.039 A 
ATOM     29  C   UNL A   1      35.262  29.782  28.408  1.00  0.00     0.014 A 
ATOM     30  C   UNL A   1      36.314  31.937  28.161  1.00  0.00     0.014 A 
ATOM     31  C   UNL A   1      36.438  29.275  28.969  1.00  0.00     0.010 A 
ATOM     32  C   UNL A   1      37.517  31.407  28.634  1.00  0.00     0.010 A 
ATOM     33  C   UNL A   1      37.580  30.082  29.088  1.00  0.00    -0.014 A 
BRANCH  33  34
ATOM     34  C   UNL A   1      38.806  29.573  29.764  1.00  0.00     0.031 A 
ATOM     35  C   UNL A   1      39.194  30.099  31.124  1.00  0.00     0.074 A 
ATOM     36  C   UNL A   1      39.584  28.658  29.154  1.00  0.00     0.049 A 
ATOM     37  N   UNL A   1      40.220  29.787  31.877  1.00  0.00    -0.248 NA
ATOM     38  C   UNL A   1      38.331  31.141  31.699  1.00  0.00     0.031 C 
ATOM     39  C   UNL A   1      39.356  28.114  27.815  1.00  0.00     0.029 A 
ATOM     40  N   UNL A   1      40.727  28.026  29.579  1.00  0.00    -0.354 N 
ATOM     41  C   UNL A   1      40.137  30.609  32.997  1.00  0.00     0.074 A 
ATOM     42  C   UNL A   1      38.999  31.479  32.789  1.00  0.00     0.031 C 
ATOM     43  C   UNL A   1      40.314  27.216  27.535  1.00  0.00     0.029 A 
ATOM     44  C   UNL A   1      41.242  27.139  28.661  1.00  0.00     0.049 A 
ATOM     45  H   UNL A   1      41.140  28.191  30.457  1.00  0.00     0.167 HD
ATOM     46  C   UNL A   1      40.916  30.622  34.109  1.00  0.00     0.034 A 
ATOM     47  C   UNL A   1      42.336  26.354  28.718  1.00  0.00     0.034 A 
ATOM     48  C   UNL A   1      42.032  29.728  34.312  1.00  0.00     0.049 A 
ATOM     49  C   UNL A   1      43.169  26.352  29.973  1.00  0.00     0.074 A 
ATOM     50  C   UNL A   1      42.841  29.596  35.427  1.00  0.00     0.029 A 
ATOM     51  N   UNL A   1      42.502  28.818  33.373  1.00  0.00    -0.354 N 
ATOM     52  N   UNL A   1      43.030  27.079  31.058  1.00  0.00    -0.248 NA
ATOM     53  C   UNL A   1      44.289  25.405  30.020  1.00  0.00     0.031 C 
ATOM     54  C   UNL A   1      43.838  28.656  35.139  1.00  0.00     0.029 A 
ATOM     55  C   UNL A   1      43.608  28.144  33.872  1.00  0.00     0.049 A 
ATOM     56  H   UNL A   1      42.108  28.673  32.483  1.00  0.00     0.167 HD
ATOM     57  C   UNL A   1      44.035  26.660  31.926  1.00  0.00     0.074 A 
ATOM     58  C   UNL A   1      44.756  25.604  31.244  1.00  0.00     0.031 C 
ATOM     59  C   UNL A   1      44.333  27.106  33.174  1.00  0.00     0.034 A 
BRANCH  46  60
ATOM     60  C   UNL A   1      40.598  31.654  35.169  1.00  0.00     0.023 A 
ATOM     61  C   UNL A   1      39.533  31.486  36.074  1.00  0.00     0.031 A 
ATOM     62  C   UNL A   1      41.334  32.850  35.243  1.00  0.00     0.131 A 
ATOM     63  C   UNL A   1      39.173  32.531  36.938  1.00  0.00     0.055 A 
ATOM     64  C   UNL A   1      41.028  33.850  36.171  1.00  0.00     0.041 A 
ATOM     65  F   UNL A   1      42.351  33.081  34.398  1.00  0.00    -0.206 F 
ATOM     66  C   UNL A   1      39.929  33.703  37.011  1.00  0.00     0.022 A 
BRANCH  63  67
ATOM     67  S   UNL A   1      37.600  32.409  37.834  1.00  0.00     0.124 S 
ATOM     68  O   UNL A   1      37.909  33.117  39.074  1.00  0.00    -0.237 OA
ATOM     69  O   UNL A   1      36.670  33.076  36.932  1.00  0.00    -0.237 OA
ATOM     70  O   UNL A   1      37.402  30.968  37.984  1.00  0.00    -0.744 OA
ENDBRANCH  63  67
ENDBRANCH  46  60
BRANCH  47  71
ATOM     71  C   UNL A   1      42.705  25.507  27.549  1.00  0.00     0.023 A 
ATOM     72  C   UNL A   1      42.230  24.192  27.418  1.00  0.00     0.031 A 
ATOM     73  C   UNL A   1      43.553  26.005  26.543  1.00  0.00     0.131 A 
ATOM     74  C   UNL A   1      42.634  23.409  26.326  1.00  0.00     0.055 A 
ATOM     75  C   UNL A   1      43.915  25.238  25.436  1.00  0.00     0.041 A 
ATOM     76  F   UNL A   1      44.026  27.260  26.616  1.00  0.00    -0.206 F 
ATOM     77  C   UNL A   1      43.462  23.927  25.328  1.00  0.00     0.022 A 
BRANCH  74  78
ATOM     78  S   UNL A   1      42.100  21.676  26.251  1.00  0.00     0.124 S 
ATOM     79  O   UNL A   1      43.027  21.121  25.271  1.00  0.00    -0.237 OA
ATOM     80  O   UNL A   1      42.289  21.241  27.631  1.00  0.00    -0.237 OA
ATOM     81  O   UNL A   1      40.709  21.766  25.815  1.00  0.00    -0.744 OA
ENDBRANCH  74  78
ENDBRANCH  47  71
BRANCH  59  82
ATOM     82  C   UNL A   1      45.474  26.423  33.889  1.00  0.00     0.023 A 
ATOM     83  C   UNL A   1      45.267  25.295  34.702  1.00  0.00     0.031 A 
ATOM     84  C   UNL A   1      46.783  26.924  33.774  1.00  0.00     0.131 A 
ATOM     85  C   UNL A   1      46.340  24.744  35.419  1.00  0.00     0.055 A 
ATOM     86  C   UNL A   1      47.857  26.333  34.440  1.00  0.00     0.041 A 
ATOM     87  F   UNL A   1      47.039  28.001  33.013  1.00  0.00    -0.206 F 
ATOM     88  C   UNL A   1      47.637  25.246  35.281  1.00  0.00     0.022 A 
BRANCH  85  89
ATOM     89  S   UNL A   1      46.000  23.428  36.620  1.00  0.00     0.124 S 
ATOM     90  O   UNL A   1      45.233  24.137  37.639  1.00  0.00    -0.237 OA
ATOM     91  O   UNL A   1      45.257  22.460  35.820  1.00  0.00    -0.237 OA
ATOM     92  O   UNL A   1      47.332  22.993  37.038  1.00  0.00    -0.744 OA
ENDBRANCH  85  89
ENDBRANCH  59  82
ENDBRANCH  33  34
ENDBRANCH  25  28
ENDBRANCH  23  24
ENDBRANCH  22  23
ENDBRANCH   1  22
TORSDOF 18
ENDMDL
MODEL 2
REMARK VINA RESULT:     -10.9      4.975     10.213
REMARK SMILES CCC(CC)C[N@H+]1[C@@H]2CC[C@H]1C[C@H](CC(=O)NCCCNC(=O)c1ccc(-c3c4nc(c(-c5cc(S(=O)(=O)[O-])ccc5F)c5ccc([nH]5)c(-c5cc(S(=O)(=O)[O-])ccc5F)c5nc(c(-c6cc(S(=O)(=O)[O-])ccc6F)c6ccc3[nH]6)C=C5)C=C4)cc1)C2
REMARK SMILES IDX 18 1 17 2 15 3 16 4 14 6 13 7 7 8 8 9 11 10 9 12 87 13 10 14
REMARK SMILES IDX 12 15 6 16 3 17 2 18 1 19 4 20 5 21 19 22 20 23 21 24 22 25
REMARK SMILES IDX 23 27 24 28 25 29 86 30 26 31 85 32 27 33 28 34 29 35 79 36
REMARK SMILES IDX 30 37 84 38 78 39 80 40 31 41 83 42 77 43 76 44 32 46 64 47
REMARK SMILES IDX 44 48 63 49 45 50 48 51 62 52 81 53 46 54 47 55 61 57 82 58
REMARK SMILES IDX 49 59 33 60 34 61 42 62 35 63 41 64 43 65 40 66 36 67 37 68
REMARK SMILES IDX 38 69 39 70 65 71 66 72 74 73 67 74 73 75 75 76 72 77 68 78
REMARK SMILES IDX 69 79 70 80 71 81 50 82 51 83 59 84 52 85 58 86 60 87 57 88
REMARK SMILES IDX 53 89 54 90 55 91 56 92
REMARK H PARENT 17 5 7 11 21 26 80 45 48 56
REMARK Flexibility Score: inf
ROOT
ATOM      1  C   UNL A   1      34.603  21.666  25.901  1.00  0.00     0.117 C 
ENDROOT
BRANCH   1   2
ATOM      2  N   UNL A   1      33.521  21.995  26.820  1.00  0.00    -0.356 N 
ATOM      3  C   UNL A   1      32.439  22.813  26.691  1.00  0.00     0.220 C 
ATOM      4  O   UNL A   1      31.654  22.891  27.639  1.00  0.00    -0.275 OA
ATOM      5  H   UNL A   1      33.581  21.543  27.692  1.00  0.00     0.163 HD
BRANCH   3   6
ATOM      6  C   UNL A   1      32.194  23.611  25.426  1.00  0.00     0.104 C 
BRANCH   6   7
ATOM      7  C   UNL A   1      32.685  25.073  25.516  1.00  0.00     0.010 C 
ATOM      8  N   UNL A   1      31.520  27.552  24.346  1.00  0.00    -0.330 N 
ATOM      9  C   UNL A   1      31.625  27.413  25.803  1.00  0.00     0.184 C 
ATOM     10  C   UNL A   1      32.846  27.111  23.887  1.00  0.00     0.184 C 
ATOM     11  H   UNL A   1      31.284  28.512  24.095  1.00  0.00     0.348 HD
ATOM     12  C   UNL A   1      32.974  28.094  26.075  1.00  0.00     0.071 C 
ATOM     13  C   UNL A   1      31.628  25.937  26.236  1.00  0.00     0.069 C 
ATOM     14  C   UNL A   1      33.769  27.927  24.784  1.00  0.00     0.071 C 
ATOM     15  C   UNL A   1      33.049  25.609  24.122  1.00  0.00     0.069 C 
BRANCH   8  16
ATOM     16  C   UNL A   1      30.394  26.895  23.669  1.00  0.00     0.266 C 
BRANCH  16  17
ATOM     17  C   UNL A   1      29.342  27.850  23.055  1.00  0.00     0.044 C 
BRANCH  17  18
ATOM     18  C   UNL A   1      27.938  27.607  23.638  1.00  0.00     0.006 C 
ATOM     19  C   UNL A   1      26.938  28.664  23.189  1.00  0.00     0.004 C 
ENDBRANCH  17  18
BRANCH  17  20
ATOM     20  C   UNL A   1      29.816  29.321  23.150  1.00  0.00     0.006 C 
ATOM     21  C   UNL A   1      29.950  30.064  21.829  1.00  0.00     0.004 C 
ENDBRANCH  17  20
ENDBRANCH  16  17
ENDBRANCH   8  16
ENDBRANCH   6   7
ENDBRANCH   3   6
ENDBRANCH   1   2
BRANCH   1  22
ATOM     22  C   UNL A   1      35.888  22.444  26.194  1.00  0.00     0.042 C 
BRANCH  22  23
ATOM     23  C   UNL A   1      36.993  22.260  25.166  1.00  0.00     0.118 C 
BRANCH  23  24
ATOM     24  N   UNL A   1      37.941  21.252  25.589  1.00  0.00    -0.352 N 
ATOM     25  C   UNL A   1      39.205  21.398  26.109  1.00  0.00     0.251 C 
ATOM     26  H   UNL A   1      37.636  20.322  25.489  1.00  0.00     0.163 HD
ATOM     27  O   UNL A   1      39.949  20.418  26.100  1.00  0.00    -0.269 OA
BRANCH  25  28
ATOM     28  C   UNL A   1      39.687  22.690  26.669  1.00  0.00     0.039 A 
ATOM     29  C   UNL A   1      39.209  23.877  26.100  1.00  0.00     0.014 A 
ATOM     30  C   UNL A   1      40.668  22.763  27.663  1.00  0.00     0.014 A 
ATOM     31  C   UNL A   1      39.709  25.114  26.519  1.00  0.00     0.010 A 
ATOM     32  C   UNL A   1      41.099  24.001  28.147  1.00  0.00     0.010 A 
ATOM     33  C   UNL A   1      40.660  25.191  27.549  1.00  0.00    -0.014 A 
BRANCH  33  34
ATOM     34  C   UNL A   1      41.259  26.497  27.938  1.00  0.00     0.031 A 
ATOM     35  C   UNL A   1      42.675  26.830  27.536  1.00  0.00     0.074 A 
ATOM     36  C   UNL A   1      40.547  27.377  28.669  1.00  0.00     0.049 A 
ATOM     37  N   UNL A   1      43.378  27.910  27.776  1.00  0.00    -0.248 NA
ATOM     38  C   UNL A   1      43.410  25.796  26.793  1.00  0.00     0.031 C 
ATOM     39  C   UNL A   1      39.192  27.152  29.175  1.00  0.00     0.029 A 
ATOM     40  N   UNL A   1      40.864  28.635  29.118  1.00  0.00    -0.354 N 
ATOM     41  C   UNL A   1      44.639  27.673  27.237  1.00  0.00     0.074 A 
ATOM     42  C   UNL A   1      44.622  26.322  26.720  1.00  0.00     0.031 C 
ATOM     43  C   UNL A   1      38.787  28.243  29.846  1.00  0.00     0.029 A 
ATOM     44  C   UNL A   1      39.860  29.233  29.843  1.00  0.00     0.049 A 
ATOM     45  H   UNL A   1      41.729  29.069  28.937  1.00  0.00     0.167 HD
ATOM     46  C   UNL A   1      45.704  28.510  27.153  1.00  0.00     0.034 A 
ATOM     47  C   UNL A   1      39.808  30.440  30.441  1.00  0.00     0.034 A 
ATOM     48  C   UNL A   1      45.696  29.866  27.651  1.00  0.00     0.049 A 
ATOM     49  C   UNL A   1      40.984  31.372  30.307  1.00  0.00     0.074 A 
ATOM     50  C   UNL A   1      46.685  30.829  27.553  1.00  0.00     0.029 A 
ATOM     51  N   UNL A   1      44.646  30.449  28.351  1.00  0.00    -0.354 N 
ATOM     52  N   UNL A   1      42.143  31.163  29.724  1.00  0.00    -0.248 NA
ATOM     53  C   UNL A   1      40.835  32.711  30.890  1.00  0.00     0.031 C 
ATOM     54  C   UNL A   1      46.261  31.968  28.247  1.00  0.00     0.029 A 
ATOM     55  C   UNL A   1      44.976  31.746  28.716  1.00  0.00     0.049 A 
ATOM     56  H   UNL A   1      43.792  30.005  28.558  1.00  0.00     0.167 HD
ATOM     57  C   UNL A   1      42.852  32.353  29.852  1.00  0.00     0.074 A 
ATOM     58  C   UNL A   1      41.982  33.280  30.549  1.00  0.00     0.031 C 
ATOM     59  C   UNL A   1      44.108  32.655  29.430  1.00  0.00     0.034 A 
BRANCH  46  60
ATOM     60  C   UNL A   1      46.969  27.965  26.525  1.00  0.00     0.023 A 
ATOM     61  C   UNL A   1      47.258  28.146  25.160  1.00  0.00     0.031 A 
ATOM     62  C   UNL A   1      47.875  27.207  27.289  1.00  0.00     0.131 A 
ATOM     63  C   UNL A   1      48.359  27.495  24.582  1.00  0.00     0.055 A 
ATOM     64  C   UNL A   1      49.021  26.640  26.726  1.00  0.00     0.041 A 
ATOM     65  F   UNL A   1      47.650  26.983  28.593  1.00  0.00    -0.206 F 
ATOM     66  C   UNL A   1      49.258  26.764  25.361  1.00  0.00     0.022 A 
BRANCH  63  67
ATOM     67  S   UNL A   1      48.497  27.472  22.773  1.00  0.00     0.124 S 
ATOM     68  O   UNL A   1      47.308  28.222  22.376  1.00  0.00    -0.237 OA
ATOM     69  O   UNL A   1      49.776  28.134  22.546  1.00  0.00    -0.237 OA
ATOM     70  O   UNL A   1      48.464  26.048  22.444  1.00  0.00    -0.744 OA
ENDBRANCH  63  67
ENDBRANCH  46  60
BRANCH  47  71
ATOM     71  C   UNL A   1      38.600  30.834  31.219  1.00  0.00     0.023 A 
ATOM     72  C   UNL A   1      37.511  31.474  30.607  1.00  0.00     0.031 A 
ATOM     73  C   UNL A   1      38.525  30.580  32.601  1.00  0.00     0.131 A 
ATOM     74  C   UNL A   1      36.408  31.869  31.380  1.00  0.00     0.055 A 
ATOM     75  C   UNL A   1      37.407  30.934  33.357  1.00  0.00     0.041 A 
ATOM     76  F   UNL A   1      39.536  29.960  33.232  1.00  0.00    -0.206 F 
ATOM     77  C   UNL A   1      36.344  31.592  32.747  1.00  0.00     0.022 A 
BRANCH  74  78
ATOM     78  S   UNL A   1      35.073  32.801  30.580  1.00  0.00     0.124 S 
ATOM     79  O   UNL A   1      35.752  34.038  30.211  1.00  0.00    -0.237 OA
ATOM     80  O   UNL A   1      34.704  31.919  29.478  1.00  0.00    -0.237 OA
ATOM     81  O   UNL A   1      34.068  32.930  31.633  1.00  0.00    -0.744 OA
ENDBRANCH  74  78
ENDBRANCH  47  71
BRANCH  59  82
ATOM     82  C   UNL A   1      44.596  34.060  29.688  1.00  0.00     0.023 A 
ATOM     83  C   UNL A   1      44.502  35.067  28.711  1.00  0.00     0.031 A 
ATOM     84  C   UNL A   1      45.186  34.389  30.922  1.00  0.00     0.131 A 
ATOM     85  C   UNL A   1      45.048  36.335  28.959  1.00  0.00     0.055 A 
ATOM     86  C   UNL A   1      45.671  35.671  31.186  1.00  0.00     0.041 A 
ATOM     87  F   UNL A   1      45.304  33.467  31.891  1.00  0.00    -0.206 F 
ATOM     88  C   UNL A   1      45.618  36.649  30.196  1.00  0.00     0.022 A 
BRANCH  85  89
ATOM     89  S   UNL A   1      45.101  37.540  27.605  1.00  0.00     0.124 S 
ATOM     90  O   UNL A   1      45.901  38.615  28.185  1.00  0.00    -0.237 OA
ATOM     91  O   UNL A   1      45.737  36.780  26.534  1.00  0.00    -0.237 OA
ATOM     92  O   UNL A   1      43.694  37.868  27.381  1.00  0.00    -0.744 OA
ENDBRANCH  85  89
ENDBRANCH  59  82
ENDBRANCH  33  34
ENDBRANCH  25  28
ENDBRANCH  23  24
ENDBRANCH  22  23
ENDBRANCH   1  22
TORSDOF 18
ENDMDL
MODEL 3
REMARK VINA RESULT:     -10.9      4.772      9.860
REMARK SMILES CCC(CC)C[N@H+]1[C@@H]2CC[C@H]1C[C@H](CC(=O)NCCCNC(=O)c1ccc(-c3c4nc(c(-c5cc(S(=O)(=O)[O-])ccc5F)c5ccc([nH]5)c(-c5cc(S(=O)(=O)[O-])ccc5F)c5nc(c(-c6cc(S(=O)(=O)[O-])ccc6F)c6ccc3[nH]6)C=C5)C=C4)cc1)C2
REMARK SMILES IDX 18 1 17 2 15 3 16 4 14 6 13 7 7 8 8 9 11 10 9 12 87 13 10 14
REMARK SMILES IDX 12 15 6 16 3 17 2 18 1 19 4 20 5 21 19 22 20 23 21 24 22 25
REMARK SMILES IDX 23 27 24 28 25 29 86 30 26 31 85 32 27 33 28 34 29 35 79 36
REMARK SMILES IDX 30 37 84 38 78 39 80 40 31 41 83 42 77 43 76 44 32 46 64 47
REMARK SMILES IDX 44 48 63 49 45 50 48 51 62 52 81 53 46 54 47 55 61 57 82 58
REMARK SMILES IDX 49 59 33 60 34 61 42 62 35 63 41 64 43 65 40 66 36 67 37 68
REMARK SMILES IDX 38 69 39 70 65 71 66 72 74 73 67 74 73 75 75 76 72 77 68 78
REMARK SMILES IDX 69 79 70 80 71 81 50 82 51 83 59 84 52 85 58 86 60 87 57 88
REMARK SMILES IDX 53 89 54 90 55 91 56 92
REMARK H PARENT 17 5 7 11 21 26 80 45 48 56
REMARK Flexibility Score: inf
ROOT
ATOM      1  C   UNL A   1      35.022  22.606  23.896  1.00  0.00     0.117 C 
ENDROOT
BRANCH   1   2
ATOM      2  N   UNL A   1      34.179  23.563  23.190  1.00  0.00    -0.356 N 
ATOM      3  C   UNL A   1      33.172  24.374  23.620  1.00  0.00     0.220 C 
ATOM      4  O   UNL A   1      32.632  25.115  22.795  1.00  0.00    -0.275 OA
ATOM      5  H   UNL A   1      34.373  23.637  22.228  1.00  0.00     0.163 HD
BRANCH   3   6
ATOM      6  C   UNL A   1      32.718  24.378  25.065  1.00  0.00     0.104 C 
BRANCH   6   7
ATOM      7  C   UNL A   1      33.047  25.690  25.810  1.00  0.00     0.010 C 
ATOM      8  N   UNL A   1      32.377  28.504  25.103  1.00  0.00    -0.330 N 
ATOM      9  C   UNL A   1      31.850  27.919  26.340  1.00  0.00     0.184 C 
ATOM     10  C   UNL A   1      33.791  28.104  25.137  1.00  0.00     0.184 C 
ATOM     11  H   UNL A   1      32.224  29.513  25.092  1.00  0.00     0.348 HD
ATOM     12  C   UNL A   1      32.913  28.357  27.359  1.00  0.00     0.071 C 
ATOM     13  C   UNL A   1      31.741  26.388  26.244  1.00  0.00     0.069 C 
ATOM     14  C   UNL A   1      34.194  28.519  26.547  1.00  0.00     0.071 C 
ATOM     15  C   UNL A   1      33.949  26.590  24.949  1.00  0.00     0.069 C 
BRANCH   8  16
ATOM     16  C   UNL A   1      31.689  28.193  23.843  1.00  0.00     0.266 C 
BRANCH  16  17
ATOM     17  C   UNL A   1      30.182  28.546  23.806  1.00  0.00     0.044 C 
BRANCH  17  18
ATOM     18  C   UNL A   1      29.935  29.936  23.192  1.00  0.00     0.006 C 
ATOM     19  C   UNL A   1      28.773  29.932  22.208  1.00  0.00     0.004 C 
ENDBRANCH  17  18
BRANCH  17  20
ATOM     20  C   UNL A   1      29.368  27.411  23.138  1.00  0.00     0.006 C 
ATOM     21  C   UNL A   1      28.712  26.417  24.084  1.00  0.00     0.004 C 
ENDBRANCH  17  20
ENDBRANCH  16  17
ENDBRANCH   8  16
ENDBRANCH   6   7
ENDBRANCH   3   6
ENDBRANCH   1   2
BRANCH   1  22
ATOM     22  C   UNL A   1      36.331  23.222  24.394  1.00  0.00     0.042 C 
BRANCH  22  23
ATOM     23  C   UNL A   1      36.635  22.974  25.864  1.00  0.00     0.118 C 
BRANCH  23  24
ATOM     24  N   UNL A   1      37.860  22.222  26.027  1.00  0.00    -0.352 N 
ATOM     25  C   UNL A   1      39.131  22.664  26.308  1.00  0.00     0.251 C 
ATOM     26  H   UNL A   1      37.771  21.248  25.921  1.00  0.00     0.163 HD
ATOM     27  O   UNL A   1      40.069  21.899  26.089  1.00  0.00    -0.269 OA
BRANCH  25  28
ATOM     28  C   UNL A   1      39.394  24.022  26.858  1.00  0.00     0.039 A 
ATOM     29  C   UNL A   1      39.954  24.984  26.008  1.00  0.00     0.014 A 
ATOM     30  C   UNL A   1      39.199  24.341  28.205  1.00  0.00     0.014 A 
ATOM     31  C   UNL A   1      40.317  26.241  26.503  1.00  0.00     0.010 A 
ATOM     32  C   UNL A   1      39.474  25.626  28.679  1.00  0.00     0.010 A 
ATOM     33  C   UNL A   1      40.080  26.577  27.845  1.00  0.00    -0.014 A 
BRANCH  33  34
ATOM     34  C   UNL A   1      40.542  27.881  28.397  1.00  0.00     0.031 A 
ATOM     35  C   UNL A   1      42.018  28.179  28.496  1.00  0.00     0.074 A 
ATOM     36  C   UNL A   1      39.646  28.789  28.830  1.00  0.00     0.049 A 
ATOM     37  N   UNL A   1      42.623  29.251  28.947  1.00  0.00    -0.248 NA
ATOM     38  C   UNL A   1      42.936  27.116  28.063  1.00  0.00     0.031 C 
ATOM     39  C   UNL A   1      38.195  28.599  28.847  1.00  0.00     0.029 A 
ATOM     40  N   UNL A   1      39.822  30.050  29.343  1.00  0.00    -0.354 N 
ATOM     41  C   UNL A   1      43.987  28.980  28.873  1.00  0.00     0.074 A 
ATOM     42  C   UNL A   1      44.114  27.618  28.400  1.00  0.00     0.031 C 
ATOM     43  C   UNL A   1      37.612  29.711  29.325  1.00  0.00     0.029 A 
ATOM     44  C   UNL A   1      38.646  30.681  29.675  1.00  0.00     0.049 A 
ATOM     45  H   UNL A   1      40.707  30.464  29.461  1.00  0.00     0.167 HD
ATOM     46  C   UNL A   1      45.037  29.795  29.146  1.00  0.00     0.034 A 
ATOM     47  C   UNL A   1      38.423  31.902  30.202  1.00  0.00     0.034 A 
ATOM     48  C   UNL A   1      44.893  31.161  29.592  1.00  0.00     0.049 A 
ATOM     49  C   UNL A   1      39.597  32.808  30.464  1.00  0.00     0.074 A 
ATOM     50  C   UNL A   1      45.880  32.103  29.824  1.00  0.00     0.029 A 
ATOM     51  N   UNL A   1      43.682  31.778  29.885  1.00  0.00    -0.354 N 
ATOM     52  N   UNL A   1      40.879  32.566  30.313  1.00  0.00    -0.248 NA
ATOM     53  C   UNL A   1      39.291  34.162  30.943  1.00  0.00     0.031 C 
ATOM     54  C   UNL A   1      45.272  33.265  30.317  1.00  0.00     0.029 A 
ATOM     55  C   UNL A   1      43.900  33.076  30.323  1.00  0.00     0.049 A 
ATOM     56  H   UNL A   1      42.798  31.354  29.795  1.00  0.00     0.167 HD
ATOM     57  C   UNL A   1      41.532  33.746  30.659  1.00  0.00     0.074 A 
ATOM     58  C   UNL A   1      40.499  34.703  31.005  1.00  0.00     0.031 C 
ATOM     59  C   UNL A   1      42.863  34.016  30.686  1.00  0.00     0.034 A 
BRANCH  46  60
ATOM     60  C   UNL A   1      46.426  29.214  28.994  1.00  0.00     0.023 A 
ATOM     61  C   UNL A   1      47.095  29.202  27.755  1.00  0.00     0.031 A 
ATOM     62  C   UNL A   1      47.073  28.614  30.089  1.00  0.00     0.131 A 
ATOM     63  C   UNL A   1      48.313  28.517  27.620  1.00  0.00     0.055 A 
ATOM     64  C   UNL A   1      48.329  28.016  29.969  1.00  0.00     0.041 A 
ATOM     65  F   UNL A   1      46.483  28.577  31.295  1.00  0.00    -0.206 F 
ATOM     66  C   UNL A   1      48.948  27.946  28.725  1.00  0.00     0.022 A 
BRANCH  63  67
ATOM     67  S   UNL A   1      48.963  28.232  25.951  1.00  0.00     0.124 S 
ATOM     68  O   UNL A   1      47.746  28.290  25.145  1.00  0.00    -0.237 OA
ATOM     69  O   UNL A   1      49.895  29.340  25.782  1.00  0.00    -0.237 OA
ATOM     70  O   UNL A   1      49.576  26.908  26.043  1.00  0.00    -0.744 OA
ENDBRANCH  63  67
ENDBRANCH  46  60
BRANCH  47  71
ATOM     71  C   UNL A   1      37.032  32.334  30.517  1.00  0.00     0.023 A 
ATOM     72  C   UNL A   1      36.180  32.839  29.523  1.00  0.00     0.031 A 
ATOM     73  C   UNL A   1      36.539  32.253  31.832  1.00  0.00     0.131 A 
ATOM     74  C   UNL A   1      34.891  33.277  29.864  1.00  0.00     0.055 A 
ATOM     75  C   UNL A   1      35.241  32.647  32.158  1.00  0.00     0.041 A 
ATOM     76  F   UNL A   1      37.311  31.766  32.817  1.00  0.00    -0.206 F 
ATOM     77  C   UNL A   1      34.412  33.172  31.172  1.00  0.00     0.022 A 
BRANCH  74  78
ATOM     78  S   UNL A   1      33.860  34.037  28.580  1.00  0.00     0.124 S 
ATOM     79  O   UNL A   1      34.812  34.921  27.918  1.00  0.00    -0.237 OA
ATOM     80  O   UNL A   1      33.424  32.875  27.813  1.00  0.00    -0.237 OA
ATOM     81  O   UNL A   1      32.807  34.708  29.339  1.00  0.00    -0.744 OA
ENDBRANCH  74  78
ENDBRANCH  47  71
BRANCH  59  82
ATOM     82  C   UNL A   1      43.268  35.417  31.076  1.00  0.00     0.023 A 
ATOM     83  C   UNL A   1      43.449  36.428  30.116  1.00  0.00     0.031 A 
ATOM     84  C   UNL A   1      43.500  35.737  32.425  1.00  0.00     0.131 A 
ATOM     85  C   UNL A   1      43.912  37.692  30.512  1.00  0.00     0.055 A 
ATOM     86  C   UNL A   1      43.900  37.014  32.820  1.00  0.00     0.041 A 
ATOM     87  F   UNL A   1      43.345  34.810  33.385  1.00  0.00    -0.206 F 
ATOM     88  C   UNL A   1      44.124  37.997  31.859  1.00  0.00     0.022 A 
BRANCH  85  89
ATOM     89  S   UNL A   1      44.338  38.903  29.230  1.00  0.00     0.124 S 
ATOM     90  O   UNL A   1      44.212  40.166  29.951  1.00  0.00    -0.237 OA
ATOM     91  O   UNL A   1      45.696  38.509  28.868  1.00  0.00    -0.237 OA
ATOM     92  O   UNL A   1      43.331  38.677  28.195  1.00  0.00    -0.744 OA
ENDBRANCH  85  89
ENDBRANCH  59  82
ENDBRANCH  33  34
ENDBRANCH  25  28
ENDBRANCH  23  24
ENDBRANCH  22  23
ENDBRANCH   1  22
TORSDOF 18
ENDMDL
