MODEL 1
REMARK VINA RESULT:     -12.6      0.000      0.000
REMARK SMILES COc1ccc(F)c(NC(=O)N[C@H]2CCC[C@H]2C(=O)NCCCNC(=O)c2ccc(-c3c4nc(c(-c5cc(S(=O)(=O)[O-])ccc5F)c5ccc([nH]5)c(-c5cc(S(=O)(=O)[O-])ccc5F)c5nc(c(-c6cc(S(=O)(=O)[O-])ccc6F)c6ccc3[nH]6)C=C5)C=C4)cc2)c1
REMARK SMILES IDX 22 1 21 2 20 3 18 4 19 5 17 7 13 8 14 9 15 10 16 11 12 12
REMARK SMILES IDX 9 13 10 14 11 16 8 18 3 19 4 20 90 21 5 22 6 23 7 24 2 25
REMARK SMILES IDX 1 26 23 27 24 28 25 29 26 31 27 32 28 33 89 34 29 35 88 36
REMARK SMILES IDX 30 37 31 38 32 39 82 40 33 41 87 42 81 43 83 44 34 45 86 46
REMARK SMILES IDX 80 47 79 48 35 50 67 51 47 52 66 53 48 54 51 55 65 56 84 57
REMARK SMILES IDX 49 58 50 59 64 61 85 62 52 63 36 64 37 65 45 66 38 67 44 68
REMARK SMILES IDX 46 69 43 70 39 71 40 72 41 73 42 74 68 75 69 76 77 77 70 78
REMARK SMILES IDX 76 79 78 80 75 81 71 82 72 83 73 84 74 85 53 86 54 87 62 88
REMARK SMILES IDX 55 89 61 90 63 91 60 92 56 93 57 94 58 95 59 96
REMARK H PARENT 20 6 9 15 12 17 24 30 83 49 51 60
REMARK Flexibility Score: inf
ROOT
ATOM      1  C   UNL A   1      38.394  19.244  25.229  1.00  0.00     0.042 C 
ENDROOT
BRANCH   1   2
ATOM      2  C   UNL A   1      37.450  20.289  24.655  1.00  0.00     0.117 C 
BRANCH   2   3
ATOM      3  N   UNL A   1      36.352  20.542  25.563  1.00  0.00    -0.356 N 
ATOM      4  C   UNL A   1      35.377  21.480  25.535  1.00  0.00     0.225 C 
ATOM      5  O   UNL A   1      34.670  21.593  26.540  1.00  0.00    -0.275 OA
ATOM      6  H   UNL A   1      36.305  19.927  26.331  1.00  0.00     0.163 HD
BRANCH   4   7
ATOM      7  C   UNL A   1      35.099  22.325  24.313  1.00  0.00     0.101 C 
ATOM      8  C   UNL A   1      33.679  22.384  23.729  1.00  0.00     0.096 C 
ATOM      9  C   UNL A   1      33.761  23.648  22.855  1.00  0.00     0.026 C 
ATOM     10  C   UNL A   1      34.633  24.614  23.647  1.00  0.00     0.003 C 
ATOM     11  C   UNL A   1      35.697  23.734  24.285  1.00  0.00     0.016 C 
BRANCH   8  12
ATOM     12  N   UNL A   1      32.509  22.505  24.585  1.00  0.00    -0.334 N 
ATOM     13  N   UNL A   1      31.823  20.308  25.302  1.00  0.00    -0.305 N 
ATOM     14  C   UNL A   1      31.699  21.646  25.234  1.00  0.00     0.319 C 
ATOM     15  H   UNL A   1      31.241  19.926  25.998  1.00  0.00     0.171 HD
ATOM     16  O   UNL A   1      30.794  22.167  25.896  1.00  0.00    -0.248 OA
ATOM     17  H   UNL A   1      32.244  23.442  24.724  1.00  0.00     0.165 HD
BRANCH  13  18
ATOM     18  C   UNL A   1      32.562  19.311  24.642  1.00  0.00     0.082 A 
ATOM     19  C   UNL A   1      33.714  17.201  24.660  1.00  0.00     0.121 A 
ATOM     20  C   UNL A   1      33.477  17.032  23.302  1.00  0.00     0.049 A 
ATOM     21  C   UNL A   1      33.390  18.403  25.286  1.00  0.00     0.075 A 
ATOM     22  C   UNL A   1      32.892  18.066  22.577  1.00  0.00     0.045 A 
ATOM     23  C   UNL A   1      32.408  19.182  23.257  1.00  0.00     0.147 A 
ATOM     24  F   UNL A   1      31.709  20.102  22.573  1.00  0.00    -0.205 F 
BRANCH  19  25
ATOM     25  O   UNL A   1      33.933  16.068  25.399  1.00  0.00    -0.497 OA
ATOM     26  C   UNL A   1      32.830  15.183  25.494  1.00  0.00     0.278 C 
ENDBRANCH  19  25
ENDBRANCH  13  18
ENDBRANCH   8  12
ENDBRANCH   4   7
ENDBRANCH   2   3
ENDBRANCH   1   2
BRANCH   1  27
ATOM     27  C   UNL A   1      39.595  19.844  25.942  1.00  0.00     0.118 C 
BRANCH  27  28
ATOM     28  N   UNL A   1      40.699  18.903  26.035  1.00  0.00    -0.352 N 
ATOM     29  C   UNL A   1      42.051  19.136  26.087  1.00  0.00     0.251 C 
ATOM     30  H   UNL A   1      40.437  17.954  26.065  1.00  0.00     0.163 HD
ATOM     31  O   UNL A   1      42.824  18.204  25.889  1.00  0.00    -0.269 OA
BRANCH  29  32
ATOM     32  C   UNL A   1      42.570  20.495  26.364  1.00  0.00     0.039 A 
ATOM     33  C   UNL A   1      43.033  21.272  25.299  1.00  0.00     0.014 A 
ATOM     34  C   UNL A   1      42.639  20.992  27.668  1.00  0.00     0.014 A 
ATOM     35  C   UNL A   1      43.512  22.562  25.539  1.00  0.00     0.010 A 
ATOM     36  C   UNL A   1      43.018  22.312  27.893  1.00  0.00     0.010 A 
ATOM     37  C   UNL A   1      43.478  23.106  26.834  1.00  0.00    -0.014 A 
BRANCH  37  38
ATOM     38  C   UNL A   1      43.958  24.484  27.110  1.00  0.00     0.031 A 
ATOM     39  C   UNL A   1      43.000  25.520  27.637  1.00  0.00     0.074 A 
ATOM     40  C   UNL A   1      45.239  24.814  26.847  1.00  0.00     0.049 A 
ATOM     41  N   UNL A   1      43.199  26.794  27.854  1.00  0.00    -0.248 NA
ATOM     42  C   UNL A   1      41.629  25.070  27.933  1.00  0.00     0.031 C 
ATOM     43  C   UNL A   1      46.252  23.906  26.305  1.00  0.00     0.029 A 
ATOM     44  N   UNL A   1      45.909  26.001  27.003  1.00  0.00    -0.354 N 
ATOM     45  C   UNL A   1      41.978  27.299  28.292  1.00  0.00     0.074 A 
ATOM     46  C   UNL A   1      41.032  26.207  28.258  1.00  0.00     0.031 C 
ATOM     47  C   UNL A   1      47.422  24.557  26.210  1.00  0.00     0.029 A 
ATOM     48  C   UNL A   1      47.233  25.941  26.636  1.00  0.00     0.049 A 
ATOM     49  H   UNL A   1      45.482  26.820  27.344  1.00  0.00     0.167 HD
ATOM     50  C   UNL A   1      41.682  28.554  28.706  1.00  0.00     0.034 A 
ATOM     51  C   UNL A   1      48.187  26.894  26.634  1.00  0.00     0.034 A 
ATOM     52  C   UNL A   1      42.643  29.624  28.773  1.00  0.00     0.049 A 
ATOM     53  C   UNL A   1      47.831  28.283  27.091  1.00  0.00     0.074 A 
ATOM     54  C   UNL A   1      42.457  30.918  29.227  1.00  0.00     0.029 A 
ATOM     55  N   UNL A   1      43.971  29.524  28.381  1.00  0.00    -0.354 N 
ATOM     56  N   UNL A   1      46.671  28.741  27.501  1.00  0.00    -0.248 NA
ATOM     57  C   UNL A   1      48.906  29.282  27.084  1.00  0.00     0.031 C 
ATOM     58  C   UNL A   1      43.658  31.614  29.062  1.00  0.00     0.029 A 
ATOM     59  C   UNL A   1      44.610  30.738  28.566  1.00  0.00     0.049 A 
ATOM     60  H   UNL A   1      44.396  28.710  28.026  1.00  0.00     0.167 HD
ATOM     61  C   UNL A   1      46.884  30.078  27.819  1.00  0.00     0.074 A 
ATOM     62  C   UNL A   1      48.283  30.352  27.559  1.00  0.00     0.031 C 
ATOM     63  C   UNL A   1      46.002  30.995  28.290  1.00  0.00     0.034 A 
BRANCH  50  64
ATOM     64  C   UNL A   1      40.261  28.840  29.117  1.00  0.00     0.023 A 
ATOM     65  C   UNL A   1      39.866  28.812  30.465  1.00  0.00     0.031 A 
ATOM     66  C   UNL A   1      39.297  29.170  28.149  1.00  0.00     0.131 A 
ATOM     67  C   UNL A   1      38.531  29.071  30.807  1.00  0.00     0.055 A 
ATOM     68  C   UNL A   1      37.984  29.488  28.501  1.00  0.00     0.041 A 
ATOM     69  F   UNL A   1      39.617  29.192  26.846  1.00  0.00    -0.206 F 
ATOM     70  C   UNL A   1      37.593  29.433  29.836  1.00  0.00     0.022 A 
BRANCH  67  71
ATOM     71  S   UNL A   1      38.017  28.862  32.532  1.00  0.00     0.124 S 
ATOM     72  O   UNL A   1      38.133  27.416  32.700  1.00  0.00    -0.237 OA
ATOM     73  O   UNL A   1      38.993  29.669  33.256  1.00  0.00    -0.237 OA
ATOM     74  O   UNL A   1      36.650  29.378  32.546  1.00  0.00    -0.744 OA
ENDBRANCH  67  71
ENDBRANCH  50  64
BRANCH  51  75
ATOM     75  C   UNL A   1      49.565  26.567  26.176  1.00  0.00     0.023 A 
ATOM     76  C   UNL A   1      50.033  27.000  24.926  1.00  0.00     0.031 A 
ATOM     77  C   UNL A   1      50.438  25.822  26.989  1.00  0.00     0.131 A 
ATOM     78  C   UNL A   1      51.332  26.665  24.513  1.00  0.00     0.055 A 
ATOM     79  C   UNL A   1      51.741  25.524  26.591  1.00  0.00     0.041 A 
ATOM     80  F   UNL A   1      50.039  25.393  28.197  1.00  0.00    -0.206 F 
ATOM     81  C   UNL A   1      52.194  25.942  25.343  1.00  0.00     0.022 A 
BRANCH  78  82
ATOM     82  S   UNL A   1      51.878  27.164  22.857  1.00  0.00     0.124 S 
ATOM     83  O   UNL A   1      52.985  26.244  22.619  1.00  0.00    -0.237 OA
ATOM     84  O   UNL A   1      50.676  26.943  22.058  1.00  0.00    -0.237 OA
ATOM     85  O   UNL A   1      52.256  28.566  23.031  1.00  0.00    -0.744 OA
ENDBRANCH  78  82
ENDBRANCH  51  75
BRANCH  63  86
ATOM     86  C   UNL A   1      46.526  32.374  28.585  1.00  0.00     0.023 A 
ATOM     87  C   UNL A   1      46.562  33.371  27.598  1.00  0.00     0.031 A 
ATOM     88  C   UNL A   1      46.940  32.705  29.887  1.00  0.00     0.131 A 
ATOM     89  C   UNL A   1      47.029  34.653  27.923  1.00  0.00     0.055 A 
ATOM     90  C   UNL A   1      47.361  33.993  30.216  1.00  0.00     0.041 A 
ATOM     91  F   UNL A   1      46.918  31.784  30.865  1.00  0.00    -0.206 F 
ATOM     92  C   UNL A   1      47.411  34.975  29.229  1.00  0.00     0.022 A 
BRANCH  89  93
ATOM     93  S   UNL A   1      47.155  35.896  26.610  1.00  0.00     0.124 S 
ATOM     94  O   UNL A   1      48.262  36.722  27.081  1.00  0.00    -0.237 OA
ATOM     95  O   UNL A   1      47.424  35.083  25.429  1.00  0.00    -0.237 OA
ATOM     96  O   UNL A   1      45.845  36.546  26.626  1.00  0.00    -0.744 OA
ENDBRANCH  89  93
ENDBRANCH  63  86
ENDBRANCH  37  38
ENDBRANCH  29  32
ENDBRANCH  27  28
ENDBRANCH   1  27
TORSDOF 16
ENDMDL
MODEL 2
REMARK VINA RESULT:     -12.4      2.002      3.795
REMARK SMILES COc1ccc(F)c(NC(=O)N[C@H]2CCC[C@H]2C(=O)NCCCNC(=O)c2ccc(-c3c4nc(c(-c5cc(S(=O)(=O)[O-])ccc5F)c5ccc([nH]5)c(-c5cc(S(=O)(=O)[O-])ccc5F)c5nc(c(-c6cc(S(=O)(=O)[O-])ccc6F)c6ccc3[nH]6)C=C5)C=C4)cc2)c1
REMARK SMILES IDX 22 1 21 2 20 3 18 4 19 5 17 7 13 8 14 9 15 10 16 11 12 12
REMARK SMILES IDX 9 13 10 14 11 16 8 18 3 19 4 20 90 21 5 22 6 23 7 24 2 25
REMARK SMILES IDX 1 26 23 27 24 28 25 29 26 31 27 32 28 33 89 34 29 35 88 36
REMARK SMILES IDX 30 37 31 38 32 39 82 40 33 41 87 42 81 43 83 44 34 45 86 46
REMARK SMILES IDX 80 47 79 48 35 50 67 51 47 52 66 53 48 54 51 55 65 56 84 57
REMARK SMILES IDX 49 58 50 59 64 61 85 62 52 63 36 64 37 65 45 66 38 67 44 68
REMARK SMILES IDX 46 69 43 70 39 71 40 72 41 73 42 74 68 75 69 76 77 77 70 78
REMARK SMILES IDX 76 79 78 80 75 81 71 82 72 83 73 84 74 85 53 86 54 87 62 88
REMARK SMILES IDX 55 89 61 90 63 91 60 92 56 93 57 94 58 95 59 96
REMARK H PARENT 20 6 9 15 12 17 24 30 83 49 51 60
REMARK Flexibility Score: inf
ROOT
ATOM      1  C   UNL A   1      37.979  19.684  24.994  1.00  0.00     0.042 C 
ENDROOT
BRANCH   1   2
ATOM      2  C   UNL A   1      36.742  20.565  25.061  1.00  0.00     0.117 C 
BRANCH   2   3
ATOM      3  N   UNL A   1      36.873  21.702  24.174  1.00  0.00    -0.356 N 
ATOM      4  C   UNL A   1      35.949  22.576  23.713  1.00  0.00     0.225 C 
ATOM      5  O   UNL A   1      36.296  23.345  22.812  1.00  0.00    -0.275 OA
ATOM      6  H   UNL A   1      37.788  21.867  23.851  1.00  0.00     0.163 HD
BRANCH   4   7
ATOM      7  C   UNL A   1      34.561  22.676  24.302  1.00  0.00     0.101 C 
ATOM      8  C   UNL A   1      33.769  23.987  24.180  1.00  0.00     0.096 C 
ATOM      9  C   UNL A   1      32.337  23.506  24.473  1.00  0.00     0.026 C 
ATOM     10  C   UNL A   1      32.243  22.136  23.815  1.00  0.00     0.003 C 
ATOM     11  C   UNL A   1      33.607  21.506  24.049  1.00  0.00     0.016 C 
BRANCH   8  12
ATOM     12  N   UNL A   1      33.744  24.749  22.941  1.00  0.00    -0.334 N 
ATOM     13  N   UNL A   1      33.323  27.068  23.445  1.00  0.00    -0.305 N 
ATOM     14  C   UNL A   1      33.533  26.036  22.607  1.00  0.00     0.319 C 
ATOM     15  H   UNL A   1      33.403  27.932  22.981  1.00  0.00     0.171 HD
ATOM     16  O   UNL A   1      33.620  26.293  21.401  1.00  0.00    -0.248 OA
ATOM     17  H   UNL A   1      33.924  24.185  22.155  1.00  0.00     0.165 HD
BRANCH  13  18
ATOM     18  C   UNL A   1      33.018  27.239  24.807  1.00  0.00     0.082 A 
ATOM     19  C   UNL A   1      33.506  28.193  26.958  1.00  0.00     0.121 A 
ATOM     20  C   UNL A   1      32.166  28.125  27.320  1.00  0.00     0.049 A 
ATOM     21  C   UNL A   1      33.943  27.611  25.770  1.00  0.00     0.075 A 
ATOM     22  C   UNL A   1      31.261  27.492  26.472  1.00  0.00     0.045 A 
ATOM     23  C   UNL A   1      31.686  27.084  25.209  1.00  0.00     0.147 A 
ATOM     24  F   UNL A   1      30.774  26.616  24.342  1.00  0.00    -0.205 F 
BRANCH  19  25
ATOM     25  O   UNL A   1      34.278  29.121  27.605  1.00  0.00    -0.497 OA
ATOM     26  C   UNL A   1      33.936  30.474  27.359  1.00  0.00     0.278 C 
ENDBRANCH  19  25
ENDBRANCH  13  18
ENDBRANCH   8  12
ENDBRANCH   4   7
ENDBRANCH   2   3
ENDBRANCH   1   2
BRANCH   1  27
ATOM     27  C   UNL A   1      39.160  20.243  25.772  1.00  0.00     0.118 C 
BRANCH  27  28
ATOM     28  N   UNL A   1      40.200  19.248  25.974  1.00  0.00    -0.352 N 
ATOM     29  C   UNL A   1      41.554  19.410  26.131  1.00  0.00     0.251 C 
ATOM     30  H   UNL A   1      39.884  18.315  26.003  1.00  0.00     0.163 HD
ATOM     31  O   UNL A   1      42.288  18.433  26.016  1.00  0.00    -0.269 OA
BRANCH  29  32
ATOM     32  C   UNL A   1      42.123  20.746  26.419  1.00  0.00     0.039 A 
ATOM     33  C   UNL A   1      42.505  21.564  25.353  1.00  0.00     0.014 A 
ATOM     34  C   UNL A   1      42.318  21.182  27.732  1.00  0.00     0.014 A 
ATOM     35  C   UNL A   1      43.029  22.834  25.605  1.00  0.00     0.010 A 
ATOM     36  C   UNL A   1      42.743  22.483  27.981  1.00  0.00     0.010 A 
ATOM     37  C   UNL A   1      43.122  23.318  26.920  1.00  0.00    -0.014 A 
BRANCH  37  38
ATOM     38  C   UNL A   1      43.653  24.674  27.213  1.00  0.00     0.031 A 
ATOM     39  C   UNL A   1      42.742  25.729  27.782  1.00  0.00     0.074 A 
ATOM     40  C   UNL A   1      44.938  24.968  26.926  1.00  0.00     0.049 A 
ATOM     41  N   UNL A   1      42.986  26.992  28.019  1.00  0.00    -0.248 NA
ATOM     42  C   UNL A   1      41.363  25.318  28.101  1.00  0.00     0.031 C 
ATOM     43  C   UNL A   1      45.908  24.039  26.342  1.00  0.00     0.029 A 
ATOM     44  N   UNL A   1      45.649  26.129  27.090  1.00  0.00    -0.354 N 
ATOM     45  C   UNL A   1      41.794  27.526  28.496  1.00  0.00     0.074 A 
ATOM     46  C   UNL A   1      40.811  26.465  28.463  1.00  0.00     0.031 C 
ATOM     47  C   UNL A   1      47.096  24.655  26.233  1.00  0.00     0.029 A 
ATOM     48  C   UNL A   1      46.962  26.035  26.691  1.00  0.00     0.049 A 
ATOM     49  H   UNL A   1      45.257  26.954  27.457  1.00  0.00     0.167 HD
ATOM     50  C   UNL A   1      41.548  28.781  28.942  1.00  0.00     0.034 A 
ATOM     51  C   UNL A   1      47.946  26.956  26.685  1.00  0.00     0.034 A 
ATOM     52  C   UNL A   1      42.544  29.818  29.007  1.00  0.00     0.049 A 
ATOM     53  C   UNL A   1      47.646  28.346  27.178  1.00  0.00     0.074 A 
ATOM     54  C   UNL A   1      42.410  31.107  29.491  1.00  0.00     0.029 A 
ATOM     55  N   UNL A   1      43.859  29.683  28.583  1.00  0.00    -0.354 N 
ATOM     56  N   UNL A   1      46.512  28.833  27.624  1.00  0.00    -0.248 NA
ATOM     57  C   UNL A   1      48.753  29.310  27.166  1.00  0.00     0.031 C 
ATOM     58  C   UNL A   1      43.629  31.768  29.313  1.00  0.00     0.029 A 
ATOM     59  C   UNL A   1      44.541  30.873  28.776  1.00  0.00     0.049 A 
ATOM     60  H   UNL A   1      44.249  28.864  28.201  1.00  0.00     0.167 HD
ATOM     61  C   UNL A   1      46.775  30.155  27.963  1.00  0.00     0.074 A 
ATOM     62  C   UNL A   1      48.175  30.390  27.676  1.00  0.00     0.031 C 
ATOM     63  C   UNL A   1      45.934  31.090  28.473  1.00  0.00     0.034 A 
BRANCH  50  64
ATOM     64  C   UNL A   1      40.147  29.104  29.391  1.00  0.00     0.023 A 
ATOM     65  C   UNL A   1      39.812  29.182  30.754  1.00  0.00     0.031 A 
ATOM     66  C   UNL A   1      39.141  29.362  28.444  1.00  0.00     0.131 A 
ATOM     67  C   UNL A   1      38.493  29.473  31.133  1.00  0.00     0.055 A 
ATOM     68  C   UNL A   1      37.845  29.712  28.828  1.00  0.00     0.041 A 
ATOM     69  F   UNL A   1      39.403  29.282  27.130  1.00  0.00    -0.206 F 
ATOM     70  C   UNL A   1      37.513  29.762  30.179  1.00  0.00     0.022 A 
BRANCH  67  71
ATOM     71  S   UNL A   1      38.055  29.400  32.890  1.00  0.00     0.124 S 
ATOM     72  O   UNL A   1      37.191  30.570  33.026  1.00  0.00    -0.237 OA
ATOM     73  O   UNL A   1      37.397  28.103  33.002  1.00  0.00    -0.237 OA
ATOM     74  O   UNL A   1      39.346  29.503  33.568  1.00  0.00    -0.744 OA
ENDBRANCH  67  71
ENDBRANCH  50  64
BRANCH  51  75
ATOM     75  C   UNL A   1      49.302  26.594  26.189  1.00  0.00     0.023 A 
ATOM     76  C   UNL A   1      49.753  27.035  24.935  1.00  0.00     0.031 A 
ATOM     77  C   UNL A   1      50.170  25.809  26.968  1.00  0.00     0.131 A 
ATOM     78  C   UNL A   1      51.032  26.667  24.485  1.00  0.00     0.055 A 
ATOM     79  C   UNL A   1      51.454  25.478  26.534  1.00  0.00     0.041 A 
ATOM     80  F   UNL A   1      49.787  25.372  28.178  1.00  0.00    -0.206 F 
ATOM     81  C   UNL A   1      51.890  25.903  25.282  1.00  0.00     0.022 A 
BRANCH  78  82
ATOM     82  S   UNL A   1      51.554  27.178  22.825  1.00  0.00     0.124 S 
ATOM     83  O   UNL A   1      52.643  26.246  22.556  1.00  0.00    -0.237 OA
ATOM     84  O   UNL A   1      50.335  26.983  22.047  1.00  0.00    -0.237 OA
ATOM     85  O   UNL A   1      51.955  28.572  23.009  1.00  0.00    -0.744 OA
ENDBRANCH  78  82
ENDBRANCH  51  75
BRANCH  63  86
ATOM     86  C   UNL A   1      46.509  32.445  28.783  1.00  0.00     0.023 A 
ATOM     87  C   UNL A   1      46.501  33.479  27.835  1.00  0.00     0.031 A 
ATOM     88  C   UNL A   1      47.019  32.717  30.065  1.00  0.00     0.131 A 
ATOM     89  C   UNL A   1      47.019  34.738  28.175  1.00  0.00     0.055 A 
ATOM     90  C   UNL A   1      47.491  33.981  30.413  1.00  0.00     0.041 A 
ATOM     91  F   UNL A   1      47.041  31.759  31.007  1.00  0.00    -0.206 F 
ATOM     92  C   UNL A   1      47.497  35.000  29.462  1.00  0.00     0.022 A 
BRANCH  89  93
ATOM     93  S   UNL A   1      47.085  36.028  26.904  1.00  0.00     0.124 S 
ATOM     94  O   UNL A   1      47.042  35.244  25.674  1.00  0.00    -0.237 OA
ATOM     95  O   UNL A   1      45.896  36.822  27.195  1.00  0.00    -0.237 OA
ATOM     96  O   UNL A   1      48.355  36.703  27.165  1.00  0.00    -0.744 OA
ENDBRANCH  89  93
ENDBRANCH  63  86
ENDBRANCH  37  38
ENDBRANCH  29  32
ENDBRANCH  27  28
ENDBRANCH   1  27
TORSDOF 16
ENDMDL
MODEL 3
REMARK VINA RESULT:     -12.3      6.141     11.540
REMARK SMILES COc1ccc(F)c(NC(=O)N[C@H]2CCC[C@H]2C(=O)NCCCNC(=O)c2ccc(-c3c4nc(c(-c5cc(S(=O)(=O)[O-])ccc5F)c5ccc([nH]5)c(-c5cc(S(=O)(=O)[O-])ccc5F)c5nc(c(-c6cc(S(=O)(=O)[O-])ccc6F)c6ccc3[nH]6)C=C5)C=C4)cc2)c1
REMARK SMILES IDX 22 1 21 2 20 3 18 4 19 5 17 7 13 8 14 9 15 10 16 11 12 12
REMARK SMILES IDX 9 13 10 14 11 16 8 18 3 19 4 20 90 21 5 22 6 23 7 24 2 25
REMARK SMILES IDX 1 26 23 27 24 28 25 29 26 31 27 32 28 33 89 34 29 35 88 36
REMARK SMILES IDX 30 37 31 38 32 39 82 40 33 41 87 42 81 43 83 44 34 45 86 46
REMARK SMILES IDX 80 47 79 48 35 50 67 51 47 52 66 53 48 54 51 55 65 56 84 57
REMARK SMILES IDX 49 58 50 59 64 61 85 62 52 63 36 64 37 65 45 66 38 67 44 68
REMARK SMILES IDX 46 69 43 70 39 71 40 72 41 73 42 74 68 75 69 76 77 77 70 78
REMARK SMILES IDX 76 79 78 80 75 81 71 82 72 83 73 84 74 85 53 86 54 87 62 88
REMARK SMILES IDX 55 89 61 90 63 91 60 92 56 93 57 94 58 95 59 96
REMARK H PARENT 20 6 9 15 12 17 24 30 83 49 51 60
REMARK Flexibility Score: inf
ROOT
ATOM      1  C   UNL A   1      31.578  32.134  26.846  1.00  0.00     0.042 C 
ENDROOT
BRANCH   1   2
ATOM      2  C   UNL A   1      31.747  30.793  26.148  1.00  0.00     0.117 C 
BRANCH   2   3
ATOM      3  N   UNL A   1      31.726  29.710  27.108  1.00  0.00    -0.356 N 
ATOM      4  C   UNL A   1      31.616  28.373  26.931  1.00  0.00     0.225 C 
ATOM      5  O   UNL A   1      31.433  27.681  27.937  1.00  0.00    -0.275 OA
ATOM      6  H   UNL A   1      31.805  29.992  28.047  1.00  0.00     0.163 HD
BRANCH   4   7
ATOM      7  C   UNL A   1      31.771  27.717  25.579  1.00  0.00     0.101 C 
ATOM      8  C   UNL A   1      32.164  26.234  25.485  1.00  0.00     0.096 C 
ATOM      9  C   UNL A   1      31.759  25.902  24.038  1.00  0.00     0.026 C 
ATOM     10  C   UNL A   1      30.474  26.684  23.803  1.00  0.00     0.003 C 
ATOM     11  C   UNL A   1      30.688  28.000  24.534  1.00  0.00     0.016 C 
BRANCH   8  12
ATOM     12  N   UNL A   1      31.570  25.234  26.360  1.00  0.00    -0.334 N 
ATOM     13  N   UNL A   1      33.027  23.316  26.471  1.00  0.00    -0.305 N 
ATOM     14  C   UNL A   1      31.902  23.994  26.766  1.00  0.00     0.319 C 
ATOM     15  H   UNL A   1      33.134  22.526  27.047  1.00  0.00     0.171 HD
ATOM     16  O   UNL A   1      31.112  23.465  27.557  1.00  0.00    -0.248 OA
ATOM     17  H   UNL A   1      30.719  25.538  26.748  1.00  0.00     0.165 HD
BRANCH  13  18
ATOM     18  C   UNL A   1      34.088  23.438  25.557  1.00  0.00     0.082 A 
ATOM     19  C   UNL A   1      36.429  23.724  25.094  1.00  0.00     0.121 A 
ATOM     20  C   UNL A   1      36.293  23.071  23.875  1.00  0.00     0.049 A 
ATOM     21  C   UNL A   1      35.303  24.037  25.852  1.00  0.00     0.075 A 
ATOM     22  C   UNL A   1      35.024  22.710  23.432  1.00  0.00     0.045 A 
ATOM     23  C   UNL A   1      33.936  22.865  24.289  1.00  0.00     0.147 A 
ATOM     24  F   UNL A   1      32.745  22.373  23.914  1.00  0.00    -0.205 F 
BRANCH  19  25
ATOM     25  O   UNL A   1      37.675  23.728  25.662  1.00  0.00    -0.497 OA
ATOM     26  C   UNL A   1      38.296  22.458  25.770  1.00  0.00     0.278 C 
ENDBRANCH  19  25
ENDBRANCH  13  18
ENDBRANCH   8  12
ENDBRANCH   4   7
ENDBRANCH   2   3
ENDBRANCH   1   2
BRANCH   1  27
ATOM     27  C   UNL A   1      32.898  32.790  27.218  1.00  0.00     0.118 C 
BRANCH  27  28
ATOM     28  N   UNL A   1      32.710  34.130  27.748  1.00  0.00    -0.352 N 
ATOM     29  C   UNL A   1      33.254  34.721  28.861  1.00  0.00     0.251 C 
ATOM     30  H   UNL A   1      32.098  34.702  27.228  1.00  0.00     0.163 HD
ATOM     31  O   UNL A   1      32.760  35.761  29.285  1.00  0.00    -0.269 OA
BRANCH  29  32
ATOM     32  C   UNL A   1      34.410  34.104  29.550  1.00  0.00     0.039 A 
ATOM     33  C   UNL A   1      34.175  33.214  30.601  1.00  0.00     0.014 A 
ATOM     34  C   UNL A   1      35.722  34.426  29.193  1.00  0.00     0.014 A 
ATOM     35  C   UNL A   1      35.254  32.610  31.253  1.00  0.00     0.010 A 
ATOM     36  C   UNL A   1      36.790  33.748  29.772  1.00  0.00     0.010 A 
ATOM     37  C   UNL A   1      36.570  32.847  30.822  1.00  0.00    -0.014 A 
BRANCH  37  38
ATOM     38  C   UNL A   1      37.731  32.198  31.483  1.00  0.00     0.031 A 
ATOM     39  C   UNL A   1      38.457  31.076  30.789  1.00  0.00     0.074 A 
ATOM     40  C   UNL A   1      38.103  32.586  32.720  1.00  0.00     0.049 A 
ATOM     41  N   UNL A   1      39.430  30.322  31.233  1.00  0.00    -0.248 NA
ATOM     42  C   UNL A   1      38.012  30.736  29.426  1.00  0.00     0.031 C 
ATOM     43  C   UNL A   1      37.457  33.639  33.506  1.00  0.00     0.029 A 
ATOM     44  N   UNL A   1      39.117  32.144  33.531  1.00  0.00    -0.354 N 
ATOM     45  C   UNL A   1      39.699  29.413  30.215  1.00  0.00     0.074 A 
ATOM     46  C   UNL A   1      38.752  29.672  29.154  1.00  0.00     0.031 C 
ATOM     47  C   UNL A   1      38.113  33.788  34.668  1.00  0.00     0.029 A 
ATOM     48  C   UNL A   1      39.194  32.808  34.733  1.00  0.00     0.049 A 
ATOM     49  H   UNL A   1      39.731  31.417  33.279  1.00  0.00     0.167 HD
ATOM     50  C   UNL A   1      40.664  28.464  30.162  1.00  0.00     0.034 A 
ATOM     51  C   UNL A   1      40.033  32.643  35.774  1.00  0.00     0.034 A 
ATOM     52  C   UNL A   1      41.627  28.241  31.209  1.00  0.00     0.049 A 
ATOM     53  C   UNL A   1      41.092  31.576  35.696  1.00  0.00     0.074 A 
ATOM     54  C   UNL A   1      42.676  27.340  31.232  1.00  0.00     0.029 A 
ATOM     55  N   UNL A   1      41.662  28.928  32.414  1.00  0.00    -0.354 N 
ATOM     56  N   UNL A   1      41.331  30.725  34.725  1.00  0.00    -0.248 NA
ATOM     57  C   UNL A   1      41.991  31.444  36.848  1.00  0.00     0.031 C 
ATOM     58  C   UNL A   1      43.315  27.447  32.471  1.00  0.00     0.029 A 
ATOM     59  C   UNL A   1      42.705  28.458  33.195  1.00  0.00     0.049 A 
ATOM     60  H   UNL A   1      41.039  29.645  32.675  1.00  0.00     0.167 HD
ATOM     61  C   UNL A   1      42.420  29.970  35.144  1.00  0.00     0.074 A 
ATOM     62  C   UNL A   1      42.796  30.468  36.451  1.00  0.00     0.031 C 
ATOM     63  C   UNL A   1      43.057  28.959  34.500  1.00  0.00     0.034 A 
BRANCH  50  64
ATOM     64  C   UNL A   1      40.725  27.593  28.935  1.00  0.00     0.023 A 
ATOM     65  C   UNL A   1      41.680  27.809  27.927  1.00  0.00     0.031 A 
ATOM     66  C   UNL A   1      39.833  26.516  28.785  1.00  0.00     0.131 A 
ATOM     67  C   UNL A   1      41.696  26.984  26.793  1.00  0.00     0.055 A 
ATOM     68  C   UNL A   1      39.895  25.661  27.683  1.00  0.00     0.041 A 
ATOM     69  F   UNL A   1      38.889  26.277  29.709  1.00  0.00    -0.206 F 
ATOM     70  C   UNL A   1      40.826  25.897  26.676  1.00  0.00     0.022 A 
BRANCH  67  71
ATOM     71  S   UNL A   1      42.827  27.392  25.436  1.00  0.00     0.124 S 
ATOM     72  O   UNL A   1      42.855  26.136  24.690  1.00  0.00    -0.237 OA
ATOM     73  O   UNL A   1      42.151  28.507  24.782  1.00  0.00    -0.237 OA
ATOM     74  O   UNL A   1      44.072  27.733  26.119  1.00  0.00    -0.744 OA
ENDBRANCH  67  71
ENDBRANCH  50  64
BRANCH  51  75
ATOM     75  C   UNL A   1      39.900  33.504  36.982  1.00  0.00     0.023 A 
ATOM     76  C   UNL A   1      40.745  34.606  37.180  1.00  0.00     0.031 A 
ATOM     77  C   UNL A   1      38.917  33.239  37.952  1.00  0.00     0.131 A 
ATOM     78  C   UNL A   1      40.607  35.393  38.335  1.00  0.00     0.055 A 
ATOM     79  C   UNL A   1      38.758  34.045  39.079  1.00  0.00     0.041 A 
ATOM     80  F   UNL A   1      38.079  32.201  37.802  1.00  0.00    -0.206 F 
ATOM     81  C   UNL A   1      39.611  35.128  39.279  1.00  0.00     0.022 A 
BRANCH  78  82
ATOM     82  S   UNL A   1      41.770  36.758  38.605  1.00  0.00     0.124 S 
ATOM     83  O   UNL A   1      42.184  37.069  37.242  1.00  0.00    -0.237 OA
ATOM     84  O   UNL A   1      40.927  37.752  39.263  1.00  0.00    -0.237 OA
ATOM     85  O   UNL A   1      42.803  36.164  39.452  1.00  0.00    -0.744 OA
ENDBRANCH  78  82
ENDBRANCH  51  75
BRANCH  63  86
ATOM     86  C   UNL A   1      44.245  28.341  35.185  1.00  0.00     0.023 A 
ATOM     87  C   UNL A   1      44.111  27.216  36.013  1.00  0.00     0.031 A 
ATOM     88  C   UNL A   1      45.534  28.854  34.956  1.00  0.00     0.131 A 
ATOM     89  C   UNL A   1      45.250  26.651  36.607  1.00  0.00     0.055 A 
ATOM     90  C   UNL A   1      46.667  28.263  35.512  1.00  0.00     0.041 A 
ATOM     91  F   UNL A   1      45.711  29.927  34.166  1.00  0.00    -0.206 F 
ATOM     92  C   UNL A   1      46.527  27.157  36.348  1.00  0.00     0.022 A 
BRANCH  89  93
ATOM     93  S   UNL A   1      45.041  25.258  37.747  1.00  0.00     0.124 S 
ATOM     94  O   UNL A   1      43.660  24.862  37.490  1.00  0.00    -0.237 OA
ATOM     95  O   UNL A   1      46.066  24.322  37.297  1.00  0.00    -0.237 OA
ATOM     96  O   UNL A   1      45.282  25.851  39.062  1.00  0.00    -0.744 OA
ENDBRANCH  89  93
ENDBRANCH  63  86
ENDBRANCH  37  38
ENDBRANCH  29  32
ENDBRANCH  27  28
ENDBRANCH   1  27
TORSDOF 16
ENDMDL
