MODEL 1
REMARK VINA RESULT:     -13.6      0.000      0.000
REMARK SMILES O=C(NCCCNC(=O)[C@H](c1c[nH]c2ccc(Br)cc12)[N@H+]1CCC[C@H](c2nc3ccccc3s2)C1)c1ccc(-c2c3nc(c(-c4cc(S(=O)(=O)[O-])ccc4F)c4ccc([nH]4)c(-c4cc(S(=O)(=O)[O-])ccc4F)c4nc(c(-c5cc(S(=O)(=O)[O-])ccc5F)c5ccc2[nH]5)C=C4)C=C3)cc1
REMARK SMILES IDX 4 1 3 2 1 3 2 4 36 6 37 7 98 8 38 9 97 10 39 11 40 12 41 13
REMARK SMILES IDX 91 14 42 15 96 16 90 17 92 18 43 19 95 20 89 21 88 22 44 24
REMARK SMILES IDX 76 25 56 26 75 27 57 28 60 29 74 30 93 31 58 32 59 33 73 35
REMARK SMILES IDX 94 36 61 37 45 38 46 39 54 40 47 41 53 42 55 43 52 44 48 45
REMARK SMILES IDX 49 46 50 47 51 48 77 49 78 50 86 51 79 52 85 53 87 54 84 55
REMARK SMILES IDX 80 56 81 57 82 58 83 59 62 60 63 61 71 62 64 63 70 64 72 65
REMARK SMILES IDX 69 66 65 67 66 68 67 69 68 70 5 71 6 72 7 73 8 74 9 76 10 77
REMARK SMILES IDX 21 78 22 79 35 80 23 82 25 83 24 84 26 85 27 86 34 87 28 88
REMARK SMILES IDX 33 89 29 90 32 91 30 92 31 93 11 94 12 95 20 96 13 97 14 98
REMARK SMILES IDX 19 99 15 101 17 102 16 103 18 104
REMARK H PARENT 3 5 92 23 60 34 7 75 21 81 13 100
REMARK Flexibility Score: inf
ROOT
ATOM      1  C   UNL A   1      32.774  28.993  26.296  1.00  0.00     0.118 C 
ENDROOT
BRANCH   1   2
ATOM      2  N   UNL A   1      32.459  30.415  26.290  1.00  0.00    -0.352 N 
ATOM      3  O   UNL A   1      32.480  32.530  27.058  1.00  0.00    -0.269 OA
ATOM      4  C   UNL A   1      33.029  31.430  27.017  1.00  0.00     0.251 C 
ATOM      5  H   UNL A   1      31.737  30.686  25.678  1.00  0.00     0.163 HD
BRANCH   4   6
ATOM      6  C   UNL A   1      34.296  31.200  27.744  1.00  0.00     0.039 A 
ATOM      7  C   UNL A   1      34.575  29.947  28.292  1.00  0.00     0.014 A 
ATOM      8  C   UNL A   1      35.232  32.234  27.847  1.00  0.00     0.014 A 
ATOM      9  C   UNL A   1      35.718  29.767  29.058  1.00  0.00     0.010 A 
ATOM     10  C   UNL A   1      36.435  32.017  28.529  1.00  0.00     0.010 A 
ATOM     11  C   UNL A   1      36.679  30.786  29.153  1.00  0.00    -0.014 A 
BRANCH  11  12
ATOM     12  C   UNL A   1      37.965  30.478  29.833  1.00  0.00     0.031 A 
ATOM     13  C   UNL A   1      38.254  30.968  31.222  1.00  0.00     0.074 A 
ATOM     14  C   UNL A   1      38.843  29.684  29.188  1.00  0.00     0.049 A 
ATOM     15  N   UNL A   1      39.298  30.734  31.974  1.00  0.00    -0.248 NA
ATOM     16  C   UNL A   1      37.249  31.841  31.845  1.00  0.00     0.031 C 
ATOM     17  C   UNL A   1      38.664  29.171  27.824  1.00  0.00     0.029 A 
ATOM     18  N   UNL A   1      40.033  29.138  29.589  1.00  0.00    -0.354 N 
ATOM     19  C   UNL A   1      39.083  31.430  33.157  1.00  0.00     0.074 A 
ATOM     20  C   UNL A   1      37.824  32.131  33.004  1.00  0.00     0.031 C 
ATOM     21  C   UNL A   1      39.668  28.333  27.533  1.00  0.00     0.029 A 
ATOM     22  C   UNL A   1      40.603  28.309  28.650  1.00  0.00     0.049 A 
ATOM     23  H   UNL A   1      40.442  29.320  30.467  1.00  0.00     0.167 HD
ATOM     24  C   UNL A   1      39.860  31.469  34.269  1.00  0.00     0.034 A 
ATOM     25  C   UNL A   1      41.758  27.619  28.674  1.00  0.00     0.034 A 
ATOM     26  C   UNL A   1      41.119  30.770  34.393  1.00  0.00     0.049 A 
ATOM     27  C   UNL A   1      42.606  27.694  29.913  1.00  0.00     0.074 A 
ATOM     28  C   UNL A   1      41.996  30.749  35.464  1.00  0.00     0.029 A 
ATOM     29  N   UNL A   1      41.684  29.966  33.409  1.00  0.00    -0.354 N 
ATOM     30  N   UNL A   1      42.385  28.361  31.024  1.00  0.00    -0.248 NA
ATOM     31  C   UNL A   1      43.852  26.922  29.906  1.00  0.00     0.031 C 
ATOM     32  C   UNL A   1      43.111  29.981  35.108  1.00  0.00     0.029 A 
ATOM     33  C   UNL A   1      42.902  29.461  33.842  1.00  0.00     0.049 A 
ATOM     34  H   UNL A   1      41.278  29.781  32.531  1.00  0.00     0.167 HD
ATOM     35  C   UNL A   1      43.466  28.083  31.851  1.00  0.00     0.074 A 
ATOM     36  C   UNL A   1      44.313  27.154  31.127  1.00  0.00     0.031 C 
ATOM     37  C   UNL A   1      43.745  28.558  33.092  1.00  0.00     0.034 A 
BRANCH  24  38
ATOM     38  C   UNL A   1      39.384  32.324  35.419  1.00  0.00     0.023 A 
ATOM     39  C   UNL A   1      39.779  33.667  35.553  1.00  0.00     0.031 A 
ATOM     40  C   UNL A   1      38.535  31.789  36.405  1.00  0.00     0.131 A 
ATOM     41  C   UNL A   1      39.380  34.409  36.676  1.00  0.00     0.055 A 
ATOM     42  C   UNL A   1      38.081  32.553  37.482  1.00  0.00     0.041 A 
ATOM     43  F   UNL A   1      38.141  30.508  36.344  1.00  0.00    -0.206 F 
ATOM     44  C   UNL A   1      38.513  33.869  37.629  1.00  0.00     0.022 A 
BRANCH  41  45
ATOM     45  S   UNL A   1      40.108  36.051  36.937  1.00  0.00     0.124 S 
ATOM     46  O   UNL A   1      39.781  36.724  35.681  1.00  0.00    -0.237 OA
ATOM     47  O   UNL A   1      39.398  36.528  38.118  1.00  0.00    -0.237 OA
ATOM     48  O   UNL A   1      41.529  35.769  37.132  1.00  0.00    -0.744 OA
ENDBRANCH  41  45
ENDBRANCH  24  38
BRANCH  25  49
ATOM     49  C   UNL A   1      42.194  26.839  27.480  1.00  0.00     0.023 A 
ATOM     50  C   UNL A   1      41.939  25.463  27.371  1.00  0.00     0.031 A 
ATOM     51  C   UNL A   1      42.902  27.463  26.435  1.00  0.00     0.131 A 
ATOM     52  C   UNL A   1      42.428  24.749  26.266  1.00  0.00     0.055 A 
ATOM     53  C   UNL A   1      43.331  26.759  25.310  1.00  0.00     0.041 A 
ATOM     54  F   UNL A   1      43.170  28.777  26.486  1.00  0.00    -0.206 F 
ATOM     55  C   UNL A   1      43.108  25.390  25.228  1.00  0.00     0.022 A 
BRANCH  52  56
ATOM     56  S   UNL A   1      42.246  22.944  26.249  1.00  0.00     0.124 S 
ATOM     57  O   UNL A   1      40.808  22.787  26.437  1.00  0.00    -0.237 OA
ATOM     58  O   UNL A   1      42.761  22.600  24.928  1.00  0.00    -0.237 OA
ATOM     59  O   UNL A   1      43.074  22.509  27.372  1.00  0.00    -0.744 OA
ENDBRANCH  52  56
ENDBRANCH  25  49
BRANCH  37  60
ATOM     60  C   UNL A   1      45.014  28.054  33.731  1.00  0.00     0.023 A 
ATOM     61  C   UNL A   1      45.021  26.903  34.538  1.00  0.00     0.031 A 
ATOM     62  C   UNL A   1      46.218  28.764  33.577  1.00  0.00     0.131 A 
ATOM     63  C   UNL A   1      46.189  26.537  35.222  1.00  0.00     0.055 A 
ATOM     64  C   UNL A   1      47.394  28.357  34.209  1.00  0.00     0.041 A 
ATOM     65  F   UNL A   1      46.267  29.871  32.818  1.00  0.00    -0.206 F 
ATOM     66  C   UNL A   1      47.379  27.248  35.051  1.00  0.00     0.022 A 
BRANCH  63  67
ATOM     67  S   UNL A   1      46.100  25.189  36.433  1.00  0.00     0.124 S 
ATOM     68  O   UNL A   1      44.800  25.424  37.053  1.00  0.00    -0.237 OA
ATOM     69  O   UNL A   1      46.197  24.004  35.587  1.00  0.00    -0.237 OA
ATOM     70  O   UNL A   1      47.253  25.428  37.298  1.00  0.00    -0.744 OA
ENDBRANCH  63  67
ENDBRANCH  37  60
ENDBRANCH  11  12
ENDBRANCH   4   6
ENDBRANCH   1   2
BRANCH   1  71
ATOM     71  C   UNL A   1      31.667  28.168  26.929  1.00  0.00     0.042 C 
BRANCH  71  72
ATOM     72  C   UNL A   1      31.160  27.048  26.026  1.00  0.00     0.118 C 
BRANCH  72  73
ATOM     73  N   UNL A   1      30.848  25.859  26.791  1.00  0.00    -0.351 N 
ATOM     74  C   UNL A   1      30.778  24.556  26.360  1.00  0.00     0.283 C 
ATOM     75  H   UNL A   1      30.661  26.003  27.748  1.00  0.00     0.163 HD
ATOM     76  O   UNL A   1      30.152  23.804  27.110  1.00  0.00    -0.268 OA
BRANCH  74  77
ATOM     77  C   UNL A   1      31.510  24.147  25.029  1.00  0.00     0.307 C 
BRANCH  77  78
ATOM     78  N   UNL A   1      31.909  25.252  24.111  1.00  0.00    -0.320 N 
ATOM     79  C   UNL A   1      33.338  25.562  24.252  1.00  0.00     0.263 C 
ATOM     80  C   UNL A   1      31.515  25.138  22.700  1.00  0.00     0.274 C 
ATOM     81  H   UNL A   1      31.345  26.038  24.433  1.00  0.00     0.349 HD
ATOM     82  C   UNL A   1      33.742  26.818  23.477  1.00  0.00     0.062 C 
ATOM     83  C   UNL A   1      31.831  26.413  21.877  1.00  0.00     0.104 C 
ATOM     84  C   UNL A   1      33.325  26.735  22.013  1.00  0.00     0.022 C 
BRANCH  83  85
ATOM     85  C   UNL A   1      30.936  27.575  22.281  1.00  0.00     0.103 A 
ATOM     86  N   UNL A   1      29.622  27.538  22.275  1.00  0.00    -0.241 NA
ATOM     87  S   UNL A   1      31.604  29.093  22.755  1.00  0.00    -0.118 S 
ATOM     88  C   UNL A   1      29.089  28.707  22.767  1.00  0.00     0.082 A 
ATOM     89  C   UNL A   1      30.022  29.688  23.101  1.00  0.00     0.055 A 
ATOM     90  C   UNL A   1      27.719  28.970  22.959  1.00  0.00     0.030 A 
ATOM     91  C   UNL A   1      29.629  30.929  23.628  1.00  0.00     0.021 A 
ATOM     92  C   UNL A   1      27.316  30.197  23.492  1.00  0.00     0.002 A 
ATOM     93  C   UNL A   1      28.262  31.163  23.823  1.00  0.00     0.002 A 
ENDBRANCH  83  85
ENDBRANCH  77  78
BRANCH  77  94
ATOM     94  C   UNL A   1      32.766  23.367  25.378  1.00  0.00     0.044 A 
ATOM     95  C   UNL A   1      33.754  23.758  26.268  1.00  0.00     0.094 A 
ATOM     96  C   UNL A   1      33.135  22.054  24.921  1.00  0.00     0.010 A 
ATOM     97  N   UNL A   1      34.641  22.729  26.422  1.00  0.00    -0.361 N 
ATOM     98  C   UNL A   1      34.255  21.656  25.654  1.00  0.00     0.046 A 
ATOM     99  C   UNL A   1      32.573  21.132  24.011  1.00  0.00     0.026 A 
ATOM    100  H   UNL A   1      35.438  22.753  27.000  1.00  0.00     0.166 HD
ATOM    101  C   UNL A   1      34.804  20.369  25.572  1.00  0.00     0.028 A 
ATOM    102  C   UNL A   1      33.105  19.840  23.930  1.00  0.00     0.018 A 
ATOM    103  C   UNL A   1      34.194  19.457  24.705  1.00  0.00     0.018 A 
ATOM    104  Br  UNL A   1      32.293  18.584  22.770  1.00  0.00    -0.051 Br
ENDBRANCH  77  94
ENDBRANCH  74  77
ENDBRANCH  72  73
ENDBRANCH  71  72
ENDBRANCH   1  71
TORSDOF 16
ENDMDL
MODEL 2
REMARK VINA RESULT:     -13.6      1.383      1.616
REMARK SMILES O=C(NCCCNC(=O)[C@H](c1c[nH]c2ccc(Br)cc12)[N@H+]1CCC[C@H](c2nc3ccccc3s2)C1)c1ccc(-c2c3nc(c(-c4cc(S(=O)(=O)[O-])ccc4F)c4ccc([nH]4)c(-c4cc(S(=O)(=O)[O-])ccc4F)c4nc(c(-c5cc(S(=O)(=O)[O-])ccc5F)c5ccc2[nH]5)C=C4)C=C3)cc1
REMARK SMILES IDX 4 1 3 2 1 3 2 4 36 6 37 7 98 8 38 9 97 10 39 11 40 12 41 13
REMARK SMILES IDX 91 14 42 15 96 16 90 17 92 18 43 19 95 20 89 21 88 22 44 24
REMARK SMILES IDX 76 25 56 26 75 27 57 28 60 29 74 30 93 31 58 32 59 33 73 35
REMARK SMILES IDX 94 36 61 37 45 38 46 39 54 40 47 41 53 42 55 43 52 44 48 45
REMARK SMILES IDX 49 46 50 47 51 48 77 49 78 50 86 51 79 52 85 53 87 54 84 55
REMARK SMILES IDX 80 56 81 57 82 58 83 59 62 60 63 61 71 62 64 63 70 64 72 65
REMARK SMILES IDX 69 66 65 67 66 68 67 69 68 70 5 71 6 72 7 73 8 74 9 76 10 77
REMARK SMILES IDX 21 78 22 79 35 80 23 82 25 83 24 84 26 85 27 86 34 87 28 88
REMARK SMILES IDX 33 89 29 90 32 91 30 92 31 93 11 94 12 95 20 96 13 97 14 98
REMARK SMILES IDX 19 99 15 101 17 102 16 103 18 104
REMARK H PARENT 3 5 92 23 60 34 7 75 21 81 13 100
REMARK Flexibility Score: inf
ROOT
ATOM      1  C   UNL A   1      32.610  29.018  26.380  1.00  0.00     0.118 C 
ENDROOT
BRANCH   1   2
ATOM      2  N   UNL A   1      32.366  30.454  26.337  1.00  0.00    -0.352 N 
ATOM      3  O   UNL A   1      32.481  32.582  27.056  1.00  0.00    -0.269 OA
ATOM      4  C   UNL A   1      32.975  31.456  27.049  1.00  0.00     0.251 C 
ATOM      5  H   UNL A   1      31.667  30.745  25.709  1.00  0.00     0.163 HD
BRANCH   4   6
ATOM      6  C   UNL A   1      34.219  31.181  27.799  1.00  0.00     0.039 A 
ATOM      7  C   UNL A   1      34.473  29.901  28.295  1.00  0.00     0.014 A 
ATOM      8  C   UNL A   1      35.159  32.201  27.978  1.00  0.00     0.014 A 
ATOM      9  C   UNL A   1      35.592  29.676  29.084  1.00  0.00     0.010 A 
ATOM     10  C   UNL A   1      36.340  31.943  28.683  1.00  0.00     0.010 A 
ATOM     11  C   UNL A   1      36.558  30.681  29.255  1.00  0.00    -0.014 A 
BRANCH  11  12
ATOM     12  C   UNL A   1      37.821  30.331  29.955  1.00  0.00     0.031 A 
ATOM     13  C   UNL A   1      38.087  30.779  31.363  1.00  0.00     0.074 A 
ATOM     14  C   UNL A   1      38.699  29.536  29.310  1.00  0.00     0.049 A 
ATOM     15  N   UNL A   1      39.109  30.505  32.132  1.00  0.00    -0.248 NA
ATOM     16  C   UNL A   1      37.085  31.655  31.986  1.00  0.00     0.031 C 
ATOM     17  C   UNL A   1      38.542  29.062  27.930  1.00  0.00     0.029 A 
ATOM     18  N   UNL A   1      39.869  28.957  29.724  1.00  0.00    -0.354 N 
ATOM     19  C   UNL A   1      38.879  31.175  33.328  1.00  0.00     0.074 A 
ATOM     20  C   UNL A   1      37.638  31.904  33.165  1.00  0.00     0.031 C 
ATOM     21  C   UNL A   1      39.537  28.213  27.639  1.00  0.00     0.029 A 
ATOM     22  C   UNL A   1      40.445  28.142  28.777  1.00  0.00     0.049 A 
ATOM     23  H   UNL A   1      40.261  29.109  30.615  1.00  0.00     0.167 HD
ATOM     24  C   UNL A   1      39.631  31.169  34.458  1.00  0.00     0.034 A 
ATOM     25  C   UNL A   1      41.586  27.429  28.809  1.00  0.00     0.034 A 
ATOM     26  C   UNL A   1      40.873  30.443  34.592  1.00  0.00     0.049 A 
ATOM     27  C   UNL A   1      42.406  27.456  30.069  1.00  0.00     0.074 A 
ATOM     28  C   UNL A   1      41.725  30.377  35.683  1.00  0.00     0.029 A 
ATOM     29  N   UNL A   1      41.446  29.654  33.601  1.00  0.00    -0.354 N 
ATOM     30  N   UNL A   1      42.172  28.098  31.191  1.00  0.00    -0.248 NA
ATOM     31  C   UNL A   1      43.637  26.660  30.070  1.00  0.00     0.031 C 
ATOM     32  C   UNL A   1      42.833  29.597  35.332  1.00  0.00     0.029 A 
ATOM     33  C   UNL A   1      42.643  29.114  34.048  1.00  0.00     0.049 A 
ATOM     34  H   UNL A   1      41.057  29.499  32.709  1.00  0.00     0.167 HD
ATOM     35  C   UNL A   1      43.227  27.777  32.035  1.00  0.00     0.074 A 
ATOM     36  C   UNL A   1      44.073  26.851  31.306  1.00  0.00     0.031 C 
ATOM     37  C   UNL A   1      43.486  28.215  33.294  1.00  0.00     0.034 A 
BRANCH  24  38
ATOM     38  C   UNL A   1      39.144  32.004  35.619  1.00  0.00     0.023 A 
ATOM     39  C   UNL A   1      38.489  31.425  36.721  1.00  0.00     0.031 A 
ATOM     40  C   UNL A   1      39.323  33.399  35.622  1.00  0.00     0.131 A 
ATOM     41  C   UNL A   1      37.980  32.239  37.745  1.00  0.00     0.055 A 
ATOM     42  C   UNL A   1      38.881  34.198  36.680  1.00  0.00     0.041 A 
ATOM     43  F   UNL A   1      39.922  34.013  34.590  1.00  0.00    -0.206 F 
ATOM     44  C   UNL A   1      38.194  33.620  37.744  1.00  0.00     0.022 A 
BRANCH  41  45
ATOM     45  S   UNL A   1      36.930  31.483  39.017  1.00  0.00     0.124 S 
ATOM     46  O   UNL A   1      35.752  32.347  38.982  1.00  0.00    -0.237 OA
ATOM     47  O   UNL A   1      36.742  30.129  38.508  1.00  0.00    -0.237 OA
ATOM     48  O   UNL A   1      37.734  31.588  40.233  1.00  0.00    -0.744 OA
ENDBRANCH  41  45
ENDBRANCH  24  38
BRANCH  25  49
ATOM     49  C   UNL A   1      42.034  26.672  27.605  1.00  0.00     0.023 A 
ATOM     50  C   UNL A   1      41.798  25.295  27.475  1.00  0.00     0.031 A 
ATOM     51  C   UNL A   1      42.737  27.320  26.571  1.00  0.00     0.131 A 
ATOM     52  C   UNL A   1      42.298  24.603  26.362  1.00  0.00     0.055 A 
ATOM     53  C   UNL A   1      43.178  26.638  25.437  1.00  0.00     0.041 A 
ATOM     54  F   UNL A   1      42.988  28.636  26.642  1.00  0.00    -0.206 F 
ATOM     55  C   UNL A   1      42.973  25.267  25.335  1.00  0.00     0.022 A 
BRANCH  52  56
ATOM     56  S   UNL A   1      42.140  22.795  26.319  1.00  0.00     0.124 S 
ATOM     57  O   UNL A   1      42.982  22.396  27.441  1.00  0.00    -0.237 OA
ATOM     58  O   UNL A   1      40.704  22.614  26.499  1.00  0.00    -0.237 OA
ATOM     59  O   UNL A   1      42.652  22.441  24.997  1.00  0.00    -0.744 OA
ENDBRANCH  52  56
ENDBRANCH  25  49
BRANCH  37  60
ATOM     60  C   UNL A   1      44.731  27.670  33.949  1.00  0.00     0.023 A 
ATOM     61  C   UNL A   1      44.702  26.485  34.705  1.00  0.00     0.031 A 
ATOM     62  C   UNL A   1      45.945  28.372  33.861  1.00  0.00     0.131 A 
ATOM     63  C   UNL A   1      45.844  26.077  35.407  1.00  0.00     0.055 A 
ATOM     64  C   UNL A   1      47.098  27.925  34.510  1.00  0.00     0.041 A 
ATOM     65  F   UNL A   1      46.028  29.510  33.153  1.00  0.00    -0.206 F 
ATOM     66  C   UNL A   1      47.046  26.782  35.302  1.00  0.00     0.022 A 
BRANCH  63  67
ATOM     67  S   UNL A   1      45.705  24.679  36.555  1.00  0.00     0.124 S 
ATOM     68  O   UNL A   1      46.326  25.216  37.762  1.00  0.00    -0.237 OA
ATOM     69  O   UNL A   1      44.262  24.472  36.619  1.00  0.00    -0.237 OA
ATOM     70  O   UNL A   1      46.455  23.615  35.892  1.00  0.00    -0.744 OA
ENDBRANCH  63  67
ENDBRANCH  37  60
ENDBRANCH  11  12
ENDBRANCH   4   6
ENDBRANCH   1   2
BRANCH   1  71
ATOM     71  C   UNL A   1      31.404  28.252  26.894  1.00  0.00     0.042 C 
BRANCH  71  72
ATOM     72  C   UNL A   1      31.061  27.031  26.046  1.00  0.00     0.118 C 
BRANCH  72  73
ATOM     73  N   UNL A   1      31.017  25.829  26.853  1.00  0.00    -0.351 N 
ATOM     74  C   UNL A   1      31.131  24.520  26.448  1.00  0.00     0.283 C 
ATOM     75  H   UNL A   1      30.889  25.967  27.819  1.00  0.00     0.163 HD
ATOM     76  O   UNL A   1      30.703  23.697  27.259  1.00  0.00    -0.268 OA
BRANCH  74  77
ATOM     77  C   UNL A   1      31.808  24.200  25.065  1.00  0.00     0.307 C 
BRANCH  77  78
ATOM     78  N   UNL A   1      32.188  25.363  24.213  1.00  0.00    -0.320 N 
ATOM     79  C   UNL A   1      33.561  25.800  24.501  1.00  0.00     0.263 C 
ATOM     80  C   UNL A   1      31.944  25.255  22.768  1.00  0.00     0.274 C 
ATOM     81  H   UNL A   1      31.523  26.084  24.494  1.00  0.00     0.349 HD
ATOM     82  C   UNL A   1      33.917  27.109  23.796  1.00  0.00     0.062 C 
ATOM     83  C   UNL A   1      32.216  26.578  22.007  1.00  0.00     0.104 C 
ATOM     84  C   UNL A   1      33.653  27.032  22.296  1.00  0.00     0.022 C 
BRANCH  83  85
ATOM     85  C   UNL A   1      31.180  27.640  22.344  1.00  0.00     0.103 A 
ATOM     86  N   UNL A   1      29.887  27.418  22.425  1.00  0.00    -0.241 NA
ATOM     87  S   UNL A   1      31.640  29.280  22.615  1.00  0.00    -0.118 S 
ATOM     88  C   UNL A   1      29.212  28.548  22.826  1.00  0.00     0.082 A 
ATOM     89  C   UNL A   1      30.007  29.682  22.996  1.00  0.00     0.055 A 
ATOM     90  C   UNL A   1      27.830  28.635  23.076  1.00  0.00     0.030 A 
ATOM     91  C   UNL A   1      29.461  30.906  23.416  1.00  0.00     0.021 A 
ATOM     92  C   UNL A   1      27.277  29.845  23.503  1.00  0.00     0.002 A 
ATOM     93  C   UNL A   1      28.085  30.965  23.672  1.00  0.00     0.002 A 
ENDBRANCH  83  85
ENDBRANCH  77  78
BRANCH  77  94
ATOM     94  C   UNL A   1      33.066  23.384  25.311  1.00  0.00     0.044 A 
ATOM     95  C   UNL A   1      34.153  23.764  26.081  1.00  0.00     0.094 A 
ATOM     96  C   UNL A   1      33.341  22.045  24.862  1.00  0.00     0.010 A 
ATOM     97  N   UNL A   1      35.015  22.708  26.179  1.00  0.00    -0.361 N 
ATOM     98  C   UNL A   1      34.517  21.627  25.491  1.00  0.00     0.046 A 
ATOM     99  C   UNL A   1      32.657  21.118  24.046  1.00  0.00     0.026 A 
ATOM    100  H   UNL A   1      35.868  22.719  26.672  1.00  0.00     0.166 HD
ATOM    101  C   UNL A   1      35.009  20.319  25.396  1.00  0.00     0.028 A 
ATOM    102  C   UNL A   1      33.134  19.805  23.954  1.00  0.00     0.018 A 
ATOM    103  C   UNL A   1      34.283  19.405  24.627  1.00  0.00     0.018 A 
ATOM    104  Br  UNL A   1      32.165  18.546  22.925  1.00  0.00    -0.051 Br
ENDBRANCH  77  94
ENDBRANCH  74  77
ENDBRANCH  72  73
ENDBRANCH  71  72
ENDBRANCH   1  71
TORSDOF 16
ENDMDL
MODEL 3
REMARK VINA RESULT:     -13.5      4.011      8.776
REMARK SMILES O=C(NCCCNC(=O)[C@H](c1c[nH]c2ccc(Br)cc12)[N@H+]1CCC[C@H](c2nc3ccccc3s2)C1)c1ccc(-c2c3nc(c(-c4cc(S(=O)(=O)[O-])ccc4F)c4ccc([nH]4)c(-c4cc(S(=O)(=O)[O-])ccc4F)c4nc(c(-c5cc(S(=O)(=O)[O-])ccc5F)c5ccc2[nH]5)C=C4)C=C3)cc1
REMARK SMILES IDX 4 1 3 2 1 3 2 4 36 6 37 7 98 8 38 9 97 10 39 11 40 12 41 13
REMARK SMILES IDX 91 14 42 15 96 16 90 17 92 18 43 19 95 20 89 21 88 22 44 24
REMARK SMILES IDX 76 25 56 26 75 27 57 28 60 29 74 30 93 31 58 32 59 33 73 35
REMARK SMILES IDX 94 36 61 37 45 38 46 39 54 40 47 41 53 42 55 43 52 44 48 45
REMARK SMILES IDX 49 46 50 47 51 48 77 49 78 50 86 51 79 52 85 53 87 54 84 55
REMARK SMILES IDX 80 56 81 57 82 58 83 59 62 60 63 61 71 62 64 63 70 64 72 65
REMARK SMILES IDX 69 66 65 67 66 68 67 69 68 70 5 71 6 72 7 73 8 74 9 76 10 77
REMARK SMILES IDX 21 78 22 79 35 80 23 82 25 83 24 84 26 85 27 86 34 87 28 88
REMARK SMILES IDX 33 89 29 90 32 91 30 92 31 93 11 94 12 95 20 96 13 97 14 98
REMARK SMILES IDX 19 99 15 101 17 102 16 103 18 104
REMARK H PARENT 3 5 92 23 60 34 7 75 21 81 13 100
REMARK Flexibility Score: inf
ROOT
ATOM      1  C   UNL A   1      38.298  22.523  25.914  1.00  0.00     0.118 C 
ENDROOT
BRANCH   1   2
ATOM      2  N   UNL A   1      39.469  21.671  26.067  1.00  0.00    -0.352 N 
ATOM      3  O   UNL A   1      41.662  21.201  26.245  1.00  0.00    -0.269 OA
ATOM      4  C   UNL A   1      40.756  22.020  26.390  1.00  0.00     0.251 C 
ATOM      5  H   UNL A   1      39.315  20.710  25.918  1.00  0.00     0.163 HD
BRANCH   4   6
ATOM      6  C   UNL A   1      41.048  23.373  26.913  1.00  0.00     0.039 A 
ATOM      7  C   UNL A   1      41.459  23.542  28.236  1.00  0.00     0.014 A 
ATOM      8  C   UNL A   1      40.946  24.479  26.063  1.00  0.00     0.014 A 
ATOM      9  C   UNL A   1      41.631  24.821  28.746  1.00  0.00     0.010 A 
ATOM     10  C   UNL A   1      41.227  25.760  26.552  1.00  0.00     0.010 A 
ATOM     11  C   UNL A   1      41.557  25.941  27.903  1.00  0.00    -0.014 A 
BRANCH  11  12
ATOM     12  C   UNL A   1      41.929  27.267  28.461  1.00  0.00     0.031 A 
ATOM     13  C   UNL A   1      43.357  27.730  28.498  1.00  0.00     0.074 A 
ATOM     14  C   UNL A   1      40.934  28.078  28.875  1.00  0.00     0.049 A 
ATOM     15  N   UNL A   1      43.837  28.880  28.894  1.00  0.00    -0.248 NA
ATOM     16  C   UNL A   1      44.379  26.777  28.042  1.00  0.00     0.031 C 
ATOM     17  C   UNL A   1      39.512  27.713  28.899  1.00  0.00     0.029 A 
ATOM     18  N   UNL A   1      40.947  29.374  29.317  1.00  0.00    -0.354 N 
ATOM     19  C   UNL A   1      45.215  28.794  28.741  1.00  0.00     0.074 A 
ATOM     20  C   UNL A   1      45.497  27.459  28.254  1.00  0.00     0.031 C 
ATOM     21  C   UNL A   1      38.789  28.780  29.265  1.00  0.00     0.029 A 
ATOM     22  C   UNL A   1      39.694  29.878  29.579  1.00  0.00     0.049 A 
ATOM     23  H   UNL A   1      41.774  29.895  29.437  1.00  0.00     0.167 HD
ATOM     24  C   UNL A   1      46.153  29.747  28.975  1.00  0.00     0.034 A 
ATOM     25  C   UNL A   1      39.311  31.085  30.037  1.00  0.00     0.034 A 
ATOM     26  C   UNL A   1      45.847  31.069  29.472  1.00  0.00     0.049 A 
ATOM     27  C   UNL A   1      40.375  32.114  30.303  1.00  0.00     0.074 A 
ATOM     28  C   UNL A   1      46.717  32.108  29.760  1.00  0.00     0.029 A 
ATOM     29  N   UNL A   1      44.569  31.537  29.759  1.00  0.00    -0.354 N 
ATOM     30  N   UNL A   1      41.676  32.013  30.152  1.00  0.00    -0.248 NA
ATOM     31  C   UNL A   1      39.920  33.419  30.792  1.00  0.00     0.031 C 
ATOM     32  C   UNL A   1      45.973  33.179  30.270  1.00  0.00     0.029 A 
ATOM     33  C   UNL A   1      44.631  32.839  30.235  1.00  0.00     0.049 A 
ATOM     34  H   UNL A   1      43.741  31.018  29.641  1.00  0.00     0.167 HD
ATOM     35  C   UNL A   1      42.195  33.246  30.525  1.00  0.00     0.074 A 
ATOM     36  C   UNL A   1      41.062  34.086  30.865  1.00  0.00     0.031 C 
ATOM     37  C   UNL A   1      43.489  33.649  30.595  1.00  0.00     0.034 A 
BRANCH  24  38
ATOM     38  C   UNL A   1      47.596  29.375  28.729  1.00  0.00     0.023 A 
ATOM     39  C   UNL A   1      48.094  29.167  27.430  1.00  0.00     0.031 A 
ATOM     40  C   UNL A   1      48.486  29.211  29.805  1.00  0.00     0.131 A 
ATOM     41  C   UNL A   1      49.420  28.746  27.243  1.00  0.00     0.055 A 
ATOM     42  C   UNL A   1      49.825  28.864  29.610  1.00  0.00     0.041 A 
ATOM     43  F   UNL A   1      48.067  29.375  31.069  1.00  0.00    -0.206 F 
ATOM     44  C   UNL A   1      50.296  28.617  28.323  1.00  0.00     0.022 A 
BRANCH  41  45
ATOM     45  S   UNL A   1      49.949  28.251  25.579  1.00  0.00     0.124 S 
ATOM     46  O   UNL A   1      50.477  26.910  25.822  1.00  0.00    -0.237 OA
ATOM     47  O   UNL A   1      48.706  28.318  24.819  1.00  0.00    -0.237 OA
ATOM     48  O   UNL A   1      50.953  29.252  25.226  1.00  0.00    -0.744 OA
ENDBRANCH  41  45
ENDBRANCH  24  38
BRANCH  25  49
ATOM     49  C   UNL A   1      37.873  31.364  30.311  1.00  0.00     0.023 A 
ATOM     50  C   UNL A   1      37.019  31.857  29.311  1.00  0.00     0.031 A 
ATOM     51  C   UNL A   1      37.335  31.166  31.597  1.00  0.00     0.131 A 
ATOM     52  C   UNL A   1      35.689  32.177  29.625  1.00  0.00     0.055 A 
ATOM     53  C   UNL A   1      35.996  31.427  31.887  1.00  0.00     0.041 A 
ATOM     54  F   UNL A   1      38.106  30.693  32.589  1.00  0.00    -0.206 F 
ATOM     55  C   UNL A   1      35.168  31.951  30.901  1.00  0.00     0.022 A 
BRANCH  52  56
ATOM     56  S   UNL A   1      34.669  32.988  28.362  1.00  0.00     0.124 S 
ATOM     57  O   UNL A   1      33.988  34.015  29.143  1.00  0.00    -0.237 OA
ATOM     58  O   UNL A   1      35.676  33.462  27.419  1.00  0.00    -0.237 OA
ATOM     59  O   UNL A   1      33.816  31.908  27.870  1.00  0.00    -0.744 OA
ENDBRANCH  52  56
ENDBRANCH  25  49
BRANCH  37  60
ATOM     60  C   UNL A   1      43.724  35.070  31.042  1.00  0.00     0.023 A 
ATOM     61  C   UNL A   1      43.719  35.420  32.404  1.00  0.00     0.031 A 
ATOM     62  C   UNL A   1      43.899  36.094  30.094  1.00  0.00     0.131 A 
ATOM     63  C   UNL A   1      43.809  36.768  32.778  1.00  0.00     0.055 A 
ATOM     64  C   UNL A   1      44.054  37.427  30.476  1.00  0.00     0.041 A 
ATOM     65  F   UNL A   1      43.910  35.815  28.780  1.00  0.00    -0.206 F 
ATOM     66  C   UNL A   1      43.992  37.772  31.824  1.00  0.00     0.022 A 
BRANCH  63  67
ATOM     67  S   UNL A   1      43.565  37.203  34.522  1.00  0.00     0.124 S 
ATOM     68  O   UNL A   1      42.174  36.816  34.739  1.00  0.00    -0.237 OA
ATOM     69  O   UNL A   1      44.568  36.381  35.191  1.00  0.00    -0.237 OA
ATOM     70  O   UNL A   1      43.821  38.641  34.556  1.00  0.00    -0.744 OA
ENDBRANCH  63  67
ENDBRANCH  37  60
ENDBRANCH  11  12
ENDBRANCH   4   6
ENDBRANCH   1   2
BRANCH   1  71
ATOM     71  C   UNL A   1      37.035  21.715  25.671  1.00  0.00     0.042 C 
BRANCH  71  72
ATOM     72  C   UNL A   1      36.737  21.495  24.191  1.00  0.00     0.118 C 
BRANCH  72  73
ATOM     73  N   UNL A   1      36.165  22.682  23.590  1.00  0.00    -0.351 N 
ATOM     74  C   UNL A   1      34.840  23.018  23.449  1.00  0.00     0.283 C 
ATOM     75  H   UNL A   1      36.812  23.334  23.234  1.00  0.00     0.163 HD
ATOM     76  O   UNL A   1      34.621  23.883  22.599  1.00  0.00    -0.268 OA
BRANCH  74  77
ATOM     77  C   UNL A   1      33.772  22.333  24.379  1.00  0.00     0.307 C 
BRANCH  77  78
ATOM     78  N   UNL A   1      32.784  23.228  25.047  1.00  0.00    -0.320 N 
ATOM     79  C   UNL A   1      31.667  22.454  25.605  1.00  0.00     0.263 C 
ATOM     80  C   UNL A   1      33.301  24.209  26.012  1.00  0.00     0.274 C 
ATOM     81  H   UNL A   1      32.456  23.822  24.285  1.00  0.00     0.349 HD
ATOM     82  C   UNL A   1      30.538  23.348  26.120  1.00  0.00     0.062 C 
ATOM     83  C   UNL A   1      32.215  25.194  26.514  1.00  0.00     0.104 C 
ATOM     84  C   UNL A   1      31.050  24.391  27.108  1.00  0.00     0.022 C 
BRANCH  83  85
ATOM     85  C   UNL A   1      31.775  26.151  25.416  1.00  0.00     0.103 A 
ATOM     86  N   UNL A   1      30.535  26.290  25.004  1.00  0.00    -0.241 NA
ATOM     87  S   UNL A   1      32.920  27.128  24.575  1.00  0.00    -0.118 S 
ATOM     88  C   UNL A   1      30.433  27.286  24.060  1.00  0.00     0.082 A 
ATOM     89  C   UNL A   1      31.641  27.881  23.696  1.00  0.00     0.055 A 
ATOM     90  C   UNL A   1      29.240  27.736  23.464  1.00  0.00     0.030 A 
ATOM     91  C   UNL A   1      31.694  28.921  22.753  1.00  0.00     0.021 A 
ATOM     92  C   UNL A   1      29.279  28.776  22.532  1.00  0.00     0.002 A 
ATOM     93  C   UNL A   1      30.493  29.361  22.184  1.00  0.00     0.002 A 
ENDBRANCH  83  85
ENDBRANCH  77  78
BRANCH  77  94
ATOM     94  C   UNL A   1      32.989  21.318  23.563  1.00  0.00     0.044 A 
ATOM     95  C   UNL A   1      32.081  21.600  22.555  1.00  0.00     0.094 A 
ATOM     96  C   UNL A   1      33.091  19.884  23.621  1.00  0.00     0.010 A 
ATOM     97  N   UNL A   1      31.700  20.428  21.964  1.00  0.00    -0.361 N 
ATOM     98  C   UNL A   1      32.344  19.369  22.559  1.00  0.00     0.046 A 
ATOM     99  C   UNL A   1      33.816  18.979  24.426  1.00  0.00     0.026 A 
ATOM    100  H   UNL A   1      31.058  20.353  21.221  1.00  0.00     0.166 HD
ATOM    101  C   UNL A   1      32.333  18.009  22.223  1.00  0.00     0.028 A 
ATOM    102  C   UNL A   1      33.821  17.619  24.093  1.00  0.00     0.018 A 
ATOM    103  C   UNL A   1      33.103  17.141  23.002  1.00  0.00     0.018 A 
ATOM    104  Br  UNL A   1      34.862  16.424  25.127  1.00  0.00    -0.051 Br
ENDBRANCH  77  94
ENDBRANCH  74  77
ENDBRANCH  72  73
ENDBRANCH  71  72
ENDBRANCH   1  71
TORSDOF 16
ENDMDL
