MODEL 1
REMARK VINA RESULT:     -12.3      0.000      0.000
REMARK SMILES C[C@H](Oc1ccccc1[N+](=O)[O-])C(=O)N1CCC[C@H](C(=O)NCCCNC(=O)c2ccc(-c3c4nc(c(-c5cc(S(=O)(=O)[O-])ccc5F)c5ccc([nH]5)c(-c5cc(S(=O)(=O)[O-])ccc5F)c5nc(c(-c6cc(S(=O)(=O)[O-])ccc6F)c6ccc3[nH]6)C=C5)C=C4)cc2)C1
REMARK SMILES IDX 23 1 22 2 20 3 21 4 19 6 15 7 16 8 92 9 17 10 18 11 13 12
REMARK SMILES IDX 14 13 2 14 1 15 3 16 4 17 5 18 9 19 6 20 8 21 7 22 10 23
REMARK SMILES IDX 11 24 12 25 24 26 25 27 26 28 27 29 28 31 29 32 30 33 91 34
REMARK SMILES IDX 31 35 90 36 32 37 33 38 34 39 84 40 35 41 89 42 83 43 85 44
REMARK SMILES IDX 36 45 88 46 82 47 81 48 37 50 69 51 49 52 68 53 50 54 53 55
REMARK SMILES IDX 67 56 86 57 51 58 52 59 66 61 87 62 54 63 38 64 39 65 47 66
REMARK SMILES IDX 40 67 46 68 48 69 45 70 41 71 42 72 43 73 44 74 70 75 71 76
REMARK SMILES IDX 79 77 72 78 78 79 80 80 77 81 73 82 74 83 75 84 76 85 55 86
REMARK SMILES IDX 56 87 64 88 57 89 63 90 65 91 62 92 58 93 59 94 60 95 61 96
REMARK H PARENT 22 5 26 30 85 49 53 60
REMARK Flexibility Score: inf
ROOT
ATOM      1  C   UNL A   1      35.568  21.830  26.372  1.00  0.00     0.117 C 
ENDROOT
BRANCH   1   2
ATOM      2  N   UNL A   1      34.597  22.054  27.417  1.00  0.00    -0.356 N 
ATOM      3  C   UNL A   1      33.292  22.421  27.360  1.00  0.00     0.224 C 
ATOM      4  O   UNL A   1      32.679  22.421  28.435  1.00  0.00    -0.275 OA
ATOM      5  H   UNL A   1      34.941  21.916  28.328  1.00  0.00     0.163 HD
BRANCH   3   6
ATOM      6  C   UNL A   1      32.561  22.871  26.085  1.00  0.00     0.098 C 
ATOM      7  N   UNL A   1      32.011  25.326  25.958  1.00  0.00    -0.339 N 
ATOM      8  C   UNL A   1      30.581  25.045  25.849  1.00  0.00     0.119 C 
ATOM      9  C   UNL A   1      32.926  24.262  25.556  1.00  0.00     0.133 C 
ATOM     10  C   UNL A   1      30.162  23.714  26.459  1.00  0.00     0.022 C 
ATOM     11  C   UNL A   1      31.067  22.554  26.070  1.00  0.00     0.017 C 
BRANCH   7  12
ATOM     12  C   UNL A   1      32.427  26.545  26.500  1.00  0.00     0.263 C 
ATOM     13  O   UNL A   1      31.688  27.194  27.248  1.00  0.00    -0.271 OA
BRANCH  12  14
ATOM     14  C   UNL A   1      33.708  27.215  25.933  1.00  0.00     0.259 C 
ATOM     15  C   UNL A   1      33.898  28.431  26.852  1.00  0.00     0.064 C 
BRANCH  14  16
ATOM     16  O   UNL A   1      33.648  27.498  24.537  1.00  0.00    -0.474 OA
BRANCH  16  17
ATOM     17  C   UNL A   1      32.508  27.931  23.924  1.00  0.00     0.197 A 
ATOM     18  C   UNL A   1      31.796  29.067  24.312  1.00  0.00     0.054 A 
ATOM     19  C   UNL A   1      31.978  27.162  22.874  1.00  0.00     0.310 A 
ATOM     20  C   UNL A   1      30.514  29.318  23.808  1.00  0.00     0.004 A 
ATOM     21  C   UNL A   1      30.694  27.410  22.358  1.00  0.00     0.090 A 
ATOM     22  C   UNL A   1      29.948  28.472  22.859  1.00  0.00     0.007 A 
BRANCH  19  23
ATOM     23  N   UNL A   1      32.757  26.095  22.248  1.00  0.00     0.066 N 
ATOM     24  O   UNL A   1      32.320  24.939  22.360  1.00  0.00    -0.258 OA
ATOM     25  O   UNL A   1      33.762  26.410  21.599  1.00  0.00    -0.258 OA
ENDBRANCH  19  23
ENDBRANCH  16  17
ENDBRANCH  14  16
ENDBRANCH  12  14
ENDBRANCH   7  12
ENDBRANCH   3   6
ENDBRANCH   1   2
BRANCH   1  26
ATOM     26  C   UNL A   1      36.415  23.046  26.044  1.00  0.00     0.042 C 
BRANCH  26  27
ATOM     27  C   UNL A   1      37.510  22.756  25.036  1.00  0.00     0.118 C 
BRANCH  27  28
ATOM     28  N   UNL A   1      38.556  21.890  25.573  1.00  0.00    -0.352 N 
ATOM     29  C   UNL A   1      39.669  22.184  26.329  1.00  0.00     0.251 C 
ATOM     30  H   UNL A   1      38.448  20.936  25.357  1.00  0.00     0.163 HD
ATOM     31  O   UNL A   1      40.484  21.304  26.566  1.00  0.00    -0.269 OA
BRANCH  29  32
ATOM     32  C   UNL A   1      39.900  23.563  26.818  1.00  0.00     0.039 A 
ATOM     33  C   UNL A   1      40.339  23.751  28.133  1.00  0.00     0.014 A 
ATOM     34  C   UNL A   1      39.701  24.667  25.991  1.00  0.00     0.014 A 
ATOM     35  C   UNL A   1      40.653  25.036  28.582  1.00  0.00     0.010 A 
ATOM     36  C   UNL A   1      40.133  25.923  26.396  1.00  0.00     0.010 A 
ATOM     37  C   UNL A   1      40.599  26.127  27.703  1.00  0.00    -0.014 A 
BRANCH  37  38
ATOM     38  C   UNL A   1      40.984  27.500  28.126  1.00  0.00     0.031 A 
ATOM     39  C   UNL A   1      42.439  27.891  28.142  1.00  0.00     0.074 A 
ATOM     40  C   UNL A   1      40.042  28.356  28.570  1.00  0.00     0.049 A 
ATOM     41  N   UNL A   1      43.000  28.983  28.592  1.00  0.00    -0.248 NA
ATOM     42  C   UNL A   1      43.394  26.897  27.626  1.00  0.00     0.031 C 
ATOM     43  C   UNL A   1      38.607  28.072  28.649  1.00  0.00     0.029 A 
ATOM     44  N   UNL A   1      40.150  29.638  29.046  1.00  0.00    -0.354 N 
ATOM     45  C   UNL A   1      44.371  28.793  28.442  1.00  0.00     0.074 A 
ATOM     46  C   UNL A   1      44.555  27.454  27.931  1.00  0.00     0.031 C 
ATOM     47  C   UNL A   1      37.967  29.159  29.108  1.00  0.00     0.029 A 
ATOM     48  C   UNL A   1      38.945  30.198  29.408  1.00  0.00     0.049 A 
ATOM     49  H   UNL A   1      41.008  30.114  29.121  1.00  0.00     0.167 HD
ATOM     50  C   UNL A   1      45.381  29.667  28.681  1.00  0.00     0.034 A 
ATOM     51  C   UNL A   1      38.665  31.409  29.930  1.00  0.00     0.034 A 
ATOM     52  C   UNL A   1      45.171  31.012  29.153  1.00  0.00     0.049 A 
ATOM     53  C   UNL A   1      39.803  32.367  30.182  1.00  0.00     0.074 A 
ATOM     54  C   UNL A   1      46.107  32.009  29.364  1.00  0.00     0.029 A 
ATOM     55  N   UNL A   1      43.934  31.551  29.488  1.00  0.00    -0.354 N 
ATOM     56  N   UNL A   1      41.091  32.190  29.988  1.00  0.00    -0.248 NA
ATOM     57  C   UNL A   1      39.450  33.689  30.713  1.00  0.00     0.031 C 
ATOM     58  C   UNL A   1      45.446  33.127  29.885  1.00  0.00     0.029 A 
ATOM     59  C   UNL A   1      44.086  32.856  29.928  1.00  0.00     0.049 A 
ATOM     60  H   UNL A   1      43.074  31.075  29.422  1.00  0.00     0.167 HD
ATOM     61  C   UNL A   1      41.695  33.393  30.342  1.00  0.00     0.074 A 
ATOM     62  C   UNL A   1      40.631  34.288  30.747  1.00  0.00     0.031 C 
ATOM     63  C   UNL A   1      43.011  33.731  30.332  1.00  0.00     0.034 A 
BRANCH  50  64
ATOM     64  C   UNL A   1      46.792  29.179  28.449  1.00  0.00     0.023 A 
ATOM     65  C   UNL A   1      47.293  28.948  27.156  1.00  0.00     0.031 A 
ATOM     66  C   UNL A   1      47.638  28.904  29.538  1.00  0.00     0.131 A 
ATOM     67  C   UNL A   1      48.562  28.375  26.986  1.00  0.00     0.055 A 
ATOM     68  C   UNL A   1      48.935  28.419  29.359  1.00  0.00     0.041 A 
ATOM     69  F   UNL A   1      47.213  29.085  30.798  1.00  0.00    -0.206 F 
ATOM     70  C   UNL A   1      49.398  28.133  28.077  1.00  0.00     0.022 A 
BRANCH  67  71
ATOM     71  S   UNL A   1      49.041  27.808  25.331  1.00  0.00     0.124 S 
ATOM     72  O   UNL A   1      47.883  28.210  24.536  1.00  0.00    -0.237 OA
ATOM     73  O   UNL A   1      50.272  28.549  25.087  1.00  0.00    -0.237 OA
ATOM     74  O   UNL A   1      49.203  26.365  25.496  1.00  0.00    -0.744 OA
ENDBRANCH  67  71
ENDBRANCH  50  64
BRANCH  51  75
ATOM     75  C   UNL A   1      37.260  31.792  30.251  1.00  0.00     0.023 A 
ATOM     76  C   UNL A   1      36.395  32.266  29.251  1.00  0.00     0.031 A 
ATOM     77  C   UNL A   1      36.771  31.732  31.568  1.00  0.00     0.131 A 
ATOM     78  C   UNL A   1      35.106  32.707  29.588  1.00  0.00     0.055 A 
ATOM     79  C   UNL A   1      35.469  32.121  31.890  1.00  0.00     0.041 A 
ATOM     80  F   UNL A   1      37.552  31.282  32.563  1.00  0.00    -0.206 F 
ATOM     81  C   UNL A   1      34.633  32.625  30.899  1.00  0.00     0.022 A 
BRANCH  78  82
ATOM     82  S   UNL A   1      34.085  33.473  28.299  1.00  0.00     0.124 S 
ATOM     83  O   UNL A   1      35.090  34.148  27.486  1.00  0.00    -0.237 OA
ATOM     84  O   UNL A   1      33.442  32.313  27.693  1.00  0.00    -0.237 OA
ATOM     85  O   UNL A   1      33.195  34.355  29.051  1.00  0.00    -0.744 OA
ENDBRANCH  78  82
ENDBRANCH  51  75
BRANCH  63  86
ATOM     86  C   UNL A   1      43.356  35.145  30.725  1.00  0.00     0.023 A 
ATOM     87  C   UNL A   1      43.430  35.542  32.071  1.00  0.00     0.031 A 
ATOM     88  C   UNL A   1      43.607  36.111  29.734  1.00  0.00     0.131 A 
ATOM     89  C   UNL A   1      43.691  36.883  32.389  1.00  0.00     0.055 A 
ATOM     90  C   UNL A   1      43.928  37.428  30.057  1.00  0.00     0.041 A 
ATOM     91  F   UNL A   1      43.548  35.785  28.432  1.00  0.00    -0.206 F 
ATOM     92  C   UNL A   1      43.958  37.824  31.391  1.00  0.00     0.022 A 
BRANCH  89  93
ATOM     93  S   UNL A   1      43.587  37.402  34.124  1.00  0.00     0.124 S 
ATOM     94  O   UNL A   1      42.956  38.713  34.011  1.00  0.00    -0.237 OA
ATOM     95  O   UNL A   1      42.770  36.349  34.716  1.00  0.00    -0.237 OA
ATOM     96  O   UNL A   1      44.983  37.421  34.560  1.00  0.00    -0.744 OA
ENDBRANCH  89  93
ENDBRANCH  63  86
ENDBRANCH  37  38
ENDBRANCH  29  32
ENDBRANCH  27  28
ENDBRANCH  26  27
ENDBRANCH   1  26
TORSDOF 18
ENDMDL
MODEL 2
REMARK VINA RESULT:     -12.3      2.150      2.809
REMARK SMILES C[C@H](Oc1ccccc1[N+](=O)[O-])C(=O)N1CCC[C@H](C(=O)NCCCNC(=O)c2ccc(-c3c4nc(c(-c5cc(S(=O)(=O)[O-])ccc5F)c5ccc([nH]5)c(-c5cc(S(=O)(=O)[O-])ccc5F)c5nc(c(-c6cc(S(=O)(=O)[O-])ccc6F)c6ccc3[nH]6)C=C5)C=C4)cc2)C1
REMARK SMILES IDX 23 1 22 2 20 3 21 4 19 6 15 7 16 8 92 9 17 10 18 11 13 12
REMARK SMILES IDX 14 13 2 14 1 15 3 16 4 17 5 18 9 19 6 20 8 21 7 22 10 23
REMARK SMILES IDX 11 24 12 25 24 26 25 27 26 28 27 29 28 31 29 32 30 33 91 34
REMARK SMILES IDX 31 35 90 36 32 37 33 38 34 39 84 40 35 41 89 42 83 43 85 44
REMARK SMILES IDX 36 45 88 46 82 47 81 48 37 50 69 51 49 52 68 53 50 54 53 55
REMARK SMILES IDX 67 56 86 57 51 58 52 59 66 61 87 62 54 63 38 64 39 65 47 66
REMARK SMILES IDX 40 67 46 68 48 69 45 70 41 71 42 72 43 73 44 74 70 75 71 76
REMARK SMILES IDX 79 77 72 78 78 79 80 80 77 81 73 82 74 83 75 84 76 85 55 86
REMARK SMILES IDX 56 87 64 88 57 89 63 90 65 91 62 92 58 93 59 94 60 95 61 96
REMARK H PARENT 22 5 26 30 85 49 53 60
REMARK Flexibility Score: inf
ROOT
ATOM      1  C   UNL A   1      35.051  22.429  24.019  1.00  0.00     0.117 C 
ENDROOT
BRANCH   1   2
ATOM      2  N   UNL A   1      34.624  22.958  22.745  1.00  0.00    -0.356 N 
ATOM      3  C   UNL A   1      33.389  23.071  22.193  1.00  0.00     0.224 C 
ATOM      4  O   UNL A   1      33.327  23.679  21.117  1.00  0.00    -0.275 OA
ATOM      5  H   UNL A   1      35.355  23.294  22.179  1.00  0.00     0.163 HD
BRANCH   3   6
ATOM      6  C   UNL A   1      32.106  22.464  22.781  1.00  0.00     0.098 C 
ATOM      7  N   UNL A   1      31.602  23.095  25.167  1.00  0.00    -0.339 N 
ATOM      8  C   UNL A   1      31.633  21.697  25.591  1.00  0.00     0.119 C 
ATOM      9  C   UNL A   1      31.327  23.353  23.757  1.00  0.00     0.133 C 
ATOM     10  C   UNL A   1      32.485  20.799  24.702  1.00  0.00     0.022 C 
ATOM     11  C   UNL A   1      32.241  21.005  23.215  1.00  0.00     0.017 C 
BRANCH   7  12
ATOM     12  C   UNL A   1      31.902  24.095  26.096  1.00  0.00     0.263 C 
ATOM     13  O   UNL A   1      31.498  24.024  27.261  1.00  0.00    -0.271 OA
BRANCH  12  14
ATOM     14  C   UNL A   1      32.505  25.432  25.583  1.00  0.00     0.259 C 
ATOM     15  C   UNL A   1      33.976  25.335  26.015  1.00  0.00     0.064 C 
BRANCH  14  16
ATOM     16  O   UNL A   1      31.806  26.593  26.025  1.00  0.00    -0.474 OA
BRANCH  16  17
ATOM     17  C   UNL A   1      31.023  27.340  25.192  1.00  0.00     0.197 A 
ATOM     18  C   UNL A   1      29.981  26.818  24.424  1.00  0.00     0.054 A 
ATOM     19  C   UNL A   1      31.310  28.708  25.050  1.00  0.00     0.310 A 
ATOM     20  C   UNL A   1      29.380  27.581  23.415  1.00  0.00     0.004 A 
ATOM     21  C   UNL A   1      30.709  29.483  24.044  1.00  0.00     0.090 A 
ATOM     22  C   UNL A   1      29.768  28.901  23.200  1.00  0.00     0.007 A 
BRANCH  19  23
ATOM     23  N   UNL A   1      32.220  29.391  25.968  1.00  0.00     0.066 N 
ATOM     24  O   UNL A   1      31.722  29.886  26.991  1.00  0.00    -0.258 OA
ATOM     25  O   UNL A   1      33.429  29.382  25.705  1.00  0.00    -0.258 OA
ENDBRANCH  19  23
ENDBRANCH  16  17
ENDBRANCH  14  16
ENDBRANCH  12  14
ENDBRANCH   7  12
ENDBRANCH   3   6
ENDBRANCH   1   2
BRANCH   1  26
ATOM     26  C   UNL A   1      36.548  22.510  24.252  1.00  0.00     0.042 C 
BRANCH  26  27
ATOM     27  C   UNL A   1      36.934  22.361  25.711  1.00  0.00     0.118 C 
BRANCH  27  28
ATOM     28  N   UNL A   1      38.036  21.426  25.912  1.00  0.00    -0.352 N 
ATOM     29  C   UNL A   1      39.319  21.631  26.369  1.00  0.00     0.251 C 
ATOM     30  H   UNL A   1      37.828  20.492  25.681  1.00  0.00     0.163 HD
ATOM     31  O   UNL A   1      40.122  20.708  26.340  1.00  0.00    -0.269 OA
BRANCH  29  32
ATOM     32  C   UNL A   1      39.738  22.966  26.855  1.00  0.00     0.039 A 
ATOM     33  C   UNL A   1      40.841  23.060  27.710  1.00  0.00     0.014 A 
ATOM     34  C   UNL A   1      39.062  24.122  26.467  1.00  0.00     0.014 A 
ATOM     35  C   UNL A   1      41.309  24.317  28.102  1.00  0.00     0.010 A 
ATOM     36  C   UNL A   1      39.602  25.369  26.753  1.00  0.00     0.010 A 
ATOM     37  C   UNL A   1      40.723  25.483  27.588  1.00  0.00    -0.014 A 
BRANCH  37  38
ATOM     38  C   UNL A   1      41.230  26.838  27.934  1.00  0.00     0.031 A 
ATOM     39  C   UNL A   1      42.657  27.200  27.612  1.00  0.00     0.074 A 
ATOM     40  C   UNL A   1      40.441  27.702  28.603  1.00  0.00     0.049 A 
ATOM     41  N   UNL A   1      43.335  28.270  27.937  1.00  0.00    -0.248 NA
ATOM     42  C   UNL A   1      43.439  26.200  26.867  1.00  0.00     0.031 C 
ATOM     43  C   UNL A   1      39.059  27.443  29.014  1.00  0.00     0.029 A 
ATOM     44  N   UNL A   1      40.689  28.970  29.064  1.00  0.00    -0.354 N 
ATOM     45  C   UNL A   1      44.627  28.057  27.463  1.00  0.00     0.074 A 
ATOM     46  C   UNL A   1      44.652  26.726  26.899  1.00  0.00     0.031 C 
ATOM     47  C   UNL A   1      38.572  28.532  29.632  1.00  0.00     0.029 A 
ATOM     48  C   UNL A   1      39.619  29.544  29.711  1.00  0.00     0.049 A 
ATOM     49  H   UNL A   1      41.552  29.426  28.943  1.00  0.00     0.167 HD
ATOM     50  C   UNL A   1      45.685  28.905  27.473  1.00  0.00     0.034 A 
ATOM     51  C   UNL A   1      39.500  30.748  30.307  1.00  0.00     0.034 A 
ATOM     52  C   UNL A   1      45.626  30.242  28.006  1.00  0.00     0.049 A 
ATOM     53  C   UNL A   1      40.688  31.677  30.300  1.00  0.00     0.074 A 
ATOM     54  C   UNL A   1      46.610  31.215  28.008  1.00  0.00     0.029 A 
ATOM     55  N   UNL A   1      44.517  30.797  28.633  1.00  0.00    -0.354 N 
ATOM     56  N   UNL A   1      41.888  31.480  29.803  1.00  0.00    -0.248 NA
ATOM     57  C   UNL A   1      40.502  32.993  30.923  1.00  0.00     0.031 C 
ATOM     58  C   UNL A   1      46.118  32.334  28.691  1.00  0.00     0.029 A 
ATOM     59  C   UNL A   1      44.801  32.088  29.050  1.00  0.00     0.049 A 
ATOM     60  H   UNL A   1      43.654  30.340  28.764  1.00  0.00     0.167 HD
ATOM     61  C   UNL A   1      42.589  32.662  30.027  1.00  0.00     0.074 A 
ATOM     62  C   UNL A   1      41.673  33.568  30.688  1.00  0.00     0.031 C 
ATOM     63  C   UNL A   1      43.873  32.974  29.712  1.00  0.00     0.034 A 
BRANCH  50  64
ATOM     64  C   UNL A   1      46.990  28.395  26.905  1.00  0.00     0.023 A 
ATOM     65  C   UNL A   1      47.224  28.341  25.519  1.00  0.00     0.031 A 
ATOM     66  C   UNL A   1      48.001  27.920  27.758  1.00  0.00     0.131 A 
ATOM     67  C   UNL A   1      48.394  27.745  25.027  1.00  0.00     0.055 A 
ATOM     68  C   UNL A   1      49.203  27.410  27.265  1.00  0.00     0.041 A 
ATOM     69  F   UNL A   1      47.831  27.925  29.090  1.00  0.00    -0.206 F 
ATOM     70  C   UNL A   1      49.398  27.302  25.890  1.00  0.00     0.022 A 
BRANCH  67  71
ATOM     71  S   UNL A   1      48.515  27.415  23.247  1.00  0.00     0.124 S 
ATOM     72  O   UNL A   1      49.810  28.011  22.926  1.00  0.00    -0.237 OA
ATOM     73  O   UNL A   1      48.450  25.960  23.191  1.00  0.00    -0.237 OA
ATOM     74  O   UNL A   1      47.361  28.115  22.689  1.00  0.00    -0.744 OA
ENDBRANCH  67  71
ENDBRANCH  50  64
BRANCH  51  75
ATOM     75  C   UNL A   1      38.220  31.150  30.958  1.00  0.00     0.023 A 
ATOM     76  C   UNL A   1      37.212  31.801  30.226  1.00  0.00     0.031 A 
ATOM     77  C   UNL A   1      37.999  30.931  32.329  1.00  0.00     0.131 A 
ATOM     78  C   UNL A   1      36.053  32.252  30.877  1.00  0.00     0.055 A 
ATOM     79  C   UNL A   1      36.820  31.334  32.961  1.00  0.00     0.041 A 
ATOM     80  F   UNL A   1      38.925  30.309  33.076  1.00  0.00    -0.206 F 
ATOM     81  C   UNL A   1      35.845  32.012  32.236  1.00  0.00     0.022 A 
BRANCH  78  82
ATOM     82  S   UNL A   1      34.858  33.240  29.935  1.00  0.00     0.124 S 
ATOM     83  O   UNL A   1      35.726  34.212  29.280  1.00  0.00    -0.237 OA
ATOM     84  O   UNL A   1      34.251  32.236  29.070  1.00  0.00    -0.237 OA
ATOM     85  O   UNL A   1      33.979  33.784  30.968  1.00  0.00    -0.744 OA
ENDBRANCH  78  82
ENDBRANCH  51  75
BRANCH  63  86
ATOM     86  C   UNL A   1      44.336  34.372  30.038  1.00  0.00     0.023 A 
ATOM     87  C   UNL A   1      44.178  35.434  29.132  1.00  0.00     0.031 A 
ATOM     88  C   UNL A   1      44.950  34.640  31.274  1.00  0.00     0.131 A 
ATOM     89  C   UNL A   1      44.681  36.704  29.451  1.00  0.00     0.055 A 
ATOM     90  C   UNL A   1      45.392  35.919  31.612  1.00  0.00     0.041 A 
ATOM     91  F   UNL A   1      45.127  33.661  32.177  1.00  0.00    -0.206 F 
ATOM     92  C   UNL A   1      45.271  36.956  30.693  1.00  0.00     0.022 A 
BRANCH  89  93
ATOM     93  S   UNL A   1      44.637  38.000  28.185  1.00  0.00     0.124 S 
ATOM     94  O   UNL A   1      43.459  37.626  27.407  1.00  0.00    -0.237 OA
ATOM     95  O   UNL A   1      44.513  39.215  28.984  1.00  0.00    -0.237 OA
ATOM     96  O   UNL A   1      45.914  37.844  27.490  1.00  0.00    -0.744 OA
ENDBRANCH  89  93
ENDBRANCH  63  86
ENDBRANCH  37  38
ENDBRANCH  29  32
ENDBRANCH  27  28
ENDBRANCH  26  27
ENDBRANCH   1  26
TORSDOF 18
ENDMDL
MODEL 3
REMARK VINA RESULT:     -12.1      2.903      8.293
REMARK SMILES C[C@H](Oc1ccccc1[N+](=O)[O-])C(=O)N1CCC[C@H](C(=O)NCCCNC(=O)c2ccc(-c3c4nc(c(-c5cc(S(=O)(=O)[O-])ccc5F)c5ccc([nH]5)c(-c5cc(S(=O)(=O)[O-])ccc5F)c5nc(c(-c6cc(S(=O)(=O)[O-])ccc6F)c6ccc3[nH]6)C=C5)C=C4)cc2)C1
REMARK SMILES IDX 23 1 22 2 20 3 21 4 19 6 15 7 16 8 92 9 17 10 18 11 13 12
REMARK SMILES IDX 14 13 2 14 1 15 3 16 4 17 5 18 9 19 6 20 8 21 7 22 10 23
REMARK SMILES IDX 11 24 12 25 24 26 25 27 26 28 27 29 28 31 29 32 30 33 91 34
REMARK SMILES IDX 31 35 90 36 32 37 33 38 34 39 84 40 35 41 89 42 83 43 85 44
REMARK SMILES IDX 36 45 88 46 82 47 81 48 37 50 69 51 49 52 68 53 50 54 53 55
REMARK SMILES IDX 67 56 86 57 51 58 52 59 66 61 87 62 54 63 38 64 39 65 47 66
REMARK SMILES IDX 40 67 46 68 48 69 45 70 41 71 42 72 43 73 44 74 70 75 71 76
REMARK SMILES IDX 79 77 72 78 78 79 80 80 77 81 73 82 74 83 75 84 76 85 55 86
REMARK SMILES IDX 56 87 64 88 57 89 63 90 65 91 62 92 58 93 59 94 60 95 61 96
REMARK H PARENT 22 5 26 30 85 49 53 60
REMARK Flexibility Score: inf
ROOT
ATOM      1  C   UNL A   1      36.387  20.538  25.222  1.00  0.00     0.117 C 
ENDROOT
BRANCH   1   2
ATOM      2  N   UNL A   1      36.246  21.969  25.101  1.00  0.00    -0.356 N 
ATOM      3  C   UNL A   1      35.265  22.727  24.549  1.00  0.00     0.224 C 
ATOM      4  O   UNL A   1      35.370  23.951  24.701  1.00  0.00    -0.275 OA
ATOM      5  H   UNL A   1      36.991  22.486  25.485  1.00  0.00     0.163 HD
BRANCH   3   6
ATOM      6  C   UNL A   1      34.087  22.176  23.729  1.00  0.00     0.098 C 
ATOM      7  N   UNL A   1      32.565  23.909  22.717  1.00  0.00    -0.339 N 
ATOM      8  C   UNL A   1      31.410  23.382  23.440  1.00  0.00     0.119 C 
ATOM      9  C   UNL A   1      33.683  22.996  22.499  1.00  0.00     0.133 C 
ATOM     10  C   UNL A   1      31.766  22.648  24.727  1.00  0.00     0.022 C 
ATOM     11  C   UNL A   1      32.918  21.667  24.570  1.00  0.00     0.017 C 
BRANCH   7  12
ATOM     12  C   UNL A   1      32.577  25.255  22.340  1.00  0.00     0.263 C 
ATOM     13  O   UNL A   1      33.292  25.650  21.414  1.00  0.00    -0.271 OA
BRANCH  12  14
ATOM     14  C   UNL A   1      31.901  26.296  23.274  1.00  0.00     0.259 C 
ATOM     15  C   UNL A   1      30.996  27.084  22.314  1.00  0.00     0.064 C 
BRANCH  14  16
ATOM     16  O   UNL A   1      32.818  27.075  24.038  1.00  0.00    -0.474 OA
BRANCH  16  17
ATOM     17  C   UNL A   1      32.414  27.933  25.020  1.00  0.00     0.197 A 
ATOM     18  C   UNL A   1      32.373  29.320  24.876  1.00  0.00     0.054 A 
ATOM     19  C   UNL A   1      32.069  27.401  26.274  1.00  0.00     0.310 A 
ATOM     20  C   UNL A   1      32.186  30.153  25.987  1.00  0.00     0.004 A 
ATOM     21  C   UNL A   1      31.876  28.229  27.394  1.00  0.00     0.090 A 
ATOM     22  C   UNL A   1      31.974  29.609  27.251  1.00  0.00     0.007 A 
BRANCH  19  23
ATOM     23  N   UNL A   1      31.862  25.966  26.459  1.00  0.00     0.066 N 
ATOM     24  O   UNL A   1      30.688  25.566  26.499  1.00  0.00    -0.258 OA
ATOM     25  O   UNL A   1      32.859  25.233  26.502  1.00  0.00    -0.258 OA
ENDBRANCH  19  23
ENDBRANCH  16  17
ENDBRANCH  14  16
ENDBRANCH  12  14
ENDBRANCH   7  12
ENDBRANCH   3   6
ENDBRANCH   1   2
BRANCH   1  26
ATOM     26  C   UNL A   1      37.752  20.014  24.814  1.00  0.00     0.042 C 
BRANCH  26  27
ATOM     27  C   UNL A   1      38.860  20.437  25.758  1.00  0.00     0.118 C 
BRANCH  27  28
ATOM     28  N   UNL A   1      39.893  19.416  25.910  1.00  0.00    -0.352 N 
ATOM     29  C   UNL A   1      41.243  19.531  26.161  1.00  0.00     0.251 C 
ATOM     30  H   UNL A   1      39.571  18.491  25.816  1.00  0.00     0.163 HD
ATOM     31  O   UNL A   1      41.947  18.532  26.127  1.00  0.00    -0.269 OA
BRANCH  29  32
ATOM     32  C   UNL A   1      41.845  20.857  26.432  1.00  0.00     0.039 A 
ATOM     33  C   UNL A   1      42.086  21.722  25.360  1.00  0.00     0.014 A 
ATOM     34  C   UNL A   1      42.159  21.258  27.729  1.00  0.00     0.014 A 
ATOM     35  C   UNL A   1      42.564  23.012  25.604  1.00  0.00     0.010 A 
ATOM     36  C   UNL A   1      42.512  22.577  27.981  1.00  0.00     0.010 A 
ATOM     37  C   UNL A   1      42.736  23.467  26.920  1.00  0.00    -0.014 A 
BRANCH  37  38
ATOM     38  C   UNL A   1      43.185  24.852  27.223  1.00  0.00     0.031 A 
ATOM     39  C   UNL A   1      42.223  25.821  27.862  1.00  0.00     0.074 A 
ATOM     40  C   UNL A   1      44.415  25.257  26.852  1.00  0.00     0.049 A 
ATOM     41  N   UNL A   1      42.365  27.100  28.094  1.00  0.00    -0.248 NA
ATOM     42  C   UNL A   1      40.907  25.286  28.247  1.00  0.00     0.031 C 
ATOM     43  C   UNL A   1      45.415  24.424  26.179  1.00  0.00     0.029 A 
ATOM     44  N   UNL A   1      45.034  26.475  26.979  1.00  0.00    -0.354 N 
ATOM     45  C   UNL A   1      41.148  27.525  28.621  1.00  0.00     0.074 A 
ATOM     46  C   UNL A   1      40.261  26.385  28.601  1.00  0.00     0.031 C 
ATOM     47  C   UNL A   1      46.532  25.144  25.987  1.00  0.00     0.029 A 
ATOM     48  C   UNL A   1      46.313  26.502  26.471  1.00  0.00     0.049 A 
ATOM     49  H   UNL A   1      44.604  27.256  27.394  1.00  0.00     0.167 HD
ATOM     50  C   UNL A   1      40.813  28.748  29.103  1.00  0.00     0.034 A 
ATOM     51  C   UNL A   1      47.204  27.512  26.397  1.00  0.00     0.034 A 
ATOM     52  C   UNL A   1      41.727  29.861  29.148  1.00  0.00     0.049 A 
ATOM     53  C   UNL A   1      46.812  28.861  26.945  1.00  0.00     0.074 A 
ATOM     54  C   UNL A   1      41.525  31.124  29.677  1.00  0.00     0.029 A 
ATOM     55  N   UNL A   1      43.023  29.844  28.645  1.00  0.00    -0.354 N 
ATOM     56  N   UNL A   1      45.674  29.235  27.486  1.00  0.00    -0.248 NA
ATOM     57  C   UNL A   1      47.826  29.921  26.883  1.00  0.00     0.031 C 
ATOM     58  C   UNL A   1      42.672  31.888  29.438  1.00  0.00     0.029 A 
ATOM     59  C   UNL A   1      43.621  31.081  28.827  1.00  0.00     0.049 A 
ATOM     60  H   UNL A   1      43.454  29.067  28.221  1.00  0.00     0.167 HD
ATOM     61  C   UNL A   1      45.850  30.565  27.858  1.00  0.00     0.074 A 
ATOM     62  C   UNL A   1      47.206  30.921  27.492  1.00  0.00     0.031 C 
ATOM     63  C   UNL A   1      44.974  31.417  28.451  1.00  0.00     0.034 A 
BRANCH  50  64
ATOM     64  C   UNL A   1      39.398  28.936  29.598  1.00  0.00     0.023 A 
ATOM     65  C   UNL A   1      38.377  29.419  28.759  1.00  0.00     0.031 A 
ATOM     66  C   UNL A   1      39.070  28.665  30.938  1.00  0.00     0.131 A 
ATOM     67  C   UNL A   1      37.108  29.700  29.287  1.00  0.00     0.055 A 
ATOM     68  C   UNL A   1      37.780  28.861  31.435  1.00  0.00     0.041 A 
ATOM     69  F   UNL A   1      40.003  28.221  31.794  1.00  0.00    -0.206 F 
ATOM     70  C   UNL A   1      36.794  29.399  30.613  1.00  0.00     0.022 A 
BRANCH  67  71
ATOM     71  S   UNL A   1      35.923  30.607  28.255  1.00  0.00     0.124 S 
ATOM     72  O   UNL A   1      36.750  31.702  27.753  1.00  0.00    -0.237 OA
ATOM     73  O   UNL A   1      35.526  29.604  27.275  1.00  0.00    -0.237 OA
ATOM     74  O   UNL A   1      34.881  31.006  29.199  1.00  0.00    -0.744 OA
ENDBRANCH  67  71
ENDBRANCH  50  64
BRANCH  51  75
ATOM     75  C   UNL A   1      48.548  27.297  25.788  1.00  0.00     0.023 A 
ATOM     76  C   UNL A   1      48.767  27.534  24.421  1.00  0.00     0.031 A 
ATOM     77  C   UNL A   1      49.625  26.811  26.551  1.00  0.00     0.131 A 
ATOM     78  C   UNL A   1      50.014  27.239  23.848  1.00  0.00     0.055 A 
ATOM     79  C   UNL A   1      50.880  26.570  25.987  1.00  0.00     0.041 A 
ATOM     80  F   UNL A   1      49.475  26.571  27.863  1.00  0.00    -0.206 F 
ATOM     81  C   UNL A   1      51.075  26.772  24.624  1.00  0.00     0.022 A 
BRANCH  78  82
ATOM     82  S   UNL A   1      50.201  27.394  22.050  1.00  0.00     0.124 S 
ATOM     83  O   UNL A   1      51.608  27.053  21.868  1.00  0.00    -0.237 OA
ATOM     84  O   UNL A   1      49.236  26.417  21.560  1.00  0.00    -0.237 OA
ATOM     85  O   UNL A   1      49.858  28.790  21.791  1.00  0.00    -0.744 OA
ENDBRANCH  78  82
ENDBRANCH  51  75
BRANCH  63  86
ATOM     86  C   UNL A   1      45.481  32.798  28.782  1.00  0.00     0.023 A 
ATOM     87  C   UNL A   1      45.338  33.872  27.887  1.00  0.00     0.031 A 
ATOM     88  C   UNL A   1      46.124  33.036  30.010  1.00  0.00     0.131 A 
ATOM     89  C   UNL A   1      45.883  35.125  28.210  1.00  0.00     0.055 A 
ATOM     90  C   UNL A   1      46.607  34.299  30.352  1.00  0.00     0.041 A 
ATOM     91  F   UNL A   1      46.287  32.044  30.900  1.00  0.00    -0.206 F 
ATOM     92  C   UNL A   1      46.500  35.349  29.444  1.00  0.00     0.022 A 
BRANCH  89  93
ATOM     93  S   UNL A   1      45.854  36.434  26.957  1.00  0.00     0.124 S 
ATOM     94  O   UNL A   1      46.421  35.756  25.795  1.00  0.00    -0.237 OA
ATOM     95  O   UNL A   1      44.434  36.759  26.876  1.00  0.00    -0.237 OA
ATOM     96  O   UNL A   1      46.696  37.481  27.535  1.00  0.00    -0.744 OA
ENDBRANCH  89  93
ENDBRANCH  63  86
ENDBRANCH  37  38
ENDBRANCH  29  32
ENDBRANCH  27  28
ENDBRANCH  26  27
ENDBRANCH   1  26
TORSDOF 18
ENDMDL
