MODEL 1
REMARK VINA RESULT:     -13.0      0.000      0.000
REMARK SMILES Cc1coc2c(C)c3oc(=O)c(CC(=O)NCC(=O)N[C@H](C(=O)NCCCNC(=O)c4ccc(-c5c6nc(c(-c7cc(S(=O)(=O)[O-])ccc7F)c7ccc([nH]7)c(-c7cc(S(=O)(=O)[O-])ccc7F)c7nc(c(-c8cc(S(=O)(=O)[O-])ccc8F)c8ccc5[nH]8)C=C7)C=C6)cc4)C(C)C)c(C)c3cc12
REMARK SMILES IDX 25 1 24 2 22 3 23 4 21 6 20 7 18 8 19 9 17 11 16 12 14 13
REMARK SMILES IDX 15 14 13 16 12 17 1 18 2 19 3 20 101 21 4 22 5 23 100 24
REMARK SMILES IDX 6 25 99 26 7 27 8 28 97 29 9 30 98 31 10 32 11 33 94 34
REMARK SMILES IDX 95 35 96 36 26 37 27 38 28 39 29 40 30 42 31 43 32 44 93 45
REMARK SMILES IDX 33 46 92 47 34 48 35 49 36 50 86 51 37 52 91 53 85 54 87 55
REMARK SMILES IDX 38 56 90 57 84 58 83 59 39 61 71 62 51 63 70 64 52 65 55 66
REMARK SMILES IDX 69 67 88 68 53 69 54 70 68 72 89 73 56 74 40 75 41 76 49 77
REMARK SMILES IDX 42 78 48 79 50 80 47 81 43 82 44 83 45 84 46 85 72 86 73 87
REMARK SMILES IDX 81 88 74 89 80 90 82 91 79 92 75 93 76 94 77 95 78 96 57 97
REMARK SMILES IDX 58 98 66 99 59 100 65 101 67 102 64 103 60 104 61 105 62 106
REMARK SMILES IDX 63 107
REMARK H PARENT 24 5 20 10 16 15 28 41 87 60 55 71
REMARK Flexibility Score: inf
ROOT
ATOM      1  C   UNL A   1      33.478  28.699  27.172  1.00  0.00     0.117 C 
ENDROOT
BRANCH   1   2
ATOM      2  N   UNL A   1      32.516  29.495  26.431  1.00  0.00    -0.354 N 
ATOM      3  C   UNL A   1      31.733  29.299  25.329  1.00  0.00     0.242 C 
ATOM      4  O   UNL A   1      30.989  30.210  24.958  1.00  0.00    -0.273 OA
ATOM      5  H   UNL A   1      32.398  30.392  26.817  1.00  0.00     0.163 HD
BRANCH   3   6
ATOM      6  C   UNL A   1      31.696  28.001  24.556  1.00  0.00     0.173 C 
BRANCH   6   7
ATOM      7  N   UNL A   1      30.287  27.544  24.424  1.00  0.00    -0.343 N 
ATOM      8  C   UNL A   1      29.685  26.344  24.192  1.00  0.00     0.240 C 
ATOM      9  O   UNL A   1      28.489  26.403  23.875  1.00  0.00    -0.273 OA
ATOM     10  H   UNL A   1      29.639  28.278  24.526  1.00  0.00     0.164 HD
BRANCH   8  11
ATOM     11  C   UNL A   1      30.320  24.968  24.501  1.00  0.00     0.216 C 
BRANCH  11  12
ATOM     12  N   UNL A   1      29.914  24.332  25.732  1.00  0.00    -0.347 N 
ATOM     13  C   UNL A   1      30.459  23.285  26.406  1.00  0.00     0.225 C 
ATOM     14  O   UNL A   1      30.073  23.207  27.579  1.00  0.00    -0.275 OA
ATOM     15  H   UNL A   1      29.111  24.719  26.151  1.00  0.00     0.164 HD
BRANCH  13  16
ATOM     16  C   UNL A   1      31.539  22.302  25.848  1.00  0.00     0.143 C 
BRANCH  16  17
ATOM     17  C   UNL A   1      33.008  22.563  25.385  1.00  0.00     0.051 A 
ATOM     18  C   UNL A   1      39.141  24.993  27.595  1.00  0.00     0.048 C 
ATOM     19  C   UNL A   1      38.875  23.739  26.850  1.00  0.00    -0.005 A 
ATOM     20  C   UNL A   1      39.753  22.685  26.691  1.00  0.00     0.199 A 
ATOM     21  C   UNL A   1      37.674  23.334  26.186  1.00  0.00     0.024 A 
ATOM     22  O   UNL A   1      39.166  21.653  26.039  1.00  0.00    -0.464 OA
ATOM     23  C   UNL A   1      37.892  22.035  25.746  1.00  0.00     0.140 A 
ATOM     24  C   UNL A   1      36.402  23.903  25.963  1.00  0.00     0.024 A 
ATOM     25  C   UNL A   1      36.930  21.234  25.129  1.00  0.00     0.036 A 
ATOM     26  C   UNL A   1      35.374  23.143  25.351  1.00  0.00     0.022 A 
ATOM     27  C   UNL A   1      37.181  19.818  24.723  1.00  0.00     0.052 C 
ATOM     28  C   UNL A   1      35.680  21.849  24.950  1.00  0.00     0.145 A 
ATOM     29  C   UNL A   1      33.933  23.579  25.333  1.00  0.00    -0.029 A 
ATOM     30  O   UNL A   1      34.692  21.066  24.349  1.00  0.00    -0.422 OA
ATOM     31  C   UNL A   1      33.843  25.082  25.511  1.00  0.00     0.046 C 
ATOM     32  C   UNL A   1      33.374  21.408  24.485  1.00  0.00     0.340 A 
ATOM     33  O   UNL A   1      32.507  20.778  23.884  1.00  0.00    -0.246 OA
ENDBRANCH  16  17
ENDBRANCH  13  16
ENDBRANCH  11  12
ENDBRANCH   8  11
ENDBRANCH   6   7
BRANCH   6  34
ATOM     34  C   UNL A   1      32.246  28.339  23.124  1.00  0.00     0.015 C 
ATOM     35  C   UNL A   1      33.665  28.927  23.153  1.00  0.00     0.010 C 
ATOM     36  C   UNL A   1      32.224  27.140  22.172  1.00  0.00     0.010 C 
ENDBRANCH   6  34
ENDBRANCH   3   6
ENDBRANCH   1   2
BRANCH   1  37
ATOM     37  C   UNL A   1      35.018  29.009  27.017  1.00  0.00     0.042 C 
BRANCH  37  38
ATOM     38  C   UNL A   1      35.700  30.278  27.592  1.00  0.00     0.118 C 
BRANCH  38  39
ATOM     39  N   UNL A   1      35.555  30.459  29.037  1.00  0.00    -0.352 N 
ATOM     40  C   UNL A   1      36.385  30.160  30.106  1.00  0.00     0.251 C 
ATOM     41  H   UNL A   1      34.701  30.873  29.301  1.00  0.00     0.163 HD
ATOM     42  O   UNL A   1      35.988  30.370  31.241  1.00  0.00    -0.269 OA
BRANCH  40  43
ATOM     43  C   UNL A   1      37.752  29.604  29.910  1.00  0.00     0.039 A 
ATOM     44  C   UNL A   1      38.734  30.372  29.274  1.00  0.00     0.014 A 
ATOM     45  C   UNL A   1      38.052  28.289  30.250  1.00  0.00     0.014 A 
ATOM     46  C   UNL A   1      40.023  29.851  29.091  1.00  0.00     0.010 A 
ATOM     47  C   UNL A   1      39.339  27.779  30.112  1.00  0.00     0.010 A 
ATOM     48  C   UNL A   1      40.340  28.558  29.538  1.00  0.00    -0.014 A 
BRANCH  48  49
ATOM     49  C   UNL A   1      41.743  28.111  29.567  1.00  0.00     0.031 A 
ATOM     50  C   UNL A   1      42.074  26.972  28.652  1.00  0.00     0.074 A 
ATOM     51  C   UNL A   1      42.776  28.786  30.117  1.00  0.00     0.049 A 
ATOM     52  N   UNL A   1      42.560  25.809  28.945  1.00  0.00    -0.248 NA
ATOM     53  C   UNL A   1      41.767  27.140  27.222  1.00  0.00     0.031 C 
ATOM     54  C   UNL A   1      42.765  30.095  30.774  1.00  0.00     0.029 A 
ATOM     55  N   UNL A   1      44.107  28.474  30.089  1.00  0.00    -0.354 N 
ATOM     56  C   UNL A   1      42.782  25.154  27.734  1.00  0.00     0.074 A 
ATOM     57  C   UNL A   1      42.159  25.968  26.721  1.00  0.00     0.031 C 
ATOM     58  C   UNL A   1      44.031  30.558  30.879  1.00  0.00     0.029 A 
ATOM     59  C   UNL A   1      44.951  29.521  30.445  1.00  0.00     0.049 A 
ATOM     60  H   UNL A   1      44.440  27.582  29.836  1.00  0.00     0.167 HD
ATOM     61  C   UNL A   1      43.599  24.067  27.621  1.00  0.00     0.034 A 
ATOM     62  C   UNL A   1      46.307  29.543  30.366  1.00  0.00     0.034 A 
ATOM     63  C   UNL A   1      43.881  23.472  28.902  1.00  0.00     0.049 A 
ATOM     64  C   UNL A   1      46.763  28.135  30.378  1.00  0.00     0.074 A 
ATOM     65  C   UNL A   1      43.108  22.925  29.910  1.00  0.00     0.029 A 
ATOM     66  N   UNL A   1      45.103  23.716  29.483  1.00  0.00    -0.354 N 
ATOM     67  N   UNL A   1      46.596  27.329  31.389  1.00  0.00    -0.248 NA
ATOM     68  C   UNL A   1      47.062  27.487  29.112  1.00  0.00     0.031 C 
ATOM     69  C   UNL A   1      43.716  23.374  31.122  1.00  0.00     0.029 A 
ATOM     70  C   UNL A   1      44.848  24.113  30.775  1.00  0.00     0.049 A 
ATOM     71  H   UNL A   1      45.986  23.625  29.058  1.00  0.00     0.167 HD
ATOM     72  C   UNL A   1      46.341  26.093  30.822  1.00  0.00     0.074 A 
ATOM     73  C   UNL A   1      46.761  26.225  29.430  1.00  0.00     0.031 C 
ATOM     74  C   UNL A   1      45.565  25.169  31.461  1.00  0.00     0.034 A 
BRANCH  61  75
ATOM     75  C   UNL A   1      44.356  23.679  26.371  1.00  0.00     0.023 A 
ATOM     76  C   UNL A   1      44.219  22.371  25.864  1.00  0.00     0.031 A 
ATOM     77  C   UNL A   1      45.390  24.456  25.801  1.00  0.00     0.131 A 
ATOM     78  C   UNL A   1      45.090  21.886  24.868  1.00  0.00     0.055 A 
ATOM     79  C   UNL A   1      46.209  23.994  24.766  1.00  0.00     0.041 A 
ATOM     80  F   UNL A   1      45.720  25.662  26.278  1.00  0.00    -0.206 F 
ATOM     81  C   UNL A   1      46.075  22.696  24.306  1.00  0.00     0.022 A 
BRANCH  78  82
ATOM     82  S   UNL A   1      45.015  20.131  24.411  1.00  0.00     0.124 S 
ATOM     83  O   UNL A   1      46.404  19.718  24.579  1.00  0.00    -0.237 OA
ATOM     84  O   UNL A   1      44.064  19.604  25.383  1.00  0.00    -0.237 OA
ATOM     85  O   UNL A   1      44.539  20.159  23.030  1.00  0.00    -0.744 OA
ENDBRANCH  78  82
ENDBRANCH  61  75
BRANCH  62  86
ATOM     86  C   UNL A   1      47.210  30.678  30.034  1.00  0.00     0.023 A 
ATOM     87  C   UNL A   1      47.359  31.136  28.707  1.00  0.00     0.031 A 
ATOM     88  C   UNL A   1      47.726  31.507  31.052  1.00  0.00     0.131 A 
ATOM     89  C   UNL A   1      47.978  32.378  28.445  1.00  0.00     0.055 A 
ATOM     90  C   UNL A   1      48.351  32.728  30.787  1.00  0.00     0.041 A 
ATOM     91  F   UNL A   1      47.553  31.207  32.349  1.00  0.00    -0.206 F 
ATOM     92  C   UNL A   1      48.466  33.177  29.480  1.00  0.00     0.022 A 
BRANCH  89  93
ATOM     93  S   UNL A   1      48.016  33.050  26.752  1.00  0.00     0.124 S 
ATOM     94  O   UNL A   1      47.916  34.485  26.989  1.00  0.00    -0.237 OA
ATOM     95  O   UNL A   1      49.293  32.566  26.241  1.00  0.00    -0.237 OA
ATOM     96  O   UNL A   1      46.841  32.442  26.126  1.00  0.00    -0.744 OA
ENDBRANCH  89  93
ENDBRANCH  62  86
BRANCH  74  97
ATOM     97  C   UNL A   1      45.227  25.400  32.921  1.00  0.00     0.023 A 
ATOM     98  C   UNL A   1      44.057  26.048  33.381  1.00  0.00     0.031 A 
ATOM     99  C   UNL A   1      46.075  24.828  33.883  1.00  0.00     0.131 A 
ATOM    100  C   UNL A   1      43.783  26.118  34.762  1.00  0.00     0.055 A 
ATOM    101  C   UNL A   1      45.792  24.881  35.248  1.00  0.00     0.041 A 
ATOM    102  F   UNL A   1      47.185  24.172  33.508  1.00  0.00    -0.206 F 
ATOM    103  C   UNL A   1      44.645  25.531  35.694  1.00  0.00     0.022 A 
BRANCH 100 104
ATOM    104  S   UNL A   1      42.288  26.965  35.368  1.00  0.00     0.124 S 
ATOM    105  O   UNL A   1      41.226  25.999  35.111  1.00  0.00    -0.237 OA
ATOM    106  O   UNL A   1      42.607  27.212  36.771  1.00  0.00    -0.237 OA
ATOM    107  O   UNL A   1      42.221  28.173  34.542  1.00  0.00    -0.744 OA
ENDBRANCH 100 104
ENDBRANCH  74  97
ENDBRANCH  48  49
ENDBRANCH  40  43
ENDBRANCH  38  39
ENDBRANCH  37  38
ENDBRANCH   1  37
TORSDOF 19
ENDMDL
MODEL 2
REMARK VINA RESULT:     -12.6      1.918      7.065
REMARK SMILES Cc1coc2c(C)c3oc(=O)c(CC(=O)NCC(=O)N[C@H](C(=O)NCCCNC(=O)c4ccc(-c5c6nc(c(-c7cc(S(=O)(=O)[O-])ccc7F)c7ccc([nH]7)c(-c7cc(S(=O)(=O)[O-])ccc7F)c7nc(c(-c8cc(S(=O)(=O)[O-])ccc8F)c8ccc5[nH]8)C=C7)C=C6)cc4)C(C)C)c(C)c3cc12
REMARK SMILES IDX 25 1 24 2 22 3 23 4 21 6 20 7 18 8 19 9 17 11 16 12 14 13
REMARK SMILES IDX 15 14 13 16 12 17 1 18 2 19 3 20 101 21 4 22 5 23 100 24
REMARK SMILES IDX 6 25 99 26 7 27 8 28 97 29 9 30 98 31 10 32 11 33 94 34
REMARK SMILES IDX 95 35 96 36 26 37 27 38 28 39 29 40 30 42 31 43 32 44 93 45
REMARK SMILES IDX 33 46 92 47 34 48 35 49 36 50 86 51 37 52 91 53 85 54 87 55
REMARK SMILES IDX 38 56 90 57 84 58 83 59 39 61 71 62 51 63 70 64 52 65 55 66
REMARK SMILES IDX 69 67 88 68 53 69 54 70 68 72 89 73 56 74 40 75 41 76 49 77
REMARK SMILES IDX 42 78 48 79 50 80 47 81 43 82 44 83 45 84 46 85 72 86 73 87
REMARK SMILES IDX 81 88 74 89 80 90 82 91 79 92 75 93 76 94 77 95 78 96 57 97
REMARK SMILES IDX 58 98 66 99 59 100 65 101 67 102 64 103 60 104 61 105 62 106
REMARK SMILES IDX 63 107
REMARK H PARENT 24 5 20 10 16 15 28 41 87 60 55 71
REMARK Flexibility Score: inf
ROOT
ATOM      1  C   UNL A   1      33.641  29.300  26.870  1.00  0.00     0.117 C 
ENDROOT
BRANCH   1   2
ATOM      2  N   UNL A   1      32.526  29.966  26.222  1.00  0.00    -0.354 N 
ATOM      3  C   UNL A   1      31.652  29.652  25.220  1.00  0.00     0.242 C 
ATOM      4  O   UNL A   1      30.780  30.468  24.914  1.00  0.00    -0.273 OA
ATOM      5  H   UNL A   1      32.357  30.860  26.596  1.00  0.00     0.163 HD
BRANCH   3   6
ATOM      6  C   UNL A   1      31.667  28.328  24.490  1.00  0.00     0.173 C 
BRANCH   6   7
ATOM      7  N   UNL A   1      30.275  27.822  24.355  1.00  0.00    -0.343 N 
ATOM      8  C   UNL A   1      29.716  26.595  24.162  1.00  0.00     0.240 C 
ATOM      9  O   UNL A   1      28.523  26.604  23.823  1.00  0.00    -0.273 OA
ATOM     10  H   UNL A   1      29.604  28.539  24.417  1.00  0.00     0.164 HD
BRANCH   8  11
ATOM     11  C   UNL A   1      30.387  25.254  24.535  1.00  0.00     0.216 C 
BRANCH  11  12
ATOM     12  N   UNL A   1      29.915  24.608  25.738  1.00  0.00    -0.347 N 
ATOM     13  C   UNL A   1      30.367  23.500  26.379  1.00  0.00     0.225 C 
ATOM     14  O   UNL A   1      29.959  23.410  27.544  1.00  0.00    -0.275 OA
ATOM     15  H   UNL A   1      29.138  25.042  26.161  1.00  0.00     0.164 HD
BRANCH  13  16
ATOM     16  C   UNL A   1      31.376  22.455  25.800  1.00  0.00     0.143 C 
BRANCH  16  17
ATOM     17  C   UNL A   1      32.848  22.629  25.308  1.00  0.00     0.051 A 
ATOM     18  C   UNL A   1      39.111  24.883  27.333  1.00  0.00     0.048 C 
ATOM     19  C   UNL A   1      38.781  23.609  26.650  1.00  0.00    -0.005 A 
ATOM     20  C   UNL A   1      39.610  22.511  26.529  1.00  0.00     0.199 A 
ATOM     21  C   UNL A   1      37.554  23.228  26.019  1.00  0.00     0.024 A 
ATOM     22  O   UNL A   1      38.969  21.477  25.932  1.00  0.00    -0.464 OA
ATOM     23  C   UNL A   1      37.709  21.902  25.637  1.00  0.00     0.140 A 
ATOM     24  C   UNL A   1      36.305  23.842  25.785  1.00  0.00     0.024 A 
ATOM     25  C   UNL A   1      36.705  21.117  25.069  1.00  0.00     0.036 A 
ATOM     26  C   UNL A   1      35.236  23.102  25.221  1.00  0.00     0.022 A 
ATOM     27  C   UNL A   1      36.888  19.675  24.725  1.00  0.00     0.052 C 
ATOM     28  C   UNL A   1      35.480  21.778  24.876  1.00  0.00     0.145 A 
ATOM     29  C   UNL A   1      33.816  23.600  25.199  1.00  0.00    -0.029 A 
ATOM     30  O   UNL A   1      34.451  21.013  24.323  1.00  0.00    -0.422 OA
ATOM     31  C   UNL A   1      33.794  25.112  25.308  1.00  0.00     0.046 C 
ATOM     32  C   UNL A   1      33.151  21.419  24.458  1.00  0.00     0.340 A 
ATOM     33  O   UNL A   1      32.249  20.802  23.897  1.00  0.00    -0.246 OA
ENDBRANCH  16  17
ENDBRANCH  13  16
ENDBRANCH  11  12
ENDBRANCH   8  11
ENDBRANCH   6   7
BRANCH   6  34
ATOM     34  C   UNL A   1      32.226  28.639  23.055  1.00  0.00     0.015 C 
ATOM     35  C   UNL A   1      33.002  27.461  22.449  1.00  0.00     0.010 C 
ATOM     36  C   UNL A   1      31.141  29.079  22.068  1.00  0.00     0.010 C 
ENDBRANCH   6  34
ENDBRANCH   3   6
ENDBRANCH   1   2
BRANCH   1  37
ATOM     37  C   UNL A   1      34.741  30.168  27.597  1.00  0.00     0.042 C 
BRANCH  37  38
ATOM     38  C   UNL A   1      34.581  31.681  27.897  1.00  0.00     0.118 C 
BRANCH  38  39
ATOM     39  N   UNL A   1      34.462  32.023  29.315  1.00  0.00    -0.352 N 
ATOM     40  C   UNL A   1      35.272  31.766  30.410  1.00  0.00     0.251 C 
ATOM     41  H   UNL A   1      33.648  32.535  29.533  1.00  0.00     0.163 HD
ATOM     42  O   UNL A   1      34.903  32.126  31.517  1.00  0.00    -0.269 OA
BRANCH  40  43
ATOM     43  C   UNL A   1      36.585  31.078  30.275  1.00  0.00     0.039 A 
ATOM     44  C   UNL A   1      37.753  31.828  30.105  1.00  0.00     0.014 A 
ATOM     45  C   UNL A   1      36.668  29.690  30.206  1.00  0.00     0.014 A 
ATOM     46  C   UNL A   1      38.992  31.181  29.980  1.00  0.00     0.010 A 
ATOM     47  C   UNL A   1      37.895  29.041  30.126  1.00  0.00     0.010 A 
ATOM     48  C   UNL A   1      39.071  29.780  30.021  1.00  0.00    -0.014 A 
BRANCH  48  49
ATOM     49  C   UNL A   1      40.382  29.119  30.136  1.00  0.00     0.031 A 
ATOM     50  C   UNL A   1      40.860  28.882  31.536  1.00  0.00     0.074 A 
ATOM     51  C   UNL A   1      41.037  28.484  29.139  1.00  0.00     0.049 A 
ATOM     52  N   UNL A   1      41.944  29.300  32.105  1.00  0.00    -0.248 NA
ATOM     53  C   UNL A   1      39.979  28.118  32.434  1.00  0.00     0.031 C 
ATOM     54  C   UNL A   1      40.613  28.281  27.753  1.00  0.00     0.029 A 
ATOM     55  N   UNL A   1      42.201  27.770  29.207  1.00  0.00    -0.354 N 
ATOM     56  C   UNL A   1      41.976  28.722  33.375  1.00  0.00     0.074 A 
ATOM     57  C   UNL A   1      40.684  28.113  33.566  1.00  0.00     0.031 C 
ATOM     58  C   UNL A   1      41.381  27.326  27.182  1.00  0.00     0.029 A 
ATOM     59  C   UNL A   1      42.445  26.962  28.101  1.00  0.00     0.049 A 
ATOM     60  H   UNL A   1      42.815  27.823  29.976  1.00  0.00     0.167 HD
ATOM     61  C   UNL A   1      43.114  28.646  34.124  1.00  0.00     0.034 A 
ATOM     62  C   UNL A   1      43.436  26.044  27.961  1.00  0.00     0.034 A 
ATOM     63  C   UNL A   1      44.137  29.533  33.636  1.00  0.00     0.049 A 
ATOM     64  C   UNL A   1      44.514  26.424  28.903  1.00  0.00     0.074 A 
ATOM     65  C   UNL A   1      44.226  30.900  33.442  1.00  0.00     0.029 A 
ATOM     66  N   UNL A   1      45.171  29.001  32.903  1.00  0.00    -0.354 N 
ATOM     67  N   UNL A   1      45.198  27.529  28.811  1.00  0.00    -0.248 NA
ATOM     68  C   UNL A   1      44.577  25.761  30.194  1.00  0.00     0.031 C 
ATOM     69  C   UNL A   1      44.934  31.048  32.211  1.00  0.00     0.029 A 
ATOM     70  C   UNL A   1      45.280  29.771  31.769  1.00  0.00     0.049 A 
ATOM     71  H   UNL A   1      45.724  28.223  33.143  1.00  0.00     0.167 HD
ATOM     72  C   UNL A   1      45.417  27.923  30.119  1.00  0.00     0.074 A 
ATOM     73  C   UNL A   1      45.122  26.739  30.922  1.00  0.00     0.031 C 
ATOM     74  C   UNL A   1      45.552  29.241  30.447  1.00  0.00     0.034 A 
BRANCH  61  75
ATOM     75  C   UNL A   1      43.399  27.580  35.157  1.00  0.00     0.023 A 
ATOM     76  C   UNL A   1      43.839  27.968  36.439  1.00  0.00     0.031 A 
ATOM     77  C   UNL A   1      43.494  26.201  34.864  1.00  0.00     0.131 A 
ATOM     78  C   UNL A   1      44.361  27.020  37.342  1.00  0.00     0.055 A 
ATOM     79  C   UNL A   1      43.950  25.254  35.787  1.00  0.00     0.041 A 
ATOM     80  F   UNL A   1      43.240  25.713  33.644  1.00  0.00    -0.206 F 
ATOM     81  C   UNL A   1      44.405  25.663  37.029  1.00  0.00     0.022 A 
BRANCH  78  82
ATOM     82  S   UNL A   1      45.119  27.599  38.887  1.00  0.00     0.124 S 
ATOM     83  O   UNL A   1      44.285  26.951  39.892  1.00  0.00    -0.237 OA
ATOM     84  O   UNL A   1      46.484  27.099  38.761  1.00  0.00    -0.237 OA
ATOM     85  O   UNL A   1      44.982  29.052  38.809  1.00  0.00    -0.744 OA
ENDBRANCH  78  82
ENDBRANCH  61  75
BRANCH  62  86
ATOM     86  C   UNL A   1      43.410  24.734  27.256  1.00  0.00     0.023 A 
ATOM     87  C   UNL A   1      44.218  24.491  26.124  1.00  0.00     0.031 A 
ATOM     88  C   UNL A   1      42.798  23.611  27.851  1.00  0.00     0.131 A 
ATOM     89  C   UNL A   1      44.404  23.174  25.649  1.00  0.00     0.055 A 
ATOM     90  C   UNL A   1      42.973  22.311  27.367  1.00  0.00     0.041 A 
ATOM     91  F   UNL A   1      42.087  23.724  28.984  1.00  0.00    -0.206 F 
ATOM     92  C   UNL A   1      43.791  22.085  26.272  1.00  0.00     0.022 A 
BRANCH  89  93
ATOM     93  S   UNL A   1      45.581  22.839  24.300  1.00  0.00     0.124 S 
ATOM     94  O   UNL A   1      44.701  22.386  23.230  1.00  0.00    -0.237 OA
ATOM     95  O   UNL A   1      46.226  24.132  24.104  1.00  0.00    -0.237 OA
ATOM     96  O   UNL A   1      46.450  21.806  24.865  1.00  0.00    -0.744 OA
ENDBRANCH  89  93
ENDBRANCH  62  86
BRANCH  74  97
ATOM     97  C   UNL A   1      45.749  30.244  29.327  1.00  0.00     0.023 A 
ATOM     98  C   UNL A   1      47.007  30.638  28.815  1.00  0.00     0.031 A 
ATOM     99  C   UNL A   1      44.602  30.726  28.676  1.00  0.00     0.131 A 
ATOM    100  C   UNL A   1      47.080  31.496  27.699  1.00  0.00     0.055 A 
ATOM    101  C   UNL A   1      44.676  31.559  27.559  1.00  0.00     0.041 A 
ATOM    102  F   UNL A   1      43.378  30.362  29.095  1.00  0.00    -0.206 F 
ATOM    103  C   UNL A   1      45.917  31.952  27.069  1.00  0.00     0.022 A 
BRANCH 100 104
ATOM    104  S   UNL A   1      48.694  32.025  27.040  1.00  0.00     0.124 S 
ATOM    105  O   UNL A   1      49.368  32.584  28.206  1.00  0.00    -0.237 OA
ATOM    106  O   UNL A   1      49.246  30.780  26.513  1.00  0.00    -0.237 OA
ATOM    107  O   UNL A   1      48.340  33.009  26.015  1.00  0.00    -0.744 OA
ENDBRANCH 100 104
ENDBRANCH  74  97
ENDBRANCH  48  49
ENDBRANCH  40  43
ENDBRANCH  38  39
ENDBRANCH  37  38
ENDBRANCH   1  37
TORSDOF 19
ENDMDL
MODEL 3
REMARK VINA RESULT:     -12.6      2.077      6.509
REMARK SMILES Cc1coc2c(C)c3oc(=O)c(CC(=O)NCC(=O)N[C@H](C(=O)NCCCNC(=O)c4ccc(-c5c6nc(c(-c7cc(S(=O)(=O)[O-])ccc7F)c7ccc([nH]7)c(-c7cc(S(=O)(=O)[O-])ccc7F)c7nc(c(-c8cc(S(=O)(=O)[O-])ccc8F)c8ccc5[nH]8)C=C7)C=C6)cc4)C(C)C)c(C)c3cc12
REMARK SMILES IDX 25 1 24 2 22 3 23 4 21 6 20 7 18 8 19 9 17 11 16 12 14 13
REMARK SMILES IDX 15 14 13 16 12 17 1 18 2 19 3 20 101 21 4 22 5 23 100 24
REMARK SMILES IDX 6 25 99 26 7 27 8 28 97 29 9 30 98 31 10 32 11 33 94 34
REMARK SMILES IDX 95 35 96 36 26 37 27 38 28 39 29 40 30 42 31 43 32 44 93 45
REMARK SMILES IDX 33 46 92 47 34 48 35 49 36 50 86 51 37 52 91 53 85 54 87 55
REMARK SMILES IDX 38 56 90 57 84 58 83 59 39 61 71 62 51 63 70 64 52 65 55 66
REMARK SMILES IDX 69 67 88 68 53 69 54 70 68 72 89 73 56 74 40 75 41 76 49 77
REMARK SMILES IDX 42 78 48 79 50 80 47 81 43 82 44 83 45 84 46 85 72 86 73 87
REMARK SMILES IDX 81 88 74 89 80 90 82 91 79 92 75 93 76 94 77 95 78 96 57 97
REMARK SMILES IDX 58 98 66 99 59 100 65 101 67 102 64 103 60 104 61 105 62 106
REMARK SMILES IDX 63 107
REMARK H PARENT 24 5 20 10 16 15 28 41 87 60 55 71
REMARK Flexibility Score: inf
ROOT
ATOM      1  C   UNL A   1      34.121  29.427  26.970  1.00  0.00     0.117 C 
ENDROOT
BRANCH   1   2
ATOM      2  N   UNL A   1      32.923  30.045  26.432  1.00  0.00    -0.354 N 
ATOM      3  C   UNL A   1      32.045  29.756  25.426  1.00  0.00     0.242 C 
ATOM      4  O   UNL A   1      31.088  30.509  25.237  1.00  0.00    -0.273 OA
ATOM      5  H   UNL A   1      32.684  30.872  26.909  1.00  0.00     0.163 HD
BRANCH   3   6
ATOM      6  C   UNL A   1      32.160  28.528  24.551  1.00  0.00     0.173 C 
BRANCH   6   7
ATOM      7  N   UNL A   1      30.874  27.782  24.575  1.00  0.00    -0.343 N 
ATOM      8  C   UNL A   1      30.460  26.601  25.113  1.00  0.00     0.240 C 
ATOM      9  O   UNL A   1      29.376  26.175  24.687  1.00  0.00    -0.273 OA
ATOM     10  H   UNL A   1      30.156  28.248  24.088  1.00  0.00     0.164 HD
BRANCH   8  11
ATOM     11  C   UNL A   1      31.122  25.907  26.325  1.00  0.00     0.216 C 
BRANCH  11  12
ATOM     12  N   UNL A   1      30.480  24.709  26.813  1.00  0.00    -0.347 N 
ATOM     13  C   UNL A   1      30.613  23.415  26.422  1.00  0.00     0.225 C 
ATOM     14  O   UNL A   1      30.181  22.607  27.254  1.00  0.00    -0.275 OA
ATOM     15  H   UNL A   1      29.842  24.855  27.549  1.00  0.00     0.164 HD
BRANCH  13  16
ATOM     16  C   UNL A   1      31.315  22.923  25.115  1.00  0.00     0.143 C 
BRANCH  16  17
ATOM     17  C   UNL A   1      32.827  22.891  24.723  1.00  0.00     0.051 A 
ATOM     18  C   UNL A   1      39.138  24.813  26.933  1.00  0.00     0.048 C 
ATOM     19  C   UNL A   1      38.726  23.494  26.397  1.00  0.00    -0.005 A 
ATOM     20  C   UNL A   1      39.444  22.318  26.487  1.00  0.00     0.199 A 
ATOM     21  C   UNL A   1      37.511  23.145  25.725  1.00  0.00     0.024 A 
ATOM     22  O   UNL A   1      38.742  21.276  25.980  1.00  0.00    -0.464 OA
ATOM     23  C   UNL A   1      37.555  21.771  25.532  1.00  0.00     0.140 A 
ATOM     24  C   UNL A   1      36.350  23.834  25.314  1.00  0.00     0.024 A 
ATOM     25  C   UNL A   1      36.517  21.011  24.992  1.00  0.00     0.036 A 
ATOM     26  C   UNL A   1      35.252  23.125  24.767  1.00  0.00     0.022 A 
ATOM     27  C   UNL A   1      36.574  19.524  24.854  1.00  0.00     0.052 C 
ATOM     28  C   UNL A   1      35.381  21.749  24.617  1.00  0.00     0.145 A 
ATOM     29  C   UNL A   1      33.894  23.744  24.568  1.00  0.00    -0.029 A 
ATOM     30  O   UNL A   1      34.318  21.015  24.088  1.00  0.00    -0.422 OA
ATOM     31  C   UNL A   1      34.020  25.252  24.477  1.00  0.00     0.046 C 
ATOM     32  C   UNL A   1      33.061  21.553  24.065  1.00  0.00     0.340 A 
ATOM     33  O   UNL A   1      32.140  20.950  23.518  1.00  0.00    -0.246 OA
ENDBRANCH  16  17
ENDBRANCH  13  16
ENDBRANCH  11  12
ENDBRANCH   8  11
ENDBRANCH   6   7
BRANCH   6  34
ATOM     34  C   UNL A   1      32.399  29.063  23.093  1.00  0.00     0.015 C 
ATOM     35  C   UNL A   1      33.589  28.388  22.397  1.00  0.00     0.010 C 
ATOM     36  C   UNL A   1      31.163  28.939  22.196  1.00  0.00     0.010 C 
ENDBRANCH   6  34
ENDBRANCH   3   6
ENDBRANCH   1   2
BRANCH   1  37
ATOM     37  C   UNL A   1      35.145  30.310  27.785  1.00  0.00     0.042 C 
BRANCH  37  38
ATOM     38  C   UNL A   1      35.056  31.855  27.885  1.00  0.00     0.118 C 
BRANCH  38  39
ATOM     39  N   UNL A   1      35.055  32.388  29.249  1.00  0.00    -0.352 N 
ATOM     40  C   UNL A   1      35.909  32.207  30.325  1.00  0.00     0.251 C 
ATOM     41  H   UNL A   1      34.300  32.992  29.438  1.00  0.00     0.163 HD
ATOM     42  O   UNL A   1      35.641  32.739  31.390  1.00  0.00    -0.269 OA
BRANCH  40  43
ATOM     43  C   UNL A   1      37.153  31.396  30.216  1.00  0.00     0.039 A 
ATOM     44  C   UNL A   1      38.376  32.022  29.952  1.00  0.00     0.014 A 
ATOM     45  C   UNL A   1      37.114  30.005  30.264  1.00  0.00     0.014 A 
ATOM     46  C   UNL A   1      39.549  31.260  29.852  1.00  0.00     0.010 A 
ATOM     47  C   UNL A   1      38.277  29.245  30.209  1.00  0.00     0.010 A 
ATOM     48  C   UNL A   1      39.508  29.865  30.010  1.00  0.00    -0.014 A 
BRANCH  48  49
ATOM     49  C   UNL A   1      40.759  29.102  30.149  1.00  0.00     0.031 A 
ATOM     50  C   UNL A   1      41.186  28.816  31.557  1.00  0.00     0.074 A 
ATOM     51  C   UNL A   1      41.386  28.426  29.161  1.00  0.00     0.049 A 
ATOM     52  N   UNL A   1      42.285  29.143  32.154  1.00  0.00    -0.248 NA
ATOM     53  C   UNL A   1      40.226  28.118  32.427  1.00  0.00     0.031 C 
ATOM     54  C   UNL A   1      40.980  28.268  27.763  1.00  0.00     0.029 A 
ATOM     55  N   UNL A   1      42.488  27.622  29.248  1.00  0.00    -0.354 N 
ATOM     56  C   UNL A   1      42.242  28.555  33.419  1.00  0.00     0.074 A 
ATOM     57  C   UNL A   1      40.902  28.048  33.575  1.00  0.00     0.031 C 
ATOM     58  C   UNL A   1      41.683  27.260  27.200  1.00  0.00     0.029 A 
ATOM     59  C   UNL A   1      42.694  26.805  28.140  1.00  0.00     0.049 A 
ATOM     60  H   UNL A   1      43.086  27.620  30.030  1.00  0.00     0.167 HD
ATOM     61  C   UNL A   1      43.353  28.383  34.192  1.00  0.00     0.034 A 
ATOM     62  C   UNL A   1      43.613  25.814  28.012  1.00  0.00     0.034 A 
ATOM     63  C   UNL A   1      44.454  29.191  33.737  1.00  0.00     0.049 A 
ATOM     64  C   UNL A   1      44.695  26.100  28.982  1.00  0.00     0.074 A 
ATOM     65  C   UNL A   1      44.654  30.548  33.558  1.00  0.00     0.029 A 
ATOM     66  N   UNL A   1      45.460  28.585  33.021  1.00  0.00    -0.354 N 
ATOM     67  N   UNL A   1      45.466  27.148  28.917  1.00  0.00    -0.248 NA
ATOM     68  C   UNL A   1      44.676  25.424  30.268  1.00  0.00     0.031 C 
ATOM     69  C   UNL A   1      45.400  30.650  32.344  1.00  0.00     0.029 A 
ATOM     70  C   UNL A   1      45.655  29.353  31.897  1.00  0.00     0.049 A 
ATOM     71  H   UNL A   1      45.944  27.764  33.267  1.00  0.00     0.167 HD
ATOM     72  C   UNL A   1      45.685  27.514  30.233  1.00  0.00     0.074 A 
ATOM     73  C   UNL A   1      45.279  26.350  31.017  1.00  0.00     0.031 C 
ATOM     74  C   UNL A   1      45.915  28.815  30.577  1.00  0.00     0.034 A 
BRANCH  61  75
ATOM     75  C   UNL A   1      43.529  27.289  35.221  1.00  0.00     0.023 A 
ATOM     76  C   UNL A   1      44.149  26.082  34.839  1.00  0.00     0.031 A 
ATOM     77  C   UNL A   1      42.900  27.286  36.486  1.00  0.00     0.131 A 
ATOM     78  C   UNL A   1      44.105  24.949  35.677  1.00  0.00     0.055 A 
ATOM     79  C   UNL A   1      42.916  26.181  37.343  1.00  0.00     0.041 A 
ATOM     80  F   UNL A   1      42.161  28.316  36.916  1.00  0.00    -0.206 F 
ATOM     81  C   UNL A   1      43.505  24.998  36.934  1.00  0.00     0.022 A 
BRANCH  78  82
ATOM     82  S   UNL A   1      44.719  23.362  35.046  1.00  0.00     0.124 S 
ATOM     83  O   UNL A   1      45.845  23.782  34.222  1.00  0.00    -0.237 OA
ATOM     84  O   UNL A   1      45.049  22.654  36.278  1.00  0.00    -0.237 OA
ATOM     85  O   UNL A   1      43.577  22.824  34.310  1.00  0.00    -0.744 OA
ENDBRANCH  78  82
ENDBRANCH  61  75
BRANCH  62  86
ATOM     86  C   UNL A   1      43.500  24.516  27.294  1.00  0.00     0.023 A 
ATOM     87  C   UNL A   1      44.286  24.234  26.156  1.00  0.00     0.031 A 
ATOM     88  C   UNL A   1      42.821  23.427  27.881  1.00  0.00     0.131 A 
ATOM     89  C   UNL A   1      44.386  22.913  25.666  1.00  0.00     0.055 A 
ATOM     90  C   UNL A   1      42.910  22.125  27.383  1.00  0.00     0.041 A 
ATOM     91  F   UNL A   1      42.124  23.573  29.019  1.00  0.00    -0.206 F 
ATOM     92  C   UNL A   1      43.708  21.858  26.281  1.00  0.00     0.022 A 
BRANCH  89  93
ATOM     93  S   UNL A   1      45.532  22.518  24.307  1.00  0.00     0.124 S 
ATOM     94  O   UNL A   1      46.254  23.774  24.140  1.00  0.00    -0.237 OA
ATOM     95  O   UNL A   1      46.297  21.398  24.844  1.00  0.00    -0.237 OA
ATOM     96  O   UNL A   1      44.636  22.169  23.205  1.00  0.00    -0.744 OA
ENDBRANCH  89  93
ENDBRANCH  62  86
BRANCH  74  97
ATOM     97  C   UNL A   1      46.216  29.807  29.472  1.00  0.00     0.023 A 
ATOM     98  C   UNL A   1      45.249  30.344  28.590  1.00  0.00     0.031 A 
ATOM     99  C   UNL A   1      47.522  30.318  29.394  1.00  0.00     0.131 A 
ATOM    100  C   UNL A   1      45.613  31.343  27.665  1.00  0.00     0.055 A 
ATOM    101  C   UNL A   1      47.875  31.322  28.491  1.00  0.00     0.041 A 
ATOM    102  F   UNL A   1      48.478  29.872  30.226  1.00  0.00    -0.206 F 
ATOM    103  C   UNL A   1      46.921  31.836  27.619  1.00  0.00     0.022 A 
BRANCH 100 104
ATOM    104  S   UNL A   1      44.380  32.031  26.512  1.00  0.00     0.124 S 
ATOM    105  O   UNL A   1      45.176  32.391  25.344  1.00  0.00    -0.237 OA
ATOM    106  O   UNL A   1      43.450  30.919  26.339  1.00  0.00    -0.237 OA
ATOM    107  O   UNL A   1      43.827  33.172  27.244  1.00  0.00    -0.744 OA
ENDBRANCH 100 104
ENDBRANCH  74  97
ENDBRANCH  48  49
ENDBRANCH  40  43
ENDBRANCH  38  39
ENDBRANCH  37  38
ENDBRANCH   1  37
TORSDOF 19
ENDMDL
