MODEL 1
REMARK VINA RESULT:     -11.8      0.000      0.000
REMARK SMILES C[N@H+](Cc1cc(Cl)ccc1[N+](=O)[O-])[C@H]1COC[C@@H]1C(=O)NCCCNC(=O)c1ccc(-c2c3nc(c(-c4cc(S(=O)(=O)[O-])ccc4F)c4ccc([nH]4)c(-c4cc(S(=O)(=O)[O-])ccc4F)c4nc(c(-c5cc(S(=O)(=O)[O-])ccc5F)c5ccc2[nH]5)C=C4)C=C3)cc1
REMARK SMILES IDX 22 1 21 2 19 3 20 4 18 6 14 7 15 8 16 9 17 10 2 11 1 12 3 14
REMARK SMILES IDX 4 15 5 16 10 17 6 18 9 19 7 20 8 21 11 22 12 23 13 24 23 25
REMARK SMILES IDX 24 26 25 27 26 28 27 30 28 31 29 32 90 33 30 34 89 35 31 36
REMARK SMILES IDX 32 37 33 38 83 39 34 40 88 41 82 42 84 43 35 44 87 45 81 46
REMARK SMILES IDX 80 47 36 49 68 50 48 51 67 52 49 53 52 54 66 55 85 56 50 57
REMARK SMILES IDX 51 58 65 60 86 61 53 62 37 63 38 64 46 65 39 66 45 67 47 68
REMARK SMILES IDX 44 69 40 70 41 71 42 72 43 73 69 74 70 75 78 76 71 77 77 78
REMARK SMILES IDX 79 79 76 80 72 81 73 82 74 83 75 84 54 85 55 86 63 87 56 88
REMARK SMILES IDX 62 89 64 90 61 91 57 92 58 93 59 94 60 95
REMARK H PARENT 21 5 2 13 25 29 84 48 52 59
REMARK Flexibility Score: inf
ROOT
ATOM      1  C   UNL A   1      31.956  30.722  26.144  1.00  0.00     0.117 C 
ENDROOT
BRANCH   1   2
ATOM      2  N   UNL A   1      31.059  30.602  25.015  1.00  0.00    -0.356 N 
ATOM      3  C   UNL A   1      30.712  29.571  24.211  1.00  0.00     0.231 C 
ATOM      4  O   UNL A   1      29.897  29.868  23.328  1.00  0.00    -0.274 OA
ATOM      5  H   UNL A   1      30.607  31.446  24.783  1.00  0.00     0.163 HD
BRANCH   3   6
ATOM      6  C   UNL A   1      31.124  28.111  24.430  1.00  0.00     0.164 C 
ATOM      7  C   UNL A   1      32.509  27.617  23.997  1.00  0.00     0.225 C 
ATOM      8  C   UNL A   1      32.239  27.217  22.544  1.00  0.00     0.226 C 
ATOM      9  O   UNL A   1      30.950  26.607  22.541  1.00  0.00    -0.374 OA
ATOM     10  C   UNL A   1      30.180  27.227  23.587  1.00  0.00     0.180 C 
BRANCH   7  11
ATOM     11  N   UNL A   1      33.114  26.567  24.885  1.00  0.00    -0.328 N 
ATOM     12  C   UNL A   1      33.908  27.197  25.954  1.00  0.00     0.333 C 
ATOM     13  H   UNL A   1      32.329  26.064  25.298  1.00  0.00     0.348 HD
BRANCH  11  14
ATOM     14  C   UNL A   1      33.887  25.531  24.178  1.00  0.00     0.306 C 
BRANCH  14  15
ATOM     15  C   UNL A   1      34.115  24.278  25.003  1.00  0.00     0.085 A 
ATOM     16  C   UNL A   1      35.406  23.712  24.999  1.00  0.00     0.037 A 
ATOM     17  C   UNL A   1      33.139  23.687  25.832  1.00  0.00     0.278 A 
ATOM     18  C   UNL A   1      35.718  22.628  25.820  1.00  0.00     0.042 A 
ATOM     19  C   UNL A   1      33.459  22.596  26.662  1.00  0.00     0.088 A 
ATOM     20  Cl  UNL A   1      37.311  21.981  25.809  1.00  0.00    -0.084 Cl
ATOM     21  C   UNL A   1      34.753  22.075  26.659  1.00  0.00     0.027 A 
BRANCH  17  22
ATOM     22  N   UNL A   1      31.757  24.172  25.868  1.00  0.00     0.063 N 
ATOM     23  O   UNL A   1      31.385  24.738  26.907  1.00  0.00    -0.258 OA
ATOM     24  O   UNL A   1      31.024  23.904  24.906  1.00  0.00    -0.258 OA
ENDBRANCH  17  22
ENDBRANCH  14  15
ENDBRANCH  11  14
ENDBRANCH   7  11
ENDBRANCH   3   6
ENDBRANCH   1   2
BRANCH   1  25
ATOM     25  C   UNL A   1      31.728  32.041  26.882  1.00  0.00     0.042 C 
BRANCH  25  26
ATOM     26  C   UNL A   1      33.021  32.799  27.166  1.00  0.00     0.118 C 
BRANCH  26  27
ATOM     27  N   UNL A   1      32.758  34.150  27.640  1.00  0.00    -0.352 N 
ATOM     28  C   UNL A   1      33.227  34.785  28.764  1.00  0.00     0.251 C 
ATOM     29  H   UNL A   1      32.156  34.685  27.074  1.00  0.00     0.163 HD
ATOM     30  O   UNL A   1      32.677  35.809  29.153  1.00  0.00    -0.269 OA
BRANCH  28  31
ATOM     31  C   UNL A   1      34.383  34.225  29.498  1.00  0.00     0.039 A 
ATOM     32  C   UNL A   1      34.160  33.379  30.587  1.00  0.00     0.014 A 
ATOM     33  C   UNL A   1      35.686  34.560  29.124  1.00  0.00     0.014 A 
ATOM     34  C   UNL A   1      35.247  32.829  31.270  1.00  0.00     0.010 A 
ATOM     35  C   UNL A   1      36.764  33.941  29.745  1.00  0.00     0.010 A 
ATOM     36  C   UNL A   1      36.558  33.084  30.838  1.00  0.00    -0.014 A 
BRANCH  36  37
ATOM     37  C   UNL A   1      37.743  32.521  31.535  1.00  0.00     0.031 A 
ATOM     38  C   UNL A   1      38.495  31.381  30.901  1.00  0.00     0.074 A 
ATOM     39  C   UNL A   1      38.084  32.964  32.759  1.00  0.00     0.049 A 
ATOM     40  N   UNL A   1      39.443  30.631  31.400  1.00  0.00    -0.248 NA
ATOM     41  C   UNL A   1      38.087  31.010  29.538  1.00  0.00     0.031 C 
ATOM     42  C   UNL A   1      37.413  34.045  33.483  1.00  0.00     0.029 A 
ATOM     43  N   UNL A   1      39.065  32.546  33.621  1.00  0.00    -0.354 N 
ATOM     44  C   UNL A   1      39.724  29.681  30.423  1.00  0.00     0.074 A 
ATOM     45  C   UNL A   1      38.793  29.908  29.339  1.00  0.00     0.031 C 
ATOM     46  C   UNL A   1      38.012  34.214  34.672  1.00  0.00     0.029 A 
ATOM     47  C   UNL A   1      39.070  33.219  34.821  1.00  0.00     0.049 A 
ATOM     48  H   UNL A   1      39.707  31.832  33.402  1.00  0.00     0.167 HD
ATOM     49  C   UNL A   1      40.685  28.723  30.423  1.00  0.00     0.034 A 
ATOM     50  C   UNL A   1      39.822  33.038  35.925  1.00  0.00     0.034 A 
ATOM     51  C   UNL A   1      41.609  28.527  31.512  1.00  0.00     0.049 A 
ATOM     52  C   UNL A   1      40.866  31.949  35.920  1.00  0.00     0.074 A 
ATOM     53  C   UNL A   1      42.655  27.626  31.606  1.00  0.00     0.029 A 
ATOM     54  N   UNL A   1      41.592  29.240  32.706  1.00  0.00    -0.354 N 
ATOM     55  N   UNL A   1      41.146  31.076  34.979  1.00  0.00    -0.248 NA
ATOM     56  C   UNL A   1      41.703  31.827  37.121  1.00  0.00     0.031 C 
ATOM     57  C   UNL A   1      43.217  27.739  32.881  1.00  0.00     0.029 A 
ATOM     58  C   UNL A   1      42.588  28.777  33.552  1.00  0.00     0.049 A 
ATOM     59  H   UNL A   1      40.965  29.967  32.920  1.00  0.00     0.167 HD
ATOM     60  C   UNL A   1      42.217  30.328  35.459  1.00  0.00     0.074 A 
ATOM     61  C   UNL A   1      42.531  30.853  36.773  1.00  0.00     0.031 C 
ATOM     62  C   UNL A   1      42.889  29.310  34.862  1.00  0.00     0.034 A 
BRANCH  49  63
ATOM     63  C   UNL A   1      40.747  27.805  29.222  1.00  0.00     0.023 A 
ATOM     64  C   UNL A   1      41.698  27.986  28.200  1.00  0.00     0.031 A 
ATOM     65  C   UNL A   1      39.805  26.773  29.061  1.00  0.00     0.131 A 
ATOM     66  C   UNL A   1      41.615  27.228  27.022  1.00  0.00     0.055 A 
ATOM     67  C   UNL A   1      39.794  25.953  27.931  1.00  0.00     0.041 A 
ATOM     68  F   UNL A   1      38.858  26.561  29.988  1.00  0.00    -0.206 F 
ATOM     69  C   UNL A   1      40.688  26.193  26.892  1.00  0.00     0.022 A 
BRANCH  66  70
ATOM     70  S   UNL A   1      42.604  27.749  25.593  1.00  0.00     0.124 S 
ATOM     71  O   UNL A   1      43.892  28.042  26.218  1.00  0.00    -0.237 OA
ATOM     72  O   UNL A   1      42.564  26.570  24.735  1.00  0.00    -0.237 OA
ATOM     73  O   UNL A   1      41.886  28.916  25.087  1.00  0.00    -0.744 OA
ENDBRANCH  66  70
ENDBRANCH  49  63
BRANCH  50  74
ATOM     74  C   UNL A   1      39.608  33.895  37.126  1.00  0.00     0.023 A 
ATOM     75  C   UNL A   1      38.930  33.407  38.253  1.00  0.00     0.031 A 
ATOM     76  C   UNL A   1      40.075  35.222  37.160  1.00  0.00     0.131 A 
ATOM     77  C   UNL A   1      38.708  34.249  39.354  1.00  0.00     0.055 A 
ATOM     78  C   UNL A   1      39.897  36.039  38.277  1.00  0.00     0.041 A 
ATOM     79  F   UNL A   1      40.737  35.736  36.111  1.00  0.00    -0.206 F 
ATOM     80  C   UNL A   1      39.200  35.556  39.380  1.00  0.00     0.022 A 
BRANCH  77  81
ATOM     81  S   UNL A   1      37.704  33.631  40.733  1.00  0.00     0.124 S 
ATOM     82  O   UNL A   1      36.580  33.021  40.031  1.00  0.00    -0.237 OA
ATOM     83  O   UNL A   1      38.627  32.712  41.391  1.00  0.00    -0.237 OA
ATOM     84  O   UNL A   1      37.386  34.839  41.490  1.00  0.00    -0.744 OA
ENDBRANCH  77  81
ENDBRANCH  50  74
BRANCH  62  85
ATOM     85  C   UNL A   1      44.079  28.738  35.595  1.00  0.00     0.023 A 
ATOM     86  C   UNL A   1      43.953  27.710  36.543  1.00  0.00     0.031 A 
ATOM     87  C   UNL A   1      45.369  29.227  35.315  1.00  0.00     0.131 A 
ATOM     88  C   UNL A   1      45.093  27.231  37.209  1.00  0.00     0.055 A 
ATOM     89  C   UNL A   1      46.504  28.705  35.934  1.00  0.00     0.041 A 
ATOM     90  F   UNL A   1      45.547  30.214  34.422  1.00  0.00    -0.206 F 
ATOM     91  C   UNL A   1      46.369  27.707  36.894  1.00  0.00     0.022 A 
BRANCH  88  92
ATOM     92  S   UNL A   1      44.881  26.034  38.555  1.00  0.00     0.124 S 
ATOM     93  O   UNL A   1      46.248  25.878  39.040  1.00  0.00    -0.237 OA
ATOM     94  O   UNL A   1      43.961  26.729  39.449  1.00  0.00    -0.237 OA
ATOM     95  O   UNL A   1      44.324  24.860  37.884  1.00  0.00    -0.744 OA
ENDBRANCH  88  92
ENDBRANCH  62  85
ENDBRANCH  36  37
ENDBRANCH  28  31
ENDBRANCH  26  27
ENDBRANCH  25  26
ENDBRANCH   1  25
TORSDOF 17
ENDMDL
MODEL 2
REMARK VINA RESULT:     -11.7      2.393      3.197
REMARK SMILES C[N@H+](Cc1cc(Cl)ccc1[N+](=O)[O-])[C@H]1COC[C@@H]1C(=O)NCCCNC(=O)c1ccc(-c2c3nc(c(-c4cc(S(=O)(=O)[O-])ccc4F)c4ccc([nH]4)c(-c4cc(S(=O)(=O)[O-])ccc4F)c4nc(c(-c5cc(S(=O)(=O)[O-])ccc5F)c5ccc2[nH]5)C=C4)C=C3)cc1
REMARK SMILES IDX 22 1 21 2 19 3 20 4 18 6 14 7 15 8 16 9 17 10 2 11 1 12 3 14
REMARK SMILES IDX 4 15 5 16 10 17 6 18 9 19 7 20 8 21 11 22 12 23 13 24 23 25
REMARK SMILES IDX 24 26 25 27 26 28 27 30 28 31 29 32 90 33 30 34 89 35 31 36
REMARK SMILES IDX 32 37 33 38 83 39 34 40 88 41 82 42 84 43 35 44 87 45 81 46
REMARK SMILES IDX 80 47 36 49 68 50 48 51 67 52 49 53 52 54 66 55 85 56 50 57
REMARK SMILES IDX 51 58 65 60 86 61 53 62 37 63 38 64 46 65 39 66 45 67 47 68
REMARK SMILES IDX 44 69 40 70 41 71 42 72 43 73 69 74 70 75 78 76 71 77 77 78
REMARK SMILES IDX 79 79 76 80 72 81 73 82 74 83 75 84 54 85 55 86 63 87 56 88
REMARK SMILES IDX 62 89 64 90 61 91 57 92 58 93 59 94 60 95
REMARK H PARENT 21 5 2 13 25 29 84 48 52 59
REMARK Flexibility Score: inf
ROOT
ATOM      1  C   UNL A   1      31.198  27.711  25.417  1.00  0.00     0.117 C 
ENDROOT
BRANCH   1   2
ATOM      2  N   UNL A   1      30.958  28.168  24.065  1.00  0.00    -0.356 N 
ATOM      3  C   UNL A   1      31.086  27.584  22.852  1.00  0.00     0.231 C 
ATOM      4  O   UNL A   1      30.782  28.316  21.901  1.00  0.00    -0.274 OA
ATOM      5  H   UNL A   1      30.636  29.097  24.018  1.00  0.00     0.163 HD
BRANCH   3   6
ATOM      6  C   UNL A   1      31.407  26.103  22.621  1.00  0.00     0.164 C 
ATOM      7  C   UNL A   1      32.465  25.392  23.472  1.00  0.00     0.225 C 
ATOM      8  C   UNL A   1      33.736  25.687  22.671  1.00  0.00     0.226 C 
ATOM      9  O   UNL A   1      33.366  25.579  21.298  1.00  0.00    -0.374 OA
ATOM     10  C   UNL A   1      31.983  25.966  21.196  1.00  0.00     0.180 C 
BRANCH   7  11
ATOM     11  N   UNL A   1      32.175  23.947  23.769  1.00  0.00    -0.328 N 
ATOM     12  C   UNL A   1      30.754  23.650  23.520  1.00  0.00     0.333 C 
ATOM     13  H   UNL A   1      32.752  23.408  23.124  1.00  0.00     0.348 HD
BRANCH  11  14
ATOM     14  C   UNL A   1      32.594  23.496  25.107  1.00  0.00     0.306 C 
BRANCH  14  15
ATOM     15  C   UNL A   1      33.854  22.649  25.091  1.00  0.00     0.085 A 
ATOM     16  C   UNL A   1      35.077  23.281  25.395  1.00  0.00     0.037 A 
ATOM     17  C   UNL A   1      33.869  21.257  24.866  1.00  0.00     0.278 A 
ATOM     18  C   UNL A   1      36.257  22.544  25.509  1.00  0.00     0.042 A 
ATOM     19  C   UNL A   1      35.061  20.517  24.987  1.00  0.00     0.088 A 
ATOM     20  Cl  UNL A   1      37.725  23.346  25.908  1.00  0.00    -0.084 Cl
ATOM     21  C   UNL A   1      36.252  21.166  25.317  1.00  0.00     0.027 A 
BRANCH  17  22
ATOM     22  N   UNL A   1      32.660  20.518  24.496  1.00  0.00     0.063 N 
ATOM     23  O   UNL A   1      32.152  19.795  25.366  1.00  0.00    -0.258 OA
ATOM     24  O   UNL A   1      32.277  20.586  23.320  1.00  0.00    -0.258 OA
ENDBRANCH  17  22
ENDBRANCH  14  15
ENDBRANCH  11  14
ENDBRANCH   7  11
ENDBRANCH   3   6
ENDBRANCH   1   2
BRANCH   1  25
ATOM     25  C   UNL A   1      32.646  27.973  25.830  1.00  0.00     0.042 C 
BRANCH  25  26
ATOM     26  C   UNL A   1      33.235  29.225  25.186  1.00  0.00     0.118 C 
BRANCH  26  27
ATOM     27  N   UNL A   1      32.610  30.436  25.696  1.00  0.00    -0.352 N 
ATOM     28  C   UNL A   1      32.895  31.150  26.835  1.00  0.00     0.251 C 
ATOM     29  H   UNL A   1      31.877  30.796  25.147  1.00  0.00     0.163 HD
ATOM     30  O   UNL A   1      32.086  31.970  27.253  1.00  0.00    -0.269 OA
BRANCH  28  31
ATOM     31  C   UNL A   1      34.170  30.919  27.549  1.00  0.00     0.039 A 
ATOM     32  C   UNL A   1      35.111  31.949  27.626  1.00  0.00     0.014 A 
ATOM     33  C   UNL A   1      34.444  29.674  28.120  1.00  0.00     0.014 A 
ATOM     34  C   UNL A   1      36.306  31.744  28.319  1.00  0.00     0.010 A 
ATOM     35  C   UNL A   1      35.591  29.501  28.885  1.00  0.00     0.010 A 
ATOM     36  C   UNL A   1      36.544  30.527  28.977  1.00  0.00    -0.014 A 
BRANCH  36  37
ATOM     37  C   UNL A   1      37.802  30.267  29.724  1.00  0.00     0.031 A 
ATOM     38  C   UNL A   1      38.826  29.334  29.135  1.00  0.00     0.074 A 
ATOM     39  C   UNL A   1      37.980  30.786  30.953  1.00  0.00     0.049 A 
ATOM     40  N   UNL A   1      39.906  28.834  29.679  1.00  0.00    -0.248 NA
ATOM     41  C   UNL A   1      38.571  28.868  27.765  1.00  0.00     0.031 C 
ATOM     42  C   UNL A   1      37.045  31.681  31.637  1.00  0.00     0.029 A 
ATOM     43  N   UNL A   1      39.000  30.618  31.856  1.00  0.00    -0.354 N 
ATOM     44  C   UNL A   1      40.441  27.972  28.727  1.00  0.00     0.074 A 
ATOM     45  C   UNL A   1      39.524  27.964  27.607  1.00  0.00     0.031 C 
ATOM     46  C   UNL A   1      37.541  31.995  32.844  1.00  0.00     0.029 A 
ATOM     47  C   UNL A   1      38.799  31.280  33.045  1.00  0.00     0.049 A 
ATOM     48  H   UNL A   1      39.800  30.075  31.671  1.00  0.00     0.167 HD
ATOM     49  C   UNL A   1      41.601  27.270  28.775  1.00  0.00     0.034 A 
ATOM     50  C   UNL A   1      39.530  31.290  34.177  1.00  0.00     0.034 A 
ATOM     51  C   UNL A   1      42.503  27.306  29.900  1.00  0.00     0.049 A 
ATOM     52  C   UNL A   1      40.802  30.480  34.226  1.00  0.00     0.074 A 
ATOM     53  C   UNL A   1      43.728  26.680  30.044  1.00  0.00     0.029 A 
ATOM     54  N   UNL A   1      42.271  28.001  31.082  1.00  0.00    -0.354 N 
ATOM     55  N   UNL A   1      41.316  29.693  33.309  1.00  0.00    -0.248 NA
ATOM     56  C   UNL A   1      41.597  30.568  35.458  1.00  0.00     0.031 C 
ATOM     57  C   UNL A   1      44.199  26.931  31.337  1.00  0.00     0.029 A 
ATOM     58  C   UNL A   1      43.316  27.793  31.969  1.00  0.00     0.049 A 
ATOM     59  H   UNL A   1      41.482  28.560  31.261  1.00  0.00     0.167 HD
ATOM     60  C   UNL A   1      42.515  29.224  33.838  1.00  0.00     0.074 A 
ATOM     61  C   UNL A   1      42.645  29.816  35.154  1.00  0.00     0.031 C 
ATOM     62  C   UNL A   1      43.431  28.391  33.281  1.00  0.00     0.034 A 
BRANCH  49  63
ATOM     63  C   UNL A   1      41.924  26.385  27.591  1.00  0.00     0.023 A 
ATOM     64  C   UNL A   1      41.647  25.005  27.601  1.00  0.00     0.031 A 
ATOM     65  C   UNL A   1      42.575  26.911  26.461  1.00  0.00     0.131 A 
ATOM     66  C   UNL A   1      42.117  24.187  26.562  1.00  0.00     0.055 A 
ATOM     67  C   UNL A   1      42.948  26.108  25.382  1.00  0.00     0.041 A 
ATOM     68  F   UNL A   1      42.888  28.215  26.397  1.00  0.00    -0.206 F 
ATOM     69  C   UNL A   1      42.740  24.732  25.439  1.00  0.00     0.022 A 
BRANCH  66  70
ATOM     70  S   UNL A   1      42.078  22.389  26.798  1.00  0.00     0.124 S 
ATOM     71  O   UNL A   1      42.073  21.911  25.417  1.00  0.00    -0.237 OA
ATOM     72  O   UNL A   1      43.300  22.143  27.555  1.00  0.00    -0.237 OA
ATOM     73  O   UNL A   1      40.833  22.167  27.530  1.00  0.00    -0.744 OA
ENDBRANCH  66  70
ENDBRANCH  49  63
BRANCH  50  74
ATOM     74  C   UNL A   1      39.073  32.079  35.357  1.00  0.00     0.023 A 
ATOM     75  C   UNL A   1      38.434  31.458  36.440  1.00  0.00     0.031 A 
ATOM     76  C   UNL A   1      39.265  33.472  35.414  1.00  0.00     0.131 A 
ATOM     77  C   UNL A   1      37.978  32.232  37.520  1.00  0.00     0.055 A 
ATOM     78  C   UNL A   1      38.856  34.229  36.512  1.00  0.00     0.041 A 
ATOM     79  F   UNL A   1      39.878  34.115  34.407  1.00  0.00    -0.206 F 
ATOM     80  C   UNL A   1      38.198  33.610  37.570  1.00  0.00     0.022 A 
BRANCH  77  81
ATOM     81  S   UNL A   1      37.029  31.417  38.834  1.00  0.00     0.124 S 
ATOM     82  O   UNL A   1      37.915  31.576  39.982  1.00  0.00    -0.237 OA
ATOM     83  O   UNL A   1      35.802  32.206  38.855  1.00  0.00    -0.237 OA
ATOM     84  O   UNL A   1      36.879  30.048  38.346  1.00  0.00    -0.744 OA
ENDBRANCH  77  81
ENDBRANCH  50  74
BRANCH  62  85
ATOM     85  C   UNL A   1      44.695  28.124  34.064  1.00  0.00     0.023 A 
ATOM     86  C   UNL A   1      44.822  27.023  34.928  1.00  0.00     0.031 A 
ATOM     87  C   UNL A   1      45.799  28.984  33.919  1.00  0.00     0.131 A 
ATOM     88  C   UNL A   1      46.014  26.836  35.648  1.00  0.00     0.055 A 
ATOM     89  C   UNL A   1      47.002  28.757  34.588  1.00  0.00     0.041 A 
ATOM     90  F   UNL A   1      45.730  30.054  33.111  1.00  0.00    -0.206 F 
ATOM     91  C   UNL A   1      47.111  27.683  35.465  1.00  0.00     0.022 A 
BRANCH  88  92
ATOM     92  S   UNL A   1      46.087  25.516  36.889  1.00  0.00     0.124 S 
ATOM     93  O   UNL A   1      47.521  25.266  36.982  1.00  0.00    -0.237 OA
ATOM     94  O   UNL A   1      45.472  26.147  38.052  1.00  0.00    -0.237 OA
ATOM     95  O   UNL A   1      45.307  24.436  36.287  1.00  0.00    -0.744 OA
ENDBRANCH  88  92
ENDBRANCH  62  85
ENDBRANCH  36  37
ENDBRANCH  28  31
ENDBRANCH  26  27
ENDBRANCH  25  26
ENDBRANCH   1  25
TORSDOF 17
ENDMDL
MODEL 3
REMARK VINA RESULT:     -11.7      1.575      1.960
REMARK SMILES C[N@H+](Cc1cc(Cl)ccc1[N+](=O)[O-])[C@H]1COC[C@@H]1C(=O)NCCCNC(=O)c1ccc(-c2c3nc(c(-c4cc(S(=O)(=O)[O-])ccc4F)c4ccc([nH]4)c(-c4cc(S(=O)(=O)[O-])ccc4F)c4nc(c(-c5cc(S(=O)(=O)[O-])ccc5F)c5ccc2[nH]5)C=C4)C=C3)cc1
REMARK SMILES IDX 22 1 21 2 19 3 20 4 18 6 14 7 15 8 16 9 17 10 2 11 1 12 3 14
REMARK SMILES IDX 4 15 5 16 10 17 6 18 9 19 7 20 8 21 11 22 12 23 13 24 23 25
REMARK SMILES IDX 24 26 25 27 26 28 27 30 28 31 29 32 90 33 30 34 89 35 31 36
REMARK SMILES IDX 32 37 33 38 83 39 34 40 88 41 82 42 84 43 35 44 87 45 81 46
REMARK SMILES IDX 80 47 36 49 68 50 48 51 67 52 49 53 52 54 66 55 85 56 50 57
REMARK SMILES IDX 51 58 65 60 86 61 53 62 37 63 38 64 46 65 39 66 45 67 47 68
REMARK SMILES IDX 44 69 40 70 41 71 42 72 43 73 69 74 70 75 78 76 71 77 77 78
REMARK SMILES IDX 79 79 76 80 72 81 73 82 74 83 75 84 54 85 55 86 63 87 56 88
REMARK SMILES IDX 62 89 64 90 61 91 57 92 58 93 59 94 60 95
REMARK H PARENT 21 5 2 13 25 29 84 48 52 59
REMARK Flexibility Score: inf
ROOT
ATOM      1  C   UNL A   1      31.438  30.249  25.764  1.00  0.00     0.117 C 
ENDROOT
BRANCH   1   2
ATOM      2  N   UNL A   1      31.011  30.236  24.381  1.00  0.00    -0.356 N 
ATOM      3  C   UNL A   1      30.870  29.253  23.462  1.00  0.00     0.231 C 
ATOM      4  O   UNL A   1      30.475  29.644  22.357  1.00  0.00    -0.274 OA
ATOM      5  H   UNL A   1      30.774  31.128  24.037  1.00  0.00     0.163 HD
BRANCH   3   6
ATOM      6  C   UNL A   1      31.006  27.754  23.754  1.00  0.00     0.164 C 
ATOM      7  C   UNL A   1      32.293  27.192  24.366  1.00  0.00     0.225 C 
ATOM      8  C   UNL A   1      33.124  26.919  23.109  1.00  0.00     0.226 C 
ATOM      9  O   UNL A   1      32.210  26.409  22.141  1.00  0.00    -0.374 OA
ATOM     10  C   UNL A   1      30.927  27.007  22.406  1.00  0.00     0.180 C 
BRANCH   7  11
ATOM     11  N   UNL A   1      32.096  26.038  25.309  1.00  0.00    -0.328 N 
ATOM     12  C   UNL A   1      31.075  26.369  26.317  1.00  0.00     0.333 C 
ATOM     13  H   UNL A   1      31.766  25.262  24.734  1.00  0.00     0.348 HD
BRANCH  11  14
ATOM     14  C   UNL A   1      33.330  25.535  25.935  1.00  0.00     0.306 C 
BRANCH  14  15
ATOM     15  C   UNL A   1      33.755  24.171  25.424  1.00  0.00     0.085 A 
ATOM     16  C   UNL A   1      34.868  24.108  24.560  1.00  0.00     0.037 A 
ATOM     17  C   UNL A   1      33.157  22.956  25.817  1.00  0.00     0.278 A 
ATOM     18  C   UNL A   1      35.383  22.881  24.140  1.00  0.00     0.042 A 
ATOM     19  C   UNL A   1      33.683  21.720  25.396  1.00  0.00     0.088 A 
ATOM     20  Cl  UNL A   1      36.758  22.843  23.107  1.00  0.00    -0.084 Cl
ATOM     21  C   UNL A   1      34.803  21.688  24.563  1.00  0.00     0.027 A 
BRANCH  17  22
ATOM     22  N   UNL A   1      31.969  22.919  26.673  1.00  0.00     0.063 N 
ATOM     23  O   UNL A   1      30.867  23.025  26.113  1.00  0.00    -0.258 OA
ATOM     24  O   UNL A   1      32.139  22.881  27.899  1.00  0.00    -0.258 OA
ENDBRANCH  17  22
ENDBRANCH  14  15
ENDBRANCH  11  14
ENDBRANCH   7  11
ENDBRANCH   3   6
ENDBRANCH   1   2
BRANCH   1  25
ATOM     25  C   UNL A   1      31.288  31.645  26.366  1.00  0.00     0.042 C 
BRANCH  25  26
ATOM     26  C   UNL A   1      32.591  32.193  26.941  1.00  0.00     0.118 C 
BRANCH  26  27
ATOM     27  N   UNL A   1      32.463  33.591  27.323  1.00  0.00    -0.352 N 
ATOM     28  C   UNL A   1      33.110  34.285  28.316  1.00  0.00     0.251 C 
ATOM     29  H   UNL A   1      31.820  34.116  26.794  1.00  0.00     0.163 HD
ATOM     30  O   UNL A   1      32.671  35.370  28.681  1.00  0.00    -0.269 OA
BRANCH  28  31
ATOM     31  C   UNL A   1      34.324  33.716  28.942  1.00  0.00     0.039 A 
ATOM     32  C   UNL A   1      35.577  34.240  28.612  1.00  0.00     0.014 A 
ATOM     33  C   UNL A   1      34.223  32.646  29.835  1.00  0.00     0.014 A 
ATOM     34  C   UNL A   1      36.724  33.721  29.217  1.00  0.00     0.010 A 
ATOM     35  C   UNL A   1      35.354  32.194  30.502  1.00  0.00     0.010 A 
ATOM     36  C   UNL A   1      36.620  32.713  30.187  1.00  0.00    -0.014 A 
BRANCH  36  37
ATOM     37  C   UNL A   1      37.814  32.132  30.854  1.00  0.00     0.031 A 
ATOM     38  C   UNL A   1      38.612  31.073  30.141  1.00  0.00     0.074 A 
ATOM     39  C   UNL A   1      38.123  32.484  32.116  1.00  0.00     0.049 A 
ATOM     40  N   UNL A   1      39.578  30.316  30.592  1.00  0.00    -0.248 NA
ATOM     41  C   UNL A   1      38.235  30.803  28.746  1.00  0.00     0.031 C 
ATOM     42  C   UNL A   1      37.407  33.479  32.916  1.00  0.00     0.029 A 
ATOM     43  N   UNL A   1      39.107  32.028  32.957  1.00  0.00    -0.354 N 
ATOM     44  C   UNL A   1      39.903  29.459  29.545  1.00  0.00     0.074 A 
ATOM     45  C   UNL A   1      38.979  29.745  28.469  1.00  0.00     0.031 C 
ATOM     46  C   UNL A   1      37.985  33.569  34.124  1.00  0.00     0.029 A 
ATOM     47  C   UNL A   1      39.073  32.599  34.207  1.00  0.00     0.049 A 
ATOM     48  H   UNL A   1      39.775  31.355  32.690  1.00  0.00     0.167 HD
ATOM     49  C   UNL A   1      40.895  28.536  29.481  1.00  0.00     0.034 A 
ATOM     50  C   UNL A   1      39.817  32.351  35.304  1.00  0.00     0.034 A 
ATOM     51  C   UNL A   1      41.811  28.280  30.565  1.00  0.00     0.049 A 
ATOM     52  C   UNL A   1      40.896  31.301  35.227  1.00  0.00     0.074 A 
ATOM     53  C   UNL A   1      42.885  27.409  30.601  1.00  0.00     0.029 A 
ATOM     54  N   UNL A   1      41.754  28.891  31.813  1.00  0.00    -0.354 N 
ATOM     55  N   UNL A   1      41.217  30.518  34.221  1.00  0.00    -0.248 NA
ATOM     56  C   UNL A   1      41.721  31.107  36.427  1.00  0.00     0.031 C 
ATOM     57  C   UNL A   1      43.426  27.434  31.890  1.00  0.00     0.029 A 
ATOM     58  C   UNL A   1      42.754  28.392  32.634  1.00  0.00     0.049 A 
ATOM     59  H   UNL A   1      41.101  29.578  32.076  1.00  0.00     0.167 HD
ATOM     60  C   UNL A   1      42.306  29.768  34.656  1.00  0.00     0.074 A 
ATOM     61  C   UNL A   1      42.586  30.192  36.013  1.00  0.00     0.031 C 
ATOM     62  C   UNL A   1      43.020  28.825  33.988  1.00  0.00     0.034 A 
BRANCH  49  63
ATOM     63  C   UNL A   1      41.003  27.722  28.210  1.00  0.00     0.023 A 
ATOM     64  C   UNL A   1      40.582  26.381  28.152  1.00  0.00     0.031 A 
ATOM     65  C   UNL A   1      41.593  28.271  27.057  1.00  0.00     0.131 A 
ATOM     66  C   UNL A   1      40.856  25.607  27.013  1.00  0.00     0.055 A 
ATOM     67  C   UNL A   1      41.768  27.525  25.890  1.00  0.00     0.041 A 
ATOM     68  F   UNL A   1      42.036  29.538  27.052  1.00  0.00    -0.206 F 
ATOM     69  C   UNL A   1      41.420  26.177  25.871  1.00  0.00     0.022 A 
BRANCH  66  70
ATOM     70  S   UNL A   1      40.647  23.808  27.125  1.00  0.00     0.124 S 
ATOM     71  O   UNL A   1      41.415  23.498  28.329  1.00  0.00    -0.237 OA
ATOM     72  O   UNL A   1      39.200  23.665  27.236  1.00  0.00    -0.237 OA
ATOM     73  O   UNL A   1      41.232  23.318  25.879  1.00  0.00    -0.744 OA
ENDBRANCH  66  70
ENDBRANCH  49  63
BRANCH  50  74
ATOM     74  C   UNL A   1      39.558  33.100  36.568  1.00  0.00     0.023 A 
ATOM     75  C   UNL A   1      38.708  32.580  37.556  1.00  0.00     0.031 A 
ATOM     76  C   UNL A   1      40.156  34.351  36.803  1.00  0.00     0.131 A 
ATOM     77  C   UNL A   1      38.452  33.324  38.719  1.00  0.00     0.055 A 
ATOM     78  C   UNL A   1      39.938  35.064  37.983  1.00  0.00     0.041 A 
ATOM     79  F   UNL A   1      40.984  34.890  35.893  1.00  0.00    -0.206 F 
ATOM     80  C   UNL A   1      39.072  34.555  38.946  1.00  0.00     0.022 A 
BRANCH  77  81
ATOM     81  S   UNL A   1      37.237  32.689  39.907  1.00  0.00     0.124 S 
ATOM     82  O   UNL A   1      37.243  33.734  40.925  1.00  0.00    -0.237 OA
ATOM     83  O   UNL A   1      36.033  32.595  39.088  1.00  0.00    -0.237 OA
ATOM     84  O   UNL A   1      37.806  31.410  40.323  1.00  0.00    -0.744 OA
ENDBRANCH  77  81
ENDBRANCH  50  74
BRANCH  62  85
ATOM     85  C   UNL A   1      44.219  28.233  34.690  1.00  0.00     0.023 A 
ATOM     86  C   UNL A   1      44.125  27.088  35.498  1.00  0.00     0.031 A 
ATOM     87  C   UNL A   1      45.485  28.825  34.523  1.00  0.00     0.131 A 
ATOM     88  C   UNL A   1      45.271  26.594  36.144  1.00  0.00     0.055 A 
ATOM     89  C   UNL A   1      46.630  28.293  35.116  1.00  0.00     0.041 A 
ATOM     90  F   UNL A   1      45.631  29.925  33.767  1.00  0.00    -0.206 F 
ATOM     91  C   UNL A   1      46.525  27.177  35.940  1.00  0.00     0.022 A 
BRANCH  88  92
ATOM     92  S   UNL A   1      45.089  25.227  37.322  1.00  0.00     0.124 S 
ATOM     93  O   UNL A   1      45.107  24.064  36.442  1.00  0.00    -0.237 OA
ATOM     94  O   UNL A   1      46.257  25.396  38.180  1.00  0.00    -0.237 OA
ATOM     95  O   UNL A   1      43.804  25.498  37.965  1.00  0.00    -0.744 OA
ENDBRANCH  88  92
ENDBRANCH  62  85
ENDBRANCH  36  37
ENDBRANCH  28  31
ENDBRANCH  26  27
ENDBRANCH  25  26
ENDBRANCH   1  25
TORSDOF 17
ENDMDL
