MODEL 1
REMARK VINA RESULT:     -13.0      0.000      0.000
REMARK SMILES Cc1ccc(NC(=O)N2CCCC[C@@H]2C(=O)NCCCNC(=O)c2ccc(-c3c4nc(c(-c5cc(S(=O)(=O)[O-])ccc5F)c5ccc([nH]5)c(-c5cc(S(=O)(=O)[O-])ccc5F)c5nc(c(-c6cc(S(=O)(=O)[O-])ccc6F)c6ccc3[nH]6)C=C5)C=C4)cc2)cc1
REMARK SMILES IDX 19 1 18 2 17 3 15 4 16 5 14 7 9 8 10 9 11 10 13 11 12 12
REMARK SMILES IDX 7 13 6 14 8 16 5 17 1 18 2 19 3 20 88 21 4 22 87 23 20 24
REMARK SMILES IDX 21 25 22 26 23 28 24 29 25 30 86 31 26 32 85 33 27 34 28 35
REMARK SMILES IDX 29 36 79 37 30 38 84 39 78 40 80 41 31 42 83 43 77 44 76 45
REMARK SMILES IDX 32 47 64 48 44 49 63 50 45 51 48 52 62 53 81 54 46 55 47 56
REMARK SMILES IDX 61 58 82 59 49 60 33 61 34 62 42 63 35 64 41 65 43 66 40 67
REMARK SMILES IDX 36 68 37 69 38 70 39 71 65 72 66 73 74 74 67 75 73 76 75 77
REMARK SMILES IDX 72 78 68 79 69 80 70 81 71 82 50 83 51 84 59 85 52 86 58 87
REMARK SMILES IDX 60 88 57 89 53 90 54 91 55 92 56 93
REMARK H PARENT 17 6 6 15 21 27 80 46 48 57
REMARK Flexibility Score: inf
ROOT
ATOM      1  C   UNL A   1      32.723  30.423  27.116  1.00  0.00     0.042 C 
ENDROOT
BRANCH   1   2
ATOM      2  C   UNL A   1      31.777  29.226  27.134  1.00  0.00     0.117 C 
BRANCH   2   3
ATOM      3  N   UNL A   1      32.507  27.967  27.064  1.00  0.00    -0.354 N 
ATOM      4  C   UNL A   1      32.797  27.148  26.014  1.00  0.00     0.242 C 
ATOM      5  O   UNL A   1      33.221  26.016  26.285  1.00  0.00    -0.273 OA
ATOM      6  H   UNL A   1      32.852  27.652  27.931  1.00  0.00     0.163 HD
BRANCH   4   7
ATOM      7  C   UNL A   1      32.427  27.492  24.545  1.00  0.00     0.176 C 
ATOM      8  N   UNL A   1      31.616  26.481  23.816  1.00  0.00    -0.313 N 
ATOM      9  C   UNL A   1      31.725  26.391  22.365  1.00  0.00     0.122 C 
ATOM     10  C   UNL A   1      33.112  26.653  21.809  1.00  0.00     0.022 C 
ATOM     11  C   UNL A   1      33.753  27.869  23.853  1.00  0.00     0.035 C 
ATOM     12  C   UNL A   1      33.646  27.967  22.344  1.00  0.00     0.004 C 
BRANCH   8  13
ATOM     13  C   UNL A   1      30.497  25.838  24.354  1.00  0.00     0.322 C 
ATOM     14  N   UNL A   1      30.294  24.523  24.067  1.00  0.00    -0.308 N 
ATOM     15  H   UNL A   1      29.427  24.294  23.660  1.00  0.00     0.171 HD
ATOM     16  O   UNL A   1      29.660  26.450  25.018  1.00  0.00    -0.248 OA
BRANCH  14  17
ATOM     17  C   UNL A   1      31.182  23.456  24.286  1.00  0.00     0.042 A 
ATOM     18  C   UNL A   1      34.312  20.568  24.869  1.00  0.00     0.044 C 
ATOM     19  C   UNL A   1      33.146  21.486  24.661  1.00  0.00    -0.051 A 
ATOM     20  C   UNL A   1      32.475  22.030  25.759  1.00  0.00     0.005 A 
ATOM     21  C   UNL A   1      32.779  21.890  23.370  1.00  0.00     0.005 A 
ATOM     22  C   UNL A   1      31.481  22.990  25.569  1.00  0.00     0.026 A 
ATOM     23  C   UNL A   1      31.789  22.859  23.182  1.00  0.00     0.026 A 
ENDBRANCH  14  17
ENDBRANCH   8  13
ENDBRANCH   4   7
ENDBRANCH   2   3
ENDBRANCH   1   2
BRANCH   1  24
ATOM     24  C   UNL A   1      34.135  30.068  27.557  1.00  0.00     0.118 C 
BRANCH  24  25
ATOM     25  N   UNL A   1      34.776  31.096  28.371  1.00  0.00    -0.352 N 
ATOM     26  C   UNL A   1      35.976  31.030  29.064  1.00  0.00     0.251 C 
ATOM     27  H   UNL A   1      34.292  31.951  28.438  1.00  0.00     0.163 HD
ATOM     28  O   UNL A   1      36.367  31.958  29.750  1.00  0.00    -0.269 OA
BRANCH  26  29
ATOM     29  C   UNL A   1      36.842  29.847  28.847  1.00  0.00     0.039 A 
ATOM     30  C   UNL A   1      37.082  29.017  29.948  1.00  0.00     0.014 A 
ATOM     31  C   UNL A   1      37.597  29.724  27.686  1.00  0.00     0.014 A 
ATOM     32  C   UNL A   1      38.231  28.233  29.969  1.00  0.00     0.010 A 
ATOM     33  C   UNL A   1      38.794  29.042  27.753  1.00  0.00     0.010 A 
ATOM     34  C   UNL A   1      39.137  28.342  28.916  1.00  0.00    -0.014 A 
BRANCH  34  35
ATOM     35  C   UNL A   1      40.508  27.851  28.987  1.00  0.00     0.031 A 
ATOM     36  C   UNL A   1      40.837  26.490  28.524  1.00  0.00     0.074 A 
ATOM     37  C   UNL A   1      41.496  28.658  29.433  1.00  0.00     0.049 A 
ATOM     38  N   UNL A   1      41.852  25.811  28.939  1.00  0.00    -0.248 NA
ATOM     39  C   UNL A   1      40.008  25.758  27.575  1.00  0.00     0.031 C 
ATOM     40  C   UNL A   1      42.935  28.433  29.335  1.00  0.00     0.029 A 
ATOM     41  N   UNL A   1      41.371  29.745  30.296  1.00  0.00    -0.354 N 
ATOM     42  C   UNL A   1      41.980  24.709  28.126  1.00  0.00     0.074 A 
ATOM     43  C   UNL A   1      40.770  24.687  27.338  1.00  0.00     0.031 C 
ATOM     44  C   UNL A   1      43.552  29.152  30.284  1.00  0.00     0.029 A 
ATOM     45  C   UNL A   1      42.522  29.757  31.106  1.00  0.00     0.049 A 
ATOM     46  H   UNL A   1      40.623  30.383  30.331  1.00  0.00     0.167 HD
ATOM     47  C   UNL A   1      43.155  24.019  28.116  1.00  0.00     0.034 A 
ATOM     48  C   UNL A   1      42.430  29.650  32.463  1.00  0.00     0.034 A 
ATOM     49  C   UNL A   1      44.111  24.568  29.079  1.00  0.00     0.049 A 
ATOM     50  C   UNL A   1      43.150  28.446  33.026  1.00  0.00     0.074 A 
ATOM     51  C   UNL A   1      45.214  25.396  28.950  1.00  0.00     0.029 A 
ATOM     52  N   UNL A   1      43.829  24.500  30.438  1.00  0.00    -0.354 N 
ATOM     53  N   UNL A   1      43.564  27.434  32.311  1.00  0.00    -0.248 NA
ATOM     54  C   UNL A   1      43.452  28.282  34.442  1.00  0.00     0.031 C 
ATOM     55  C   UNL A   1      45.580  25.847  30.245  1.00  0.00     0.029 A 
ATOM     56  C   UNL A   1      44.715  25.275  31.162  1.00  0.00     0.049 A 
ATOM     57  H   UNL A   1      43.097  23.973  30.832  1.00  0.00     0.167 HD
ATOM     58  C   UNL A   1      44.155  26.496  33.125  1.00  0.00     0.074 A 
ATOM     59  C   UNL A   1      44.075  27.089  34.448  1.00  0.00     0.031 C 
ATOM     60  C   UNL A   1      44.641  25.318  32.619  1.00  0.00     0.034 A 
BRANCH  47  61
ATOM     61  C   UNL A   1      43.546  23.040  27.031  1.00  0.00     0.023 A 
ATOM     62  C   UNL A   1      42.979  21.747  27.031  1.00  0.00     0.031 A 
ATOM     63  C   UNL A   1      44.481  23.285  26.007  1.00  0.00     0.131 A 
ATOM     64  C   UNL A   1      43.418  20.749  26.142  1.00  0.00     0.055 A 
ATOM     65  C   UNL A   1      44.965  22.278  25.162  1.00  0.00     0.041 A 
ATOM     66  F   UNL A   1      44.924  24.521  25.742  1.00  0.00    -0.206 F 
ATOM     67  C   UNL A   1      44.444  20.995  25.235  1.00  0.00     0.022 A 
BRANCH  64  68
ATOM     68  S   UNL A   1      42.618  19.122  26.179  1.00  0.00     0.124 S 
ATOM     69  O   UNL A   1      41.417  19.347  25.380  1.00  0.00    -0.237 OA
ATOM     70  O   UNL A   1      43.638  18.263  25.586  1.00  0.00    -0.237 OA
ATOM     71  O   UNL A   1      42.375  18.895  27.604  1.00  0.00    -0.744 OA
ENDBRANCH  64  68
ENDBRANCH  47  61
BRANCH  48  72
ATOM     72  C   UNL A   1      41.195  30.280  33.010  1.00  0.00     0.023 A 
ATOM     73  C   UNL A   1      41.150  31.692  33.003  1.00  0.00     0.031 A 
ATOM     74  C   UNL A   1      39.983  29.584  33.100  1.00  0.00     0.131 A 
ATOM     75  C   UNL A   1      39.923  32.359  32.893  1.00  0.00     0.055 A 
ATOM     76  C   UNL A   1      38.756  30.261  33.069  1.00  0.00     0.041 A 
ATOM     77  F   UNL A   1      39.960  28.244  33.073  1.00  0.00    -0.206 F 
ATOM     78  C   UNL A   1      38.722  31.649  32.915  1.00  0.00     0.022 A 
BRANCH  75  79
ATOM     79  S   UNL A   1      39.924  34.117  32.420  1.00  0.00     0.124 S 
ATOM     80  O   UNL A   1      38.518  34.471  32.573  1.00  0.00    -0.237 OA
ATOM     81  O   UNL A   1      40.843  34.720  33.385  1.00  0.00    -0.237 OA
ATOM     82  O   UNL A   1      40.431  34.097  31.049  1.00  0.00    -0.744 OA
ENDBRANCH  75  79
ENDBRANCH  48  72
BRANCH  60  83
ATOM     83  C   UNL A   1      45.157  24.113  33.400  1.00  0.00     0.023 A 
ATOM     84  C   UNL A   1      46.459  23.996  33.904  1.00  0.00     0.031 A 
ATOM     85  C   UNL A   1      44.298  23.023  33.711  1.00  0.00     0.131 A 
ATOM     86  C   UNL A   1      46.876  22.854  34.619  1.00  0.00     0.055 A 
ATOM     87  C   UNL A   1      44.695  21.917  34.471  1.00  0.00     0.041 A 
ATOM     88  F   UNL A   1      43.022  22.981  33.304  1.00  0.00    -0.206 F 
ATOM     89  C   UNL A   1      45.997  21.820  34.925  1.00  0.00     0.022 A 
BRANCH  86  90
ATOM     90  S   UNL A   1      48.618  22.737  35.108  1.00  0.00     0.124 S 
ATOM     91  O   UNL A   1      49.213  23.847  34.370  1.00  0.00    -0.237 OA
ATOM     92  O   UNL A   1      48.547  22.905  36.556  1.00  0.00    -0.237 OA
ATOM     93  O   UNL A   1      49.016  21.406  34.655  1.00  0.00    -0.744 OA
ENDBRANCH  86  90
ENDBRANCH  60  83
ENDBRANCH  34  35
ENDBRANCH  26  29
ENDBRANCH  24  25
ENDBRANCH   1  24
TORSDOF 15
ENDMDL
MODEL 2
REMARK VINA RESULT:     -12.9      4.193     10.644
REMARK SMILES Cc1ccc(NC(=O)N2CCCC[C@@H]2C(=O)NCCCNC(=O)c2ccc(-c3c4nc(c(-c5cc(S(=O)(=O)[O-])ccc5F)c5ccc([nH]5)c(-c5cc(S(=O)(=O)[O-])ccc5F)c5nc(c(-c6cc(S(=O)(=O)[O-])ccc6F)c6ccc3[nH]6)C=C5)C=C4)cc2)cc1
REMARK SMILES IDX 19 1 18 2 17 3 15 4 16 5 14 7 9 8 10 9 11 10 13 11 12 12
REMARK SMILES IDX 7 13 6 14 8 16 5 17 1 18 2 19 3 20 88 21 4 22 87 23 20 24
REMARK SMILES IDX 21 25 22 26 23 28 24 29 25 30 86 31 26 32 85 33 27 34 28 35
REMARK SMILES IDX 29 36 79 37 30 38 84 39 78 40 80 41 31 42 83 43 77 44 76 45
REMARK SMILES IDX 32 47 64 48 44 49 63 50 45 51 48 52 62 53 81 54 46 55 47 56
REMARK SMILES IDX 61 58 82 59 49 60 33 61 34 62 42 63 35 64 41 65 43 66 40 67
REMARK SMILES IDX 36 68 37 69 38 70 39 71 65 72 66 73 74 74 67 75 73 76 75 77
REMARK SMILES IDX 72 78 68 79 69 80 70 81 71 82 50 83 51 84 59 85 52 86 58 87
REMARK SMILES IDX 60 88 57 89 53 90 54 91 55 92 56 93
REMARK H PARENT 17 6 6 15 21 27 80 46 48 57
REMARK Flexibility Score: inf
ROOT
ATOM      1  C   UNL A   1      39.118  21.379  25.917  1.00  0.00     0.042 C 
ENDROOT
BRANCH   1   2
ATOM      2  C   UNL A   1      37.743  21.407  25.257  1.00  0.00     0.117 C 
BRANCH   2   3
ATOM      3  N   UNL A   1      36.753  22.049  26.111  1.00  0.00    -0.354 N 
ATOM      4  C   UNL A   1      35.397  22.149  26.006  1.00  0.00     0.242 C 
ATOM      5  O   UNL A   1      34.835  22.966  26.748  1.00  0.00    -0.273 OA
ATOM      6  H   UNL A   1      37.131  22.489  26.907  1.00  0.00     0.163 HD
BRANCH   4   7
ATOM      7  C   UNL A   1      34.583  21.456  24.880  1.00  0.00     0.176 C 
ATOM      8  N   UNL A   1      33.953  22.353  23.875  1.00  0.00    -0.313 N 
ATOM      9  C   UNL A   1      32.741  21.917  23.190  1.00  0.00     0.122 C 
ATOM     10  C   UNL A   1      31.786  21.096  24.036  1.00  0.00     0.022 C 
ATOM     11  C   UNL A   1      33.601  20.504  25.594  1.00  0.00     0.035 C 
ATOM     12  C   UNL A   1      32.526  19.943  24.683  1.00  0.00     0.004 C 
BRANCH   8  13
ATOM     13  C   UNL A   1      34.604  23.432  23.270  1.00  0.00     0.322 C 
ATOM     14  N   UNL A   1      33.928  24.604  23.114  1.00  0.00    -0.308 N 
ATOM     15  H   UNL A   1      33.872  24.956  22.196  1.00  0.00     0.171 HD
ATOM     16  O   UNL A   1      35.743  23.324  22.814  1.00  0.00    -0.248 OA
BRANCH  14  17
ATOM     17  C   UNL A   1      33.303  25.366  24.116  1.00  0.00     0.042 A 
ATOM     18  C   UNL A   1      31.626  28.146  26.933  1.00  0.00     0.044 C 
ATOM     19  C   UNL A   1      32.178  27.091  26.023  1.00  0.00    -0.051 A 
ATOM     20  C   UNL A   1      31.390  26.569  24.994  1.00  0.00     0.005 A 
ATOM     21  C   UNL A   1      33.517  26.690  26.126  1.00  0.00     0.005 A 
ATOM     22  C   UNL A   1      31.944  25.692  24.062  1.00  0.00     0.026 A 
ATOM     23  C   UNL A   1      34.072  25.817  25.186  1.00  0.00     0.026 A 
ENDBRANCH  14  17
ENDBRANCH   8  13
ENDBRANCH   4   7
ENDBRANCH   2   3
ENDBRANCH   1   2
BRANCH   1  24
ATOM     24  C   UNL A   1      39.521  22.724  26.502  1.00  0.00     0.118 C 
BRANCH  24  25
ATOM     25  N   UNL A   1      40.937  23.038  26.342  1.00  0.00    -0.352 N 
ATOM     26  C   UNL A   1      41.570  24.267  26.453  1.00  0.00     0.251 C 
ATOM     27  H   UNL A   1      41.521  22.276  26.125  1.00  0.00     0.163 HD
ATOM     28  O   UNL A   1      42.764  24.390  26.241  1.00  0.00    -0.269 OA
BRANCH  26  29
ATOM     29  C   UNL A   1      40.782  25.414  26.966  1.00  0.00     0.039 A 
ATOM     30  C   UNL A   1      40.801  26.593  26.212  1.00  0.00     0.014 A 
ATOM     31  C   UNL A   1      40.281  25.407  28.262  1.00  0.00     0.014 A 
ATOM     32  C   UNL A   1      40.541  27.805  26.842  1.00  0.00     0.010 A 
ATOM     33  C   UNL A   1      40.139  26.613  28.916  1.00  0.00     0.010 A 
ATOM     34  C   UNL A   1      40.325  27.813  28.220  1.00  0.00    -0.014 A 
BRANCH  34  35
ATOM     35  C   UNL A   1      40.387  29.022  29.031  1.00  0.00     0.031 A 
ATOM     36  C   UNL A   1      39.271  29.986  29.019  1.00  0.00     0.074 A 
ATOM     37  C   UNL A   1      41.448  29.243  29.839  1.00  0.00     0.049 A 
ATOM     38  N   UNL A   1      39.394  31.237  29.308  1.00  0.00    -0.248 NA
ATOM     39  C   UNL A   1      37.915  29.619  28.630  1.00  0.00     0.031 C 
ATOM     40  C   UNL A   1      41.563  30.246  30.894  1.00  0.00     0.029 A 
ATOM     41  N   UNL A   1      42.741  28.746  29.687  1.00  0.00    -0.354 N 
ATOM     42  C   UNL A   1      38.130  31.766  29.429  1.00  0.00     0.074 A 
ATOM     43  C   UNL A   1      37.248  30.736  28.933  1.00  0.00     0.031 C 
ATOM     44  C   UNL A   1      42.863  30.492  31.117  1.00  0.00     0.029 A 
ATOM     45  C   UNL A   1      43.620  29.755  30.124  1.00  0.00     0.049 A 
ATOM     46  H   UNL A   1      42.992  27.859  29.342  1.00  0.00     0.167 HD
ATOM     47  C   UNL A   1      37.964  32.960  30.063  1.00  0.00     0.034 A 
ATOM     48  C   UNL A   1      44.551  30.291  29.283  1.00  0.00     0.034 A 
ATOM     49  C   UNL A   1      39.245  33.537  30.472  1.00  0.00     0.049 A 
ATOM     50  C   UNL A   1      44.392  31.779  29.073  1.00  0.00     0.074 A 
ATOM     51  C   UNL A   1      39.913  33.596  31.684  1.00  0.00     0.029 A 
ATOM     52  N   UNL A   1      40.159  33.930  29.501  1.00  0.00    -0.354 N 
ATOM     53  N   UNL A   1      43.323  32.459  29.391  1.00  0.00    -0.248 NA
ATOM     54  C   UNL A   1      45.423  32.619  28.476  1.00  0.00     0.031 C 
ATOM     55  C   UNL A   1      41.250  34.003  31.431  1.00  0.00     0.029 A 
ATOM     56  C   UNL A   1      41.385  34.217  30.070  1.00  0.00     0.049 A 
ATOM     57  H   UNL A   1      39.961  33.994  28.540  1.00  0.00     0.167 HD
ATOM     58  C   UNL A   1      43.488  33.780  29.048  1.00  0.00     0.074 A 
ATOM     59  C   UNL A   1      44.831  33.828  28.497  1.00  0.00     0.031 C 
ATOM     60  C   UNL A   1      42.489  34.699  29.245  1.00  0.00     0.034 A 
BRANCH  47  61
ATOM     61  C   UNL A   1      36.631  33.462  30.576  1.00  0.00     0.023 A 
ATOM     62  C   UNL A   1      35.746  34.104  29.685  1.00  0.00     0.031 A 
ATOM     63  C   UNL A   1      36.188  33.383  31.910  1.00  0.00     0.131 A 
ATOM     64  C   UNL A   1      34.566  34.723  30.134  1.00  0.00     0.055 A 
ATOM     65  C   UNL A   1      35.046  34.052  32.372  1.00  0.00     0.041 A 
ATOM     66  F   UNL A   1      36.806  32.609  32.812  1.00  0.00    -0.206 F 
ATOM     67  C   UNL A   1      34.234  34.741  31.485  1.00  0.00     0.022 A 
BRANCH  64  68
ATOM     68  S   UNL A   1      33.460  35.499  28.924  1.00  0.00     0.124 S 
ATOM     69  O   UNL A   1      32.674  36.404  29.757  1.00  0.00    -0.237 OA
ATOM     70  O   UNL A   1      34.401  36.122  28.001  1.00  0.00    -0.237 OA
ATOM     71  O   UNL A   1      32.714  34.367  28.373  1.00  0.00    -0.744 OA
ENDBRANCH  64  68
ENDBRANCH  47  61
BRANCH  48  72
ATOM     72  C   UNL A   1      45.070  29.306  28.292  1.00  0.00     0.023 A 
ATOM     73  C   UNL A   1      45.976  28.337  28.780  1.00  0.00     0.031 A 
ATOM     74  C   UNL A   1      44.399  29.033  27.094  1.00  0.00     0.131 A 
ATOM     75  C   UNL A   1      46.047  27.073  28.182  1.00  0.00     0.055 A 
ATOM     76  C   UNL A   1      44.534  27.793  26.454  1.00  0.00     0.041 A 
ATOM     77  F   UNL A   1      43.500  29.898  26.602  1.00  0.00    -0.206 F 
ATOM     78  C   UNL A   1      45.321  26.790  27.025  1.00  0.00     0.022 A 
BRANCH  75  79
ATOM     79  S   UNL A   1      46.854  25.719  29.094  1.00  0.00     0.124 S 
ATOM     80  O   UNL A   1      48.230  26.192  29.180  1.00  0.00    -0.237 OA
ATOM     81  O   UNL A   1      46.112  25.679  30.353  1.00  0.00    -0.237 OA
ATOM     82  O   UNL A   1      46.632  24.556  28.236  1.00  0.00    -0.744 OA
ENDBRANCH  75  79
ENDBRANCH  48  72
BRANCH  60  83
ATOM     83  C   UNL A   1      42.447  36.145  28.763  1.00  0.00     0.023 A 
ATOM     84  C   UNL A   1      42.958  37.234  29.482  1.00  0.00     0.031 A 
ATOM     85  C   UNL A   1      41.909  36.474  27.488  1.00  0.00     0.131 A 
ATOM     86  C   UNL A   1      42.888  38.550  28.981  1.00  0.00     0.055 A 
ATOM     87  C   UNL A   1      41.893  37.772  26.966  1.00  0.00     0.041 A 
ATOM     88  F   UNL A   1      41.381  35.548  26.676  1.00  0.00    -0.206 F 
ATOM     89  C   UNL A   1      42.377  38.826  27.717  1.00  0.00     0.022 A 
BRANCH  86  90
ATOM     90  S   UNL A   1      43.450  39.905  30.046  1.00  0.00     0.124 S 
ATOM     91  O   UNL A   1      44.590  40.425  29.296  1.00  0.00    -0.237 OA
ATOM     92  O   UNL A   1      42.278  40.771  30.096  1.00  0.00    -0.237 OA
ATOM     93  O   UNL A   1      43.786  39.240  31.304  1.00  0.00    -0.744 OA
ENDBRANCH  86  90
ENDBRANCH  60  83
ENDBRANCH  34  35
ENDBRANCH  26  29
ENDBRANCH  24  25
ENDBRANCH   1  24
TORSDOF 15
ENDMDL
MODEL 3
REMARK VINA RESULT:     -12.9      2.915      4.102
REMARK SMILES Cc1ccc(NC(=O)N2CCCC[C@@H]2C(=O)NCCCNC(=O)c2ccc(-c3c4nc(c(-c5cc(S(=O)(=O)[O-])ccc5F)c5ccc([nH]5)c(-c5cc(S(=O)(=O)[O-])ccc5F)c5nc(c(-c6cc(S(=O)(=O)[O-])ccc6F)c6ccc3[nH]6)C=C5)C=C4)cc2)cc1
REMARK SMILES IDX 19 1 18 2 17 3 15 4 16 5 14 7 9 8 10 9 11 10 13 11 12 12
REMARK SMILES IDX 7 13 6 14 8 16 5 17 1 18 2 19 3 20 88 21 4 22 87 23 20 24
REMARK SMILES IDX 21 25 22 26 23 28 24 29 25 30 86 31 26 32 85 33 27 34 28 35
REMARK SMILES IDX 29 36 79 37 30 38 84 39 78 40 80 41 31 42 83 43 77 44 76 45
REMARK SMILES IDX 32 47 64 48 44 49 63 50 45 51 48 52 62 53 81 54 46 55 47 56
REMARK SMILES IDX 61 58 82 59 49 60 33 61 34 62 42 63 35 64 41 65 43 66 40 67
REMARK SMILES IDX 36 68 37 69 38 70 39 71 65 72 66 73 74 74 67 75 73 76 75 77
REMARK SMILES IDX 72 78 68 79 69 80 70 81 71 82 50 83 51 84 59 85 52 86 58 87
REMARK SMILES IDX 60 88 57 89 53 90 54 91 55 92 56 93
REMARK H PARENT 17 6 6 15 21 27 80 46 48 57
REMARK Flexibility Score: inf
ROOT
ATOM      1  C   UNL A   1      34.388  30.660  27.939  1.00  0.00     0.042 C 
ENDROOT
BRANCH   1   2
ATOM      2  C   UNL A   1      33.316  30.107  27.005  1.00  0.00     0.117 C 
BRANCH   2   3
ATOM      3  N   UNL A   1      33.904  29.436  25.854  1.00  0.00    -0.354 N 
ATOM      4  C   UNL A   1      33.339  28.738  24.828  1.00  0.00     0.242 C 
ATOM      5  O   UNL A   1      34.101  28.065  24.120  1.00  0.00    -0.273 OA
ATOM      6  H   UNL A   1      34.886  29.498  25.809  1.00  0.00     0.163 HD
BRANCH   4   7
ATOM      7  C   UNL A   1      31.803  28.589  24.651  1.00  0.00     0.176 C 
ATOM      8  N   UNL A   1      31.226  27.262  24.996  1.00  0.00    -0.313 N 
ATOM      9  C   UNL A   1      30.004  26.823  24.333  1.00  0.00     0.122 C 
ATOM     10  C   UNL A   1      29.873  27.246  22.882  1.00  0.00     0.022 C 
ATOM     11  C   UNL A   1      31.495  29.070  23.218  1.00  0.00     0.035 C 
ATOM     12  C   UNL A   1      30.089  28.740  22.755  1.00  0.00     0.004 C 
BRANCH   8  13
ATOM     13  C   UNL A   1      31.552  26.541  26.147  1.00  0.00     0.322 C 
ATOM     14  N   UNL A   1      31.997  25.261  26.018  1.00  0.00    -0.308 N 
ATOM     15  H   UNL A   1      31.494  24.571  26.508  1.00  0.00     0.171 HD
ATOM     16  O   UNL A   1      31.378  27.011  27.273  1.00  0.00    -0.248 OA
BRANCH  14  17
ATOM     17  C   UNL A   1      33.095  24.814  25.262  1.00  0.00     0.042 A 
ATOM     18  C   UNL A   1      36.431  22.981  23.265  1.00  0.00     0.044 C 
ATOM     19  C   UNL A   1      35.297  23.719  23.908  1.00  0.00    -0.051 A 
ATOM     20  C   UNL A   1      34.035  23.726  23.309  1.00  0.00     0.005 A 
ATOM     21  C   UNL A   1      35.460  24.324  25.162  1.00  0.00     0.005 A 
ATOM     22  C   UNL A   1      32.947  24.294  23.972  1.00  0.00     0.026 A 
ATOM     23  C   UNL A   1      34.366  24.884  25.829  1.00  0.00     0.026 A 
ENDBRANCH  14  17
ENDBRANCH   8  13
ENDBRANCH   4   7
ENDBRANCH   2   3
ENDBRANCH   1   2
BRANCH   1  24
ATOM     24  C   UNL A   1      34.725  32.116  27.656  1.00  0.00     0.118 C 
BRANCH  24  25
ATOM     25  N   UNL A   1      33.890  33.068  28.382  1.00  0.00    -0.352 N 
ATOM     26  C   UNL A   1      34.162  33.730  29.570  1.00  0.00     0.251 C 
ATOM     27  H   UNL A   1      33.017  33.267  27.973  1.00  0.00     0.163 HD
ATOM     28  O   UNL A   1      33.342  34.466  30.091  1.00  0.00    -0.269 OA
BRANCH  26  29
ATOM     29  C   UNL A   1      35.530  33.623  30.131  1.00  0.00     0.039 A 
ATOM     30  C   UNL A   1      36.570  34.210  29.401  1.00  0.00     0.014 A 
ATOM     31  C   UNL A   1      35.801  32.749  31.178  1.00  0.00     0.014 A 
ATOM     32  C   UNL A   1      37.867  33.735  29.567  1.00  0.00     0.010 A 
ATOM     33  C   UNL A   1      37.062  32.196  31.260  1.00  0.00     0.010 A 
ATOM     34  C   UNL A   1      38.081  32.649  30.415  1.00  0.00    -0.014 A 
BRANCH  34  35
ATOM     35  C   UNL A   1      39.305  31.858  30.406  1.00  0.00     0.031 A 
ATOM     36  C   UNL A   1      39.333  30.536  29.753  1.00  0.00     0.074 A 
ATOM     37  C   UNL A   1      40.437  32.352  30.954  1.00  0.00     0.049 A 
ATOM     38  N   UNL A   1      40.160  29.595  30.060  1.00  0.00    -0.248 NA
ATOM     39  C   UNL A   1      38.385  30.147  28.717  1.00  0.00     0.031 C 
ATOM     40  C   UNL A   1      41.791  31.825  30.814  1.00  0.00     0.029 A 
ATOM     41  N   UNL A   1      40.537  33.309  31.963  1.00  0.00    -0.354 N 
ATOM     42  C   UNL A   1      40.059  28.616  29.100  1.00  0.00     0.074 A 
ATOM     43  C   UNL A   1      38.895  28.976  28.325  1.00  0.00     0.031 C 
ATOM     44  C   UNL A   1      42.530  32.248  31.852  1.00  0.00     0.029 A 
ATOM     45  C   UNL A   1      41.641  32.949  32.758  1.00  0.00     0.049 A 
ATOM     46  H   UNL A   1      39.950  34.087  32.093  1.00  0.00     0.167 HD
ATOM     47  C   UNL A   1      41.050  27.689  28.984  1.00  0.00     0.034 A 
ATOM     48  C   UNL A   1      41.494  32.677  34.086  1.00  0.00     0.034 A 
ATOM     49  C   UNL A   1      42.080  27.869  30.007  1.00  0.00     0.049 A 
ATOM     50  C   UNL A   1      41.914  31.276  34.469  1.00  0.00     0.074 A 
ATOM     51  C   UNL A   1      43.344  28.438  29.988  1.00  0.00     0.029 A 
ATOM     52  N   UNL A   1      41.757  27.678  31.346  1.00  0.00    -0.354 N 
ATOM     53  N   UNL A   1      42.108  30.307  33.616  1.00  0.00    -0.248 NA
ATOM     54  C   UNL A   1      42.136  30.853  35.845  1.00  0.00     0.031 C 
ATOM     55  C   UNL A   1      43.769  28.611  31.332  1.00  0.00     0.029 A 
ATOM     56  C   UNL A   1      42.776  28.125  32.165  1.00  0.00     0.049 A 
ATOM     57  H   UNL A   1      40.917  27.279  31.666  1.00  0.00     0.167 HD
ATOM     58  C   UNL A   1      42.455  29.156  34.284  1.00  0.00     0.074 A 
ATOM     59  C   UNL A   1      42.477  29.562  35.679  1.00  0.00     0.031 C 
ATOM     60  C   UNL A   1      42.677  27.981  33.614  1.00  0.00     0.034 A 
BRANCH  47  61
ATOM     61  C   UNL A   1      41.239  26.807  27.768  1.00  0.00     0.023 A 
ATOM     62  C   UNL A   1      41.196  25.405  27.919  1.00  0.00     0.031 A 
ATOM     63  C   UNL A   1      41.502  27.262  26.462  1.00  0.00     0.131 A 
ATOM     64  C   UNL A   1      41.515  24.538  26.858  1.00  0.00     0.055 A 
ATOM     65  C   UNL A   1      41.881  26.406  25.420  1.00  0.00     0.041 A 
ATOM     66  F   UNL A   1      41.347  28.549  26.122  1.00  0.00    -0.206 F 
ATOM     67  C   UNL A   1      41.904  25.034  25.618  1.00  0.00     0.022 A 
BRANCH  64  68
ATOM     68  S   UNL A   1      41.404  22.747  27.118  1.00  0.00     0.124 S 
ATOM     69  O   UNL A   1      42.296  22.542  28.256  1.00  0.00    -0.237 OA
ATOM     70  O   UNL A   1      39.980  22.559  27.370  1.00  0.00    -0.237 OA
ATOM     71  O   UNL A   1      41.884  22.190  25.853  1.00  0.00    -0.744 OA
ENDBRANCH  64  68
ENDBRANCH  47  61
BRANCH  48  72
ATOM     72  C   UNL A   1      40.418  33.486  34.727  1.00  0.00     0.023 A 
ATOM     73  C   UNL A   1      39.408  32.768  35.406  1.00  0.00     0.031 A 
ATOM     74  C   UNL A   1      40.598  34.836  35.053  1.00  0.00     0.131 A 
ATOM     75  C   UNL A   1      38.748  33.343  36.500  1.00  0.00     0.055 A 
ATOM     76  C   UNL A   1      39.878  35.430  36.099  1.00  0.00     0.041 A 
ATOM     77  F   UNL A   1      41.565  35.558  34.469  1.00  0.00    -0.206 F 
ATOM     78  C   UNL A   1      38.985  34.670  36.858  1.00  0.00     0.022 A 
BRANCH  75  79
ATOM     79  S   UNL A   1      37.812  32.258  37.624  1.00  0.00     0.124 S 
ATOM     80  O   UNL A   1      36.528  32.944  37.705  1.00  0.00    -0.237 OA
ATOM     81  O   UNL A   1      37.809  30.976  36.921  1.00  0.00    -0.237 OA
ATOM     82  O   UNL A   1      38.617  32.264  38.845  1.00  0.00    -0.744 OA
ENDBRANCH  75  79
ENDBRANCH  48  72
BRANCH  60  83
ATOM     83  C   UNL A   1      42.892  26.595  34.213  1.00  0.00     0.023 A 
ATOM     84  C   UNL A   1      44.081  25.861  34.104  1.00  0.00     0.031 A 
ATOM     85  C   UNL A   1      41.875  25.968  34.985  1.00  0.00     0.131 A 
ATOM     86  C   UNL A   1      44.216  24.581  34.681  1.00  0.00     0.055 A 
ATOM     87  C   UNL A   1      42.030  24.724  35.607  1.00  0.00     0.041 A 
ATOM     88  F   UNL A   1      40.678  26.537  35.186  1.00  0.00    -0.206 F 
ATOM     89  C   UNL A   1      43.206  24.014  35.451  1.00  0.00     0.022 A 
BRANCH  86  90
ATOM     90  S   UNL A   1      45.743  23.656  34.366  1.00  0.00     0.124 S 
ATOM     91  O   UNL A   1      45.249  22.507  33.612  1.00  0.00    -0.237 OA
ATOM     92  O   UNL A   1      46.539  24.615  33.609  1.00  0.00    -0.237 OA
ATOM     93  O   UNL A   1      46.245  23.350  35.705  1.00  0.00    -0.744 OA
ENDBRANCH  86  90
ENDBRANCH  60  83
ENDBRANCH  34  35
ENDBRANCH  26  29
ENDBRANCH  24  25
ENDBRANCH   1  24
TORSDOF 15
ENDMDL
