MODEL 1
REMARK VINA RESULT:     -12.8      0.000      0.000
REMARK SMILES CC(C)(C)c1cc2c(cc1Cl)C=C(C(=O)NCCCNC(=O)c1ccc(-c3c4nc(c(-c5cc(S(=O)(=O)[O-])ccc5F)c5ccc([nH]5)c(-c5cc(S(=O)(=O)[O-])ccc5F)c5nc(c(-c6cc(S(=O)(=O)[O-])ccc6F)c6ccc3[nH]6)C=C5)C=C4)cc1)[C@@H](C(F)(F)F)O2
REMARK SMILES IDX 19 1 18 2 17 3 16 4 14 5 15 6 13 8 5 9 6 10 10 11 7 12 9 13
REMARK SMILES IDX 11 14 8 15 91 16 12 17 86 18 2 19 1 20 3 21 4 22 87 23 88 24
REMARK SMILES IDX 89 25 90 26 20 27 21 28 22 30 23 31 24 32 85 33 25 34 84 35
REMARK SMILES IDX 26 36 27 37 28 38 78 39 29 40 83 41 77 42 79 43 30 44 82 45
REMARK SMILES IDX 76 46 75 47 31 49 63 50 43 51 62 52 44 53 47 54 61 55 80 56
REMARK SMILES IDX 45 57 46 58 60 60 81 61 48 62 32 63 33 64 41 65 34 66 40 67
REMARK SMILES IDX 42 68 39 69 35 70 36 71 37 72 38 73 64 74 65 75 73 76 66 77
REMARK SMILES IDX 72 78 74 79 71 80 67 81 68 82 69 83 70 84 49 85 50 86 58 87
REMARK SMILES IDX 51 88 57 89 59 90 56 91 52 92 53 93 54 94 55 95
REMARK H PARENT 16 7 20 29 79 48 47 59
REMARK Flexibility Score: inf
ROOT
ATOM      1  C   UNL A   1      32.725  29.872  27.042  1.00  0.00     0.118 C 
ENDROOT
BRANCH   1   2
ATOM      2  C   UNL A   1      31.505  29.315  26.320  1.00  0.00     0.042 C 
BRANCH   2   3
ATOM      3  C   UNL A   1      31.231  30.034  25.008  1.00  0.00     0.118 C 
BRANCH   3   4
ATOM      4  N   UNL A   1      30.349  29.269  24.138  1.00  0.00    -0.352 N 
ATOM      5  C   UNL A   1      30.391  28.096  23.465  1.00  0.00     0.251 C 
ATOM      6  O   UNL A   1      29.373  27.822  22.822  1.00  0.00    -0.270 OA
ATOM      7  H   UNL A   1      29.489  29.729  24.004  1.00  0.00     0.163 HD
BRANCH   5   8
ATOM      8  C   UNL A   1      31.540  27.146  23.467  1.00  0.00     0.067 C 
ATOM      9  C   UNL A   1      34.945  23.570  24.690  1.00  0.00    -0.020 A 
ATOM     10  C   UNL A   1      34.645  24.353  23.547  1.00  0.00     0.053 A 
ATOM     11  C   UNL A   1      34.059  23.716  25.782  1.00  0.00     0.045 A 
ATOM     12  C   UNL A   1      33.555  25.219  23.493  1.00  0.00     0.128 A 
ATOM     13  C   UNL A   1      32.945  24.583  25.709  1.00  0.00     0.032 A 
ATOM     14  Cl  UNL A   1      34.219  22.923  27.308  1.00  0.00    -0.084 Cl
ATOM     15  C   UNL A   1      32.695  25.342  24.571  1.00  0.00     0.019 A 
ATOM     16  O   UNL A   1      33.377  25.909  22.329  1.00  0.00    -0.475 OA
ATOM     17  C   UNL A   1      31.566  26.257  24.479  1.00  0.00     0.025 C 
ATOM     18  C   UNL A   1      32.652  27.163  22.455  1.00  0.00     0.314 C 
BRANCH   9  19
ATOM     19  C   UNL A   1      36.228  22.706  24.611  1.00  0.00    -0.012 C 
ATOM     20  C   UNL A   1      36.814  22.737  23.171  1.00  0.00     0.016 C 
ATOM     21  C   UNL A   1      36.103  21.209  24.957  1.00  0.00     0.016 C 
ATOM     22  C   UNL A   1      37.269  23.308  25.583  1.00  0.00     0.016 C 
ENDBRANCH   9  19
BRANCH  18  23
ATOM     23  C   UNL A   1      33.660  28.304  22.695  1.00  0.00     0.429 C 
ATOM     24  F   UNL A   1      33.090  29.506  22.430  1.00  0.00    -0.167 F 
ATOM     25  F   UNL A   1      34.095  28.358  23.977  1.00  0.00    -0.167 F 
ATOM     26  F   UNL A   1      34.763  28.201  21.918  1.00  0.00    -0.167 F 
ENDBRANCH  18  23
ENDBRANCH   5   8
ENDBRANCH   3   4
ENDBRANCH   2   3
ENDBRANCH   1   2
BRANCH   1  27
ATOM     27  N   UNL A   1      32.718  31.334  27.092  1.00  0.00    -0.352 N 
ATOM     28  C   UNL A   1      33.639  32.210  27.614  1.00  0.00     0.251 C 
ATOM     29  H   UNL A   1      31.928  31.757  26.686  1.00  0.00     0.163 HD
ATOM     30  O   UNL A   1      33.336  33.392  27.759  1.00  0.00    -0.269 OA
BRANCH  28  31
ATOM     31  C   UNL A   1      34.972  31.723  28.021  1.00  0.00     0.039 A 
ATOM     32  C   UNL A   1      35.153  30.383  28.360  1.00  0.00     0.014 A 
ATOM     33  C   UNL A   1      36.049  32.612  28.084  1.00  0.00     0.014 A 
ATOM     34  C   UNL A   1      36.333  29.983  28.967  1.00  0.00     0.010 A 
ATOM     35  C   UNL A   1      37.280  32.175  28.584  1.00  0.00     0.010 A 
ATOM     36  C   UNL A   1      37.414  30.872  29.087  1.00  0.00    -0.014 A 
BRANCH  36  37
ATOM     37  C   UNL A   1      38.664  30.397  29.737  1.00  0.00     0.031 A 
ATOM     38  C   UNL A   1      39.009  30.805  31.144  1.00  0.00     0.074 A 
ATOM     39  C   UNL A   1      39.449  29.526  29.075  1.00  0.00     0.049 A 
ATOM     40  N   UNL A   1      40.021  30.430  31.882  1.00  0.00    -0.248 NA
ATOM     41  C   UNL A   1      38.109  31.763  31.809  1.00  0.00     0.031 C 
ATOM     42  C   UNL A   1      39.206  29.065  27.707  1.00  0.00     0.029 A 
ATOM     43  N   UNL A   1      40.574  28.841  29.460  1.00  0.00    -0.354 N 
ATOM     44  C   UNL A   1      39.897  31.121  33.084  1.00  0.00     0.074 A 
ATOM     45  C   UNL A   1      38.729  31.963  32.965  1.00  0.00     0.031 C 
ATOM     46  C   UNL A   1      40.098  28.116  27.398  1.00  0.00     0.029 A 
ATOM     47  C   UNL A   1      41.033  27.961  28.508  1.00  0.00     0.049 A 
ATOM     48  H   UNL A   1      41.009  28.968  30.334  1.00  0.00     0.167 HD
ATOM     49  C   UNL A   1      40.681  31.045  34.186  1.00  0.00     0.034 A 
ATOM     50  C   UNL A   1      42.093  27.126  28.517  1.00  0.00     0.034 A 
ATOM     51  C   UNL A   1      41.826  30.177  34.294  1.00  0.00     0.049 A 
ATOM     52  C   UNL A   1      42.950  27.063  29.752  1.00  0.00     0.074 A 
ATOM     53  C   UNL A   1      42.670  30.008  35.378  1.00  0.00     0.029 A 
ATOM     54  N   UNL A   1      42.286  29.329  33.295  1.00  0.00    -0.354 N 
ATOM     55  N   UNL A   1      42.800  27.701  30.889  1.00  0.00    -0.248 NA
ATOM     56  C   UNL A   1      44.120  26.178  29.710  1.00  0.00     0.031 C 
ATOM     57  C   UNL A   1      43.670  29.105  35.015  1.00  0.00     0.029 A 
ATOM     58  C   UNL A   1      43.414  28.653  33.730  1.00  0.00     0.049 A 
ATOM     59  H   UNL A   1      41.870  29.223  32.409  1.00  0.00     0.167 HD
ATOM     60  C   UNL A   1      43.849  27.288  31.702  1.00  0.00     0.074 A 
ATOM     61  C   UNL A   1      44.609  26.320  30.936  1.00  0.00     0.031 C 
ATOM     62  C   UNL A   1      44.161  27.683  32.962  1.00  0.00     0.034 A 
BRANCH  49  63
ATOM     63  C   UNL A   1      40.343  31.913  35.374  1.00  0.00     0.023 A 
ATOM     64  C   UNL A   1      39.328  31.519  36.266  1.00  0.00     0.031 A 
ATOM     65  C   UNL A   1      40.938  33.173  35.560  1.00  0.00     0.131 A 
ATOM     66  C   UNL A   1      38.920  32.388  37.287  1.00  0.00     0.055 A 
ATOM     67  C   UNL A   1      40.555  34.019  36.603  1.00  0.00     0.041 A 
ATOM     68  F   UNL A   1      41.913  33.596  34.737  1.00  0.00    -0.206 F 
ATOM     69  C   UNL A   1      39.533  33.632  37.464  1.00  0.00     0.022 A 
BRANCH  66  70
ATOM     70  S   UNL A   1      37.539  31.966  38.384  1.00  0.00     0.124 S 
ATOM     71  O   UNL A   1      38.134  32.171  39.703  1.00  0.00    -0.237 OA
ATOM     72  O   UNL A   1      36.530  32.948  37.997  1.00  0.00    -0.237 OA
ATOM     73  O   UNL A   1      37.234  30.580  38.048  1.00  0.00    -0.744 OA
ENDBRANCH  66  70
ENDBRANCH  49  63
BRANCH  50  74
ATOM     74  C   UNL A   1      42.341  26.266  27.322  1.00  0.00     0.023 A 
ATOM     75  C   UNL A   1      41.857  24.944  27.275  1.00  0.00     0.031 A 
ATOM     76  C   UNL A   1      43.185  26.697  26.287  1.00  0.00     0.131 A 
ATOM     77  C   UNL A   1      42.301  24.075  26.270  1.00  0.00     0.055 A 
ATOM     78  C   UNL A   1      43.558  25.851  25.240  1.00  0.00     0.041 A 
ATOM     79  F   UNL A   1      43.682  27.944  26.294  1.00  0.00    -0.206 F 
ATOM     80  C   UNL A   1      43.134  24.525  25.243  1.00  0.00     0.022 A 
BRANCH  77  81
ATOM     81  S   UNL A   1      41.945  22.298  26.361  1.00  0.00     0.124 S 
ATOM     82  O   UNL A   1      42.756  21.769  25.269  1.00  0.00    -0.237 OA
ATOM     83  O   UNL A   1      42.408  21.971  27.708  1.00  0.00    -0.237 OA
ATOM     84  O   UNL A   1      40.501  22.225  26.169  1.00  0.00    -0.744 OA
ENDBRANCH  77  81
ENDBRANCH  50  74
BRANCH  62  85
ATOM     85  C   UNL A   1      45.379  27.087  33.622  1.00  0.00     0.023 A 
ATOM     86  C   UNL A   1      45.251  25.947  34.437  1.00  0.00     0.031 A 
ATOM     87  C   UNL A   1      46.626  27.735  33.571  1.00  0.00     0.131 A 
ATOM     88  C   UNL A   1      46.340  25.513  35.203  1.00  0.00     0.055 A 
ATOM     89  C   UNL A   1      47.722  27.269  34.301  1.00  0.00     0.041 A 
ATOM     90  F   UNL A   1      46.794  28.831  32.816  1.00  0.00    -0.206 F 
ATOM     91  C   UNL A   1      47.576  26.164  35.134  1.00  0.00     0.022 A 
BRANCH  88  92
ATOM     92  S   UNL A   1      46.165  24.150  36.388  1.00  0.00     0.124 S 
ATOM     93  O   UNL A   1      47.025  23.127  35.798  1.00  0.00    -0.237 OA
ATOM     94  O   UNL A   1      46.666  24.748  37.623  1.00  0.00    -0.237 OA
ATOM     95  O   UNL A   1      44.738  23.848  36.371  1.00  0.00    -0.744 OA
ENDBRANCH  88  92
ENDBRANCH  62  85
ENDBRANCH  36  37
ENDBRANCH  28  31
ENDBRANCH   1  27
TORSDOF 15
ENDMDL
MODEL 2
REMARK VINA RESULT:     -12.6      1.533      2.013
REMARK SMILES CC(C)(C)c1cc2c(cc1Cl)C=C(C(=O)NCCCNC(=O)c1ccc(-c3c4nc(c(-c5cc(S(=O)(=O)[O-])ccc5F)c5ccc([nH]5)c(-c5cc(S(=O)(=O)[O-])ccc5F)c5nc(c(-c6cc(S(=O)(=O)[O-])ccc6F)c6ccc3[nH]6)C=C5)C=C4)cc1)[C@@H](C(F)(F)F)O2
REMARK SMILES IDX 19 1 18 2 17 3 16 4 14 5 15 6 13 8 5 9 6 10 10 11 7 12 9 13
REMARK SMILES IDX 11 14 8 15 91 16 12 17 86 18 2 19 1 20 3 21 4 22 87 23 88 24
REMARK SMILES IDX 89 25 90 26 20 27 21 28 22 30 23 31 24 32 85 33 25 34 84 35
REMARK SMILES IDX 26 36 27 37 28 38 78 39 29 40 83 41 77 42 79 43 30 44 82 45
REMARK SMILES IDX 76 46 75 47 31 49 63 50 43 51 62 52 44 53 47 54 61 55 80 56
REMARK SMILES IDX 45 57 46 58 60 60 81 61 48 62 32 63 33 64 41 65 34 66 40 67
REMARK SMILES IDX 42 68 39 69 35 70 36 71 37 72 38 73 64 74 65 75 73 76 66 77
REMARK SMILES IDX 72 78 74 79 71 80 67 81 68 82 69 83 70 84 49 85 50 86 58 87
REMARK SMILES IDX 51 88 57 89 59 90 56 91 52 92 53 93 54 94 55 95
REMARK H PARENT 16 7 20 29 79 48 47 59
REMARK Flexibility Score: inf
ROOT
ATOM      1  C   UNL A   1      32.121  31.844  26.907  1.00  0.00     0.118 C 
ENDROOT
BRANCH   1   2
ATOM      2  C   UNL A   1      31.000  31.570  25.913  1.00  0.00     0.042 C 
BRANCH   2   3
ATOM      3  C   UNL A   1      31.232  30.296  25.115  1.00  0.00     0.118 C 
BRANCH   3   4
ATOM      4  N   UNL A   1      30.264  30.140  24.040  1.00  0.00    -0.352 N 
ATOM      5  C   UNL A   1      29.889  29.172  23.173  1.00  0.00     0.251 C 
ATOM      6  O   UNL A   1      28.983  29.484  22.394  1.00  0.00    -0.270 OA
ATOM      7  H   UNL A   1      29.739  30.963  23.907  1.00  0.00     0.163 HD
BRANCH   5   8
ATOM      8  C   UNL A   1      30.469  27.800  23.116  1.00  0.00     0.067 C 
ATOM      9  C   UNL A   1      31.710  22.956  24.055  1.00  0.00    -0.020 A 
ATOM     10  C   UNL A   1      31.926  23.887  23.007  1.00  0.00     0.053 A 
ATOM     11  C   UNL A   1      30.877  23.402  25.106  1.00  0.00     0.045 A 
ATOM     12  C   UNL A   1      31.365  25.161  23.005  1.00  0.00     0.128 A 
ATOM     13  C   UNL A   1      30.297  24.690  25.085  1.00  0.00     0.032 A 
ATOM     14  Cl  UNL A   1      30.491  22.494  26.525  1.00  0.00    -0.084 Cl
ATOM     15  C   UNL A   1      30.546  25.575  24.041  1.00  0.00     0.019 A 
ATOM     16  O   UNL A   1      31.649  25.954  21.931  1.00  0.00    -0.475 OA
ATOM     17  C   UNL A   1      29.976  26.916  24.005  1.00  0.00     0.025 C 
ATOM     18  C   UNL A   1      31.568  27.385  22.177  1.00  0.00     0.314 C 
BRANCH   9  19
ATOM     19  C   UNL A   1      32.457  21.604  23.936  1.00  0.00    -0.012 C 
ATOM     20  C   UNL A   1      32.133  20.925  22.575  1.00  0.00     0.016 C 
ATOM     21  C   UNL A   1      32.159  20.528  24.999  1.00  0.00     0.016 C 
ATOM     22  C   UNL A   1      33.975  21.891  23.998  1.00  0.00     0.016 C 
ENDBRANCH   9  19
BRANCH  18  23
ATOM     23  C   UNL A   1      32.953  27.899  22.617  1.00  0.00     0.429 C 
ATOM     24  F   UNL A   1      33.937  27.236  21.958  1.00  0.00    -0.167 F 
ATOM     25  F   UNL A   1      33.133  29.215  22.354  1.00  0.00    -0.167 F 
ATOM     26  F   UNL A   1      33.174  27.735  23.942  1.00  0.00    -0.167 F 
ENDBRANCH  18  23
ENDBRANCH   5   8
ENDBRANCH   3   4
ENDBRANCH   2   3
ENDBRANCH   1   2
BRANCH   1  27
ATOM     27  N   UNL A   1      32.195  33.255  27.282  1.00  0.00    -0.352 N 
ATOM     28  C   UNL A   1      33.099  33.919  28.076  1.00  0.00     0.251 C 
ATOM     29  H   UNL A   1      31.483  33.821  26.904  1.00  0.00     0.163 HD
ATOM     30  O   UNL A   1      32.850  35.062  28.451  1.00  0.00    -0.269 OA
BRANCH  28  31
ATOM     31  C   UNL A   1      34.345  33.246  28.495  1.00  0.00     0.039 A 
ATOM     32  C   UNL A   1      34.291  32.004  29.125  1.00  0.00     0.014 A 
ATOM     33  C   UNL A   1      35.578  33.867  28.276  1.00  0.00     0.014 A 
ATOM     34  C   UNL A   1      35.429  31.491  29.727  1.00  0.00     0.010 A 
ATOM     35  C   UNL A   1      36.745  33.285  28.780  1.00  0.00     0.010 A 
ATOM     36  C   UNL A   1      36.673  32.123  29.563  1.00  0.00    -0.014 A 
BRANCH  36  37
ATOM     37  C   UNL A   1      37.869  31.533  30.220  1.00  0.00     0.031 A 
ATOM     38  C   UNL A   1      38.203  31.854  31.652  1.00  0.00     0.074 A 
ATOM     39  C   UNL A   1      38.608  30.637  29.537  1.00  0.00     0.049 A 
ATOM     40  N   UNL A   1      39.167  31.375  32.396  1.00  0.00    -0.248 NA
ATOM     41  C   UNL A   1      37.355  32.842  32.338  1.00  0.00     0.031 C 
ATOM     42  C   UNL A   1      38.370  30.255  28.145  1.00  0.00     0.029 A 
ATOM     43  N   UNL A   1      39.672  29.859  29.918  1.00  0.00    -0.354 N 
ATOM     44  C   UNL A   1      39.060  32.020  33.624  1.00  0.00     0.074 A 
ATOM     45  C   UNL A   1      37.957  32.947  33.516  1.00  0.00     0.031 C 
ATOM     46  C   UNL A   1      39.202  29.260  27.814  1.00  0.00     0.029 A 
ATOM     47  C   UNL A   1      40.094  28.991  28.938  1.00  0.00     0.049 A 
ATOM     48  H   UNL A   1      40.092  29.916  30.806  1.00  0.00     0.167 HD
ATOM     49  C   UNL A   1      39.806  31.841  34.740  1.00  0.00     0.034 A 
ATOM     50  C   UNL A   1      41.092  28.083  28.934  1.00  0.00     0.034 A 
ATOM     51  C   UNL A   1      40.885  30.890  34.836  1.00  0.00     0.049 A 
ATOM     52  C   UNL A   1      41.910  27.906  30.184  1.00  0.00     0.074 A 
ATOM     53  C   UNL A   1      41.686  30.615  35.930  1.00  0.00     0.029 A 
ATOM     54  N   UNL A   1      41.311  30.056  33.811  1.00  0.00    -0.354 N 
ATOM     55  N   UNL A   1      41.774  28.502  31.345  1.00  0.00    -0.248 NA
ATOM     56  C   UNL A   1      43.016  26.942  30.130  1.00  0.00     0.031 C 
ATOM     57  C   UNL A   1      42.630  29.660  35.551  1.00  0.00     0.029 A 
ATOM     58  C   UNL A   1      42.377  29.283  34.241  1.00  0.00     0.049 A 
ATOM     59  H   UNL A   1      40.913  30.019  32.911  1.00  0.00     0.167 HD
ATOM     60  C   UNL A   1      42.770  27.981  32.163  1.00  0.00     0.074 A 
ATOM     61  C   UNL A   1      43.481  26.995  31.372  1.00  0.00     0.031 C 
ATOM     62  C   UNL A   1      43.074  28.298  33.447  1.00  0.00     0.034 A 
BRANCH  49  63
ATOM     63  C   UNL A   1      39.498  32.678  35.958  1.00  0.00     0.023 A 
ATOM     64  C   UNL A   1      38.639  32.178  36.955  1.00  0.00     0.031 A 
ATOM     65  C   UNL A   1      39.956  34.002  36.078  1.00  0.00     0.131 A 
ATOM     66  C   UNL A   1      38.243  33.007  38.014  1.00  0.00     0.055 A 
ATOM     67  C   UNL A   1      39.590  34.810  37.157  1.00  0.00     0.041 A 
ATOM     68  F   UNL A   1      40.779  34.526  35.155  1.00  0.00    -0.206 F 
ATOM     69  C   UNL A   1      38.721  34.316  38.124  1.00  0.00     0.022 A 
BRANCH  66  70
ATOM     70  S   UNL A   1      37.049  32.439  39.255  1.00  0.00     0.124 S 
ATOM     71  O   UNL A   1      37.350  31.011  39.327  1.00  0.00    -0.237 OA
ATOM     72  O   UNL A   1      37.435  33.216  40.428  1.00  0.00    -0.237 OA
ATOM     73  O   UNL A   1      35.753  32.772  38.675  1.00  0.00    -0.744 OA
ENDBRANCH  66  70
ENDBRANCH  49  63
BRANCH  50  74
ATOM     74  C   UNL A   1      41.312  27.260  27.707  1.00  0.00     0.023 A 
ATOM     75  C   UNL A   1      40.947  25.901  27.679  1.00  0.00     0.031 A 
ATOM     76  C   UNL A   1      42.020  27.777  26.611  1.00  0.00     0.131 A 
ATOM     77  C   UNL A   1      41.377  25.085  26.626  1.00  0.00     0.055 A 
ATOM     78  C   UNL A   1      42.374  26.977  25.521  1.00  0.00     0.041 A 
ATOM     79  F   UNL A   1      42.401  29.063  26.597  1.00  0.00    -0.206 F 
ATOM     80  C   UNL A   1      42.074  25.618  25.538  1.00  0.00     0.022 A 
BRANCH  77  81
ATOM     81  S   UNL A   1      41.193  23.282  26.716  1.00  0.00     0.124 S 
ATOM     82  O   UNL A   1      41.649  22.996  28.072  1.00  0.00    -0.237 OA
ATOM     83  O   UNL A   1      39.759  23.118  26.483  1.00  0.00    -0.237 OA
ATOM     84  O   UNL A   1      42.054  22.794  25.643  1.00  0.00    -0.744 OA
ENDBRANCH  77  81
ENDBRANCH  50  74
BRANCH  62  85
ATOM     85  C   UNL A   1      44.230  27.588  34.108  1.00  0.00     0.023 A 
ATOM     86  C   UNL A   1      44.001  26.428  34.870  1.00  0.00     0.031 A 
ATOM     87  C   UNL A   1      45.521  28.146  34.113  1.00  0.00     0.131 A 
ATOM     88  C   UNL A   1      45.036  25.885  35.641  1.00  0.00     0.055 A 
ATOM     89  C   UNL A   1      46.562  27.573  34.847  1.00  0.00     0.041 A 
ATOM     90  F   UNL A   1      45.786  29.258  33.410  1.00  0.00    -0.206 F 
ATOM     91  C   UNL A   1      46.316  26.447  35.627  1.00  0.00     0.022 A 
BRANCH  88  92
ATOM     92  S   UNL A   1      44.735  24.490  36.761  1.00  0.00     0.124 S 
ATOM     93  O   UNL A   1      43.784  25.065  37.709  1.00  0.00    -0.237 OA
ATOM     94  O   UNL A   1      44.183  23.482  35.858  1.00  0.00    -0.237 OA
ATOM     95  O   UNL A   1      46.052  24.187  37.309  1.00  0.00    -0.744 OA
ENDBRANCH  88  92
ENDBRANCH  62  85
ENDBRANCH  36  37
ENDBRANCH  28  31
ENDBRANCH   1  27
TORSDOF 15
ENDMDL
MODEL 3
REMARK VINA RESULT:     -12.6      2.229      2.920
REMARK SMILES CC(C)(C)c1cc2c(cc1Cl)C=C(C(=O)NCCCNC(=O)c1ccc(-c3c4nc(c(-c5cc(S(=O)(=O)[O-])ccc5F)c5ccc([nH]5)c(-c5cc(S(=O)(=O)[O-])ccc5F)c5nc(c(-c6cc(S(=O)(=O)[O-])ccc6F)c6ccc3[nH]6)C=C5)C=C4)cc1)[C@@H](C(F)(F)F)O2
REMARK SMILES IDX 19 1 18 2 17 3 16 4 14 5 15 6 13 8 5 9 6 10 10 11 7 12 9 13
REMARK SMILES IDX 11 14 8 15 91 16 12 17 86 18 2 19 1 20 3 21 4 22 87 23 88 24
REMARK SMILES IDX 89 25 90 26 20 27 21 28 22 30 23 31 24 32 85 33 25 34 84 35
REMARK SMILES IDX 26 36 27 37 28 38 78 39 29 40 83 41 77 42 79 43 30 44 82 45
REMARK SMILES IDX 76 46 75 47 31 49 63 50 43 51 62 52 44 53 47 54 61 55 80 56
REMARK SMILES IDX 45 57 46 58 60 60 81 61 48 62 32 63 33 64 41 65 34 66 40 67
REMARK SMILES IDX 42 68 39 69 35 70 36 71 37 72 38 73 64 74 65 75 73 76 66 77
REMARK SMILES IDX 72 78 74 79 71 80 67 81 68 82 69 83 70 84 49 85 50 86 58 87
REMARK SMILES IDX 51 88 57 89 59 90 56 91 52 92 53 93 54 94 55 95
REMARK H PARENT 16 7 20 29 79 48 47 59
REMARK Flexibility Score: inf
ROOT
ATOM      1  C   UNL A   1      32.948  32.291  27.405  1.00  0.00     0.118 C 
ENDROOT
BRANCH   1   2
ATOM      2  C   UNL A   1      31.789  31.593  26.706  1.00  0.00     0.042 C 
BRANCH   2   3
ATOM      3  C   UNL A   1      32.243  30.387  25.898  1.00  0.00     0.118 C 
BRANCH   3   4
ATOM      4  N   UNL A   1      31.187  29.879  25.034  1.00  0.00    -0.352 N 
ATOM      5  C   UNL A   1      30.976  28.792  24.257  1.00  0.00     0.251 C 
ATOM      6  O   UNL A   1      29.888  28.765  23.673  1.00  0.00    -0.270 OA
ATOM      7  H   UNL A   1      30.417  30.493  25.009  1.00  0.00     0.163 HD
BRANCH   5   8
ATOM      8  C   UNL A   1      31.932  27.661  24.084  1.00  0.00     0.067 C 
ATOM      9  C   UNL A   1      34.838  23.545  24.786  1.00  0.00    -0.020 A 
ATOM     10  C   UNL A   1      34.491  24.383  23.696  1.00  0.00     0.053 A 
ATOM     11  C   UNL A   1      34.182  23.825  26.007  1.00  0.00     0.045 A 
ATOM     12  C   UNL A   1      33.569  25.421  23.809  1.00  0.00     0.128 A 
ATOM     13  C   UNL A   1      33.234  24.868  26.105  1.00  0.00     0.032 A 
ATOM     14  Cl  UNL A   1      34.454  22.997  27.498  1.00  0.00    -0.084 Cl
ATOM     15  C   UNL A   1      32.932  25.674  25.012  1.00  0.00     0.019 A 
ATOM     16  O   UNL A   1      33.322  26.146  22.680  1.00  0.00    -0.475 OA
ATOM     17  C   UNL A   1      31.973  26.768  25.092  1.00  0.00     0.025 C 
ATOM     18  C   UNL A   1      32.849  27.503  22.904  1.00  0.00     0.314 C 
BRANCH   9  19
ATOM     19  C   UNL A   1      35.926  22.478  24.511  1.00  0.00    -0.012 C 
ATOM     20  C   UNL A   1      35.317  21.050  24.593  1.00  0.00     0.016 C 
ATOM     21  C   UNL A   1      37.147  22.444  25.451  1.00  0.00     0.016 C 
ATOM     22  C   UNL A   1      36.466  22.705  23.080  1.00  0.00     0.016 C 
ENDBRANCH   9  19
BRANCH  18  23
ATOM     23  C   UNL A   1      34.061  28.454  22.959  1.00  0.00     0.429 C 
ATOM     24  F   UNL A   1      33.654  29.747  22.898  1.00  0.00    -0.167 F 
ATOM     25  F   UNL A   1      34.775  28.329  24.103  1.00  0.00    -0.167 F 
ATOM     26  F   UNL A   1      34.928  28.256  21.939  1.00  0.00    -0.167 F 
ENDBRANCH  18  23
ENDBRANCH   5   8
ENDBRANCH   3   4
ENDBRANCH   2   3
ENDBRANCH   1   2
BRANCH   1  27
ATOM     27  N   UNL A   1      32.668  33.703  27.663  1.00  0.00    -0.352 N 
ATOM     28  C   UNL A   1      33.173  34.550  28.621  1.00  0.00     0.251 C 
ATOM     29  H   UNL A   1      32.013  34.112  27.053  1.00  0.00     0.163 HD
ATOM     30  O   UNL A   1      32.636  35.638  28.811  1.00  0.00    -0.269 OA
BRANCH  28  31
ATOM     31  C   UNL A   1      34.337  34.136  29.430  1.00  0.00     0.039 A 
ATOM     32  C   UNL A   1      35.625  34.500  29.040  1.00  0.00     0.014 A 
ATOM     33  C   UNL A   1      34.146  33.364  30.579  1.00  0.00     0.014 A 
ATOM     34  C   UNL A   1      36.719  33.915  29.658  1.00  0.00     0.010 A 
ATOM     35  C   UNL A   1      35.255  32.874  31.276  1.00  0.00     0.010 A 
ATOM     36  C   UNL A   1      36.551  33.094  30.786  1.00  0.00    -0.014 A 
BRANCH  36  37
ATOM     37  C   UNL A   1      37.753  32.495  31.421  1.00  0.00     0.031 A 
ATOM     38  C   UNL A   1      38.204  32.930  32.789  1.00  0.00     0.074 A 
ATOM     39  C   UNL A   1      38.391  31.492  30.786  1.00  0.00     0.049 A 
ATOM     40  N   UNL A   1      39.188  32.465  33.515  1.00  0.00    -0.248 NA
ATOM     41  C   UNL A   1      37.464  34.032  33.425  1.00  0.00     0.031 C 
ATOM     42  C   UNL A   1      38.035  30.993  29.457  1.00  0.00     0.029 A 
ATOM     43  N   UNL A   1      39.432  30.687  31.175  1.00  0.00    -0.354 N 
ATOM     44  C   UNL A   1      39.204  33.230  34.676  1.00  0.00     0.074 A 
ATOM     45  C   UNL A   1      38.151  34.212  34.546  1.00  0.00     0.031 C 
ATOM     46  C   UNL A   1      38.784  29.920  29.176  1.00  0.00     0.029 A 
ATOM     47  C   UNL A   1      39.735  29.704  30.262  1.00  0.00     0.049 A 
ATOM     48  H   UNL A   1      39.915  30.803  32.024  1.00  0.00     0.167 HD
ATOM     49  C   UNL A   1      40.014  33.113  35.755  1.00  0.00     0.034 A 
ATOM     50  C   UNL A   1      40.677  28.738  30.285  1.00  0.00     0.034 A 
ATOM     51  C   UNL A   1      41.041  32.108  35.878  1.00  0.00     0.049 A 
ATOM     52  C   UNL A   1      41.568  28.631  31.493  1.00  0.00     0.074 A 
ATOM     53  C   UNL A   1      41.899  31.890  36.941  1.00  0.00     0.029 A 
ATOM     54  N   UNL A   1      41.346  31.154  34.916  1.00  0.00    -0.354 N 
ATOM     55  N   UNL A   1      41.548  29.344  32.595  1.00  0.00    -0.248 NA
ATOM     56  C   UNL A   1      42.610  27.598  31.466  1.00  0.00     0.031 C 
ATOM     57  C   UNL A   1      42.758  30.844  36.600  1.00  0.00     0.029 A 
ATOM     58  C   UNL A   1      42.394  30.360  35.353  1.00  0.00     0.049 A 
ATOM     59  H   UNL A   1      40.885  31.056  34.052  1.00  0.00     0.167 HD
ATOM     60  C   UNL A   1      42.566  28.841  33.396  1.00  0.00     0.074 A 
ATOM     61  C   UNL A   1      43.163  27.741  32.664  1.00  0.00     0.031 C 
ATOM     62  C   UNL A   1      42.977  29.260  34.620  1.00  0.00     0.034 A 
BRANCH  49  63
ATOM     63  C   UNL A   1      39.840  34.081  36.900  1.00  0.00     0.023 A 
ATOM     64  C   UNL A   1      39.291  33.637  38.118  1.00  0.00     0.031 A 
ATOM     65  C   UNL A   1      40.106  35.454  36.752  1.00  0.00     0.131 A 
ATOM     66  C   UNL A   1      39.001  34.562  39.130  1.00  0.00     0.055 A 
ATOM     67  C   UNL A   1      39.851  36.365  37.778  1.00  0.00     0.041 A 
ATOM     68  F   UNL A   1      40.631  35.928  35.610  1.00  0.00    -0.206 F 
ATOM     69  C   UNL A   1      39.285  35.922  38.969  1.00  0.00     0.022 A 
BRANCH  66  70
ATOM     70  S   UNL A   1      38.188  34.048  40.668  1.00  0.00     0.124 S 
ATOM     71  O   UNL A   1      39.203  33.183  41.266  1.00  0.00    -0.237 OA
ATOM     72  O   UNL A   1      37.981  35.325  41.345  1.00  0.00    -0.237 OA
ATOM     73  O   UNL A   1      36.979  33.369  40.217  1.00  0.00    -0.744 OA
ENDBRANCH  66  70
ENDBRANCH  49  63
BRANCH  50  74
ATOM     74  C   UNL A   1      40.764  27.789  29.137  1.00  0.00     0.023 A 
ATOM     75  C   UNL A   1      41.714  27.982  28.116  1.00  0.00     0.031 A 
ATOM     76  C   UNL A   1      39.810  26.773  28.968  1.00  0.00     0.131 A 
ATOM     77  C   UNL A   1      41.627  27.238  26.933  1.00  0.00     0.055 A 
ATOM     78  C   UNL A   1      39.779  25.977  27.821  1.00  0.00     0.041 A 
ATOM     79  F   UNL A   1      38.876  26.559  29.907  1.00  0.00    -0.206 F 
ATOM     80  C   UNL A   1      40.676  26.224  26.785  1.00  0.00     0.022 A 
BRANCH  77  81
ATOM     81  S   UNL A   1      42.633  27.676  25.487  1.00  0.00     0.124 S 
ATOM     82  O   UNL A   1      41.952  28.867  24.991  1.00  0.00    -0.237 OA
ATOM     83  O   UNL A   1      43.942  27.903  26.095  1.00  0.00    -0.237 OA
ATOM     84  O   UNL A   1      42.543  26.495  24.635  1.00  0.00    -0.744 OA
ENDBRANCH  77  81
ENDBRANCH  50  74
BRANCH  62  85
ATOM     85  C   UNL A   1      44.133  28.545  35.274  1.00  0.00     0.023 A 
ATOM     86  C   UNL A   1      43.890  27.536  36.224  1.00  0.00     0.031 A 
ATOM     87  C   UNL A   1      45.459  28.969  35.075  1.00  0.00     0.131 A 
ATOM     88  C   UNL A   1      44.952  27.014  36.972  1.00  0.00     0.055 A 
ATOM     89  C   UNL A   1      46.520  28.411  35.789  1.00  0.00     0.041 A 
ATOM     90  F   UNL A   1      45.739  29.936  34.186  1.00  0.00    -0.206 F 
ATOM     91  C   UNL A   1      46.267  27.440  36.754  1.00  0.00     0.022 A 
BRANCH  88  92
ATOM     92  S   UNL A   1      44.657  25.833  38.317  1.00  0.00     0.124 S 
ATOM     93  O   UNL A   1      43.850  26.626  39.241  1.00  0.00    -0.237 OA
ATOM     94  O   UNL A   1      43.945  24.757  37.633  1.00  0.00    -0.237 OA
ATOM     95  O   UNL A   1      45.995  25.497  38.792  1.00  0.00    -0.744 OA
ENDBRANCH  88  92
ENDBRANCH  62  85
ENDBRANCH  36  37
ENDBRANCH  28  31
ENDBRANCH   1  27
TORSDOF 15
ENDMDL
