MODEL 1
REMARK VINA RESULT:     -13.1      0.000      0.000
REMARK SMILES O=C(NCCCNC(=O)c1ccc(N2C(=O)/C(=C/C3=c4ccccc4=NC3)SC2=S)cc1O)c1ccc(-c2c3nc(c(-c4cc(S(=O)(=O)[O-])ccc4F)c4ccc([nH]4)c(-c4cc(S(=O)(=O)[O-])ccc4F)c4nc(c(-c5cc(S(=O)(=O)[O-])ccc5F)c5ccc2[nH]5)C=C4)C=C3)cc1
REMARK SMILES IDX 4 1 3 2 1 3 2 4 34 6 35 7 96 8 36 9 95 10 37 11 38 12 39 13
REMARK SMILES IDX 89 14 40 15 94 16 88 17 90 18 41 19 93 20 87 21 86 22 42 24
REMARK SMILES IDX 74 25 54 26 73 27 55 28 58 29 72 30 91 31 56 32 57 33 71 35
REMARK SMILES IDX 92 36 59 37 43 38 44 39 52 40 45 41 51 42 53 43 50 44 46 45
REMARK SMILES IDX 47 46 48 47 49 48 75 49 76 50 84 51 77 52 83 53 85 54 82 55
REMARK SMILES IDX 78 56 79 57 80 58 81 59 60 60 61 61 69 62 62 63 68 64 70 65
REMARK SMILES IDX 67 66 63 67 64 68 65 69 66 70 5 71 6 72 7 73 8 74 9 76 10 77
REMARK SMILES IDX 11 78 32 79 12 80 31 81 13 82 33 83 14 85 15 86 29 87 16 88
REMARK SMILES IDX 17 89 28 90 30 91 18 92 19 93 20 94 27 95 21 96 25 97 26 98
REMARK SMILES IDX 22 99 24 100 23 101
REMARK H PARENT 3 5 90 23 58 34 7 75 33 84
REMARK Flexibility Score: inf
ROOT
ATOM      1  C   UNL A   1      32.451  32.640  27.057  1.00  0.00     0.118 C 
ENDROOT
BRANCH   1   2
ATOM      2  N   UNL A   1      32.516  33.986  27.607  1.00  0.00    -0.352 N 
ATOM      3  O   UNL A   1      33.073  35.608  29.054  1.00  0.00    -0.269 OA
ATOM      4  C   UNL A   1      33.340  34.509  28.572  1.00  0.00     0.251 C 
ATOM      5  H   UNL A   1      31.867  34.621  27.227  1.00  0.00     0.163 HD
BRANCH   4   6
ATOM      6  C   UNL A   1      34.540  33.773  29.030  1.00  0.00     0.039 A 
ATOM      7  C   UNL A   1      34.372  32.645  29.840  1.00  0.00     0.014 A 
ATOM      8  C   UNL A   1      35.827  34.234  28.743  1.00  0.00     0.014 A 
ATOM      9  C   UNL A   1      35.490  31.979  30.351  1.00  0.00     0.010 A 
ATOM     10  C   UNL A   1      36.939  33.517  29.172  1.00  0.00     0.010 A 
ATOM     11  C   UNL A   1      36.783  32.410  30.019  1.00  0.00    -0.014 A 
BRANCH  11  12
ATOM     12  C   UNL A   1      37.993  31.801  30.629  1.00  0.00     0.031 A 
ATOM     13  C   UNL A   1      38.733  30.730  29.870  1.00  0.00     0.074 A 
ATOM     14  C   UNL A   1      38.393  32.156  31.865  1.00  0.00     0.049 A 
ATOM     15  N   UNL A   1      39.718  29.972  30.266  1.00  0.00    -0.248 NA
ATOM     16  C   UNL A   1      38.287  30.460  28.491  1.00  0.00     0.031 C 
ATOM     17  C   UNL A   1      37.747  33.170  32.697  1.00  0.00     0.029 A 
ATOM     18  N   UNL A   1      39.424  31.690  32.644  1.00  0.00    -0.354 N 
ATOM     19  C   UNL A   1      39.991  29.120  29.202  1.00  0.00     0.074 A 
ATOM     20  C   UNL A   1      39.038  29.419  28.160  1.00  0.00     0.031 C 
ATOM     21  C   UNL A   1      38.395  33.250  33.868  1.00  0.00     0.029 A 
ATOM     22  C   UNL A   1      39.466  32.255  33.898  1.00  0.00     0.049 A 
ATOM     23  H   UNL A   1      40.071  31.016  32.335  1.00  0.00     0.167 HD
ATOM     24  C   UNL A   1      40.967  28.191  29.098  1.00  0.00     0.034 A 
ATOM     25  C   UNL A   1      40.254  31.983  34.961  1.00  0.00     0.034 A 
ATOM     26  C   UNL A   1      41.945  27.946  30.123  1.00  0.00     0.049 A 
ATOM     27  C   UNL A   1      41.337  30.939  34.822  1.00  0.00     0.074 A 
ATOM     28  C   UNL A   1      43.018  27.074  30.079  1.00  0.00     0.029 A 
ATOM     29  N   UNL A   1      41.981  28.566  31.362  1.00  0.00    -0.354 N 
ATOM     30  N   UNL A   1      41.630  30.195  33.780  1.00  0.00    -0.248 NA
ATOM     31  C   UNL A   1      42.202  30.698  35.985  1.00  0.00     0.031 C 
ATOM     32  C   UNL A   1      43.654  27.109  31.316  1.00  0.00     0.029 A 
ATOM     33  C   UNL A   1      43.040  28.072  32.102  1.00  0.00     0.049 A 
ATOM     34  H   UNL A   1      41.348  29.256  31.669  1.00  0.00     0.167 HD
ATOM     35  C   UNL A   1      42.729  29.425  34.154  1.00  0.00     0.074 A 
ATOM     36  C   UNL A   1      43.062  29.805  35.509  1.00  0.00     0.031 C 
ATOM     37  C   UNL A   1      43.393  28.484  33.439  1.00  0.00     0.034 A 
BRANCH  24  38
ATOM     38  C   UNL A   1      41.080  27.376  27.834  1.00  0.00     0.023 A 
ATOM     39  C   UNL A   1      40.738  26.011  27.858  1.00  0.00     0.031 A 
ATOM     40  C   UNL A   1      41.699  27.889  26.682  1.00  0.00     0.131 A 
ATOM     41  C   UNL A   1      41.082  25.190  26.779  1.00  0.00     0.055 A 
ATOM     42  C   UNL A   1      41.990  27.077  25.586  1.00  0.00     0.041 A 
ATOM     43  F   UNL A   1      42.045  29.185  26.611  1.00  0.00    -0.206 F 
ATOM     44  C   UNL A   1      41.700  25.716  25.640  1.00  0.00     0.022 A 
BRANCH  41  45
ATOM     45  S   UNL A   1      40.828  23.396  26.854  1.00  0.00     0.124 S 
ATOM     46  O   UNL A   1      41.778  22.915  25.852  1.00  0.00    -0.237 OA
ATOM     47  O   UNL A   1      41.178  23.098  28.240  1.00  0.00    -0.237 OA
ATOM     48  O   UNL A   1      39.421  23.225  26.505  1.00  0.00    -0.744 OA
ENDBRANCH  41  45
ENDBRANCH  24  38
BRANCH  25  49
ATOM     49  C   UNL A   1      40.046  32.740  36.232  1.00  0.00     0.023 A 
ATOM     50  C   UNL A   1      39.131  32.281  37.199  1.00  0.00     0.031 A 
ATOM     51  C   UNL A   1      40.671  33.978  36.456  1.00  0.00     0.131 A 
ATOM     52  C   UNL A   1      38.811  33.086  38.300  1.00  0.00     0.055 A 
ATOM     53  C   UNL A   1      40.411  34.740  37.598  1.00  0.00     0.041 A 
ATOM     54  F   UNL A   1      41.541  34.469  35.560  1.00  0.00    -0.206 F 
ATOM     55  C   UNL A   1      39.461  34.305  38.517  1.00  0.00     0.022 A 
BRANCH  52  56
ATOM     56  S   UNL A   1      37.436  32.650  39.399  1.00  0.00     0.124 S 
ATOM     57  O   UNL A   1      36.294  32.686  38.491  1.00  0.00    -0.237 OA
ATOM     58  O   UNL A   1      37.833  31.321  39.861  1.00  0.00    -0.237 OA
ATOM     59  O   UNL A   1      37.465  33.691  40.421  1.00  0.00    -0.744 OA
ENDBRANCH  52  56
ENDBRANCH  25  49
BRANCH  37  60
ATOM     60  C   UNL A   1      44.581  27.782  34.055  1.00  0.00     0.023 A 
ATOM     61  C   UNL A   1      44.371  26.663  34.886  1.00  0.00     0.031 A 
ATOM     62  C   UNL A   1      45.867  28.346  34.009  1.00  0.00     0.131 A 
ATOM     63  C   UNL A   1      45.412  26.191  35.695  1.00  0.00     0.055 A 
ATOM     64  C   UNL A   1      46.916  27.833  34.773  1.00  0.00     0.041 A 
ATOM     65  F   UNL A   1      46.113  29.420  33.243  1.00  0.00    -0.206 F 
ATOM     66  C   UNL A   1      46.685  26.765  35.637  1.00  0.00     0.022 A 
BRANCH  63  67
ATOM     67  S   UNL A   1      45.118  24.901  36.937  1.00  0.00     0.124 S 
ATOM     68  O   UNL A   1      45.610  23.706  36.254  1.00  0.00    -0.237 OA
ATOM     69  O   UNL A   1      45.933  25.360  38.056  1.00  0.00    -0.237 OA
ATOM     70  O   UNL A   1      43.675  24.940  37.152  1.00  0.00    -0.744 OA
ENDBRANCH  63  67
ENDBRANCH  37  60
ENDBRANCH  11  12
ENDBRANCH   4   6
ENDBRANCH   1   2
BRANCH   1  71
ATOM     71  C   UNL A   1      31.075  32.310  26.500  1.00  0.00     0.042 C 
BRANCH  71  72
ATOM     72  C   UNL A   1      31.039  31.060  25.636  1.00  0.00     0.118 C 
BRANCH  72  73
ATOM     73  N   UNL A   1      30.049  31.138  24.575  1.00  0.00    -0.352 N 
ATOM     74  C   UNL A   1      29.757  30.211  23.608  1.00  0.00     0.255 C 
ATOM     75  H   UNL A   1      29.517  31.967  24.548  1.00  0.00     0.163 HD
ATOM     76  O   UNL A   1      28.938  30.464  22.728  1.00  0.00    -0.269 OA
BRANCH  74  77
ATOM     77  C   UNL A   1      30.472  28.921  23.580  1.00  0.00     0.081 A 
ATOM     78  C   UNL A   1      31.870  28.956  23.559  1.00  0.00     0.020 A 
ATOM     79  C   UNL A   1      29.807  27.692  23.563  1.00  0.00     0.130 A 
ATOM     80  C   UNL A   1      32.602  27.764  23.548  1.00  0.00     0.028 A 
ATOM     81  C   UNL A   1      30.536  26.506  23.548  1.00  0.00     0.073 A 
ATOM     82  C   UNL A   1      31.940  26.530  23.517  1.00  0.00     0.054 A 
BRANCH  79  83
ATOM     83  O   UNL A   1      28.440  27.636  23.567  1.00  0.00    -0.507 OA
ATOM     84  H   UNL A   1      27.950  28.200  24.134  1.00  0.00     0.293 HD
ENDBRANCH  79  83
BRANCH  82  85
ATOM     85  N   UNL A   1      32.669  25.306  23.469  1.00  0.00    -0.261 N 
ATOM     86  C   UNL A   1      33.100  24.703  24.650  1.00  0.00     0.270 C 
ATOM     87  C   UNL A   1      32.976  24.639  22.288  1.00  0.00     0.152 C 
ATOM     88  O   UNL A   1      32.987  25.124  25.790  1.00  0.00    -0.268 OA
ATOM     89  C   UNL A   1      33.705  23.373  24.347  1.00  0.00     0.081 C 
ATOM     90  S   UNL A   1      33.719  23.092  22.655  1.00  0.00    -0.054 SA
ATOM     91  S   UNL A   1      32.820  25.139  20.697  1.00  0.00    -0.051 S 
ATOM     92  C   UNL A   1      34.096  22.526  25.307  1.00  0.00     0.027 C 
BRANCH  92  93
ATOM     93  C   UNL A   1      34.652  21.210  25.096  1.00  0.00    -0.016 C 
ATOM     94  C   UNL A   1      33.987  20.120  24.722  1.00  0.00     0.005 A 
ATOM     95  C   UNL A   1      36.111  20.899  25.278  1.00  0.00     0.179 C 
ATOM     96  C   UNL A   1      32.627  19.810  24.413  1.00  0.00     0.011 A 
ATOM     97  C   UNL A   1      35.051  19.105  24.632  1.00  0.00     0.065 A 
ATOM     98  N   UNL A   1      36.261  19.461  24.937  1.00  0.00    -0.280 NA
ATOM     99  C   UNL A   1      32.323  18.560  24.024  1.00  0.00     0.001 A 
ATOM    100  C   UNL A   1      34.639  17.757  24.189  1.00  0.00     0.028 A 
ATOM    101  C   UNL A   1      33.344  17.532  23.907  1.00  0.00     0.002 A 
ENDBRANCH  92  93
ENDBRANCH  82  85
ENDBRANCH  74  77
ENDBRANCH  72  73
ENDBRANCH  71  72
ENDBRANCH   1  71
TORSDOF 16
ENDMDL
MODEL 2
REMARK VINA RESULT:     -13.0      2.118      2.572
REMARK SMILES O=C(NCCCNC(=O)c1ccc(N2C(=O)/C(=C/C3=c4ccccc4=NC3)SC2=S)cc1O)c1ccc(-c2c3nc(c(-c4cc(S(=O)(=O)[O-])ccc4F)c4ccc([nH]4)c(-c4cc(S(=O)(=O)[O-])ccc4F)c4nc(c(-c5cc(S(=O)(=O)[O-])ccc5F)c5ccc2[nH]5)C=C4)C=C3)cc1
REMARK SMILES IDX 4 1 3 2 1 3 2 4 34 6 35 7 96 8 36 9 95 10 37 11 38 12 39 13
REMARK SMILES IDX 89 14 40 15 94 16 88 17 90 18 41 19 93 20 87 21 86 22 42 24
REMARK SMILES IDX 74 25 54 26 73 27 55 28 58 29 72 30 91 31 56 32 57 33 71 35
REMARK SMILES IDX 92 36 59 37 43 38 44 39 52 40 45 41 51 42 53 43 50 44 46 45
REMARK SMILES IDX 47 46 48 47 49 48 75 49 76 50 84 51 77 52 83 53 85 54 82 55
REMARK SMILES IDX 78 56 79 57 80 58 81 59 60 60 61 61 69 62 62 63 68 64 70 65
REMARK SMILES IDX 67 66 63 67 64 68 65 69 66 70 5 71 6 72 7 73 8 74 9 76 10 77
REMARK SMILES IDX 11 78 32 79 12 80 31 81 13 82 33 83 14 85 15 86 29 87 16 88
REMARK SMILES IDX 17 89 28 90 30 91 18 92 19 93 20 94 27 95 21 96 25 97 26 98
REMARK SMILES IDX 22 99 24 100 23 101
REMARK H PARENT 3 5 90 23 58 34 7 75 33 84
REMARK Flexibility Score: inf
ROOT
ATOM      1  C   UNL A   1      32.835  32.441  27.364  1.00  0.00     0.118 C 
ENDROOT
BRANCH   1   2
ATOM      2  N   UNL A   1      32.629  33.858  27.624  1.00  0.00    -0.352 N 
ATOM      3  O   UNL A   1      32.703  35.785  28.770  1.00  0.00    -0.269 OA
ATOM      4  C   UNL A   1      33.190  34.673  28.575  1.00  0.00     0.251 C 
ATOM      5  H   UNL A   1      31.987  34.301  27.025  1.00  0.00     0.163 HD
BRANCH   4   6
ATOM      6  C   UNL A   1      34.367  34.235  29.357  1.00  0.00     0.039 A 
ATOM      7  C   UNL A   1      35.647  34.507  28.862  1.00  0.00     0.014 A 
ATOM      8  C   UNL A   1      34.223  33.485  30.527  1.00  0.00     0.014 A 
ATOM      9  C   UNL A   1      36.774  34.036  29.541  1.00  0.00     0.010 A 
ATOM     10  C   UNL A   1      35.345  33.097  31.253  1.00  0.00     0.010 A 
ATOM     11  C   UNL A   1      36.631  33.328  30.743  1.00  0.00    -0.014 A 
BRANCH  11  12
ATOM     12  C   UNL A   1      37.794  32.716  31.435  1.00  0.00     0.031 A 
ATOM     13  C   UNL A   1      38.476  31.529  30.806  1.00  0.00     0.074 A 
ATOM     14  C   UNL A   1      38.201  33.175  32.634  1.00  0.00     0.049 A 
ATOM     15  N   UNL A   1      39.409  30.760  31.296  1.00  0.00    -0.248 NA
ATOM     16  C   UNL A   1      38.031  31.142  29.454  1.00  0.00     0.031 C 
ATOM     17  C   UNL A   1      37.609  34.307  33.343  1.00  0.00     0.029 A 
ATOM     18  N   UNL A   1      39.192  32.734  33.476  1.00  0.00    -0.354 N 
ATOM     19  C   UNL A   1      39.642  29.785  30.332  1.00  0.00     0.074 A 
ATOM     20  C   UNL A   1      38.721  30.029  29.248  1.00  0.00     0.031 C 
ATOM     21  C   UNL A   1      38.246  34.472  34.512  1.00  0.00     0.029 A 
ATOM     22  C   UNL A   1      39.255  33.424  34.665  1.00  0.00     0.049 A 
ATOM     23  H   UNL A   1      39.801  31.994  33.250  1.00  0.00     0.167 HD
ATOM     24  C   UNL A   1      40.561  28.794  30.343  1.00  0.00     0.034 A 
ATOM     25  C   UNL A   1      40.013  33.220  35.764  1.00  0.00     0.034 A 
ATOM     26  C   UNL A   1      41.510  28.601  31.406  1.00  0.00     0.049 A 
ATOM     27  C   UNL A   1      41.031  32.105  35.754  1.00  0.00     0.074 A 
ATOM     28  C   UNL A   1      42.529  27.667  31.472  1.00  0.00     0.029 A 
ATOM     29  N   UNL A   1      41.569  29.346  32.574  1.00  0.00    -0.354 N 
ATOM     30  N   UNL A   1      41.291  31.239  34.802  1.00  0.00    -0.248 NA
ATOM     31  C   UNL A   1      41.867  31.937  36.952  1.00  0.00     0.031 C 
ATOM     32  C   UNL A   1      43.151  27.795  32.710  1.00  0.00     0.029 A 
ATOM     33  C   UNL A   1      42.588  28.870  33.380  1.00  0.00     0.049 A 
ATOM     34  H   UNL A   1      40.976  30.100  32.795  1.00  0.00     0.167 HD
ATOM     35  C   UNL A   1      42.336  30.448  35.274  1.00  0.00     0.074 A 
ATOM     36  C   UNL A   1      42.676  30.949  36.587  1.00  0.00     0.031 C 
ATOM     37  C   UNL A   1      42.950  29.399  34.673  1.00  0.00     0.034 A 
BRANCH  24  38
ATOM     38  C   UNL A   1      40.638  27.845  29.174  1.00  0.00     0.023 A 
ATOM     39  C   UNL A   1      41.579  28.080  28.154  1.00  0.00     0.031 A 
ATOM     40  C   UNL A   1      39.672  26.845  28.974  1.00  0.00     0.131 A 
ATOM     41  C   UNL A   1      41.489  27.372  26.950  1.00  0.00     0.055 A 
ATOM     42  C   UNL A   1      39.620  26.104  27.794  1.00  0.00     0.041 A 
ATOM     43  F   UNL A   1      38.752  26.585  29.918  1.00  0.00    -0.206 F 
ATOM     44  C   UNL A   1      40.520  26.381  26.767  1.00  0.00     0.022 A 
BRANCH  41  45
ATOM     45  S   UNL A   1      42.562  27.779  25.547  1.00  0.00     0.124 S 
ATOM     46  O   UNL A   1      41.895  28.953  24.988  1.00  0.00    -0.237 OA
ATOM     47  O   UNL A   1      43.838  28.041  26.206  1.00  0.00    -0.237 OA
ATOM     48  O   UNL A   1      42.514  26.584  24.710  1.00  0.00    -0.744 OA
ENDBRANCH  41  45
ENDBRANCH  24  38
BRANCH  25  49
ATOM     49  C   UNL A   1      39.836  34.118  36.945  1.00  0.00     0.023 A 
ATOM     50  C   UNL A   1      40.739  35.171  37.187  1.00  0.00     0.031 A 
ATOM     51  C   UNL A   1      38.834  33.879  37.900  1.00  0.00     0.131 A 
ATOM     52  C   UNL A   1      40.670  35.891  38.387  1.00  0.00     0.055 A 
ATOM     53  C   UNL A   1      38.719  34.654  39.057  1.00  0.00     0.041 A 
ATOM     54  F   UNL A   1      37.956  32.880  37.726  1.00  0.00    -0.206 F 
ATOM     55  C   UNL A   1      39.652  35.653  39.315  1.00  0.00     0.022 A 
BRANCH  52  56
ATOM     56  S   UNL A   1      41.986  37.051  38.848  1.00  0.00     0.124 S 
ATOM     57  O   UNL A   1      42.687  37.237  37.582  1.00  0.00    -0.237 OA
ATOM     58  O   UNL A   1      41.218  38.203  39.319  1.00  0.00    -0.237 OA
ATOM     59  O   UNL A   1      42.727  36.341  39.884  1.00  0.00    -0.744 OA
ENDBRANCH  52  56
ENDBRANCH  25  49
BRANCH  37  60
ATOM     60  C   UNL A   1      44.085  28.697  35.380  1.00  0.00     0.023 A 
ATOM     61  C   UNL A   1      43.798  27.739  36.373  1.00  0.00     0.031 A 
ATOM     62  C   UNL A   1      45.414  29.133  35.240  1.00  0.00     0.131 A 
ATOM     63  C   UNL A   1      44.810  27.305  37.237  1.00  0.00     0.055 A 
ATOM     64  C   UNL A   1      46.431  28.652  36.066  1.00  0.00     0.041 A 
ATOM     65  F   UNL A   1      45.735  30.054  34.319  1.00  0.00    -0.206 F 
ATOM     66  C   UNL A   1      46.126  27.751  37.084  1.00  0.00     0.022 A 
BRANCH  63  67
ATOM     67  S   UNL A   1      44.432  26.247  38.662  1.00  0.00     0.124 S 
ATOM     68  O   UNL A   1      42.992  26.044  38.514  1.00  0.00    -0.237 OA
ATOM     69  O   UNL A   1      45.258  25.073  38.401  1.00  0.00    -0.237 OA
ATOM     70  O   UNL A   1      44.828  27.052  39.814  1.00  0.00    -0.744 OA
ENDBRANCH  63  67
ENDBRANCH  37  60
ENDBRANCH  11  12
ENDBRANCH   4   6
ENDBRANCH   1   2
BRANCH   1  71
ATOM     71  C   UNL A   1      31.541  31.724  27.013  1.00  0.00     0.042 C 
BRANCH  71  72
ATOM     72  C   UNL A   1      31.680  30.702  25.897  1.00  0.00     0.118 C 
BRANCH  72  73
ATOM     73  N   UNL A   1      30.624  30.806  24.904  1.00  0.00    -0.352 N 
ATOM     74  C   UNL A   1      30.282  29.911  23.924  1.00  0.00     0.255 C 
ATOM     75  H   UNL A   1      30.083  31.627  24.941  1.00  0.00     0.163 HD
ATOM     76  O   UNL A   1      29.406  30.184  23.107  1.00  0.00    -0.269 OA
BRANCH  74  77
ATOM     77  C   UNL A   1      31.007  28.631  23.803  1.00  0.00     0.081 A 
ATOM     78  C   UNL A   1      30.310  27.460  24.119  1.00  0.00     0.020 A 
ATOM     79  C   UNL A   1      32.343  28.559  23.400  1.00  0.00     0.130 A 
ATOM     80  C   UNL A   1      30.941  26.217  24.006  1.00  0.00     0.028 A 
ATOM     81  C   UNL A   1      32.971  27.320  23.293  1.00  0.00     0.073 A 
ATOM     82  C   UNL A   1      32.284  26.139  23.617  1.00  0.00     0.054 A 
BRANCH  79  83
ATOM     83  O   UNL A   1      33.046  29.692  23.102  1.00  0.00    -0.507 OA
ATOM     84  H   UNL A   1      33.356  30.247  23.791  1.00  0.00     0.293 HD
ENDBRANCH  79  83
BRANCH  82  85
ATOM     85  N   UNL A   1      32.953  24.883  23.533  1.00  0.00    -0.261 N 
ATOM     86  C   UNL A   1      33.443  24.275  24.689  1.00  0.00     0.270 C 
ATOM     87  C   UNL A   1      33.142  24.190  22.343  1.00  0.00     0.152 C 
ATOM     88  O   UNL A   1      33.434  24.714  25.827  1.00  0.00    -0.268 OA
ATOM     89  C   UNL A   1      33.966  22.916  24.362  1.00  0.00     0.081 C 
ATOM     90  S   UNL A   1      33.842  22.615  22.678  1.00  0.00    -0.054 SA
ATOM     91  S   UNL A   1      32.891  24.678  20.761  1.00  0.00    -0.051 S 
ATOM     92  C   UNL A   1      34.389  22.063  25.303  1.00  0.00     0.027 C 
BRANCH  92  93
ATOM     93  C   UNL A   1      34.869  20.721  25.072  1.00  0.00    -0.016 C 
ATOM     94  C   UNL A   1      34.125  19.640  24.853  1.00  0.00     0.005 A 
ATOM     95  C   UNL A   1      36.330  20.369  25.044  1.00  0.00     0.179 C 
ATOM     96  C   UNL A   1      32.726  19.365  24.769  1.00  0.00     0.011 A 
ATOM     97  C   UNL A   1      35.134  18.587  24.650  1.00  0.00     0.065 A 
ATOM     98  N   UNL A   1      36.386  18.914  24.751  1.00  0.00    -0.280 NA
ATOM     99  C   UNL A   1      32.331  18.111  24.489  1.00  0.00     0.001 A 
ATOM    100  C   UNL A   1      34.622  17.236  24.338  1.00  0.00     0.028 A 
ATOM    101  C   UNL A   1      33.294  17.045  24.267  1.00  0.00     0.002 A 
ENDBRANCH  92  93
ENDBRANCH  82  85
ENDBRANCH  74  77
ENDBRANCH  72  73
ENDBRANCH  71  72
ENDBRANCH   1  71
TORSDOF 16
ENDMDL
MODEL 3
REMARK VINA RESULT:     -12.6      1.754      7.508
REMARK SMILES O=C(NCCCNC(=O)c1ccc(N2C(=O)/C(=C/C3=c4ccccc4=NC3)SC2=S)cc1O)c1ccc(-c2c3nc(c(-c4cc(S(=O)(=O)[O-])ccc4F)c4ccc([nH]4)c(-c4cc(S(=O)(=O)[O-])ccc4F)c4nc(c(-c5cc(S(=O)(=O)[O-])ccc5F)c5ccc2[nH]5)C=C4)C=C3)cc1
REMARK SMILES IDX 4 1 3 2 1 3 2 4 34 6 35 7 96 8 36 9 95 10 37 11 38 12 39 13
REMARK SMILES IDX 89 14 40 15 94 16 88 17 90 18 41 19 93 20 87 21 86 22 42 24
REMARK SMILES IDX 74 25 54 26 73 27 55 28 58 29 72 30 91 31 56 32 57 33 71 35
REMARK SMILES IDX 92 36 59 37 43 38 44 39 52 40 45 41 51 42 53 43 50 44 46 45
REMARK SMILES IDX 47 46 48 47 49 48 75 49 76 50 84 51 77 52 83 53 85 54 82 55
REMARK SMILES IDX 78 56 79 57 80 58 81 59 60 60 61 61 69 62 62 63 68 64 70 65
REMARK SMILES IDX 67 66 63 67 64 68 65 69 66 70 5 71 6 72 7 73 8 74 9 76 10 77
REMARK SMILES IDX 11 78 32 79 12 80 31 81 13 82 33 83 14 85 15 86 29 87 16 88
REMARK SMILES IDX 17 89 28 90 30 91 18 92 19 93 20 94 27 95 21 96 25 97 26 98
REMARK SMILES IDX 22 99 24 100 23 101
REMARK H PARENT 3 5 90 23 58 34 7 75 33 84
REMARK Flexibility Score: inf
ROOT
ATOM      1  C   UNL A   1      33.253  33.018  27.205  1.00  0.00     0.118 C 
ENDROOT
BRANCH   1   2
ATOM      2  N   UNL A   1      32.861  34.245  27.883  1.00  0.00    -0.352 N 
ATOM      3  O   UNL A   1      32.594  35.671  29.594  1.00  0.00    -0.269 OA
ATOM      4  C   UNL A   1      33.221  34.728  29.116  1.00  0.00     0.251 C 
ATOM      5  H   UNL A   1      32.241  34.818  27.378  1.00  0.00     0.163 HD
BRANCH   4   6
ATOM      6  C   UNL A   1      34.350  34.136  29.868  1.00  0.00     0.039 A 
ATOM      7  C   UNL A   1      35.657  34.454  29.485  1.00  0.00     0.014 A 
ATOM      8  C   UNL A   1      34.134  33.205  30.887  1.00  0.00     0.014 A 
ATOM      9  C   UNL A   1      36.740  33.848  30.127  1.00  0.00     0.010 A 
ATOM     10  C   UNL A   1      35.211  32.674  31.590  1.00  0.00     0.010 A 
ATOM     11  C   UNL A   1      36.525  32.953  31.186  1.00  0.00    -0.014 A 
BRANCH  11  12
ATOM     12  C   UNL A   1      37.641  32.205  31.819  1.00  0.00     0.031 A 
ATOM     13  C   UNL A   1      38.138  32.640  33.173  1.00  0.00     0.074 A 
ATOM     14  C   UNL A   1      38.240  31.187  31.172  1.00  0.00     0.049 A 
ATOM     15  N   UNL A   1      39.179  32.225  33.841  1.00  0.00    -0.248 NA
ATOM     16  C   UNL A   1      37.375  33.702  33.854  1.00  0.00     0.031 C 
ATOM     17  C   UNL A   1      37.853  30.687  29.854  1.00  0.00     0.029 A 
ATOM     18  N   UNL A   1      39.314  30.405  31.524  1.00  0.00    -0.354 N 
ATOM     19  C   UNL A   1      39.214  32.990  35.001  1.00  0.00     0.074 A 
ATOM     20  C   UNL A   1      38.120  33.928  34.927  1.00  0.00     0.031 C 
ATOM     21  C   UNL A   1      38.675  29.685  29.508  1.00  0.00     0.029 A 
ATOM     22  C   UNL A   1      39.685  29.506  30.551  1.00  0.00     0.049 A 
ATOM     23  H   UNL A   1      39.773  30.481  32.391  1.00  0.00     0.167 HD
ATOM     24  C   UNL A   1      40.069  32.897  36.044  1.00  0.00     0.034 A 
ATOM     25  C   UNL A   1      40.734  28.657  30.489  1.00  0.00     0.034 A 
ATOM     26  C   UNL A   1      41.119  31.918  36.127  1.00  0.00     0.049 A 
ATOM     27  C   UNL A   1      41.677  28.572  31.666  1.00  0.00     0.074 A 
ATOM     28  C   UNL A   1      41.990  31.699  37.179  1.00  0.00     0.029 A 
ATOM     29  N   UNL A   1      41.437  30.998  35.141  1.00  0.00    -0.354 N 
ATOM     30  N   UNL A   1      41.650  29.250  32.790  1.00  0.00    -0.248 NA
ATOM     31  C   UNL A   1      42.784  27.609  31.582  1.00  0.00     0.031 C 
ATOM     32  C   UNL A   1      42.884  30.703  36.798  1.00  0.00     0.029 A 
ATOM     33  C   UNL A   1      42.514  30.231  35.548  1.00  0.00     0.049 A 
ATOM     34  H   UNL A   1      40.967  30.904  34.280  1.00  0.00     0.167 HD
ATOM     35  C   UNL A   1      42.713  28.774  33.554  1.00  0.00     0.074 A 
ATOM     36  C   UNL A   1      43.353  27.736  32.775  1.00  0.00     0.031 C 
ATOM     37  C   UNL A   1      43.123  29.169  34.784  1.00  0.00     0.034 A 
BRANCH  24  38
ATOM     38  C   UNL A   1      39.914  33.838  37.212  1.00  0.00     0.023 A 
ATOM     39  C   UNL A   1      39.292  33.382  38.390  1.00  0.00     0.031 A 
ATOM     40  C   UNL A   1      40.196  35.209  37.093  1.00  0.00     0.131 A 
ATOM     41  C   UNL A   1      38.908  34.301  39.372  1.00  0.00     0.055 A 
ATOM     42  C   UNL A   1      39.860  36.114  38.100  1.00  0.00     0.041 A 
ATOM     43  F   UNL A   1      40.788  35.693  35.988  1.00  0.00    -0.206 F 
ATOM     44  C   UNL A   1      39.195  35.663  39.238  1.00  0.00     0.022 A 
BRANCH  41  45
ATOM     45  S   UNL A   1      37.939  33.777  40.812  1.00  0.00     0.124 S 
ATOM     46  O   UNL A   1      37.786  35.031  41.546  1.00  0.00    -0.237 OA
ATOM     47  O   UNL A   1      36.722  33.266  40.188  1.00  0.00    -0.237 OA
ATOM     48  O   UNL A   1      38.785  32.780  41.460  1.00  0.00    -0.744 OA
ENDBRANCH  41  45
ENDBRANCH  24  38
BRANCH  25  49
ATOM     49  C   UNL A   1      40.914  27.813  29.270  1.00  0.00     0.023 A 
ATOM     50  C   UNL A   1      41.861  28.163  28.289  1.00  0.00     0.031 A 
ATOM     51  C   UNL A   1      40.080  26.712  29.014  1.00  0.00     0.131 A 
ATOM     52  C   UNL A   1      41.897  27.471  27.071  1.00  0.00     0.055 A 
ATOM     53  C   UNL A   1      40.176  25.972  27.833  1.00  0.00     0.041 A 
ATOM     54  F   UNL A   1      39.151  26.344  29.910  1.00  0.00    -0.206 F 
ATOM     55  C   UNL A   1      41.075  26.363  26.845  1.00  0.00     0.022 A 
BRANCH  52  56
ATOM     56  S   UNL A   1      42.903  28.078  25.689  1.00  0.00     0.124 S 
ATOM     57  O   UNL A   1      42.664  29.516  25.746  1.00  0.00    -0.237 OA
ATOM     58  O   UNL A   1      44.243  27.644  26.082  1.00  0.00    -0.237 OA
ATOM     59  O   UNL A   1      42.349  27.389  24.529  1.00  0.00    -0.744 OA
ENDBRANCH  52  56
ENDBRANCH  25  49
BRANCH  37  60
ATOM     60  C   UNL A   1      44.306  28.486  35.429  1.00  0.00     0.023 A 
ATOM     61  C   UNL A   1      44.090  27.536  36.448  1.00  0.00     0.031 A 
ATOM     62  C   UNL A   1      45.619  28.933  35.203  1.00  0.00     0.131 A 
ATOM     63  C   UNL A   1      45.158  27.122  37.252  1.00  0.00     0.055 A 
ATOM     64  C   UNL A   1      46.690  28.471  35.970  1.00  0.00     0.041 A 
ATOM     65  F   UNL A   1      45.874  29.847  34.254  1.00  0.00    -0.206 F 
ATOM     66  C   UNL A   1      46.458  27.579  37.015  1.00  0.00     0.022 A 
BRANCH  63  67
ATOM     67  S   UNL A   1      44.878  26.077  38.710  1.00  0.00     0.124 S 
ATOM     68  O   UNL A   1      45.913  26.553  39.626  1.00  0.00    -0.237 OA
ATOM     69  O   UNL A   1      43.510  26.425  39.079  1.00  0.00    -0.237 OA
ATOM     70  O   UNL A   1      45.070  24.718  38.212  1.00  0.00    -0.744 OA
ENDBRANCH  63  67
ENDBRANCH  37  60
ENDBRANCH  11  12
ENDBRANCH   4   6
ENDBRANCH   1   2
BRANCH   1  71
ATOM     71  C   UNL A   1      32.378  31.837  27.596  1.00  0.00     0.042 C 
BRANCH  71  72
ATOM     72  C   UNL A   1      32.299  30.747  26.541  1.00  0.00     0.118 C 
BRANCH  72  73
ATOM     73  N   UNL A   1      31.207  30.951  25.603  1.00  0.00    -0.352 N 
ATOM     74  C   UNL A   1      30.778  30.124  24.598  1.00  0.00     0.255 C 
ATOM     75  H   UNL A   1      30.710  31.795  25.704  1.00  0.00     0.163 HD
ATOM     76  O   UNL A   1      29.882  30.480  23.836  1.00  0.00    -0.269 OA
BRANCH  74  77
ATOM     77  C   UNL A   1      31.432  28.819  24.382  1.00  0.00     0.081 A 
ATOM     78  C   UNL A   1      30.713  27.670  24.728  1.00  0.00     0.020 A 
ATOM     79  C   UNL A   1      32.724  28.702  23.864  1.00  0.00     0.130 A 
ATOM     80  C   UNL A   1      31.276  26.404  24.530  1.00  0.00     0.028 A 
ATOM     81  C   UNL A   1      33.285  27.441  23.672  1.00  0.00     0.073 A 
ATOM     82  C   UNL A   1      32.576  26.281  24.024  1.00  0.00     0.054 A 
BRANCH  79  83
ATOM     83  O   UNL A   1      33.450  29.813  23.534  1.00  0.00    -0.507 OA
ATOM     84  H   UNL A   1      33.726  30.408  24.204  1.00  0.00     0.293 HD
ENDBRANCH  79  83
BRANCH  82  85
ATOM     85  N   UNL A   1      33.179  25.001  23.851  1.00  0.00    -0.261 N 
ATOM     86  C   UNL A   1      33.724  24.333  24.947  1.00  0.00     0.270 C 
ATOM     87  C   UNL A   1      33.248  24.342  22.629  1.00  0.00     0.152 C 
ATOM     88  O   UNL A   1      33.819  24.732  26.096  1.00  0.00    -0.268 OA
ATOM     89  C   UNL A   1      34.158  22.965  24.539  1.00  0.00     0.081 C 
ATOM     90  S   UNL A   1      33.897  22.727  22.861  1.00  0.00    -0.054 SA
ATOM     91  S   UNL A   1      32.904  24.894  21.086  1.00  0.00    -0.051 S 
ATOM     92  C   UNL A   1      34.610  22.062  25.419  1.00  0.00     0.027 C 
BRANCH  92  93
ATOM     93  C   UNL A   1      35.010  20.709  25.111  1.00  0.00    -0.016 C 
ATOM     94  C   UNL A   1      34.203  19.691  24.822  1.00  0.00     0.005 A 
ATOM     95  C   UNL A   1      36.446  20.269  25.073  1.00  0.00     0.179 C 
ATOM     96  C   UNL A   1      32.790  19.509  24.710  1.00  0.00     0.011 A 
ATOM     97  C   UNL A   1      35.148  18.592  24.563  1.00  0.00     0.065 A 
ATOM     98  N   UNL A   1      36.417  18.834  24.693  1.00  0.00    -0.280 NA
ATOM     99  C   UNL A   1      32.323  18.301  24.351  1.00  0.00     0.001 A 
ATOM    100  C   UNL A   1      34.557  17.296  24.165  1.00  0.00     0.028 A 
ATOM    101  C   UNL A   1      33.221  17.192  24.072  1.00  0.00     0.002 A 
ENDBRANCH  92  93
ENDBRANCH  82  85
ENDBRANCH  74  77
ENDBRANCH  72  73
ENDBRANCH  71  72
ENDBRANCH   1  71
TORSDOF 16
ENDMDL
