MODEL 1
REMARK VINA RESULT:     -13.5      0.000      0.000
REMARK SMILES Cc1[nH]c2ccccc2c1/C=C1/SC(=S)N(c2cccc(C(=O)NCCCNC(=O)c3ccc(-c4c5nc(c(-c6cc(S(=O)(=O)[O-])ccc6F)c6ccc([nH]6)c(-c6cc(S(=O)(=O)[O-])ccc6F)c6nc(c(-c7cc(S(=O)(=O)[O-])ccc7F)c7ccc4[nH]7)C=C6)C=C5)cc3)c2)C1=O
REMARK SMILES IDX 26 1 25 2 24 3 22 4 23 5 21 7 17 8 18 9 94 10 19 11 20 12
REMARK SMILES IDX 16 13 11 14 12 15 13 16 95 17 14 18 96 19 15 20 10 21 1 22
REMARK SMILES IDX 2 23 3 24 4 25 9 27 5 28 8 29 6 30 7 31 27 32 28 33 29 34
REMARK SMILES IDX 30 36 31 37 32 38 93 39 33 40 92 41 34 42 35 43 36 44 86 45
REMARK SMILES IDX 37 46 91 47 85 48 87 49 38 50 90 51 84 52 83 53 39 55 71 56
REMARK SMILES IDX 51 57 70 58 52 59 55 60 69 61 88 62 53 63 54 64 68 66 89 67
REMARK SMILES IDX 56 68 40 69 41 70 49 71 42 72 48 73 50 74 47 75 43 76 44 77
REMARK SMILES IDX 45 78 46 79 72 80 73 81 81 82 74 83 80 84 82 85 79 86 75 87
REMARK SMILES IDX 76 88 77 89 78 90 57 91 58 92 66 93 59 94 65 95 67 96 64 97
REMARK SMILES IDX 60 98 61 99 62 100 63 101
REMARK H PARENT 24 6 3 26 28 35 87 54 55 65
REMARK Flexibility Score: inf
ROOT
ATOM      1  C   UNL A   1      44.586  39.726  26.680  1.00  0.00     0.042 C 
ENDROOT
BRANCH   1   2
ATOM      2  C   UNL A   1      43.568  40.813  27.001  1.00  0.00     0.118 C 
BRANCH   2   3
ATOM      3  N   UNL A   1      44.077  42.163  26.813  1.00  0.00    -0.352 N 
ATOM      4  C   UNL A   1      44.188  43.049  25.772  1.00  0.00     0.251 C 
ATOM      5  O   UNL A   1      44.683  44.146  26.046  1.00  0.00    -0.269 OA
ATOM      6  H   UNL A   1      44.434  42.538  27.651  1.00  0.00     0.163 HD
BRANCH   4   7
ATOM      7  C   UNL A   1      43.810  42.786  24.351  1.00  0.00     0.041 A 
ATOM      8  C   UNL A   1      44.216  42.739  21.938  1.00  0.00     0.051 A 
ATOM      9  C   UNL A   1      42.867  42.445  21.722  1.00  0.00     0.027 A 
ATOM     10  C   UNL A   1      44.676  42.843  23.260  1.00  0.00     0.040 A 
ATOM     11  C   UNL A   1      42.000  42.275  22.798  1.00  0.00     0.003 A 
ATOM     12  C   UNL A   1      42.464  42.466  24.100  1.00  0.00     0.014 A 
BRANCH   8  13
ATOM     13  N   UNL A   1      45.080  43.117  20.858  1.00  0.00    -0.261 N 
ATOM     14  C   UNL A   1      45.703  45.598  18.253  1.00  0.00     0.032 C 
ATOM     15  C   UNL A   1      45.742  44.562  19.104  1.00  0.00     0.081 C 
ATOM     16  S   UNL A   1      47.176  43.679  19.449  1.00  0.00    -0.054 SA
ATOM     17  C   UNL A   1      44.609  44.044  19.926  1.00  0.00     0.270 C 
ATOM     18  C   UNL A   1      46.407  42.734  20.722  1.00  0.00     0.152 C 
ATOM     19  O   UNL A   1      43.452  44.424  19.802  1.00  0.00    -0.268 OA
ATOM     20  S   UNL A   1      47.252  41.515  21.501  1.00  0.00    -0.051 S 
BRANCH  14  21
ATOM     21  C   UNL A   1      44.559  46.395  17.968  1.00  0.00     0.004 A 
ATOM     22  C   UNL A   1      43.254  44.809  16.328  1.00  0.00     0.065 C 
ATOM     23  C   UNL A   1      43.521  46.033  17.129  1.00  0.00     0.020 A 
ATOM     24  N   UNL A   1      42.661  47.105  17.078  1.00  0.00    -0.358 N 
ATOM     25  C   UNL A   1      43.117  48.135  17.870  1.00  0.00     0.046 A 
ATOM     26  H   UNL A   1      41.832  47.133  16.549  1.00  0.00     0.166 HD
ATOM     27  C   UNL A   1      44.303  47.704  18.463  1.00  0.00     0.007 A 
ATOM     28  C   UNL A   1      42.579  49.408  18.094  1.00  0.00     0.027 A 
ATOM     29  C   UNL A   1      44.980  48.581  19.335  1.00  0.00     0.011 A 
ATOM     30  C   UNL A   1      43.272  50.261  18.958  1.00  0.00     0.002 A 
ATOM     31  C   UNL A   1      44.453  49.855  19.575  1.00  0.00     0.001 A 
ENDBRANCH  14  21
ENDBRANCH   8  13
ENDBRANCH   4   7
ENDBRANCH   2   3
ENDBRANCH   1   2
BRANCH   1  32
ATOM     32  C   UNL A   1      44.515  38.520  27.612  1.00  0.00     0.118 C 
BRANCH  32  33
ATOM     33  N   UNL A   1      45.752  38.326  28.360  1.00  0.00    -0.352 N 
ATOM     34  C   UNL A   1      46.245  37.245  29.045  1.00  0.00     0.251 C 
ATOM     35  H   UNL A   1      46.339  39.115  28.376  1.00  0.00     0.163 HD
ATOM     36  O   UNL A   1      47.186  37.426  29.816  1.00  0.00    -0.269 OA
BRANCH  34  37
ATOM     37  C   UNL A   1      45.677  35.888  28.876  1.00  0.00     0.039 A 
ATOM     38  C   UNL A   1      45.875  34.949  29.893  1.00  0.00     0.014 A 
ATOM     39  C   UNL A   1      45.027  35.504  27.702  1.00  0.00     0.014 A 
ATOM     40  C   UNL A   1      45.386  33.649  29.749  1.00  0.00     0.010 A 
ATOM     41  C   UNL A   1      44.455  34.238  27.598  1.00  0.00     0.010 A 
ATOM     42  C   UNL A   1      44.645  33.290  28.612  1.00  0.00    -0.014 A 
BRANCH  42  43
ATOM     43  C   UNL A   1      44.087  31.919  28.468  1.00  0.00     0.031 A 
ATOM     44  C   UNL A   1      42.770  31.561  29.106  1.00  0.00     0.074 A 
ATOM     45  C   UNL A   1      44.791  30.990  27.792  1.00  0.00     0.049 A 
ATOM     46  N   UNL A   1      42.129  30.420  29.097  1.00  0.00    -0.248 NA
ATOM     47  C   UNL A   1      42.104  32.614  29.886  1.00  0.00     0.031 C 
ATOM     48  C   UNL A   1      46.108  31.205  27.187  1.00  0.00     0.029 A 
ATOM     49  N   UNL A   1      44.499  29.685  27.492  1.00  0.00    -0.354 N 
ATOM     50  C   UNL A   1      40.994  30.615  29.878  1.00  0.00     0.074 A 
ATOM     51  C   UNL A   1      41.074  31.961  30.403  1.00  0.00     0.031 C 
ATOM     52  C   UNL A   1      46.490  30.084  26.554  1.00  0.00     0.029 A 
ATOM     53  C   UNL A   1      45.465  29.063  26.735  1.00  0.00     0.049 A 
ATOM     54  H   UNL A   1      43.676  29.235  27.791  1.00  0.00     0.167 HD
ATOM     55  C   UNL A   1      39.967  29.760  30.115  1.00  0.00     0.034 A 
ATOM     56  C   UNL A   1      45.514  27.813  26.237  1.00  0.00     0.034 A 
ATOM     57  C   UNL A   1      39.896  28.426  29.567  1.00  0.00     0.049 A 
ATOM     58  C   UNL A   1      44.346  26.894  26.483  1.00  0.00     0.074 A 
ATOM     59  C   UNL A   1      38.886  27.489  29.695  1.00  0.00     0.029 A 
ATOM     60  N   UNL A   1      40.882  27.838  28.781  1.00  0.00    -0.354 N 
ATOM     61  N   UNL A   1      43.252  27.113  27.175  1.00  0.00    -0.248 NA
ATOM     62  C   UNL A   1      44.411  25.568  25.858  1.00  0.00     0.031 C 
ATOM     63  C   UNL A   1      39.283  26.319  29.038  1.00  0.00     0.029 A 
ATOM     64  C   UNL A   1      40.511  26.546  28.437  1.00  0.00     0.049 A 
ATOM     65  H   UNL A   1      41.721  28.275  28.509  1.00  0.00     0.167 HD
ATOM     66  C   UNL A   1      42.487  25.957  27.049  1.00  0.00     0.074 A 
ATOM     67  C   UNL A   1      43.233  25.061  26.187  1.00  0.00     0.031 C 
ATOM     68  C   UNL A   1      41.279  25.659  27.594  1.00  0.00     0.034 A 
BRANCH  55  69
ATOM     69  C   UNL A   1      38.854  30.243  31.017  1.00  0.00     0.023 A 
ATOM     70  C   UNL A   1      37.803  31.042  30.533  1.00  0.00     0.031 A 
ATOM     71  C   UNL A   1      38.860  29.933  32.390  1.00  0.00     0.131 A 
ATOM     72  C   UNL A   1      36.854  31.571  31.420  1.00  0.00     0.055 A 
ATOM     73  C   UNL A   1      37.863  30.392  33.254  1.00  0.00     0.041 A 
ATOM     74  F   UNL A   1      39.846  29.191  32.919  1.00  0.00    -0.206 F 
ATOM     75  C   UNL A   1      36.861  31.230  32.774  1.00  0.00     0.022 A 
BRANCH  72  76
ATOM     76  S   UNL A   1      35.698  32.829  30.806  1.00  0.00     0.124 S 
ATOM     77  O   UNL A   1      35.860  32.693  29.360  1.00  0.00    -0.237 OA
ATOM     78  O   UNL A   1      34.423  32.378  31.352  1.00  0.00    -0.237 OA
ATOM     79  O   UNL A   1      36.215  34.073  31.371  1.00  0.00    -0.744 OA
ENDBRANCH  72  76
ENDBRANCH  55  69
BRANCH  56  80
ATOM     80  C   UNL A   1      46.689  27.362  25.439  1.00  0.00     0.023 A 
ATOM     81  C   UNL A   1      46.899  27.829  24.133  1.00  0.00     0.031 A 
ATOM     82  C   UNL A   1      47.603  26.428  25.961  1.00  0.00     0.131 A 
ATOM     83  C   UNL A   1      47.966  27.327  23.372  1.00  0.00     0.055 A 
ATOM     84  C   UNL A   1      48.693  25.970  25.218  1.00  0.00     0.041 A 
ATOM     85  F   UNL A   1      47.455  25.958  27.209  1.00  0.00    -0.206 F 
ATOM     86  C   UNL A   1      48.871  26.409  23.909  1.00  0.00     0.022 A 
BRANCH  83  87
ATOM     87  S   UNL A   1      48.107  27.831  21.635  1.00  0.00     0.124 S 
ATOM     88  O   UNL A   1      46.816  28.469  21.404  1.00  0.00    -0.237 OA
ATOM     89  O   UNL A   1      49.265  28.717  21.672  1.00  0.00    -0.237 OA
ATOM     90  O   UNL A   1      48.314  26.567  20.931  1.00  0.00    -0.744 OA
ENDBRANCH  83  87
ENDBRANCH  56  80
BRANCH  68  91
ATOM     91  C   UNL A   1      40.693  24.314  27.239  1.00  0.00     0.023 A 
ATOM     92  C   UNL A   1      39.518  24.202  26.475  1.00  0.00     0.031 A 
ATOM     93  C   UNL A   1      41.286  23.132  27.717  1.00  0.00     0.131 A 
ATOM     94  C   UNL A   1      38.926  22.946  26.283  1.00  0.00     0.055 A 
ATOM     95  C   UNL A   1      40.730  21.877  27.463  1.00  0.00     0.041 A 
ATOM     96  F   UNL A   1      42.408  23.179  28.453  1.00  0.00    -0.206 F 
ATOM     97  C   UNL A   1      39.533  21.781  26.759  1.00  0.00     0.022 A 
BRANCH  94  98
ATOM     98  S   UNL A   1      37.281  22.870  25.520  1.00  0.00     0.124 S 
ATOM     99  O   UNL A   1      36.736  21.645  26.097  1.00  0.00    -0.237 OA
ATOM    100  O   UNL A   1      36.671  24.115  25.975  1.00  0.00    -0.237 OA
ATOM    101  O   UNL A   1      37.569  22.806  24.090  1.00  0.00    -0.744 OA
ENDBRANCH  94  98
ENDBRANCH  68  91
ENDBRANCH  42  43
ENDBRANCH  34  37
ENDBRANCH  32  33
ENDBRANCH   1  32
TORSDOF 15
ENDMDL
MODEL 2
REMARK VINA RESULT:     -13.3     10.250     20.057
REMARK SMILES Cc1[nH]c2ccccc2c1/C=C1/SC(=S)N(c2cccc(C(=O)NCCCNC(=O)c3ccc(-c4c5nc(c(-c6cc(S(=O)(=O)[O-])ccc6F)c6ccc([nH]6)c(-c6cc(S(=O)(=O)[O-])ccc6F)c6nc(c(-c7cc(S(=O)(=O)[O-])ccc7F)c7ccc4[nH]7)C=C6)C=C5)cc3)c2)C1=O
REMARK SMILES IDX 26 1 25 2 24 3 22 4 23 5 21 7 17 8 18 9 94 10 19 11 20 12
REMARK SMILES IDX 16 13 11 14 12 15 13 16 95 17 14 18 96 19 15 20 10 21 1 22
REMARK SMILES IDX 2 23 3 24 4 25 9 27 5 28 8 29 6 30 7 31 27 32 28 33 29 34
REMARK SMILES IDX 30 36 31 37 32 38 93 39 33 40 92 41 34 42 35 43 36 44 86 45
REMARK SMILES IDX 37 46 91 47 85 48 87 49 38 50 90 51 84 52 83 53 39 55 71 56
REMARK SMILES IDX 51 57 70 58 52 59 55 60 69 61 88 62 53 63 54 64 68 66 89 67
REMARK SMILES IDX 56 68 40 69 41 70 49 71 42 72 48 73 50 74 47 75 43 76 44 77
REMARK SMILES IDX 45 78 46 79 72 80 73 81 81 82 74 83 80 84 82 85 79 86 75 87
REMARK SMILES IDX 76 88 77 89 78 90 57 91 58 92 66 93 59 94 65 95 67 96 64 97
REMARK SMILES IDX 60 98 61 99 62 100 63 101
REMARK H PARENT 24 6 3 26 28 35 87 54 55 65
REMARK Flexibility Score: inf
ROOT
ATOM      1  C   UNL A   1      48.053  23.130  34.413  1.00  0.00     0.042 C 
ENDROOT
BRANCH   1   2
ATOM      2  C   UNL A   1      46.583  23.001  34.036  1.00  0.00     0.118 C 
BRANCH   2   3
ATOM      3  N   UNL A   1      46.001  21.713  34.385  1.00  0.00    -0.352 N 
ATOM      4  C   UNL A   1      45.717  21.031  35.540  1.00  0.00     0.251 C 
ATOM      5  O   UNL A   1      45.185  19.926  35.398  1.00  0.00    -0.269 OA
ATOM      6  H   UNL A   1      45.746  21.199  33.585  1.00  0.00     0.163 HD
BRANCH   4   7
ATOM      7  C   UNL A   1      46.033  21.484  36.928  1.00  0.00     0.041 A 
ATOM      8  C   UNL A   1      46.934  21.195  39.185  1.00  0.00     0.051 A 
ATOM      9  C   UNL A   1      46.357  22.410  39.565  1.00  0.00     0.027 A 
ATOM     10  C   UNL A   1      46.812  20.784  37.848  1.00  0.00     0.040 A 
ATOM     11  C   UNL A   1      45.663  23.183  38.638  1.00  0.00     0.003 A 
ATOM     12  C   UNL A   1      45.485  22.712  37.337  1.00  0.00     0.014 A 
BRANCH   8  13
ATOM     13  N   UNL A   1      47.474  20.289  40.157  1.00  0.00    -0.261 N 
ATOM     14  C   UNL A   1      46.856  17.247  42.079  1.00  0.00     0.032 C 
ATOM     15  C   UNL A   1      47.364  18.351  41.511  1.00  0.00     0.081 C 
ATOM     16  S   UNL A   1      49.050  18.677  41.427  1.00  0.00    -0.054 SA
ATOM     17  C   UNL A   1      46.597  19.429  40.820  1.00  0.00     0.270 C 
ATOM     18  C   UNL A   1      48.825  20.100  40.411  1.00  0.00     0.152 C 
ATOM     19  O   UNL A   1      45.374  19.498  40.820  1.00  0.00    -0.268 OA
ATOM     20  S   UNL A   1      50.137  21.047  39.977  1.00  0.00    -0.051 S 
BRANCH  14  21
ATOM     21  C   UNL A   1      45.476  16.902  42.133  1.00  0.00     0.004 A 
ATOM     22  C   UNL A   1      44.969  17.307  44.679  1.00  0.00     0.065 C 
ATOM     23  C   UNL A   1      44.688  16.930  43.269  1.00  0.00     0.020 A 
ATOM     24  N   UNL A   1      43.448  16.463  42.901  1.00  0.00    -0.358 N 
ATOM     25  C   UNL A   1      43.421  16.148  41.561  1.00  0.00     0.046 A 
ATOM     26  H   UNL A   1      42.683  16.366  43.513  1.00  0.00     0.166 HD
ATOM     27  C   UNL A   1      44.684  16.438  41.045  1.00  0.00     0.007 A 
ATOM     28  C   UNL A   1      42.388  15.621  40.778  1.00  0.00     0.027 A 
ATOM     29  C   UNL A   1      44.923  16.206  39.675  1.00  0.00     0.011 A 
ATOM     30  C   UNL A   1      42.653  15.395  39.424  1.00  0.00     0.002 A 
ATOM     31  C   UNL A   1      43.900  15.686  38.877  1.00  0.00     0.001 A 
ENDBRANCH  14  21
ENDBRANCH   8  13
ENDBRANCH   4   7
ENDBRANCH   2   3
ENDBRANCH   1   2
BRANCH   1  32
ATOM     32  C   UNL A   1      48.480  24.556  34.752  1.00  0.00     0.118 C 
BRANCH  32  33
ATOM     33  N   UNL A   1      48.164  24.914  36.129  1.00  0.00    -0.352 N 
ATOM     34  C   UNL A   1      47.295  25.834  36.658  1.00  0.00     0.251 C 
ATOM     35  H   UNL A   1      48.668  24.403  36.803  1.00  0.00     0.163 HD
ATOM     36  O   UNL A   1      47.414  26.131  37.845  1.00  0.00    -0.269 OA
BRANCH  34  37
ATOM     37  C   UNL A   1      46.234  26.465  35.841  1.00  0.00     0.039 A 
ATOM     38  C   UNL A   1      44.970  25.867  35.808  1.00  0.00     0.014 A 
ATOM     39  C   UNL A   1      46.487  27.583  35.044  1.00  0.00     0.014 A 
ATOM     40  C   UNL A   1      43.958  26.414  35.017  1.00  0.00     0.010 A 
ATOM     41  C   UNL A   1      45.452  28.186  34.331  1.00  0.00     0.010 A 
ATOM     42  C   UNL A   1      44.182  27.597  34.293  1.00  0.00    -0.014 A 
BRANCH  42  43
ATOM     43  C   UNL A   1      43.098  28.208  33.479  1.00  0.00     0.031 A 
ATOM     44  C   UNL A   1      42.909  27.811  32.039  1.00  0.00     0.074 A 
ATOM     45  C   UNL A   1      42.311  29.150  34.035  1.00  0.00     0.049 A 
ATOM     46  N   UNL A   1      42.028  28.238  31.171  1.00  0.00    -0.248 NA
ATOM     47  C   UNL A   1      43.858  26.829  31.493  1.00  0.00     0.031 C 
ATOM     48  C   UNL A   1      42.443  29.662  35.402  1.00  0.00     0.029 A 
ATOM     49  N   UNL A   1      41.241  29.841  33.526  1.00  0.00    -0.354 N 
ATOM     50  C   UNL A   1      42.324  27.589  29.976  1.00  0.00     0.074 A 
ATOM     51  C   UNL A   1      43.510  26.795  30.215  1.00  0.00     0.031 C 
ATOM     52  C   UNL A   1      41.466  30.553  35.634  1.00  0.00     0.029 A 
ATOM     53  C   UNL A   1      40.661  30.702  34.428  1.00  0.00     0.049 A 
ATOM     54  H   UNL A   1      40.920  29.731  32.602  1.00  0.00     0.167 HD
ATOM     55  C   UNL A   1      41.654  27.630  28.797  1.00  0.00     0.034 A 
ATOM     56  C   UNL A   1      39.594  31.514  34.299  1.00  0.00     0.034 A 
ATOM     57  C   UNL A   1      40.461  28.414  28.583  1.00  0.00     0.049 A 
ATOM     58  C   UNL A   1      38.845  31.516  32.991  1.00  0.00     0.074 A 
ATOM     59  C   UNL A   1      39.669  28.497  27.451  1.00  0.00     0.029 A 
ATOM     60  N   UNL A   1      39.885  29.256  29.529  1.00  0.00    -0.354 N 
ATOM     61  N   UNL A   1      39.104  30.851  31.889  1.00  0.00    -0.248 NA
ATOM     62  C   UNL A   1      37.647  32.360  32.922  1.00  0.00     0.031 C 
ATOM     63  C   UNL A   1      38.652  29.428  27.691  1.00  0.00     0.029 A 
ATOM     64  C   UNL A   1      38.763  29.875  28.998  1.00  0.00     0.049 A 
ATOM     65  H   UNL A   1      40.224  29.393  30.443  1.00  0.00     0.167 HD
ATOM     66  C   UNL A   1      38.084  31.180  31.001  1.00  0.00     0.074 A 
ATOM     67  C   UNL A   1      37.192  32.075  31.712  1.00  0.00     0.031 C 
ATOM     68  C   UNL A   1      37.898  30.783  29.715  1.00  0.00     0.034 A 
BRANCH  55  69
ATOM     69  C   UNL A   1      42.213  26.816  27.651  1.00  0.00     0.023 A 
ATOM     70  C   UNL A   1      41.931  25.445  27.511  1.00  0.00     0.031 A 
ATOM     71  C   UNL A   1      43.069  27.407  26.704  1.00  0.00     0.131 A 
ATOM     72  C   UNL A   1      42.561  24.696  26.506  1.00  0.00     0.055 A 
ATOM     73  C   UNL A   1      43.626  26.673  25.654  1.00  0.00     0.041 A 
ATOM     74  F   UNL A   1      43.393  28.707  26.792  1.00  0.00    -0.206 F 
ATOM     75  C   UNL A   1      43.387  25.306  25.560  1.00  0.00     0.022 A 
BRANCH  72  76
ATOM     76  S   UNL A   1      42.404  22.888  26.544  1.00  0.00     0.124 S 
ATOM     77  O   UNL A   1      43.356  22.490  25.510  1.00  0.00    -0.237 OA
ATOM     78  O   UNL A   1      42.779  22.568  27.917  1.00  0.00    -0.237 OA
ATOM     79  O   UNL A   1      41.000  22.660  26.210  1.00  0.00    -0.744 OA
ENDBRANCH  72  76
ENDBRANCH  55  69
BRANCH  56  80
ATOM     80  C   UNL A   1      39.154  32.372  35.435  1.00  0.00     0.023 A 
ATOM     81  C   UNL A   1      39.627  33.686  35.574  1.00  0.00     0.031 A 
ATOM     82  C   UNL A   1      38.277  31.878  36.418  1.00  0.00     0.131 A 
ATOM     83  C   UNL A   1      39.263  34.446  36.696  1.00  0.00     0.055 A 
ATOM     84  C   UNL A   1      37.877  32.656  37.506  1.00  0.00     0.041 A 
ATOM     85  F   UNL A   1      37.785  30.633  36.325  1.00  0.00    -0.206 F 
ATOM     86  C   UNL A   1      38.383  33.944  37.657  1.00  0.00     0.022 A 
BRANCH  83  87
ATOM     87  S   UNL A   1      40.025  36.076  36.925  1.00  0.00     0.124 S 
ATOM     88  O   UNL A   1      39.285  36.594  38.070  1.00  0.00    -0.237 OA
ATOM     89  O   UNL A   1      41.420  35.725  37.167  1.00  0.00    -0.237 OA
ATOM     90  O   UNL A   1      39.766  36.752  35.656  1.00  0.00    -0.744 OA
ENDBRANCH  83  87
ENDBRANCH  56  80
BRANCH  68  91
ATOM     91  C   UNL A   1      36.662  31.303  29.021  1.00  0.00     0.023 A 
ATOM     92  C   UNL A   1      35.628  30.440  28.617  1.00  0.00     0.031 A 
ATOM     93  C   UNL A   1      36.543  32.668  28.711  1.00  0.00     0.131 A 
ATOM     94  C   UNL A   1      34.562  30.936  27.853  1.00  0.00     0.055 A 
ATOM     95  C   UNL A   1      35.444  33.169  28.011  1.00  0.00     0.041 A 
ATOM     96  F   UNL A   1      37.501  33.538  29.072  1.00  0.00    -0.206 F 
ATOM     97  C   UNL A   1      34.456  32.298  27.560  1.00  0.00     0.022 A 
BRANCH  94  98
ATOM     98  S   UNL A   1      33.390  29.755  27.130  1.00  0.00     0.124 S 
ATOM     99  O   UNL A   1      32.125  30.474  27.247  1.00  0.00    -0.237 OA
ATOM    100  O   UNL A   1      33.908  29.594  25.775  1.00  0.00    -0.237 OA
ATOM    101  O   UNL A   1      33.515  28.579  27.987  1.00  0.00    -0.744 OA
ENDBRANCH  94  98
ENDBRANCH  68  91
ENDBRANCH  42  43
ENDBRANCH  34  37
ENDBRANCH  32  33
ENDBRANCH   1  32
TORSDOF 15
ENDMDL
MODEL 3
REMARK VINA RESULT:     -13.2      7.315     16.204
REMARK SMILES Cc1[nH]c2ccccc2c1/C=C1/SC(=S)N(c2cccc(C(=O)NCCCNC(=O)c3ccc(-c4c5nc(c(-c6cc(S(=O)(=O)[O-])ccc6F)c6ccc([nH]6)c(-c6cc(S(=O)(=O)[O-])ccc6F)c6nc(c(-c7cc(S(=O)(=O)[O-])ccc7F)c7ccc4[nH]7)C=C6)C=C5)cc3)c2)C1=O
REMARK SMILES IDX 26 1 25 2 24 3 22 4 23 5 21 7 17 8 18 9 94 10 19 11 20 12
REMARK SMILES IDX 16 13 11 14 12 15 13 16 95 17 14 18 96 19 15 20 10 21 1 22
REMARK SMILES IDX 2 23 3 24 4 25 9 27 5 28 8 29 6 30 7 31 27 32 28 33 29 34
REMARK SMILES IDX 30 36 31 37 32 38 93 39 33 40 92 41 34 42 35 43 36 44 86 45
REMARK SMILES IDX 37 46 91 47 85 48 87 49 38 50 90 51 84 52 83 53 39 55 71 56
REMARK SMILES IDX 51 57 70 58 52 59 55 60 69 61 88 62 53 63 54 64 68 66 89 67
REMARK SMILES IDX 56 68 40 69 41 70 49 71 42 72 48 73 50 74 47 75 43 76 44 77
REMARK SMILES IDX 45 78 46 79 72 80 73 81 81 82 74 83 80 84 82 85 79 86 75 87
REMARK SMILES IDX 76 88 77 89 78 90 57 91 58 92 66 93 59 94 65 95 67 96 64 97
REMARK SMILES IDX 60 98 61 99 62 100 63 101
REMARK H PARENT 24 6 3 26 28 35 87 54 55 65
REMARK Flexibility Score: inf
ROOT
ATOM      1  C   UNL A   1      36.706  22.121  24.857  1.00  0.00     0.042 C 
ENDROOT
BRANCH   1   2
ATOM      2  C   UNL A   1      35.664  21.171  25.434  1.00  0.00     0.118 C 
BRANCH   2   3
ATOM      3  N   UNL A   1      35.208  21.544  26.765  1.00  0.00    -0.352 N 
ATOM      4  C   UNL A   1      34.085  22.113  27.308  1.00  0.00     0.251 C 
ATOM      5  O   UNL A   1      34.086  22.246  28.535  1.00  0.00    -0.269 OA
ATOM      6  H   UNL A   1      35.879  21.331  27.453  1.00  0.00     0.163 HD
BRANCH   4   7
ATOM      7  C   UNL A   1      32.902  22.620  26.550  1.00  0.00     0.041 A 
ATOM      8  C   UNL A   1      31.813  23.849  24.735  1.00  0.00     0.051 A 
ATOM      9  C   UNL A   1      30.577  23.674  25.366  1.00  0.00     0.027 A 
ATOM     10  C   UNL A   1      32.949  23.260  25.313  1.00  0.00     0.040 A 
ATOM     11  C   UNL A   1      30.485  22.944  26.548  1.00  0.00     0.003 A 
ATOM     12  C   UNL A   1      31.641  22.441  27.145  1.00  0.00     0.014 A 
BRANCH   8  13
ATOM     13  N   UNL A   1      31.968  24.758  23.637  1.00  0.00    -0.261 N 
ATOM     14  C   UNL A   1      32.222  28.271  22.675  1.00  0.00     0.032 C 
ATOM     15  C   UNL A   1      32.178  26.931  22.723  1.00  0.00     0.081 C 
ATOM     16  S   UNL A   1      32.833  25.922  21.495  1.00  0.00    -0.054 SA
ATOM     17  C   UNL A   1      31.631  26.099  23.834  1.00  0.00     0.270 C 
ATOM     18  C   UNL A   1      32.549  24.447  22.417  1.00  0.00     0.152 C 
ATOM     19  O   UNL A   1      31.014  26.559  24.787  1.00  0.00    -0.268 OA
ATOM     20  S   UNL A   1      32.890  22.950  21.747  1.00  0.00    -0.051 S 
BRANCH  14  21
ATOM     21  C   UNL A   1      31.741  29.153  23.683  1.00  0.00     0.004 A 
ATOM     22  C   UNL A   1      29.511  29.993  22.578  1.00  0.00     0.065 C 
ATOM     23  C   UNL A   1      30.573  29.889  23.613  1.00  0.00     0.020 A 
ATOM     24  N   UNL A   1      30.517  30.655  24.754  1.00  0.00    -0.358 N 
ATOM     25  C   UNL A   1      31.613  30.419  25.554  1.00  0.00     0.046 A 
ATOM     26  H   UNL A   1      29.794  31.285  24.969  1.00  0.00     0.166 HD
ATOM     27  C   UNL A   1      32.392  29.457  24.913  1.00  0.00     0.007 A 
ATOM     28  C   UNL A   1      31.975  30.990  26.779  1.00  0.00     0.027 A 
ATOM     29  C   UNL A   1      33.584  29.030  25.532  1.00  0.00     0.011 A 
ATOM     30  C   UNL A   1      33.165  30.555  27.370  1.00  0.00     0.002 A 
ATOM     31  C   UNL A   1      33.958  29.586  26.760  1.00  0.00     0.001 A 
ENDBRANCH  14  21
ENDBRANCH   8  13
ENDBRANCH   4   7
ENDBRANCH   2   3
ENDBRANCH   1   2
BRANCH   1  32
ATOM     32  C   UNL A   1      37.608  22.760  25.910  1.00  0.00     0.118 C 
BRANCH  32  33
ATOM     33  N   UNL A   1      38.802  21.964  26.170  1.00  0.00    -0.352 N 
ATOM     34  C   UNL A   1      40.088  22.323  26.482  1.00  0.00     0.251 C 
ATOM     35  H   UNL A   1      38.658  20.992  26.110  1.00  0.00     0.163 HD
ATOM     36  O   UNL A   1      40.969  21.470  26.386  1.00  0.00    -0.269 OA
BRANCH  34  37
ATOM     37  C   UNL A   1      40.431  23.693  26.926  1.00  0.00     0.039 A 
ATOM     38  C   UNL A   1      41.063  23.857  28.162  1.00  0.00     0.014 A 
ATOM     39  C   UNL A   1      40.067  24.818  26.184  1.00  0.00     0.014 A 
ATOM     40  C   UNL A   1      41.365  25.138  28.628  1.00  0.00     0.010 A 
ATOM     41  C   UNL A   1      40.455  26.090  26.602  1.00  0.00     0.010 A 
ATOM     42  C   UNL A   1      41.090  26.266  27.838  1.00  0.00    -0.014 A 
BRANCH  42  43
ATOM     43  C   UNL A   1      41.445  27.631  28.308  1.00  0.00     0.031 A 
ATOM     44  C   UNL A   1      42.881  28.084  28.323  1.00  0.00     0.074 A 
ATOM     45  C   UNL A   1      40.469  28.446  28.757  1.00  0.00     0.049 A 
ATOM     46  N   UNL A   1      43.383  29.231  28.704  1.00  0.00    -0.248 NA
ATOM     47  C   UNL A   1      43.888  27.107  27.884  1.00  0.00     0.031 C 
ATOM     48  C   UNL A   1      39.050  28.090  28.851  1.00  0.00     0.029 A 
ATOM     49  N   UNL A   1      40.516  29.738  29.212  1.00  0.00    -0.354 N 
ATOM     50  C   UNL A   1      44.762  29.108  28.564  1.00  0.00     0.074 A 
ATOM     51  C   UNL A   1      45.018  27.751  28.131  1.00  0.00     0.031 C 
ATOM     52  C   UNL A   1      38.359  29.153  29.293  1.00  0.00     0.029 A 
ATOM     53  C   UNL A   1      39.285  30.251  29.546  1.00  0.00     0.049 A 
ATOM     54  H   UNL A   1      41.354  30.250  29.292  1.00  0.00     0.167 HD
ATOM     55  C   UNL A   1      45.724  30.047  28.752  1.00  0.00     0.034 A 
ATOM     56  C   UNL A   1      38.940  31.472  29.998  1.00  0.00     0.034 A 
ATOM     57  C   UNL A   1      45.446  31.402  29.166  1.00  0.00     0.049 A 
ATOM     58  C   UNL A   1      40.021  32.509  30.166  1.00  0.00     0.074 A 
ATOM     59  C   UNL A   1      46.330  32.453  29.341  1.00  0.00     0.029 A 
ATOM     60  N   UNL A   1      44.182  31.895  29.471  1.00  0.00    -0.354 N 
ATOM     61  N   UNL A   1      41.315  32.394  29.972  1.00  0.00    -0.248 NA
ATOM     62  C   UNL A   1      39.588  33.846  30.589  1.00  0.00     0.031 C 
ATOM     63  C   UNL A   1      45.612  33.561  29.805  1.00  0.00     0.029 A 
ATOM     64  C   UNL A   1      44.267  33.226  29.852  1.00  0.00     0.049 A 
ATOM     65  H   UNL A   1      43.347  31.375  29.423  1.00  0.00     0.167 HD
ATOM     66  C   UNL A   1      41.848  33.654  30.228  1.00  0.00     0.074 A 
ATOM     67  C   UNL A   1      40.730  34.516  30.557  1.00  0.00     0.031 C 
ATOM     68  C   UNL A   1      43.143  34.065  30.198  1.00  0.00     0.034 A 
BRANCH  55  69
ATOM     69  C   UNL A   1      47.159  29.627  28.527  1.00  0.00     0.023 A 
ATOM     70  C   UNL A   1      47.967  29.160  29.580  1.00  0.00     0.031 A 
ATOM     71  C   UNL A   1      47.743  29.729  27.251  1.00  0.00     0.131 A 
ATOM     72  C   UNL A   1      49.327  28.893  29.358  1.00  0.00     0.055 A 
ATOM     73  C   UNL A   1      49.075  29.380  27.019  1.00  0.00     0.041 A 
ATOM     74  F   UNL A   1      47.032  30.187  26.209  1.00  0.00    -0.206 F 
ATOM     75  C   UNL A   1      49.880  28.974  28.079  1.00  0.00     0.022 A 
BRANCH  72  76
ATOM     76  S   UNL A   1      50.394  28.581  30.793  1.00  0.00     0.124 S 
ATOM     77  O   UNL A   1      49.409  28.298  31.834  1.00  0.00    -0.237 OA
ATOM     78  O   UNL A   1      51.197  27.448  30.348  1.00  0.00    -0.237 OA
ATOM     79  O   UNL A   1      51.122  29.838  30.957  1.00  0.00    -0.744 OA
ENDBRANCH  72  76
ENDBRANCH  55  69
BRANCH  56  80
ATOM     80  C   UNL A   1      37.517  31.793  30.302  1.00  0.00     0.023 A 
ATOM     81  C   UNL A   1      36.731  32.520  29.394  1.00  0.00     0.031 A 
ATOM     82  C   UNL A   1      36.931  31.407  31.521  1.00  0.00     0.131 A 
ATOM     83  C   UNL A   1      35.419  32.882  29.737  1.00  0.00     0.055 A 
ATOM     84  C   UNL A   1      35.609  31.725  31.836  1.00  0.00     0.041 A 
ATOM     85  F   UNL A   1      37.635  30.700  32.418  1.00  0.00    -0.206 F 
ATOM     86  C   UNL A   1      34.849  32.480  30.947  1.00  0.00     0.022 A 
BRANCH  83  87
ATOM     87  S   UNL A   1      34.493  33.960  28.610  1.00  0.00     0.124 S 
ATOM     88  O   UNL A   1      35.103  35.258  28.870  1.00  0.00    -0.237 OA
ATOM     89  O   UNL A   1      34.786  33.361  27.312  1.00  0.00    -0.237 OA
ATOM     90  O   UNL A   1      33.111  33.816  29.062  1.00  0.00    -0.744 OA
ENDBRANCH  83  87
ENDBRANCH  56  80
BRANCH  68  91
ATOM     91  C   UNL A   1      43.395  35.521  30.504  1.00  0.00     0.023 A 
ATOM     92  C   UNL A   1      43.355  36.501  29.496  1.00  0.00     0.031 A 
ATOM     93  C   UNL A   1      43.733  35.925  31.806  1.00  0.00     0.131 A 
ATOM     94  C   UNL A   1      43.730  37.820  29.789  1.00  0.00     0.055 A 
ATOM     95  C   UNL A   1      44.038  37.254  32.107  1.00  0.00     0.041 A 
ATOM     96  F   UNL A   1      43.788  35.032  32.807  1.00  0.00    -0.206 F 
ATOM     97  C   UNL A   1      44.057  38.206  31.092  1.00  0.00     0.022 A 
BRANCH  94  98
ATOM     98  S   UNL A   1      43.919  38.993  28.417  1.00  0.00     0.124 S 
ATOM     99  O   UNL A   1      44.729  40.044  29.026  1.00  0.00    -0.237 OA
ATOM    100  O   UNL A   1      44.585  38.181  27.404  1.00  0.00    -0.237 OA
ATOM    101  O   UNL A   1      42.544  39.375  28.102  1.00  0.00    -0.744 OA
ENDBRANCH  94  98
ENDBRANCH  68  91
ENDBRANCH  42  43
ENDBRANCH  34  37
ENDBRANCH  32  33
ENDBRANCH   1  32
TORSDOF 15
ENDMDL
