MODEL 1
REMARK VINA RESULT:     -10.8      0.000      0.000
REMARK SMILES CC[C@@H](C(=O)NCCCNC(=O)c1ccc(-c2c3nc(c(-c4cc(S(=O)(=O)[O-])ccc4F)c4ccc([nH]4)c(-c4cc(S(=O)(=O)[O-])ccc4F)c4nc(c(-c5cc(S(=O)(=O)[O-])ccc5F)c5ccc2[nH]5)C=C4)C=C3)cc1)N(C)C(=O)N(C)C[C@@H]1CCC[N@H+]1C
REMARK SMILES IDX 7 1 6 2 4 3 5 4 3 6 2 7 1 8 76 9 77 10 78 11 79 12 80 13
REMARK SMILES IDX 81 14 82 15 83 16 84 17 87 18 85 19 86 20 88 21 8 23 9 24
REMARK SMILES IDX 10 25 11 26 12 28 13 29 14 30 75 31 15 32 74 33 16 34 17 35
REMARK SMILES IDX 18 36 68 37 19 38 73 39 67 40 69 41 20 42 72 43 66 44 65 45
REMARK SMILES IDX 21 47 53 48 33 49 52 50 34 51 37 52 51 53 70 54 35 55 36 56
REMARK SMILES IDX 50 58 71 59 38 60 22 61 23 62 31 63 24 64 30 65 32 66 29 67
REMARK SMILES IDX 25 68 26 69 27 70 28 71 54 72 55 73 63 74 56 75 62 76 64 77
REMARK SMILES IDX 61 78 57 79 58 80 59 81 60 82 39 83 40 84 48 85 41 86 47 87
REMARK SMILES IDX 49 88 46 89 42 90 43 91 44 92 45 93
REMARK H PARENT 6 5 87 22 10 27 69 46 37 57
REMARK Flexibility Score: inf
ROOT
ATOM      1  C   UNL A   1      31.473  30.624  26.054  1.00  0.00     0.117 C 
ENDROOT
BRANCH   1   2
ATOM      2  N   UNL A   1      30.934  30.454  24.723  1.00  0.00    -0.354 N 
ATOM      3  C   UNL A   1      30.675  29.356  23.964  1.00  0.00     0.242 C 
ATOM      4  O   UNL A   1      29.984  29.603  22.968  1.00  0.00    -0.273 OA
ATOM      5  H   UNL A   1      30.711  31.303  24.277  1.00  0.00     0.163 HD
BRANCH   3   6
ATOM      6  C   UNL A   1      31.099  27.907  24.378  1.00  0.00     0.175 C 
BRANCH   6   7
ATOM      7  C   UNL A   1      31.631  27.660  25.809  1.00  0.00     0.032 C 
ATOM      8  C   UNL A   1      31.490  26.262  26.377  1.00  0.00     0.006 C 
ENDBRANCH   6   7
BRANCH   6   9
ATOM      9  N   UNL A   1      32.101  27.424  23.361  1.00  0.00    -0.316 N 
ATOM     10  C   UNL A   1      33.453  27.913  23.547  1.00  0.00     0.149 C 
BRANCH   9  11
ATOM     11  C   UNL A   1      31.689  26.407  22.506  1.00  0.00     0.320 C 
ATOM     12  O   UNL A   1      31.322  26.686  21.359  1.00  0.00    -0.248 OA
BRANCH  11  13
ATOM     13  N   UNL A   1      31.711  25.076  22.876  1.00  0.00    -0.322 N 
ATOM     14  C   UNL A   1      30.653  24.266  23.453  1.00  0.00     0.149 C 
BRANCH  13  15
ATOM     15  C   UNL A   1      33.051  24.456  22.960  1.00  0.00     0.185 C 
BRANCH  15  16
ATOM     16  C   UNL A   1      33.463  23.802  24.313  1.00  0.00     0.203 C 
ATOM     17  C   UNL A   1      34.529  24.609  25.078  1.00  0.00     0.073 C 
ATOM     18  N   UNL A   1      33.986  22.429  24.277  1.00  0.00    -0.333 N 
ATOM     19  C   UNL A   1      35.516  23.581  25.612  1.00  0.00     0.068 C 
ATOM     20  C   UNL A   1      34.787  22.258  25.487  1.00  0.00     0.262 C 
ATOM     21  C   UNL A   1      32.979  21.400  24.125  1.00  0.00     0.333 C 
ATOM     22  H   UNL A   1      34.553  22.310  23.437  1.00  0.00     0.348 HD
ENDBRANCH  15  16
ENDBRANCH  13  15
ENDBRANCH  11  13
ENDBRANCH   9  11
ENDBRANCH   6   9
ENDBRANCH   3   6
ENDBRANCH   1   2
BRANCH   1  23
ATOM     23  C   UNL A   1      31.426  32.081  26.497  1.00  0.00     0.042 C 
BRANCH  23  24
ATOM     24  C   UNL A   1      32.707  32.587  27.148  1.00  0.00     0.118 C 
BRANCH  24  25
ATOM     25  N   UNL A   1      32.582  33.945  27.650  1.00  0.00    -0.352 N 
ATOM     26  C   UNL A   1      33.233  34.563  28.691  1.00  0.00     0.251 C 
ATOM     27  H   UNL A   1      31.933  34.509  27.172  1.00  0.00     0.163 HD
ATOM     28  O   UNL A   1      32.820  35.663  29.077  1.00  0.00    -0.269 OA
BRANCH  26  29
ATOM     29  C   UNL A   1      34.386  33.927  29.371  1.00  0.00     0.039 A 
ATOM     30  C   UNL A   1      35.679  34.346  29.039  1.00  0.00     0.014 A 
ATOM     31  C   UNL A   1      34.216  32.902  30.305  1.00  0.00     0.014 A 
ATOM     32  C   UNL A   1      36.785  33.782  29.685  1.00  0.00     0.010 A 
ATOM     33  C   UNL A   1      35.311  32.410  31.015  1.00  0.00     0.010 A 
ATOM     34  C   UNL A   1      36.611  32.833  30.706  1.00  0.00    -0.014 A 
BRANCH  34  35
ATOM     35  C   UNL A   1      37.775  32.267  31.440  1.00  0.00     0.031 A 
ATOM     36  C   UNL A   1      38.601  31.167  30.823  1.00  0.00     0.074 A 
ATOM     37  C   UNL A   1      38.057  32.697  32.686  1.00  0.00     0.049 A 
ATOM     38  N   UNL A   1      39.615  30.508  31.325  1.00  0.00    -0.248 NA
ATOM     39  C   UNL A   1      38.210  30.729  29.476  1.00  0.00     0.031 C 
ATOM     40  C   UNL A   1      37.302  33.716  33.417  1.00  0.00     0.029 A 
ATOM     41  N   UNL A   1      39.047  32.326  33.563  1.00  0.00    -0.354 N 
ATOM     42  C   UNL A   1      39.970  29.566  30.365  1.00  0.00     0.074 A 
ATOM     43  C   UNL A   1      39.016  29.696  29.284  1.00  0.00     0.031 C 
ATOM     44  C   UNL A   1      37.868  33.906  34.619  1.00  0.00     0.029 A 
ATOM     45  C   UNL A   1      38.997  32.992  34.766  1.00  0.00     0.049 A 
ATOM     46  H   UNL A   1      39.727  31.647  33.352  1.00  0.00     0.167 HD
ATOM     47  C   UNL A   1      41.008  28.691  30.371  1.00  0.00     0.034 A 
ATOM     48  C   UNL A   1      39.762  32.874  35.869  1.00  0.00     0.034 A 
ATOM     49  C   UNL A   1      41.955  28.581  31.455  1.00  0.00     0.049 A 
ATOM     50  C   UNL A   1      40.903  31.890  35.865  1.00  0.00     0.074 A 
ATOM     51  C   UNL A   1      43.085  27.786  31.538  1.00  0.00     0.029 A 
ATOM     52  N   UNL A   1      41.876  29.276  32.657  1.00  0.00    -0.354 N 
ATOM     53  N   UNL A   1      41.269  31.055  34.921  1.00  0.00    -0.248 NA
ATOM     54  C   UNL A   1      41.739  31.844  37.070  1.00  0.00     0.031 C 
ATOM     55  C   UNL A   1      43.641  27.941  32.812  1.00  0.00     0.029 A 
ATOM     56  C   UNL A   1      42.911  28.898  33.499  1.00  0.00     0.049 A 
ATOM     57  H   UNL A   1      41.184  29.941  32.878  1.00  0.00     0.167 HD
ATOM     58  C   UNL A   1      42.395  30.397  35.411  1.00  0.00     0.074 A 
ATOM     59  C   UNL A   1      42.653  30.947  36.727  1.00  0.00     0.031 C 
ATOM     60  C   UNL A   1      43.147  29.432  34.823  1.00  0.00     0.034 A 
BRANCH  47  61
ATOM     61  C   UNL A   1      41.141  27.766  29.181  1.00  0.00     0.023 A 
ATOM     62  C   UNL A   1      42.148  27.941  28.214  1.00  0.00     0.031 A 
ATOM     63  C   UNL A   1      40.216  26.727  28.976  1.00  0.00     0.131 A 
ATOM     64  C   UNL A   1      42.145  27.166  27.044  1.00  0.00     0.055 A 
ATOM     65  C   UNL A   1      40.275  25.894  27.855  1.00  0.00     0.041 A 
ATOM     66  F   UNL A   1      39.220  26.514  29.851  1.00  0.00    -0.206 F 
ATOM     67  C   UNL A   1      41.231  26.126  26.870  1.00  0.00     0.022 A 
BRANCH  64  68
ATOM     68  S   UNL A   1      43.231  27.660  25.677  1.00  0.00     0.124 S 
ATOM     69  O   UNL A   1      44.027  26.450  25.480  1.00  0.00    -0.237 OA
ATOM     70  O   UNL A   1      42.280  27.979  24.618  1.00  0.00    -0.237 OA
ATOM     71  O   UNL A   1      43.968  28.799  26.220  1.00  0.00    -0.744 OA
ENDBRANCH  64  68
ENDBRANCH  47  61
BRANCH  48  72
ATOM     72  C   UNL A   1      39.464  33.702  37.072  1.00  0.00     0.023 A 
ATOM     73  C   UNL A   1      38.776  33.169  38.174  1.00  0.00     0.031 A 
ATOM     74  C   UNL A   1      39.866  35.049  37.134  1.00  0.00     0.131 A 
ATOM     75  C   UNL A   1      38.488  33.984  39.279  1.00  0.00     0.055 A 
ATOM     76  C   UNL A   1      39.617  35.843  38.254  1.00  0.00     0.041 A 
ATOM     77  F   UNL A   1      40.532  35.606  36.109  1.00  0.00    -0.206 F 
ATOM     78  C   UNL A   1      38.917  35.312  39.333  1.00  0.00     0.022 A 
BRANCH  75  79
ATOM     79  S   UNL A   1      37.500  33.296  40.636  1.00  0.00     0.124 S 
ATOM     80  O   UNL A   1      38.379  32.249  41.144  1.00  0.00    -0.237 OA
ATOM     81  O   UNL A   1      37.317  34.458  41.499  1.00  0.00    -0.237 OA
ATOM     82  O   UNL A   1      36.288  32.825  39.968  1.00  0.00    -0.744 OA
ENDBRANCH  75  79
ENDBRANCH  48  72
BRANCH  60  83
ATOM     83  C   UNL A   1      44.347  28.933  35.593  1.00  0.00     0.023 A 
ATOM     84  C   UNL A   1      44.241  27.903  36.545  1.00  0.00     0.031 A 
ATOM     85  C   UNL A   1      45.613  29.505  35.378  1.00  0.00     0.131 A 
ATOM     86  C   UNL A   1      45.368  27.516  37.286  1.00  0.00     0.055 A 
ATOM     87  C   UNL A   1      46.744  29.072  36.072  1.00  0.00     0.041 A 
ATOM     88  F   UNL A   1      45.774  30.495  34.486  1.00  0.00    -0.206 F 
ATOM     89  C   UNL A   1      46.624  28.081  37.042  1.00  0.00     0.022 A 
BRANCH  86  90
ATOM     90  S   UNL A   1      45.157  26.331  38.642  1.00  0.00     0.124 S 
ATOM     91  O   UNL A   1      45.951  26.941  39.704  1.00  0.00    -0.237 OA
ATOM     92  O   UNL A   1      43.712  26.337  38.842  1.00  0.00    -0.237 OA
ATOM     93  O   UNL A   1      45.701  25.087  38.099  1.00  0.00    -0.744 OA
ENDBRANCH  86  90
ENDBRANCH  60  83
ENDBRANCH  34  35
ENDBRANCH  26  29
ENDBRANCH  24  25
ENDBRANCH  23  24
ENDBRANCH   1  23
TORSDOF 19
ENDMDL
MODEL 2
REMARK VINA RESULT:     -10.7      3.077      8.485
REMARK SMILES CC[C@@H](C(=O)NCCCNC(=O)c1ccc(-c2c3nc(c(-c4cc(S(=O)(=O)[O-])ccc4F)c4ccc([nH]4)c(-c4cc(S(=O)(=O)[O-])ccc4F)c4nc(c(-c5cc(S(=O)(=O)[O-])ccc5F)c5ccc2[nH]5)C=C4)C=C3)cc1)N(C)C(=O)N(C)C[C@@H]1CCC[N@H+]1C
REMARK SMILES IDX 7 1 6 2 4 3 5 4 3 6 2 7 1 8 76 9 77 10 78 11 79 12 80 13
REMARK SMILES IDX 81 14 82 15 83 16 84 17 87 18 85 19 86 20 88 21 8 23 9 24
REMARK SMILES IDX 10 25 11 26 12 28 13 29 14 30 75 31 15 32 74 33 16 34 17 35
REMARK SMILES IDX 18 36 68 37 19 38 73 39 67 40 69 41 20 42 72 43 66 44 65 45
REMARK SMILES IDX 21 47 53 48 33 49 52 50 34 51 37 52 51 53 70 54 35 55 36 56
REMARK SMILES IDX 50 58 71 59 38 60 22 61 23 62 31 63 24 64 30 65 32 66 29 67
REMARK SMILES IDX 25 68 26 69 27 70 28 71 54 72 55 73 63 74 56 75 62 76 64 77
REMARK SMILES IDX 61 78 57 79 58 80 59 81 60 82 39 83 40 84 48 85 41 86 47 87
REMARK SMILES IDX 49 88 46 89 42 90 43 91 44 92 45 93
REMARK H PARENT 6 5 87 22 10 27 69 46 37 57
REMARK Flexibility Score: inf
ROOT
ATOM      1  C   UNL A   1      32.033  27.636  26.539  1.00  0.00     0.117 C 
ENDROOT
BRANCH   1   2
ATOM      2  N   UNL A   1      31.146  27.512  25.404  1.00  0.00    -0.354 N 
ATOM      3  C   UNL A   1      31.314  27.017  24.149  1.00  0.00     0.242 C 
ATOM      4  O   UNL A   1      30.250  26.858  23.539  1.00  0.00    -0.273 OA
ATOM      5  H   UNL A   1      30.239  27.855  25.573  1.00  0.00     0.163 HD
BRANCH   3   6
ATOM      6  C   UNL A   1      32.704  26.572  23.581  1.00  0.00     0.175 C 
BRANCH   6   7
ATOM      7  C   UNL A   1      33.524  27.573  22.735  1.00  0.00     0.032 C 
ATOM      8  C   UNL A   1      33.618  29.000  23.237  1.00  0.00     0.006 C 
ENDBRANCH   6   7
BRANCH   6   9
ATOM      9  N   UNL A   1      32.486  25.296  22.810  1.00  0.00    -0.316 N 
ATOM     10  C   UNL A   1      32.584  25.421  21.369  1.00  0.00     0.149 C 
BRANCH   9  11
ATOM     11  C   UNL A   1      32.442  24.116  23.547  1.00  0.00     0.320 C 
ATOM     12  O   UNL A   1      31.356  23.557  23.737  1.00  0.00    -0.248 OA
BRANCH  11  13
ATOM     13  N   UNL A   1      33.580  23.513  24.047  1.00  0.00    -0.322 N 
ATOM     14  C   UNL A   1      34.964  23.692  23.648  1.00  0.00     0.149 C 
BRANCH  13  15
ATOM     15  C   UNL A   1      33.354  22.331  24.906  1.00  0.00     0.185 C 
BRANCH  15  16
ATOM     16  C   UNL A   1      33.662  20.928  24.301  1.00  0.00     0.203 C 
ATOM     17  C   UNL A   1      32.394  20.119  23.967  1.00  0.00     0.073 C 
ATOM     18  N   UNL A   1      34.493  20.010  25.094  1.00  0.00    -0.333 N 
ATOM     19  C   UNL A   1      32.680  18.698  24.431  1.00  0.00     0.068 C 
ATOM     20  C   UNL A   1      34.182  18.660  24.627  1.00  0.00     0.262 C 
ATOM     21  C   UNL A   1      35.912  20.297  25.062  1.00  0.00     0.333 C 
ATOM     22  H   UNL A   1      34.266  20.123  26.081  1.00  0.00     0.348 HD
ENDBRANCH  15  16
ENDBRANCH  13  15
ENDBRANCH  11  13
ENDBRANCH   9  11
ENDBRANCH   6   9
ENDBRANCH   3   6
ENDBRANCH   1   2
BRANCH   1  23
ATOM     23  C   UNL A   1      32.119  29.076  27.029  1.00  0.00     0.042 C 
BRANCH  23  24
ATOM     24  C   UNL A   1      33.488  29.723  26.856  1.00  0.00     0.118 C 
BRANCH  24  25
ATOM     25  N   UNL A   1      33.521  31.099  27.325  1.00  0.00    -0.352 N 
ATOM     26  C   UNL A   1      34.400  31.717  28.180  1.00  0.00     0.251 C 
ATOM     27  H   UNL A   1      32.805  31.676  26.976  1.00  0.00     0.163 HD
ATOM     28  O   UNL A   1      34.119  32.843  28.606  1.00  0.00    -0.269 OA
BRANCH  26  29
ATOM     29  C   UNL A   1      35.649  31.052  28.622  1.00  0.00     0.039 A 
ATOM     30  C   UNL A   1      36.877  31.618  28.264  1.00  0.00     0.014 A 
ATOM     31  C   UNL A   1      35.631  29.862  29.354  1.00  0.00     0.014 A 
ATOM     32  C   UNL A   1      38.072  31.027  28.690  1.00  0.00     0.010 A 
ATOM     33  C   UNL A   1      36.817  29.328  29.857  1.00  0.00     0.010 A 
ATOM     34  C   UNL A   1      38.054  29.896  29.521  1.00  0.00    -0.014 A 
BRANCH  34  35
ATOM     35  C   UNL A   1      39.316  29.290  30.028  1.00  0.00     0.031 A 
ATOM     36  C   UNL A   1      40.014  29.876  31.227  1.00  0.00     0.074 A 
ATOM     37  C   UNL A   1      39.869  28.248  29.375  1.00  0.00     0.049 A 
ATOM     38  N   UNL A   1      41.147  29.527  31.784  1.00  0.00    -0.248 NA
ATOM     39  C   UNL A   1      39.366  31.032  31.863  1.00  0.00     0.031 C 
ATOM     40  C   UNL A   1      39.323  27.623  28.170  1.00  0.00     0.029 A 
ATOM     41  N   UNL A   1      41.016  27.537  29.626  1.00  0.00    -0.354 N 
ATOM     42  C   UNL A   1      41.356  30.431  32.821  1.00  0.00     0.074 A 
ATOM     43  C   UNL A   1      40.268  31.383  32.767  1.00  0.00     0.031 C 
ATOM     44  C   UNL A   1      40.120  26.608  27.799  1.00  0.00     0.029 A 
ATOM     45  C   UNL A   1      41.259  26.538  28.711  1.00  0.00     0.049 A 
ATOM     46  H   UNL A   1      41.611  27.724  30.387  1.00  0.00     0.167 HD
ATOM     47  C   UNL A   1      42.349  30.451  33.746  1.00  0.00     0.034 A 
ATOM     48  C   UNL A   1      42.285  25.671  28.606  1.00  0.00     0.034 A 
ATOM     49  C   UNL A   1      43.423  29.486  33.789  1.00  0.00     0.049 A 
ATOM     50  C   UNL A   1      43.385  25.713  29.634  1.00  0.00     0.074 A 
ATOM     51  C   UNL A   1      44.438  29.365  34.722  1.00  0.00     0.029 A 
ATOM     52  N   UNL A   1      43.633  28.485  32.848  1.00  0.00    -0.354 N 
ATOM     53  N   UNL A   1      43.533  26.530  30.651  1.00  0.00    -0.248 NA
ATOM     54  C   UNL A   1      44.448  24.710  29.505  1.00  0.00     0.031 C 
ATOM     55  C   UNL A   1      45.301  28.346  34.305  1.00  0.00     0.029 A 
ATOM     56  C   UNL A   1      44.782  27.770  33.156  1.00  0.00     0.049 A 
ATOM     57  H   UNL A   1      43.050  28.308  32.074  1.00  0.00     0.167 HD
ATOM     58  C   UNL A   1      44.697  26.123  31.299  1.00  0.00     0.074 A 
ATOM     59  C   UNL A   1      45.200  24.979  30.563  1.00  0.00     0.031 C 
ATOM     60  C   UNL A   1      45.292  26.645  32.403  1.00  0.00     0.034 A 
BRANCH  47  61
ATOM     61  C   UNL A   1      42.329  31.574  34.760  1.00  0.00     0.023 A 
ATOM     62  C   UNL A   1      41.444  31.570  35.854  1.00  0.00     0.031 A 
ATOM     63  C   UNL A   1      43.165  32.694  34.603  1.00  0.00     0.131 A 
ATOM     64  C   UNL A   1      41.341  32.700  36.681  1.00  0.00     0.055 A 
ATOM     65  C   UNL A   1      43.126  33.776  35.487  1.00  0.00     0.041 A 
ATOM     66  F   UNL A   1      44.021  32.770  33.571  1.00  0.00    -0.206 F 
ATOM     67  C   UNL A   1      42.195  33.791  36.521  1.00  0.00     0.022 A 
BRANCH  64  68
ATOM     68  S   UNL A   1      39.952  32.794  37.845  1.00  0.00     0.124 S 
ATOM     69  O   UNL A   1      39.040  31.792  37.298  1.00  0.00    -0.237 OA
ATOM     70  O   UNL A   1      40.583  32.458  39.116  1.00  0.00    -0.237 OA
ATOM     71  O   UNL A   1      39.493  34.175  37.719  1.00  0.00    -0.744 OA
ENDBRANCH  64  68
ENDBRANCH  47  61
BRANCH  48  72
ATOM     72  C   UNL A   1      42.324  24.699  27.476  1.00  0.00     0.023 A 
ATOM     73  C   UNL A   1      41.580  23.509  27.511  1.00  0.00     0.031 A 
ATOM     74  C   UNL A   1      43.112  24.951  26.338  1.00  0.00     0.131 A 
ATOM     75  C   UNL A   1      41.660  22.603  26.442  1.00  0.00     0.055 A 
ATOM     76  C   UNL A   1      43.153  24.069  25.258  1.00  0.00     0.041 A 
ATOM     77  F   UNL A   1      43.837  26.079  26.252  1.00  0.00    -0.206 F 
ATOM     78  C   UNL A   1      42.429  22.882  25.310  1.00  0.00     0.022 A 
BRANCH  75  79
ATOM     79  S   UNL A   1      40.776  21.024  26.570  1.00  0.00     0.124 S 
ATOM     80  O   UNL A   1      41.643  20.135  25.804  1.00  0.00    -0.237 OA
ATOM     81  O   UNL A   1      40.747  20.808  28.013  1.00  0.00    -0.237 OA
ATOM     82  O   UNL A   1      39.479  21.310  25.961  1.00  0.00    -0.744 OA
ENDBRANCH  75  79
ENDBRANCH  48  72
BRANCH  60  83
ATOM     83  C   UNL A   1      46.540  25.956  32.901  1.00  0.00     0.023 A 
ATOM     84  C   UNL A   1      46.483  24.873  33.795  1.00  0.00     0.031 A 
ATOM     85  C   UNL A   1      47.807  26.399  32.482  1.00  0.00     0.131 A 
ATOM     86  C   UNL A   1      47.669  24.305  34.284  1.00  0.00     0.055 A 
ATOM     87  C   UNL A   1      48.983  25.790  32.921  1.00  0.00     0.041 A 
ATOM     88  F   UNL A   1      47.924  27.433  31.633  1.00  0.00    -0.206 F 
ATOM     89  C   UNL A   1      48.919  24.744  33.839  1.00  0.00     0.022 A 
BRANCH  86  90
ATOM     90  S   UNL A   1      47.563  23.047  35.587  1.00  0.00     0.124 S 
ATOM     91  O   UNL A   1      46.458  22.217  35.117  1.00  0.00    -0.237 OA
ATOM     92  O   UNL A   1      48.886  22.435  35.539  1.00  0.00    -0.237 OA
ATOM     93  O   UNL A   1      47.283  23.824  36.793  1.00  0.00    -0.744 OA
ENDBRANCH  86  90
ENDBRANCH  60  83
ENDBRANCH  34  35
ENDBRANCH  26  29
ENDBRANCH  24  25
ENDBRANCH  23  24
ENDBRANCH   1  23
TORSDOF 19
ENDMDL
MODEL 3
REMARK VINA RESULT:     -10.6      2.383      8.160
REMARK SMILES CC[C@@H](C(=O)NCCCNC(=O)c1ccc(-c2c3nc(c(-c4cc(S(=O)(=O)[O-])ccc4F)c4ccc([nH]4)c(-c4cc(S(=O)(=O)[O-])ccc4F)c4nc(c(-c5cc(S(=O)(=O)[O-])ccc5F)c5ccc2[nH]5)C=C4)C=C3)cc1)N(C)C(=O)N(C)C[C@@H]1CCC[N@H+]1C
REMARK SMILES IDX 7 1 6 2 4 3 5 4 3 6 2 7 1 8 76 9 77 10 78 11 79 12 80 13
REMARK SMILES IDX 81 14 82 15 83 16 84 17 87 18 85 19 86 20 88 21 8 23 9 24
REMARK SMILES IDX 10 25 11 26 12 28 13 29 14 30 75 31 15 32 74 33 16 34 17 35
REMARK SMILES IDX 18 36 68 37 19 38 73 39 67 40 69 41 20 42 72 43 66 44 65 45
REMARK SMILES IDX 21 47 53 48 33 49 52 50 34 51 37 52 51 53 70 54 35 55 36 56
REMARK SMILES IDX 50 58 71 59 38 60 22 61 23 62 31 63 24 64 30 65 32 66 29 67
REMARK SMILES IDX 25 68 26 69 27 70 28 71 54 72 55 73 63 74 56 75 62 76 64 77
REMARK SMILES IDX 61 78 57 79 58 80 59 81 60 82 39 83 40 84 48 85 41 86 47 87
REMARK SMILES IDX 49 88 46 89 42 90 43 91 44 92 45 93
REMARK H PARENT 6 5 87 22 10 27 69 46 37 57
REMARK Flexibility Score: inf
ROOT
ATOM      1  C   UNL A   1      33.234  28.299  26.139  1.00  0.00     0.117 C 
ENDROOT
BRANCH   1   2
ATOM      2  N   UNL A   1      32.122  27.472  26.555  1.00  0.00    -0.354 N 
ATOM      3  C   UNL A   1      31.186  26.767  25.867  1.00  0.00     0.242 C 
ATOM      4  O   UNL A   1      30.545  25.983  26.576  1.00  0.00    -0.273 OA
ATOM      5  H   UNL A   1      32.025  27.407  27.533  1.00  0.00     0.163 HD
BRANCH   3   6
ATOM      6  C   UNL A   1      31.023  26.848  24.311  1.00  0.00     0.175 C 
BRANCH   6   7
ATOM      7  C   UNL A   1      29.627  27.150  23.718  1.00  0.00     0.032 C 
ATOM      8  C   UNL A   1      29.459  28.447  22.951  1.00  0.00     0.006 C 
ENDBRANCH   6   7
BRANCH   6   9
ATOM      9  N   UNL A   1      31.566  25.565  23.736  1.00  0.00    -0.316 N 
ATOM     10  C   UNL A   1      30.572  24.552  23.440  1.00  0.00     0.149 C 
BRANCH   9  11
ATOM     11  C   UNL A   1      32.901  25.567  23.345  1.00  0.00     0.320 C 
ATOM     12  O   UNL A   1      33.373  26.569  22.794  1.00  0.00    -0.248 OA
BRANCH  11  13
ATOM     13  N   UNL A   1      33.744  24.500  23.584  1.00  0.00    -0.322 N 
ATOM     14  C   UNL A   1      34.038  23.355  22.741  1.00  0.00     0.149 C 
BRANCH  13  15
ATOM     15  C   UNL A   1      34.200  24.344  24.983  1.00  0.00     0.185 C 
BRANCH  15  16
ATOM     16  C   UNL A   1      33.866  23.005  25.707  1.00  0.00     0.203 C 
ATOM     17  C   UNL A   1      32.618  23.094  26.605  1.00  0.00     0.073 C 
ATOM     18  N   UNL A   1      34.904  22.417  26.567  1.00  0.00    -0.333 N 
ATOM     19  C   UNL A   1      32.978  22.352  27.883  1.00  0.00     0.068 C 
ATOM     20  C   UNL A   1      34.213  21.552  27.520  1.00  0.00     0.262 C 
ATOM     21  C   UNL A   1      35.963  21.730  25.857  1.00  0.00     0.333 C 
ATOM     22  H   UNL A   1      35.407  23.166  27.042  1.00  0.00     0.348 HD
ENDBRANCH  15  16
ENDBRANCH  13  15
ENDBRANCH  11  13
ENDBRANCH   9  11
ENDBRANCH   6   9
ENDBRANCH   3   6
ENDBRANCH   1   2
BRANCH   1  23
ATOM     23  C   UNL A   1      32.813  29.752  25.955  1.00  0.00     0.042 C 
BRANCH  23  24
ATOM     24  C   UNL A   1      32.637  30.529  27.255  1.00  0.00     0.118 C 
BRANCH  24  25
ATOM     25  N   UNL A   1      32.941  31.943  27.108  1.00  0.00    -0.352 N 
ATOM     26  C   UNL A   1      34.014  32.665  27.569  1.00  0.00     0.251 C 
ATOM     27  H   UNL A   1      32.277  32.462  26.601  1.00  0.00     0.163 HD
ATOM     28  O   UNL A   1      33.967  33.900  27.508  1.00  0.00    -0.269 OA
BRANCH  26  29
ATOM     29  C   UNL A   1      35.199  32.001  28.162  1.00  0.00     0.039 A 
ATOM     30  C   UNL A   1      36.401  32.712  28.241  1.00  0.00     0.014 A 
ATOM     31  C   UNL A   1      35.155  30.678  28.609  1.00  0.00     0.014 A 
ATOM     32  C   UNL A   1      37.529  32.120  28.819  1.00  0.00     0.010 A 
ATOM     33  C   UNL A   1      36.250  30.124  29.272  1.00  0.00     0.010 A 
ATOM     34  C   UNL A   1      37.456  30.832  29.374  1.00  0.00    -0.014 A 
BRANCH  34  35
ATOM     35  C   UNL A   1      38.632  30.211  30.042  1.00  0.00     0.031 A 
ATOM     36  C   UNL A   1      39.026  30.633  31.434  1.00  0.00     0.074 A 
ATOM     37  C   UNL A   1      39.383  29.310  29.378  1.00  0.00     0.049 A 
ATOM     38  N   UNL A   1      40.047  30.252  32.161  1.00  0.00    -0.248 NA
ATOM     39  C   UNL A   1      38.177  31.644  32.079  1.00  0.00     0.031 C 
ATOM     40  C   UNL A   1      39.142  28.858  28.007  1.00  0.00     0.029 A 
ATOM     41  N   UNL A   1      40.508  28.621  29.760  1.00  0.00    -0.354 N 
ATOM     42  C   UNL A   1      39.973  30.990  33.339  1.00  0.00     0.074 A 
ATOM     43  C   UNL A   1      38.848  31.889  33.194  1.00  0.00     0.031 C 
ATOM     44  C   UNL A   1      40.073  27.951  27.672  1.00  0.00     0.029 A 
ATOM     45  C   UNL A   1      41.005  27.790  28.783  1.00  0.00     0.049 A 
ATOM     46  H   UNL A   1      40.920  28.713  30.649  1.00  0.00     0.167 HD
ATOM     47  C   UNL A   1      40.754  30.909  34.445  1.00  0.00     0.034 A 
ATOM     48  C   UNL A   1      42.096  26.997  28.773  1.00  0.00     0.034 A 
ATOM     49  C   UNL A   1      41.867  29.999  34.575  1.00  0.00     0.049 A 
ATOM     50  C   UNL A   1      42.959  26.927  30.006  1.00  0.00     0.074 A 
ATOM     51  C   UNL A   1      42.679  29.778  35.674  1.00  0.00     0.029 A 
ATOM     52  N   UNL A   1      42.339  29.168  33.565  1.00  0.00    -0.354 N 
ATOM     53  N   UNL A   1      42.835  27.580  31.139  1.00  0.00    -0.248 NA
ATOM     54  C   UNL A   1      44.099  26.005  29.961  1.00  0.00     0.031 C 
ATOM     55  C   UNL A   1      43.684  28.877  35.306  1.00  0.00     0.029 A 
ATOM     56  C   UNL A   1      43.453  28.466  34.003  1.00  0.00     0.049 A 
ATOM     57  H   UNL A   1      41.940  29.089  32.668  1.00  0.00     0.167 HD
ATOM     58  C   UNL A   1      43.872  27.129  31.952  1.00  0.00     0.074 A 
ATOM     59  C   UNL A   1      44.599  26.138  31.182  1.00  0.00     0.031 C 
ATOM     60  C   UNL A   1      44.189  27.498  33.220  1.00  0.00     0.034 A 
BRANCH  47  61
ATOM     61  C   UNL A   1      40.443  31.858  35.583  1.00  0.00     0.023 A 
ATOM     62  C   UNL A   1      39.396  31.611  36.490  1.00  0.00     0.031 A 
ATOM     63  C   UNL A   1      41.165  33.055  35.733  1.00  0.00     0.131 A 
ATOM     64  C   UNL A   1      39.035  32.587  37.431  1.00  0.00     0.055 A 
ATOM     65  C   UNL A   1      40.863  33.980  36.735  1.00  0.00     0.041 A 
ATOM     66  F   UNL A   1      42.166  33.361  34.892  1.00  0.00    -0.206 F 
ATOM     67  C   UNL A   1      39.778  33.758  37.578  1.00  0.00     0.022 A 
BRANCH  64  68
ATOM     68  S   UNL A   1      37.471  32.383  38.330  1.00  0.00     0.124 S 
ATOM     69  O   UNL A   1      37.261  30.940  38.232  1.00  0.00    -0.237 OA
ATOM     70  O   UNL A   1      37.801  32.892  39.656  1.00  0.00    -0.237 OA
ATOM     71  O   UNL A   1      36.528  33.194  37.564  1.00  0.00    -0.744 OA
ENDBRANCH  64  68
ENDBRANCH  47  61
BRANCH  48  72
ATOM     72  C   UNL A   1      42.436  26.217  27.550  1.00  0.00     0.023 A 
ATOM     73  C   UNL A   1      42.111  24.856  27.437  1.00  0.00     0.031 A 
ATOM     74  C   UNL A   1      43.096  26.830  26.468  1.00  0.00     0.131 A 
ATOM     75  C   UNL A   1      42.469  24.145  26.282  1.00  0.00     0.055 A 
ATOM     76  C   UNL A   1      43.409  26.130  25.303  1.00  0.00     0.041 A 
ATOM     77  F   UNL A   1      43.423  28.131  26.523  1.00  0.00    -0.206 F 
ATOM     78  C   UNL A   1      43.102  24.776  25.208  1.00  0.00     0.022 A 
BRANCH  75  79
ATOM     79  S   UNL A   1      42.136  22.363  26.216  1.00  0.00     0.124 S 
ATOM     80  O   UNL A   1      42.746  21.901  27.458  1.00  0.00    -0.237 OA
ATOM     81  O   UNL A   1      40.679  22.327  26.163  1.00  0.00    -0.237 OA
ATOM     82  O   UNL A   1      42.811  21.936  24.992  1.00  0.00    -0.744 OA
ENDBRANCH  75  79
ENDBRANCH  48  72
BRANCH  60  83
ATOM     83  C   UNL A   1      45.360  26.796  33.866  1.00  0.00     0.023 A 
ATOM     84  C   UNL A   1      45.205  25.589  34.570  1.00  0.00     0.031 A 
ATOM     85  C   UNL A   1      46.650  27.350  33.784  1.00  0.00     0.131 A 
ATOM     86  C   UNL A   1      46.308  25.005  35.211  1.00  0.00     0.055 A 
ATOM     87  C   UNL A   1      47.756  26.733  34.369  1.00  0.00     0.041 A 
ATOM     88  F   UNL A   1      46.858  28.504  33.129  1.00  0.00    -0.206 F 
ATOM     89  C   UNL A   1      47.587  25.559  35.100  1.00  0.00     0.022 A 
BRANCH  86  90
ATOM     90  S   UNL A   1      46.037  23.562  36.277  1.00  0.00     0.124 S 
ATOM     91  O   UNL A   1      47.195  22.732  35.963  1.00  0.00    -0.237 OA
ATOM     92  O   UNL A   1      46.019  24.156  37.609  1.00  0.00    -0.237 OA
ATOM     93  O   UNL A   1      44.753  23.033  35.818  1.00  0.00    -0.744 OA
ENDBRANCH  86  90
ENDBRANCH  60  83
ENDBRANCH  34  35
ENDBRANCH  26  29
ENDBRANCH  24  25
ENDBRANCH  23  24
ENDBRANCH   1  23
TORSDOF 19
ENDMDL
