MODEL 1
REMARK VINA RESULT:     -12.1      0.000      0.000
REMARK SMILES N#CCC[NH+]1CC[NH+]([C@@H](C(=O)NCCCNC(=O)c2ccc(-c3c4nc(c(-c5cc(S(=O)(=O)[O-])ccc5F)c5ccc([nH]5)c(-c5cc(S(=O)(=O)[O-])ccc5F)c5nc(c(-c6cc(S(=O)(=O)[O-])ccc6F)c6ccc3[nH]6)C=C5)C=C4)cc2)c2c[nH]c3cc(Cl)ccc23)CC1
REMARK SMILES IDX 13 1 12 2 10 3 11 4 9 6 8 7 5 8 6 9 93 10 7 12 92 13 4 15
REMARK SMILES IDX 3 16 2 17 1 18 82 19 83 20 91 21 84 22 85 23 90 24 86 26
REMARK SMILES IDX 89 27 87 28 88 29 14 30 15 31 16 32 17 33 18 35 19 36 20 37
REMARK SMILES IDX 81 38 21 39 80 40 22 41 23 42 24 43 74 44 25 45 79 46 73 47
REMARK SMILES IDX 75 48 26 49 78 50 72 51 71 52 27 54 59 55 39 56 58 57 40 58
REMARK SMILES IDX 43 59 57 60 76 61 41 62 42 63 56 65 77 66 44 67 28 68 29 69
REMARK SMILES IDX 37 70 30 71 36 72 38 73 35 74 31 75 32 76 33 77 34 78 60 79
REMARK SMILES IDX 61 80 69 81 62 82 68 83 70 84 67 85 63 86 64 87 65 88 66 89
REMARK SMILES IDX 45 90 46 91 54 92 47 93 53 94 55 95 52 96 48 97 49 98 50 99
REMARK SMILES IDX 51 100
REMARK H PARENT 12 5 5 11 8 14 84 25 16 34 75 53 43 64
REMARK Flexibility Score: inf
ROOT
ATOM      1  C   UNL A   1      36.120  23.167  23.838  1.00  0.00     0.118 C 
ENDROOT
BRANCH   1   2
ATOM      2  N   UNL A   1      34.923  23.094  22.955  1.00  0.00    -0.351 N 
ATOM      3  C   UNL A   1      33.572  23.481  23.048  1.00  0.00     0.283 C 
ATOM      4  O   UNL A   1      33.027  23.777  21.978  1.00  0.00    -0.268 OA
ATOM      5  H   UNL A   1      35.126  22.668  22.091  1.00  0.00     0.163 HD
BRANCH   3   6
ATOM      6  C   UNL A   1      32.765  23.433  24.384  1.00  0.00     0.308 C 
BRANCH   6   7
ATOM      7  N   UNL A   1      32.504  22.031  24.744  1.00  0.00    -0.312 N 
ATOM      8  N   UNL A   1      33.742  19.477  25.615  1.00  0.00    -0.325 N 
ATOM      9  C   UNL A   1      33.905  19.895  24.228  1.00  0.00     0.324 C 
ATOM     10  C   UNL A   1      33.717  20.675  26.438  1.00  0.00     0.324 C 
ATOM     11  H   UNL A   1      34.538  18.898  25.883  1.00  0.00     0.348 HD
ATOM     12  C   UNL A   1      32.940  21.000  23.785  1.00  0.00     0.325 C 
ATOM     13  C   UNL A   1      32.673  21.759  26.146  1.00  0.00     0.325 C 
ATOM     14  H   UNL A   1      31.499  21.920  24.607  1.00  0.00     0.349 HD
BRANCH   8  15
ATOM     15  C   UNL A   1      32.621  18.577  25.846  1.00  0.00     0.278 C 
BRANCH  15  16
ATOM     16  C   UNL A   1      32.397  17.488  24.809  1.00  0.00     0.181 C 
BRANCH  16  17
ATOM     17  C   UNL A   1      33.226  16.244  25.084  1.00  0.00     0.068 C 
ATOM     18  N   UNL A   1      33.914  15.212  25.313  1.00  0.00    -0.198 NA
ENDBRANCH  16  17
ENDBRANCH  15  16
ENDBRANCH   8  15
ENDBRANCH   6   7
BRANCH   6  19
ATOM     19  C   UNL A   1      31.393  24.220  24.590  1.00  0.00     0.044 A 
ATOM     20  C   UNL A   1      30.495  24.320  23.509  1.00  0.00     0.094 A 
ATOM     21  C   UNL A   1      31.195  25.549  25.185  1.00  0.00     0.009 A 
ATOM     22  N   UNL A   1      30.837  25.574  23.005  1.00  0.00    -0.361 N 
ATOM     23  C   UNL A   1      31.035  26.406  24.083  1.00  0.00     0.047 A 
ATOM     24  C   UNL A   1      31.410  26.160  26.443  1.00  0.00     0.012 A 
ATOM     25  H   UNL A   1      30.922  25.818  22.055  1.00  0.00     0.166 HD
ATOM     26  C   UNL A   1      31.207  27.798  24.135  1.00  0.00     0.047 A 
ATOM     27  C   UNL A   1      31.520  27.564  26.529  1.00  0.00     0.021 A 
ATOM     28  C   UNL A   1      31.469  28.356  25.384  1.00  0.00     0.043 A 
ATOM     29  Cl  UNL A   1      31.796  30.046  25.494  1.00  0.00    -0.084 Cl
ENDBRANCH   6  19
ENDBRANCH   3   6
ENDBRANCH   1   2
BRANCH   1  30
ATOM     30  C   UNL A   1      37.050  21.910  24.104  1.00  0.00     0.042 C 
BRANCH  30  31
ATOM     31  C   UNL A   1      37.112  21.199  25.491  1.00  0.00     0.118 C 
BRANCH  31  32
ATOM     32  N   UNL A   1      38.286  20.375  25.673  1.00  0.00    -0.352 N 
ATOM     33  C   UNL A   1      39.552  20.633  26.152  1.00  0.00     0.251 C 
ATOM     34  H   UNL A   1      38.154  19.438  25.399  1.00  0.00     0.163 HD
ATOM     35  O   UNL A   1      40.363  19.711  26.022  1.00  0.00    -0.269 OA
BRANCH  33  36
ATOM     36  C   UNL A   1      40.032  21.903  26.798  1.00  0.00     0.039 A 
ATOM     37  C   UNL A   1      39.655  23.102  26.163  1.00  0.00     0.014 A 
ATOM     38  C   UNL A   1      40.957  21.994  27.845  1.00  0.00     0.014 A 
ATOM     39  C   UNL A   1      40.198  24.345  26.536  1.00  0.00     0.010 A 
ATOM     40  C   UNL A   1      41.487  23.257  28.238  1.00  0.00     0.010 A 
ATOM     41  C   UNL A   1      41.129  24.450  27.579  1.00  0.00    -0.014 A 
BRANCH  41  42
ATOM     42  C   UNL A   1      41.685  25.805  27.934  1.00  0.00     0.031 A 
ATOM     43  C   UNL A   1      43.060  26.252  27.478  1.00  0.00     0.074 A 
ATOM     44  C   UNL A   1      40.922  26.691  28.612  1.00  0.00     0.049 A 
ATOM     45  N   UNL A   1      43.649  27.416  27.624  1.00  0.00    -0.248 NA
ATOM     46  C   UNL A   1      43.878  25.259  26.768  1.00  0.00     0.031 C 
ATOM     47  C   UNL A   1      39.575  26.417  29.118  1.00  0.00     0.029 A 
ATOM     48  N   UNL A   1      41.148  27.999  28.981  1.00  0.00    -0.354 N 
ATOM     49  C   UNL A   1      44.897  27.305  27.015  1.00  0.00     0.074 A 
ATOM     50  C   UNL A   1      44.998  25.938  26.543  1.00  0.00     0.031 C 
ATOM     51  C   UNL A   1      39.090  27.524  29.704  1.00  0.00     0.029 A 
ATOM     52  C   UNL A   1      40.097  28.581  29.657  1.00  0.00     0.049 A 
ATOM     53  H   UNL A   1      41.987  28.476  28.780  1.00  0.00     0.167 HD
ATOM     54  C   UNL A   1      45.863  28.250  26.845  1.00  0.00     0.034 A 
ATOM     55  C   UNL A   1      39.949  29.815  30.188  1.00  0.00     0.034 A 
ATOM     56  C   UNL A   1      45.773  29.614  27.321  1.00  0.00     0.049 A 
ATOM     57  C   UNL A   1      41.059  30.828  30.032  1.00  0.00     0.074 A 
ATOM     58  C   UNL A   1      46.694  30.641  27.176  1.00  0.00     0.029 A 
ATOM     59  N   UNL A   1      44.710  30.145  28.038  1.00  0.00    -0.354 N 
ATOM     60  N   UNL A   1      42.212  30.705  29.416  1.00  0.00    -0.248 NA
ATOM     61  C   UNL A   1      40.839  32.154  30.627  1.00  0.00     0.031 C 
ATOM     62  C   UNL A   1      46.221  31.765  27.862  1.00  0.00     0.029 A 
ATOM     63  C   UNL A   1      44.967  31.471  28.367  1.00  0.00     0.049 A 
ATOM     64  H   UNL A   1      43.891  29.654  28.278  1.00  0.00     0.167 HD
ATOM     65  C   UNL A   1      42.837  31.946  29.529  1.00  0.00     0.074 A 
ATOM     66  C   UNL A   1      41.920  32.811  30.238  1.00  0.00     0.031 C 
ATOM     67  C   UNL A   1      44.061  32.333  29.088  1.00  0.00     0.034 A 
BRANCH  54  68
ATOM     68  C   UNL A   1      47.130  27.841  26.122  1.00  0.00     0.023 A 
ATOM     69  C   UNL A   1      47.260  27.979  24.729  1.00  0.00     0.031 A 
ATOM     70  C   UNL A   1      48.234  27.342  26.837  1.00  0.00     0.131 A 
ATOM     71  C   UNL A   1      48.444  27.573  24.090  1.00  0.00     0.055 A 
ATOM     72  C   UNL A   1      49.434  27.007  26.205  1.00  0.00     0.041 A 
ATOM     73  F   UNL A   1      48.169  27.178  28.168  1.00  0.00    -0.206 F 
ATOM     74  C   UNL A   1      49.541  27.113  24.822  1.00  0.00     0.022 A 
BRANCH  71  75
ATOM     75  S   UNL A   1      48.490  27.559  22.277  1.00  0.00     0.124 S 
ATOM     76  O   UNL A   1      49.647  28.407  22.005  1.00  0.00    -0.237 OA
ATOM     77  O   UNL A   1      48.647  26.143  21.975  1.00  0.00    -0.237 OA
ATOM     78  O   UNL A   1      47.201  28.139  21.898  1.00  0.00    -0.744 OA
ENDBRANCH  71  75
ENDBRANCH  54  68
BRANCH  55  79
ATOM     79  C   UNL A   1      38.715  30.174  30.956  1.00  0.00     0.023 A 
ATOM     80  C   UNL A   1      37.659  30.882  30.359  1.00  0.00     0.031 A 
ATOM     81  C   UNL A   1      38.620  29.894  32.332  1.00  0.00     0.131 A 
ATOM     82  C   UNL A   1      36.589  31.340  31.145  1.00  0.00     0.055 A 
ATOM     83  C   UNL A   1      37.521  30.293  33.094  1.00  0.00     0.041 A 
ATOM     84  F   UNL A   1      39.602  29.225  32.960  1.00  0.00    -0.206 F 
ATOM     85  C   UNL A   1      36.505  31.037  32.505  1.00  0.00     0.022 A 
BRANCH  82  86
ATOM     86  S   UNL A   1      35.368  32.453  30.391  1.00  0.00     0.124 S 
ATOM     87  O   UNL A   1      36.172  33.640  30.126  1.00  0.00    -0.237 OA
ATOM     88  O   UNL A   1      34.946  31.689  29.222  1.00  0.00    -0.237 OA
ATOM     89  O   UNL A   1      34.356  32.603  31.433  1.00  0.00    -0.744 OA
ENDBRANCH  82  86
ENDBRANCH  55  79
BRANCH  67  90
ATOM     90  C   UNL A   1      44.458  33.772  29.337  1.00  0.00     0.023 A 
ATOM     91  C   UNL A   1      44.070  34.807  28.466  1.00  0.00     0.031 A 
ATOM     92  C   UNL A   1      45.275  34.107  30.431  1.00  0.00     0.131 A 
ATOM     93  C   UNL A   1      44.560  36.108  28.660  1.00  0.00     0.055 A 
ATOM     94  C   UNL A   1      45.703  35.418  30.659  1.00  0.00     0.041 A 
ATOM     95  F   UNL A   1      45.683  33.164  31.296  1.00  0.00    -0.206 F 
ATOM     96  C   UNL A   1      45.360  36.423  29.760  1.00  0.00     0.022 A 
BRANCH  93  97
ATOM     97  S   UNL A   1      44.238  37.359  27.385  1.00  0.00     0.124 S 
ATOM     98  O   UNL A   1      43.833  38.511  28.185  1.00  0.00    -0.237 OA
ATOM     99  O   UNL A   1      45.532  37.469  26.721  1.00  0.00    -0.237 OA
ATOM    100  O   UNL A   1      43.176  36.761  26.578  1.00  0.00    -0.744 OA
ENDBRANCH  93  97
ENDBRANCH  67  90
ENDBRANCH  41  42
ENDBRANCH  33  36
ENDBRANCH  31  32
ENDBRANCH  30  31
ENDBRANCH   1  30
TORSDOF 18
ENDMDL
MODEL 2
REMARK VINA RESULT:     -12.0      4.874      9.955
REMARK SMILES N#CCC[NH+]1CC[NH+]([C@@H](C(=O)NCCCNC(=O)c2ccc(-c3c4nc(c(-c5cc(S(=O)(=O)[O-])ccc5F)c5ccc([nH]5)c(-c5cc(S(=O)(=O)[O-])ccc5F)c5nc(c(-c6cc(S(=O)(=O)[O-])ccc6F)c6ccc3[nH]6)C=C5)C=C4)cc2)c2c[nH]c3cc(Cl)ccc23)CC1
REMARK SMILES IDX 13 1 12 2 10 3 11 4 9 6 8 7 5 8 6 9 93 10 7 12 92 13 4 15
REMARK SMILES IDX 3 16 2 17 1 18 82 19 83 20 91 21 84 22 85 23 90 24 86 26
REMARK SMILES IDX 89 27 87 28 88 29 14 30 15 31 16 32 17 33 18 35 19 36 20 37
REMARK SMILES IDX 81 38 21 39 80 40 22 41 23 42 24 43 74 44 25 45 79 46 73 47
REMARK SMILES IDX 75 48 26 49 78 50 72 51 71 52 27 54 59 55 39 56 58 57 40 58
REMARK SMILES IDX 43 59 57 60 76 61 41 62 42 63 56 65 77 66 44 67 28 68 29 69
REMARK SMILES IDX 37 70 30 71 36 72 38 73 35 74 31 75 32 76 33 77 34 78 60 79
REMARK SMILES IDX 61 80 69 81 62 82 68 83 70 84 67 85 63 86 64 87 65 88 66 89
REMARK SMILES IDX 45 90 46 91 54 92 47 93 53 94 55 95 52 96 48 97 49 98 50 99
REMARK SMILES IDX 51 100
REMARK H PARENT 12 5 5 11 8 14 84 25 16 34 75 53 43 64
REMARK Flexibility Score: inf
ROOT
ATOM      1  C   UNL A   1      32.082  28.353  27.328  1.00  0.00     0.118 C 
ENDROOT
BRANCH   1   2
ATOM      2  N   UNL A   1      33.124  27.871  26.379  1.00  0.00    -0.351 N 
ATOM      3  C   UNL A   1      33.155  27.462  25.032  1.00  0.00     0.283 C 
ATOM      4  O   UNL A   1      34.221  27.667  24.438  1.00  0.00    -0.268 OA
ATOM      5  H   UNL A   1      34.014  27.825  26.800  1.00  0.00     0.163 HD
BRANCH   3   6
ATOM      6  C   UNL A   1      31.979  26.695  24.349  1.00  0.00     0.308 C 
BRANCH   6   7
ATOM      7  N   UNL A   1      32.372  25.295  24.134  1.00  0.00    -0.312 N 
ATOM      8  N   UNL A   1      31.616  22.461  24.597  1.00  0.00    -0.325 N 
ATOM      9  C   UNL A   1      32.133  23.239  25.718  1.00  0.00     0.324 C 
ATOM     10  C   UNL A   1      30.858  23.363  23.745  1.00  0.00     0.324 C 
ATOM     11  H   UNL A   1      30.999  21.733  24.956  1.00  0.00     0.348 HD
ATOM     12  C   UNL A   1      32.835  24.538  25.311  1.00  0.00     0.325 C 
ATOM     13  C   UNL A   1      31.546  24.609  23.177  1.00  0.00     0.325 C 
ATOM     14  H   UNL A   1      33.272  25.357  23.657  1.00  0.00     0.349 HD
BRANCH   8  15
ATOM     15  C   UNL A   1      32.623  21.684  23.888  1.00  0.00     0.278 C 
BRANCH  15  16
ATOM     16  C   UNL A   1      33.199  20.484  24.622  1.00  0.00     0.181 C 
BRANCH  16  17
ATOM     17  C   UNL A   1      34.684  20.635  24.908  1.00  0.00     0.068 C 
ATOM     18  N   UNL A   1      35.917  20.761  25.144  1.00  0.00    -0.198 NA
ENDBRANCH  16  17
ENDBRANCH  15  16
ENDBRANCH   8  15
ENDBRANCH   6   7
BRANCH   6  19
ATOM     19  C   UNL A   1      31.298  27.192  22.995  1.00  0.00     0.044 A 
ATOM     20  C   UNL A   1      32.093  27.847  22.033  1.00  0.00     0.094 A 
ATOM     21  C   UNL A   1      30.056  27.960  22.838  1.00  0.00     0.009 A 
ATOM     22  N   UNL A   1      31.831  29.180  22.347  1.00  0.00    -0.361 N 
ATOM     23  C   UNL A   1      30.485  29.279  22.613  1.00  0.00     0.047 A 
ATOM     24  C   UNL A   1      28.684  27.777  23.131  1.00  0.00     0.012 A 
ATOM     25  H   UNL A   1      32.489  29.913  22.374  1.00  0.00     0.166 HD
ATOM     26  C   UNL A   1      29.677  30.412  22.792  1.00  0.00     0.047 A 
ATOM     27  C   UNL A   1      27.837  28.900  23.251  1.00  0.00     0.021 A 
ATOM     28  C   UNL A   1      28.345  30.192  23.132  1.00  0.00     0.043 A 
ATOM     29  Cl  UNL A   1      27.330  31.546  23.470  1.00  0.00    -0.084 Cl
ENDBRANCH   6  19
ENDBRANCH   3   6
ENDBRANCH   1   2
BRANCH   1  30
ATOM     30  C   UNL A   1      31.534  29.841  27.295  1.00  0.00     0.042 C 
BRANCH  30  31
ATOM     31  C   UNL A   1      32.024  30.887  26.246  1.00  0.00     0.118 C 
BRANCH  31  32
ATOM     32  N   UNL A   1      32.058  32.243  26.744  1.00  0.00    -0.352 N 
ATOM     33  C   UNL A   1      32.969  32.942  27.507  1.00  0.00     0.251 C 
ATOM     34  H   UNL A   1      31.271  32.775  26.487  1.00  0.00     0.163 HD
ATOM     35  O   UNL A   1      32.596  34.059  27.879  1.00  0.00    -0.269 OA
BRANCH  33  36
ATOM     36  C   UNL A   1      34.339  32.485  27.924  1.00  0.00     0.039 A 
ATOM     37  C   UNL A   1      34.418  31.192  28.477  1.00  0.00     0.014 A 
ATOM     38  C   UNL A   1      35.488  33.281  27.985  1.00  0.00     0.014 A 
ATOM     39  C   UNL A   1      35.590  30.717  29.093  1.00  0.00     0.010 A 
ATOM     40  C   UNL A   1      36.682  32.789  28.588  1.00  0.00     0.010 A 
ATOM     41  C   UNL A   1      36.747  31.506  29.166  1.00  0.00    -0.014 A 
BRANCH  41  42
ATOM     42  C   UNL A   1      37.974  30.951  29.844  1.00  0.00     0.031 A 
ATOM     43  C   UNL A   1      38.327  31.305  31.275  1.00  0.00     0.074 A 
ATOM     44  C   UNL A   1      38.750  30.050  29.201  1.00  0.00     0.049 A 
ATOM     45  N   UNL A   1      39.298  30.845  32.031  1.00  0.00    -0.248 NA
ATOM     46  C   UNL A   1      37.483  32.307  31.939  1.00  0.00     0.031 C 
ATOM     47  C   UNL A   1      38.541  29.601  27.823  1.00  0.00     0.029 A 
ATOM     48  N   UNL A   1      39.855  29.336  29.613  1.00  0.00    -0.354 N 
ATOM     49  C   UNL A   1      39.175  31.486  33.262  1.00  0.00     0.074 A 
ATOM     50  C   UNL A   1      38.063  32.408  33.130  1.00  0.00     0.031 C 
ATOM     51  C   UNL A   1      39.466  28.677  27.515  1.00  0.00     0.029 A 
ATOM     52  C   UNL A   1      40.362  28.487  28.653  1.00  0.00     0.049 A 
ATOM     53  H   UNL A   1      40.247  29.426  30.512  1.00  0.00     0.167 HD
ATOM     54  C   UNL A   1      39.901  31.317  34.401  1.00  0.00     0.034 A 
ATOM     55  C   UNL A   1      41.426  27.653  28.669  1.00  0.00     0.034 A 
ATOM     56  C   UNL A   1      41.017  30.405  34.538  1.00  0.00     0.049 A 
ATOM     57  C   UNL A   1      42.248  27.524  29.930  1.00  0.00     0.074 A 
ATOM     58  C   UNL A   1      41.795  30.156  35.658  1.00  0.00     0.029 A 
ATOM     59  N   UNL A   1      41.523  29.599  33.528  1.00  0.00    -0.354 N 
ATOM     60  N   UNL A   1      42.083  28.116  31.091  1.00  0.00    -0.248 NA
ATOM     61  C   UNL A   1      43.390  26.599  29.889  1.00  0.00     0.031 C 
ATOM     62  C   UNL A   1      42.808  29.256  35.308  1.00  0.00     0.029 A 
ATOM     63  C   UNL A   1      42.617  28.878  33.990  1.00  0.00     0.049 A 
ATOM     64  H   UNL A   1      41.157  29.544  32.615  1.00  0.00     0.167 HD
ATOM     65  C   UNL A   1      43.083  27.610  31.920  1.00  0.00     0.074 A 
ATOM     66  C   UNL A   1      43.823  26.643  31.139  1.00  0.00     0.031 C 
ATOM     67  C   UNL A   1      43.367  27.922  33.210  1.00  0.00     0.034 A 
BRANCH  54  68
ATOM     68  C   UNL A   1      39.527  32.154  35.607  1.00  0.00     0.023 A 
ATOM     69  C   UNL A   1      40.128  33.400  35.855  1.00  0.00     0.031 A 
ATOM     70  C   UNL A   1      38.532  31.716  36.501  1.00  0.00     0.131 A 
ATOM     71  C   UNL A   1      39.768  34.140  36.993  1.00  0.00     0.055 A 
ATOM     72  C   UNL A   1      38.128  32.489  37.593  1.00  0.00     0.041 A 
ATOM     73  F   UNL A   1      37.928  30.531  36.326  1.00  0.00    -0.206 F 
ATOM     74  C   UNL A   1      38.753  33.706  37.850  1.00  0.00     0.022 A 
BRANCH  71  75
ATOM     75  S   UNL A   1      40.719  35.631  37.396  1.00  0.00     0.124 S 
ATOM     76  O   UNL A   1      39.837  36.686  36.905  1.00  0.00    -0.237 OA
ATOM     77  O   UNL A   1      40.862  35.535  38.841  1.00  0.00    -0.237 OA
ATOM     78  O   UNL A   1      41.957  35.462  36.633  1.00  0.00    -0.744 OA
ENDBRANCH  71  75
ENDBRANCH  54  68
BRANCH  55  79
ATOM     79  C   UNL A   1      41.816  26.887  27.444  1.00  0.00     0.023 A 
ATOM     80  C   UNL A   1      41.584  25.506  27.337  1.00  0.00     0.031 A 
ATOM     81  C   UNL A   1      42.516  27.516  26.397  1.00  0.00     0.131 A 
ATOM     82  C   UNL A   1      42.103  24.789  26.246  1.00  0.00     0.055 A 
ATOM     83  C   UNL A   1      42.970  26.810  25.281  1.00  0.00     0.041 A 
ATOM     84  F   UNL A   1      42.772  28.834  26.446  1.00  0.00    -0.206 F 
ATOM     85  C   UNL A   1      42.780  25.434  25.210  1.00  0.00     0.022 A 
BRANCH  82  86
ATOM     86  S   UNL A   1      41.994  22.976  26.262  1.00  0.00     0.124 S 
ATOM     87  O   UNL A   1      42.661  22.629  25.013  1.00  0.00    -0.237 OA
ATOM     88  O   UNL A   1      42.710  22.643  27.488  1.00  0.00    -0.237 OA
ATOM     89  O   UNL A   1      40.555  22.723  26.294  1.00  0.00    -0.744 OA
ENDBRANCH  82  86
ENDBRANCH  55  79
BRANCH  67  90
ATOM     90  C   UNL A   1      44.511  27.177  33.863  1.00  0.00     0.023 A 
ATOM     91  C   UNL A   1      44.350  25.876  34.374  1.00  0.00     0.031 A 
ATOM     92  C   UNL A   1      45.766  27.793  34.019  1.00  0.00     0.131 A 
ATOM     93  C   UNL A   1      45.398  25.266  35.082  1.00  0.00     0.055 A 
ATOM     94  C   UNL A   1      46.827  27.152  34.664  1.00  0.00     0.041 A 
ATOM     95  F   UNL A   1      45.982  29.035  33.556  1.00  0.00    -0.206 F 
ATOM     96  C   UNL A   1      46.640  25.889  35.216  1.00  0.00     0.022 A 
BRANCH  93  97
ATOM     97  S   UNL A   1      45.073  23.695  35.933  1.00  0.00     0.124 S 
ATOM     98  O   UNL A   1      43.726  23.375  35.474  1.00  0.00    -0.237 OA
ATOM     99  O   UNL A   1      46.139  22.839  35.425  1.00  0.00    -0.237 OA
ATOM    100  O   UNL A   1      45.179  24.044  37.349  1.00  0.00    -0.744 OA
ENDBRANCH  93  97
ENDBRANCH  67  90
ENDBRANCH  41  42
ENDBRANCH  33  36
ENDBRANCH  31  32
ENDBRANCH  30  31
ENDBRANCH   1  30
TORSDOF 18
ENDMDL
MODEL 3
REMARK VINA RESULT:     -11.6      5.129     10.601
REMARK SMILES N#CCC[NH+]1CC[NH+]([C@@H](C(=O)NCCCNC(=O)c2ccc(-c3c4nc(c(-c5cc(S(=O)(=O)[O-])ccc5F)c5ccc([nH]5)c(-c5cc(S(=O)(=O)[O-])ccc5F)c5nc(c(-c6cc(S(=O)(=O)[O-])ccc6F)c6ccc3[nH]6)C=C5)C=C4)cc2)c2c[nH]c3cc(Cl)ccc23)CC1
REMARK SMILES IDX 13 1 12 2 10 3 11 4 9 6 8 7 5 8 6 9 93 10 7 12 92 13 4 15
REMARK SMILES IDX 3 16 2 17 1 18 82 19 83 20 91 21 84 22 85 23 90 24 86 26
REMARK SMILES IDX 89 27 87 28 88 29 14 30 15 31 16 32 17 33 18 35 19 36 20 37
REMARK SMILES IDX 81 38 21 39 80 40 22 41 23 42 24 43 74 44 25 45 79 46 73 47
REMARK SMILES IDX 75 48 26 49 78 50 72 51 71 52 27 54 59 55 39 56 58 57 40 58
REMARK SMILES IDX 43 59 57 60 76 61 41 62 42 63 56 65 77 66 44 67 28 68 29 69
REMARK SMILES IDX 37 70 30 71 36 72 38 73 35 74 31 75 32 76 33 77 34 78 60 79
REMARK SMILES IDX 61 80 69 81 62 82 68 83 70 84 67 85 63 86 64 87 65 88 66 89
REMARK SMILES IDX 45 90 46 91 54 92 47 93 53 94 55 95 52 96 48 97 49 98 50 99
REMARK SMILES IDX 51 100
REMARK H PARENT 12 5 5 11 8 14 84 25 16 34 75 53 43 64
REMARK Flexibility Score: inf
ROOT
ATOM      1  C   UNL A   1      31.982  27.898  27.297  1.00  0.00     0.118 C 
ENDROOT
BRANCH   1   2
ATOM      2  N   UNL A   1      32.903  27.288  26.297  1.00  0.00    -0.351 N 
ATOM      3  C   UNL A   1      32.866  27.031  24.912  1.00  0.00     0.283 C 
ATOM      4  O   UNL A   1      33.962  27.042  24.340  1.00  0.00    -0.268 OA
ATOM      5  H   UNL A   1      33.747  26.990  26.706  1.00  0.00     0.163 HD
BRANCH   3   6
ATOM      6  C   UNL A   1      31.558  26.640  24.156  1.00  0.00     0.308 C 
BRANCH   6   7
ATOM      7  N   UNL A   1      30.646  27.793  24.134  1.00  0.00    -0.312 N 
ATOM      8  N   UNL A   1      28.905  29.480  22.420  1.00  0.00    -0.325 N 
ATOM      9  C   UNL A   1      30.351  29.644  22.324  1.00  0.00     0.324 C 
ATOM     10  C   UNL A   1      28.636  28.079  22.699  1.00  0.00     0.324 C 
ATOM     11  H   UNL A   1      28.482  29.736  21.528  1.00  0.00     0.348 HD
ATOM     12  C   UNL A   1      31.134  29.023  23.485  1.00  0.00     0.325 C 
ATOM     13  C   UNL A   1      29.268  27.430  23.936  1.00  0.00     0.325 C 
ATOM     14  H   UNL A   1      30.656  28.139  25.094  1.00  0.00     0.349 HD
BRANCH   8  15
ATOM     15  C   UNL A   1      28.254  30.403  23.340  1.00  0.00     0.278 C 
BRANCH  15  16
ATOM     16  C   UNL A   1      27.700  31.686  22.742  1.00  0.00     0.181 C 
BRANCH  16  17
ATOM     17  C   UNL A   1      28.609  32.880  22.985  1.00  0.00     0.068 C 
ATOM     18  N   UNL A   1      29.363  33.870  23.187  1.00  0.00    -0.198 NA
ENDBRANCH  16  17
ENDBRANCH  15  16
ENDBRANCH   8  15
ENDBRANCH   6   7
BRANCH   6  19
ATOM     19  C   UNL A   1      30.679  25.370  24.557  1.00  0.00     0.044 A 
ATOM     20  C   UNL A   1      30.128  25.304  25.851  1.00  0.00     0.094 A 
ATOM     21  C   UNL A   1      31.004  23.950  24.364  1.00  0.00     0.009 A 
ATOM     22  N   UNL A   1      31.082  24.520  26.498  1.00  0.00    -0.361 N 
ATOM     23  C   UNL A   1      31.445  23.518  25.627  1.00  0.00     0.047 A 
ATOM     24  C   UNL A   1      31.250  23.085  23.272  1.00  0.00     0.012 A 
ATOM     25  H   UNL A   1      31.433  24.659  27.408  1.00  0.00     0.166 HD
ATOM     26  C   UNL A   1      32.217  22.366  25.841  1.00  0.00     0.047 A 
ATOM     27  C   UNL A   1      31.967  21.887  23.476  1.00  0.00     0.021 A 
ATOM     28  C   UNL A   1      32.481  21.567  24.731  1.00  0.00     0.043 A 
ATOM     29  Cl  UNL A   1      33.513  20.196  24.911  1.00  0.00    -0.084 Cl
ENDBRANCH   6  19
ENDBRANCH   3   6
ENDBRANCH   1   2
BRANCH   1  30
ATOM     30  C   UNL A   1      31.672  29.453  27.321  1.00  0.00     0.042 C 
BRANCH  30  31
ATOM     31  C   UNL A   1      32.343  30.452  26.329  1.00  0.00     0.118 C 
BRANCH  31  32
ATOM     32  N   UNL A   1      32.355  31.820  26.797  1.00  0.00    -0.352 N 
ATOM     33  C   UNL A   1      33.263  32.556  27.527  1.00  0.00     0.251 C 
ATOM     34  H   UNL A   1      31.552  32.329  26.541  1.00  0.00     0.163 HD
ATOM     35  O   UNL A   1      32.872  33.673  27.881  1.00  0.00    -0.269 OA
BRANCH  33  36
ATOM     36  C   UNL A   1      34.650  32.138  27.931  1.00  0.00     0.039 A 
ATOM     37  C   UNL A   1      34.772  30.848  28.481  1.00  0.00     0.014 A 
ATOM     38  C   UNL A   1      35.776  32.968  27.981  1.00  0.00     0.014 A 
ATOM     39  C   UNL A   1      35.963  30.407  29.085  1.00  0.00     0.010 A 
ATOM     40  C   UNL A   1      36.989  32.510  28.572  1.00  0.00     0.010 A 
ATOM     41  C   UNL A   1      37.097  31.229  29.148  1.00  0.00    -0.014 A 
BRANCH  41  42
ATOM     42  C   UNL A   1      38.346  30.709  29.813  1.00  0.00     0.031 A 
ATOM     43  C   UNL A   1      38.725  31.106  31.226  1.00  0.00     0.074 A 
ATOM     44  C   UNL A   1      39.121  29.803  29.177  1.00  0.00     0.049 A 
ATOM     45  N   UNL A   1      39.718  30.680  31.973  1.00  0.00    -0.248 NA
ATOM     46  C   UNL A   1      37.881  32.113  31.882  1.00  0.00     0.031 C 
ATOM     47  C   UNL A   1      38.890  29.315  27.816  1.00  0.00     0.029 A 
ATOM     48  N   UNL A   1      40.245  29.116  29.583  1.00  0.00    -0.354 N 
ATOM     49  C   UNL A   1      39.613  31.352  33.189  1.00  0.00     0.074 A 
ATOM     50  C   UNL A   1      38.485  32.254  33.057  1.00  0.00     0.031 C 
ATOM     51  C   UNL A   1      39.821  28.396  27.512  1.00  0.00     0.029 A 
ATOM     52  C   UNL A   1      40.745  28.249  28.635  1.00  0.00     0.049 A 
ATOM     53  H   UNL A   1      40.655  29.235  30.471  1.00  0.00     0.167 HD
ATOM     54  C   UNL A   1      40.365  31.223  34.316  1.00  0.00     0.034 A 
ATOM     55  C   UNL A   1      41.821  27.431  28.650  1.00  0.00     0.034 A 
ATOM     56  C   UNL A   1      41.497  30.331  34.452  1.00  0.00     0.049 A 
ATOM     57  C   UNL A   1      42.671  27.346  29.896  1.00  0.00     0.074 A 
ATOM     58  C   UNL A   1      42.303  30.122  35.562  1.00  0.00     0.029 A 
ATOM     59  N   UNL A   1      41.993  29.505  33.453  1.00  0.00    -0.354 N 
ATOM     60  N   UNL A   1      42.522  27.966  31.044  1.00  0.00    -0.248 NA
ATOM     61  C   UNL A   1      43.825  26.437  29.853  1.00  0.00     0.031 C 
ATOM     62  C   UNL A   1      43.321  29.228  35.213  1.00  0.00     0.029 A 
ATOM     63  C   UNL A   1      43.107  28.812  33.910  1.00  0.00     0.049 A 
ATOM     64  H   UNL A   1      41.609  29.421  32.550  1.00  0.00     0.167 HD
ATOM     65  C   UNL A   1      43.547  27.497  31.864  1.00  0.00     0.074 A 
ATOM     66  C   UNL A   1      44.284  26.520  31.092  1.00  0.00     0.031 C 
ATOM     67  C   UNL A   1      43.854  27.847  33.139  1.00  0.00     0.034 A 
BRANCH  54  68
ATOM     68  C   UNL A   1      40.005  32.086  35.508  1.00  0.00     0.023 A 
ATOM     69  C   UNL A   1      40.598  33.343  35.714  1.00  0.00     0.031 A 
ATOM     70  C   UNL A   1      39.030  31.662  36.430  1.00  0.00     0.131 A 
ATOM     71  C   UNL A   1      40.252  34.108  36.840  1.00  0.00     0.055 A 
ATOM     72  C   UNL A   1      38.638  32.458  37.509  1.00  0.00     0.041 A 
ATOM     73  F   UNL A   1      38.434  30.467  36.295  1.00  0.00    -0.206 F 
ATOM     74  C   UNL A   1      39.257  33.686  37.725  1.00  0.00     0.022 A 
BRANCH  71  75
ATOM     75  S   UNL A   1      41.196  35.617  37.189  1.00  0.00     0.124 S 
ATOM     76  O   UNL A   1      40.266  36.655  36.755  1.00  0.00    -0.237 OA
ATOM     77  O   UNL A   1      41.429  35.521  38.623  1.00  0.00    -0.237 OA
ATOM     78  O   UNL A   1      42.390  35.474  36.352  1.00  0.00    -0.744 OA
ENDBRANCH  71  75
ENDBRANCH  54  68
BRANCH  55  79
ATOM     79  C   UNL A   1      42.196  26.638  27.437  1.00  0.00     0.023 A 
ATOM     80  C   UNL A   1      41.855  25.281  27.313  1.00  0.00     0.031 A 
ATOM     81  C   UNL A   1      42.987  27.209  26.423  1.00  0.00     0.131 A 
ATOM     82  C   UNL A   1      42.356  24.527  26.239  1.00  0.00     0.055 A 
ATOM     83  C   UNL A   1      43.425  26.472  25.322  1.00  0.00     0.041 A 
ATOM     84  F   UNL A   1      43.349  28.501  26.489  1.00  0.00    -0.206 F 
ATOM     85  C   UNL A   1      43.126  25.116  25.235  1.00  0.00     0.022 A 
BRANCH  82  86
ATOM     86  S   UNL A   1      42.097  22.729  26.240  1.00  0.00     0.124 S 
ATOM     87  O   UNL A   1      42.768  22.333  25.008  1.00  0.00    -0.237 OA
ATOM     88  O   UNL A   1      42.749  22.332  27.483  1.00  0.00    -0.237 OA
ATOM     89  O   UNL A   1      40.643  22.596  26.231  1.00  0.00    -0.744 OA
ENDBRANCH  82  86
ENDBRANCH  55  79
BRANCH  67  90
ATOM     90  C   UNL A   1      45.023  27.136  33.786  1.00  0.00     0.023 A 
ATOM     91  C   UNL A   1      44.861  25.911  34.461  1.00  0.00     0.031 A 
ATOM     92  C   UNL A   1      46.306  27.711  33.769  1.00  0.00     0.131 A 
ATOM     93  C   UNL A   1      45.943  25.344  35.153  1.00  0.00     0.055 A 
ATOM     94  C   UNL A   1      47.394  27.106  34.402  1.00  0.00     0.041 A 
ATOM     95  F   UNL A   1      46.524  28.880  33.145  1.00  0.00    -0.206 F 
ATOM     96  C   UNL A   1      47.212  25.925  35.115  1.00  0.00     0.022 A 
BRANCH  93  97
ATOM     97  S   UNL A   1      45.638  23.900  36.210  1.00  0.00     0.124 S 
ATOM     98  O   UNL A   1      46.022  24.401  37.526  1.00  0.00    -0.237 OA
ATOM     99  O   UNL A   1      44.212  23.664  36.012  1.00  0.00    -0.237 OA
ATOM    100  O   UNL A   1      46.519  22.875  35.655  1.00  0.00    -0.744 OA
ENDBRANCH  93  97
ENDBRANCH  67  90
ENDBRANCH  41  42
ENDBRANCH  33  36
ENDBRANCH  31  32
ENDBRANCH  30  31
ENDBRANCH   1  30
TORSDOF 18
ENDMDL
