MODEL 1
REMARK VINA RESULT:     -13.4      0.000      0.000
REMARK SMILES Cc1cccc(-c2cc(C[C@]3(C(=O)NCCCNC(=O)c4ccc(-c5c6nc(c(-c7cc(S(=O)(=O)[O-])ccc7F)c7ccc([nH]7)c(-c7cc(S(=O)(=O)[O-])ccc7F)c7nc(c(-c8cc(S(=O)(=O)[O-])ccc8F)c8ccc5[nH]8)C=C7)C=C6)cc4)CCCN(C(=O)C(C)C)C3)on2)c1
REMARK SMILES IDX 16 1 15 2 14 3 12 4 13 5 11 7 84 8 93 9 85 10 87 11 86 12
REMARK SMILES IDX 10 13 9 14 7 15 8 16 95 17 94 18 6 19 1 20 2 21 3 22 96 23
REMARK SMILES IDX 4 24 5 25 88 26 89 27 90 28 91 29 92 30 17 31 18 32 19 33
REMARK SMILES IDX 20 35 21 36 22 37 83 38 23 39 82 40 24 41 25 42 26 43 76 44
REMARK SMILES IDX 27 45 81 46 75 47 77 48 28 49 80 50 74 51 73 52 29 54 61 55
REMARK SMILES IDX 41 56 60 57 42 58 45 59 59 60 78 61 43 62 44 63 58 65 79 66
REMARK SMILES IDX 46 67 30 68 31 69 39 70 32 71 38 72 40 73 37 74 33 75 34 76
REMARK SMILES IDX 35 77 36 78 62 79 63 80 71 81 64 82 70 83 72 84 69 85 65 86
REMARK SMILES IDX 66 87 67 88 68 89 47 90 48 91 56 92 49 93 55 94 57 95 54 96
REMARK SMILES IDX 50 97 51 98 52 99 53 100
REMARK H PARENT 14 6 18 34 77 53 45 64
REMARK Flexibility Score: inf
ROOT
ATOM      1  C   UNL A   1      38.150  21.592  25.427  1.00  0.00     0.042 C 
ENDROOT
BRANCH   1   2
ATOM      2  C   UNL A   1      36.632  21.521  25.306  1.00  0.00     0.117 C 
BRANCH   2   3
ATOM      3  N   UNL A   1      35.926  21.901  26.534  1.00  0.00    -0.355 N 
ATOM      4  C   UNL A   1      34.719  22.473  26.817  1.00  0.00     0.228 C 
ATOM      5  O   UNL A   1      34.440  22.578  28.018  1.00  0.00    -0.274 OA
ATOM      6  H   UNL A   1      36.444  21.693  27.344  1.00  0.00     0.163 HD
BRANCH   4   7
ATOM      7  C   UNL A   1      33.754  23.056  25.745  1.00  0.00     0.074 C 
ATOM      8  C   UNL A   1      33.279  21.864  24.864  1.00  0.00     0.021 C 
ATOM      9  C   UNL A   1      32.649  23.891  26.445  1.00  0.00     0.136 C 
ATOM     10  C   UNL A   1      31.834  21.912  24.382  1.00  0.00     0.023 C 
ATOM     11  N   UNL A   1      31.332  23.797  25.802  1.00  0.00    -0.341 N 
ATOM     12  C   UNL A   1      30.919  22.446  25.463  1.00  0.00     0.119 C 
BRANCH   7  13
ATOM     13  C   UNL A   1      34.610  24.032  24.850  1.00  0.00     0.097 C 
BRANCH  13  14
ATOM     14  C   UNL A   1      34.145  25.451  24.795  1.00  0.00     0.138 A 
ATOM     15  C   UNL A   1      33.462  27.545  25.031  1.00  0.00     0.114 A 
ATOM     16  C   UNL A   1      33.875  26.399  25.754  1.00  0.00     0.077 A 
ATOM     17  N   UNL A   1      33.512  27.312  23.710  1.00  0.00    -0.080 NA
ATOM     18  O   UNL A   1      33.960  26.008  23.567  1.00  0.00    -0.361 OA
BRANCH  15  19
ATOM     19  C   UNL A   1      32.995  28.813  25.575  1.00  0.00     0.004 A 
ATOM     20  C   UNL A   1      34.105  31.519  28.022  1.00  0.00     0.044 C 
ATOM     21  C   UNL A   1      33.287  30.734  27.040  1.00  0.00    -0.050 A 
ATOM     22  C   UNL A   1      32.027  31.211  26.657  1.00  0.00     0.003 A 
ATOM     23  C   UNL A   1      33.760  29.524  26.505  1.00  0.00     0.014 A 
ATOM     24  C   UNL A   1      31.261  30.509  25.732  1.00  0.00     0.001 A 
ATOM     25  C   UNL A   1      31.752  29.324  25.187  1.00  0.00     0.010 A 
ENDBRANCH  15  19
ENDBRANCH  13  14
ENDBRANCH   7  13
BRANCH  11  26
ATOM     26  C   UNL A   1      30.609  24.956  25.588  1.00  0.00     0.225 C 
ATOM     27  O   UNL A   1      30.005  25.513  26.512  1.00  0.00    -0.275 OA
BRANCH  26  28
ATOM     28  C   UNL A   1      30.508  25.589  24.196  1.00  0.00     0.072 C 
ATOM     29  C   UNL A   1      30.817  24.672  23.015  1.00  0.00     0.018 C 
ATOM     30  C   UNL A   1      29.213  26.370  24.017  1.00  0.00     0.018 C 
ENDBRANCH  26  28
ENDBRANCH  11  26
ENDBRANCH   4   7
ENDBRANCH   2   3
ENDBRANCH   1   2
BRANCH   1  31
ATOM     31  C   UNL A   1      38.644  22.873  26.078  1.00  0.00     0.118 C 
BRANCH  31  32
ATOM     32  N   UNL A   1      40.080  22.881  26.361  1.00  0.00    -0.352 N 
ATOM     33  C   UNL A   1      40.873  23.953  26.749  1.00  0.00     0.251 C 
ATOM     34  H   UNL A   1      40.542  22.017  26.263  1.00  0.00     0.163 HD
ATOM     35  O   UNL A   1      42.068  23.837  26.944  1.00  0.00    -0.269 OA
BRANCH  33  36
ATOM     36  C   UNL A   1      40.191  25.238  27.028  1.00  0.00     0.039 A 
ATOM     37  C   UNL A   1      40.627  26.365  26.326  1.00  0.00     0.014 A 
ATOM     38  C   UNL A   1      39.396  25.361  28.163  1.00  0.00     0.014 A 
ATOM     39  C   UNL A   1      40.473  27.620  26.906  1.00  0.00     0.010 A 
ATOM     40  C   UNL A   1      39.358  26.587  28.796  1.00  0.00     0.010 A 
ATOM     41  C   UNL A   1      39.947  27.708  28.195  1.00  0.00    -0.014 A 
BRANCH  41  42
ATOM     42  C   UNL A   1      40.102  28.892  29.036  1.00  0.00     0.031 A 
ATOM     43  C   UNL A   1      39.051  29.930  29.077  1.00  0.00     0.074 A 
ATOM     44  C   UNL A   1      41.193  29.032  29.822  1.00  0.00     0.049 A 
ATOM     45  N   UNL A   1      39.268  31.168  29.365  1.00  0.00    -0.248 NA
ATOM     46  C   UNL A   1      37.659  29.655  28.748  1.00  0.00     0.031 C 
ATOM     47  C   UNL A   1      41.395  30.010  30.889  1.00  0.00     0.029 A 
ATOM     48  N   UNL A   1      42.450  28.460  29.634  1.00  0.00    -0.354 N 
ATOM     49  C   UNL A   1      38.048  31.772  29.559  1.00  0.00     0.074 A 
ATOM     50  C   UNL A   1      37.080  30.807  29.094  1.00  0.00     0.031 C 
ATOM     51  C   UNL A   1      42.712  30.173  31.084  1.00  0.00     0.029 A 
ATOM     52  C   UNL A   1      43.401  29.401  30.067  1.00  0.00     0.049 A 
ATOM     53  H   UNL A   1      42.636  27.565  29.267  1.00  0.00     0.167 HD
ATOM     54  C   UNL A   1      37.983  32.961  30.224  1.00  0.00     0.034 A 
ATOM     55  C   UNL A   1      44.360  29.880  29.223  1.00  0.00     0.034 A 
ATOM     56  C   UNL A   1      39.313  33.459  30.576  1.00  0.00     0.049 A 
ATOM     57  C   UNL A   1      44.299  31.378  29.032  1.00  0.00     0.074 A 
ATOM     58  C   UNL A   1      40.035  33.468  31.758  1.00  0.00     0.029 A 
ATOM     59  N   UNL A   1      40.207  33.811  29.570  1.00  0.00    -0.354 N 
ATOM     60  N   UNL A   1      43.276  32.118  29.360  1.00  0.00    -0.248 NA
ATOM     61  C   UNL A   1      45.380  32.158  28.442  1.00  0.00     0.031 C 
ATOM     62  C   UNL A   1      41.381  33.796  31.451  1.00  0.00     0.029 A 
ATOM     63  C   UNL A   1      41.474  34.008  30.087  1.00  0.00     0.049 A 
ATOM     64  H   UNL A   1      39.970  33.908  28.619  1.00  0.00     0.167 HD
ATOM     65  C   UNL A   1      43.520  33.428  29.024  1.00  0.00     0.074 A 
ATOM     66  C   UNL A   1      44.865  33.400  28.474  1.00  0.00     0.031 C 
ATOM     67  C   UNL A   1      42.582  34.407  29.225  1.00  0.00     0.034 A 
BRANCH  54  68
ATOM     68  C   UNL A   1      36.707  33.508  30.830  1.00  0.00     0.023 A 
ATOM     69  C   UNL A   1      35.752  34.125  29.995  1.00  0.00     0.031 A 
ATOM     70  C   UNL A   1      36.387  33.503  32.202  1.00  0.00     0.131 A 
ATOM     71  C   UNL A   1      34.633  34.795  30.521  1.00  0.00     0.055 A 
ATOM     72  C   UNL A   1      35.310  34.224  32.735  1.00  0.00     0.041 A 
ATOM     73  F   UNL A   1      37.067  32.752  33.079  1.00  0.00    -0.206 F 
ATOM     74  C   UNL A   1      34.432  34.890  31.895  1.00  0.00     0.022 A 
BRANCH  71  75
ATOM     75  S   UNL A   1      33.430  35.534  29.381  1.00  0.00     0.124 S 
ATOM     76  O   UNL A   1      32.845  36.597  30.192  1.00  0.00    -0.237 OA
ATOM     77  O   UNL A   1      34.278  35.958  28.273  1.00  0.00    -0.237 OA
ATOM     78  O   UNL A   1      32.528  34.424  29.076  1.00  0.00    -0.744 OA
ENDBRANCH  71  75
ENDBRANCH  54  68
BRANCH  55  79
ATOM     79  C   UNL A   1      44.795  28.877  28.210  1.00  0.00     0.023 A 
ATOM     80  C   UNL A   1      45.652  27.850  28.665  1.00  0.00     0.031 A 
ATOM     81  C   UNL A   1      44.093  28.666  27.017  1.00  0.00     0.131 A 
ATOM     82  C   UNL A   1      45.638  26.592  28.048  1.00  0.00     0.055 A 
ATOM     83  C   UNL A   1      44.152  27.433  26.351  1.00  0.00     0.041 A 
ATOM     84  F   UNL A   1      43.238  29.587  26.553  1.00  0.00    -0.206 F 
ATOM     85  C   UNL A   1      44.888  26.375  26.892  1.00  0.00     0.022 A 
BRANCH  82  86
ATOM     86  S   UNL A   1      46.354  25.187  28.955  1.00  0.00     0.124 S 
ATOM     87  O   UNL A   1      45.865  24.047  28.189  1.00  0.00    -0.237 OA
ATOM     88  O   UNL A   1      47.791  25.450  28.870  1.00  0.00    -0.237 OA
ATOM     89  O   UNL A   1      45.808  25.326  30.303  1.00  0.00    -0.744 OA
ENDBRANCH  82  86
ENDBRANCH  55  79
BRANCH  67  90
ATOM     90  C   UNL A   1      42.638  35.844  28.726  1.00  0.00     0.023 A 
ATOM     91  C   UNL A   1      43.130  36.919  29.480  1.00  0.00     0.031 A 
ATOM     92  C   UNL A   1      42.235  36.174  27.404  1.00  0.00     0.131 A 
ATOM     93  C   UNL A   1      43.141  38.234  28.970  1.00  0.00     0.055 A 
ATOM     94  C   UNL A   1      42.311  37.466  26.875  1.00  0.00     0.041 A 
ATOM     95  F   UNL A   1      41.761  35.251  26.554  1.00  0.00    -0.206 F 
ATOM     96  C   UNL A   1      42.752  38.513  27.665  1.00  0.00     0.022 A 
BRANCH  93  97
ATOM     97  S   UNL A   1      43.629  39.580  30.081  1.00  0.00     0.124 S 
ATOM     98  O   UNL A   1      43.925  38.860  31.317  1.00  0.00    -0.237 OA
ATOM     99  O   UNL A   1      44.781  40.152  29.391  1.00  0.00    -0.237 OA
ATOM    100  O   UNL A   1      42.445  40.436  30.129  1.00  0.00    -0.744 OA
ENDBRANCH  93  97
ENDBRANCH  67  90
ENDBRANCH  41  42
ENDBRANCH  33  36
ENDBRANCH  31  32
ENDBRANCH   1  31
TORSDOF 18
ENDMDL
MODEL 2
REMARK VINA RESULT:     -13.2      4.013      9.970
REMARK SMILES Cc1cccc(-c2cc(C[C@]3(C(=O)NCCCNC(=O)c4ccc(-c5c6nc(c(-c7cc(S(=O)(=O)[O-])ccc7F)c7ccc([nH]7)c(-c7cc(S(=O)(=O)[O-])ccc7F)c7nc(c(-c8cc(S(=O)(=O)[O-])ccc8F)c8ccc5[nH]8)C=C7)C=C6)cc4)CCCN(C(=O)C(C)C)C3)on2)c1
REMARK SMILES IDX 16 1 15 2 14 3 12 4 13 5 11 7 84 8 93 9 85 10 87 11 86 12
REMARK SMILES IDX 10 13 9 14 7 15 8 16 95 17 94 18 6 19 1 20 2 21 3 22 96 23
REMARK SMILES IDX 4 24 5 25 88 26 89 27 90 28 91 29 92 30 17 31 18 32 19 33
REMARK SMILES IDX 20 35 21 36 22 37 83 38 23 39 82 40 24 41 25 42 26 43 76 44
REMARK SMILES IDX 27 45 81 46 75 47 77 48 28 49 80 50 74 51 73 52 29 54 61 55
REMARK SMILES IDX 41 56 60 57 42 58 45 59 59 60 78 61 43 62 44 63 58 65 79 66
REMARK SMILES IDX 46 67 30 68 31 69 39 70 32 71 38 72 40 73 37 74 33 75 34 76
REMARK SMILES IDX 35 77 36 78 62 79 63 80 71 81 64 82 70 83 72 84 69 85 65 86
REMARK SMILES IDX 66 87 67 88 68 89 47 90 48 91 56 92 49 93 55 94 57 95 54 96
REMARK SMILES IDX 50 97 51 98 52 99 53 100
REMARK H PARENT 14 6 18 34 77 53 45 64
REMARK Flexibility Score: inf
ROOT
ATOM      1  C   UNL A   1      32.695  30.990  26.290  1.00  0.00     0.042 C 
ENDROOT
BRANCH   1   2
ATOM      2  C   UNL A   1      31.493  30.152  25.870  1.00  0.00     0.117 C 
BRANCH   2   3
ATOM      3  N   UNL A   1      31.352  30.010  24.418  1.00  0.00    -0.355 N 
ATOM      4  C   UNL A   1      31.359  28.961  23.544  1.00  0.00     0.228 C 
ATOM      5  O   UNL A   1      31.139  29.243  22.359  1.00  0.00    -0.274 OA
ATOM      6  H   UNL A   1      31.221  30.875  23.967  1.00  0.00     0.163 HD
BRANCH   4   7
ATOM      7  C   UNL A   1      31.705  27.496  23.939  1.00  0.00     0.074 C 
ATOM      8  C   UNL A   1      33.211  27.475  24.334  1.00  0.00     0.021 C 
ATOM      9  C   UNL A   1      30.696  26.999  25.008  1.00  0.00     0.136 C 
ATOM     10  C   UNL A   1      33.597  26.554  25.484  1.00  0.00     0.023 C 
ATOM     11  N   UNL A   1      31.286  26.110  26.018  1.00  0.00    -0.341 N 
ATOM     12  C   UNL A   1      32.545  26.575  26.573  1.00  0.00     0.119 C 
BRANCH   7  13
ATOM     13  C   UNL A   1      31.514  26.621  22.642  1.00  0.00     0.097 C 
BRANCH  13  14
ATOM     14  C   UNL A   1      32.154  25.270  22.660  1.00  0.00     0.138 A 
ATOM     15  C   UNL A   1      32.904  23.204  22.925  1.00  0.00     0.114 A 
ATOM     16  C   UNL A   1      31.947  24.132  23.402  1.00  0.00     0.077 A 
ATOM     17  N   UNL A   1      33.626  23.741  21.928  1.00  0.00    -0.080 NA
ATOM     18  O   UNL A   1      33.138  25.027  21.753  1.00  0.00    -0.361 OA
BRANCH  15  19
ATOM     19  C   UNL A   1      33.157  21.859  23.423  1.00  0.00     0.004 A 
ATOM     20  C   UNL A   1      32.018  18.269  22.826  1.00  0.00     0.044 C 
ATOM     21  C   UNL A   1      32.717  19.465  23.399  1.00  0.00    -0.050 A 
ATOM     22  C   UNL A   1      33.613  19.295  24.462  1.00  0.00     0.003 A 
ATOM     23  C   UNL A   1      32.482  20.755  22.892  1.00  0.00     0.014 A 
ATOM     24  C   UNL A   1      34.289  20.389  24.994  1.00  0.00     0.001 A 
ATOM     25  C   UNL A   1      34.068  21.660  24.466  1.00  0.00     0.010 A 
ENDBRANCH  15  19
ENDBRANCH  13  14
ENDBRANCH   7  13
BRANCH  11  26
ATOM     26  C   UNL A   1      30.617  24.948  26.358  1.00  0.00     0.225 C 
ATOM     27  O   UNL A   1      29.452  24.980  26.773  1.00  0.00    -0.275 OA
BRANCH  26  28
ATOM     28  C   UNL A   1      31.293  23.577  26.255  1.00  0.00     0.072 C 
ATOM     29  C   UNL A   1      32.448  23.322  27.221  1.00  0.00     0.018 C 
ATOM     30  C   UNL A   1      30.279  22.441  26.231  1.00  0.00     0.018 C 
ENDBRANCH  26  28
ENDBRANCH  11  26
ENDBRANCH   4   7
ENDBRANCH   2   3
ENDBRANCH   1   2
BRANCH   1  31
ATOM     31  C   UNL A   1      33.353  30.500  27.570  1.00  0.00     0.118 C 
BRANCH  31  32
ATOM     32  N   UNL A   1      34.040  31.550  28.324  1.00  0.00    -0.352 N 
ATOM     33  C   UNL A   1      35.277  31.486  28.951  1.00  0.00     0.251 C 
ATOM     34  H   UNL A   1      33.563  32.409  28.397  1.00  0.00     0.163 HD
ATOM     35  O   UNL A   1      35.741  32.429  29.565  1.00  0.00    -0.269 OA
BRANCH  33  36
ATOM     36  C   UNL A   1      36.076  30.254  28.758  1.00  0.00     0.039 A 
ATOM     37  C   UNL A   1      36.543  29.603  29.902  1.00  0.00     0.014 A 
ATOM     38  C   UNL A   1      36.601  29.966  27.502  1.00  0.00     0.014 A 
ATOM     39  C   UNL A   1      37.707  28.845  29.818  1.00  0.00     0.010 A 
ATOM     40  C   UNL A   1      37.820  29.324  27.443  1.00  0.00     0.010 A 
ATOM     41  C   UNL A   1      38.404  28.813  28.610  1.00  0.00    -0.014 A 
BRANCH  41  42
ATOM     42  C   UNL A   1      39.800  28.394  28.510  1.00  0.00     0.031 A 
ATOM     43  C   UNL A   1      40.147  26.975  28.289  1.00  0.00     0.074 A 
ATOM     44  C   UNL A   1      40.793  29.310  28.578  1.00  0.00     0.049 A 
ATOM     45  N   UNL A   1      41.260  26.436  28.657  1.00  0.00    -0.248 NA
ATOM     46  C   UNL A   1      39.233  26.029  27.664  1.00  0.00     0.031 C 
ATOM     47  C   UNL A   1      42.205  29.108  28.260  1.00  0.00     0.029 A 
ATOM     48  N   UNL A   1      40.752  30.557  29.198  1.00  0.00    -0.354 N 
ATOM     49  C   UNL A   1      41.340  25.198  28.065  1.00  0.00     0.074 A 
ATOM     50  C   UNL A   1      40.024  24.964  27.517  1.00  0.00     0.031 C 
ATOM     51  C   UNL A   1      42.931  30.035  28.902  1.00  0.00     0.029 A 
ATOM     52  C   UNL A   1      42.025  30.785  29.751  1.00  0.00     0.049 A 
ATOM     53  H   UNL A   1      39.978  31.164  29.240  1.00  0.00     0.167 HD
ATOM     54  C   UNL A   1      42.548  24.569  27.978  1.00  0.00     0.034 A 
ATOM     55  C   UNL A   1      42.189  31.000  31.088  1.00  0.00     0.034 A 
ATOM     56  C   UNL A   1      43.606  25.336  28.634  1.00  0.00     0.049 A 
ATOM     57  C   UNL A   1      43.078  29.978  31.757  1.00  0.00     0.074 A 
ATOM     58  C   UNL A   1      44.617  26.152  28.154  1.00  0.00     0.029 A 
ATOM     59  N   UNL A   1      43.558  25.543  30.010  1.00  0.00    -0.354 N 
ATOM     60  N   UNL A   1      43.409  28.833  31.225  1.00  0.00    -0.248 NA
ATOM     61  C   UNL A   1      43.653  30.158  33.085  1.00  0.00     0.031 C 
ATOM     62  C   UNL A   1      45.155  26.879  29.248  1.00  0.00     0.029 A 
ATOM     63  C   UNL A   1      44.488  26.489  30.395  1.00  0.00     0.049 A 
ATOM     64  H   UNL A   1      42.945  25.078  30.624  1.00  0.00     0.167 HD
ATOM     65  C   UNL A   1      44.194  28.121  32.100  1.00  0.00     0.074 A 
ATOM     66  C   UNL A   1      44.336  29.009  33.241  1.00  0.00     0.031 C 
ATOM     67  C   UNL A   1      44.642  26.861  31.799  1.00  0.00     0.034 A 
BRANCH  54  68
ATOM     68  C   UNL A   1      42.823  23.422  27.027  1.00  0.00     0.023 A 
ATOM     69  C   UNL A   1      42.240  22.162  27.273  1.00  0.00     0.031 A 
ATOM     70  C   UNL A   1      43.672  23.479  25.905  1.00  0.00     0.131 A 
ATOM     71  C   UNL A   1      42.592  21.026  26.523  1.00  0.00     0.055 A 
ATOM     72  C   UNL A   1      44.075  22.339  25.196  1.00  0.00     0.041 A 
ATOM     73  F   UNL A   1      44.102  24.647  25.407  1.00  0.00    -0.206 F 
ATOM     74  C   UNL A   1      43.547  21.098  25.514  1.00  0.00     0.022 A 
BRANCH  71  75
ATOM     75  S   UNL A   1      41.772  19.446  26.877  1.00  0.00     0.124 S 
ATOM     76  O   UNL A   1      42.903  18.548  27.086  1.00  0.00    -0.237 OA
ATOM     77  O   UNL A   1      40.976  19.770  28.055  1.00  0.00    -0.237 OA
ATOM     78  O   UNL A   1      40.997  19.188  25.663  1.00  0.00    -0.744 OA
ENDBRANCH  71  75
ENDBRANCH  54  68
BRANCH  55  79
ATOM     79  C   UNL A   1      41.031  31.705  31.709  1.00  0.00     0.023 A 
ATOM     80  C   UNL A   1      40.134  30.910  32.456  1.00  0.00     0.031 A 
ATOM     81  C   UNL A   1      41.031  33.087  31.938  1.00  0.00     0.131 A 
ATOM     82  C   UNL A   1      39.422  31.465  33.527  1.00  0.00     0.055 A 
ATOM     83  C   UNL A   1      40.247  33.651  32.953  1.00  0.00     0.041 A 
ATOM     84  F   UNL A   1      41.884  33.889  31.286  1.00  0.00    -0.206 F 
ATOM     85  C   UNL A   1      39.475  32.835  33.784  1.00  0.00     0.022 A 
BRANCH  82  86
ATOM     86  S   UNL A   1      38.693  30.330  34.748  1.00  0.00     0.124 S 
ATOM     87  O   UNL A   1      38.044  29.341  33.896  1.00  0.00    -0.237 OA
ATOM     88  O   UNL A   1      39.863  29.867  35.494  1.00  0.00    -0.237 OA
ATOM     89  O   UNL A   1      37.796  31.181  35.527  1.00  0.00    -0.744 OA
ENDBRANCH  82  86
ENDBRANCH  55  79
BRANCH  67  90
ATOM     90  C   UNL A   1      45.341  25.890  32.739  1.00  0.00     0.023 A 
ATOM     91  C   UNL A   1      44.680  24.894  33.473  1.00  0.00     0.031 A 
ATOM     92  C   UNL A   1      46.754  25.903  32.885  1.00  0.00     0.131 A 
ATOM     93  C   UNL A   1      45.380  24.033  34.344  1.00  0.00     0.055 A 
ATOM     94  C   UNL A   1      47.454  25.005  33.695  1.00  0.00     0.041 A 
ATOM     95  F   UNL A   1      47.528  26.783  32.233  1.00  0.00    -0.206 F 
ATOM     96  C   UNL A   1      46.766  24.068  34.447  1.00  0.00     0.022 A 
BRANCH  93  97
ATOM     97  S   UNL A   1      44.420  22.898  35.381  1.00  0.00     0.124 S 
ATOM     98  O   UNL A   1      44.976  23.158  36.707  1.00  0.00    -0.237 OA
ATOM     99  O   UNL A   1      43.053  23.359  35.167  1.00  0.00    -0.237 OA
ATOM    100  O   UNL A   1      44.726  21.580  34.827  1.00  0.00    -0.744 OA
ENDBRANCH  93  97
ENDBRANCH  67  90
ENDBRANCH  41  42
ENDBRANCH  33  36
ENDBRANCH  31  32
ENDBRANCH   1  31
TORSDOF 18
ENDMDL
MODEL 3
REMARK VINA RESULT:     -13.2      1.477      2.606
REMARK SMILES Cc1cccc(-c2cc(C[C@]3(C(=O)NCCCNC(=O)c4ccc(-c5c6nc(c(-c7cc(S(=O)(=O)[O-])ccc7F)c7ccc([nH]7)c(-c7cc(S(=O)(=O)[O-])ccc7F)c7nc(c(-c8cc(S(=O)(=O)[O-])ccc8F)c8ccc5[nH]8)C=C7)C=C6)cc4)CCCN(C(=O)C(C)C)C3)on2)c1
REMARK SMILES IDX 16 1 15 2 14 3 12 4 13 5 11 7 84 8 93 9 85 10 87 11 86 12
REMARK SMILES IDX 10 13 9 14 7 15 8 16 95 17 94 18 6 19 1 20 2 21 3 22 96 23
REMARK SMILES IDX 4 24 5 25 88 26 89 27 90 28 91 29 92 30 17 31 18 32 19 33
REMARK SMILES IDX 20 35 21 36 22 37 83 38 23 39 82 40 24 41 25 42 26 43 76 44
REMARK SMILES IDX 27 45 81 46 75 47 77 48 28 49 80 50 74 51 73 52 29 54 61 55
REMARK SMILES IDX 41 56 60 57 42 58 45 59 59 60 78 61 43 62 44 63 58 65 79 66
REMARK SMILES IDX 46 67 30 68 31 69 39 70 32 71 38 72 40 73 37 74 33 75 34 76
REMARK SMILES IDX 35 77 36 78 62 79 63 80 71 81 64 82 70 83 72 84 69 85 65 86
REMARK SMILES IDX 66 87 67 88 68 89 47 90 48 91 56 92 49 93 55 94 57 95 54 96
REMARK SMILES IDX 50 97 51 98 52 99 53 100
REMARK H PARENT 14 6 18 34 77 53 45 64
REMARK Flexibility Score: inf
ROOT
ATOM      1  C   UNL A   1      38.301  23.252  25.907  1.00  0.00     0.042 C 
ENDROOT
BRANCH   1   2
ATOM      2  C   UNL A   1      37.369  22.232  25.265  1.00  0.00     0.117 C 
BRANCH   2   3
ATOM      3  N   UNL A   1      36.672  22.736  24.077  1.00  0.00    -0.355 N 
ATOM      4  C   UNL A   1      35.375  22.747  23.649  1.00  0.00     0.228 C 
ATOM      5  O   UNL A   1      35.162  23.343  22.586  1.00  0.00    -0.274 OA
ATOM      6  H   UNL A   1      37.282  23.170  23.439  1.00  0.00     0.163 HD
BRANCH   4   7
ATOM      7  C   UNL A   1      34.213  21.999  24.362  1.00  0.00     0.074 C 
ATOM      8  C   UNL A   1      32.895  22.416  23.646  1.00  0.00     0.021 C 
ATOM      9  C   UNL A   1      34.530  20.480  24.410  1.00  0.00     0.136 C 
ATOM     10  C   UNL A   1      31.833  21.334  23.497  1.00  0.00     0.023 C 
ATOM     11  N   UNL A   1      33.351  19.619  24.254  1.00  0.00    -0.341 N 
ATOM     12  C   UNL A   1      32.463  19.997  23.169  1.00  0.00     0.119 C 
BRANCH   7  13
ATOM     13  C   UNL A   1      34.171  22.535  25.844  1.00  0.00     0.097 C 
BRANCH  13  14
ATOM     14  C   UNL A   1      33.399  23.796  26.065  1.00  0.00     0.138 A 
ATOM     15  C   UNL A   1      32.485  25.807  26.227  1.00  0.00     0.114 A 
ATOM     16  C   UNL A   1      33.579  25.100  25.670  1.00  0.00     0.077 A 
ATOM     17  N   UNL A   1      31.674  24.970  26.893  1.00  0.00    -0.080 NA
ATOM     18  O   UNL A   1      32.239  23.710  26.771  1.00  0.00    -0.361 OA
BRANCH  15  19
ATOM     19  C   UNL A   1      32.234  27.240  26.165  1.00  0.00     0.004 A 
ATOM     20  C   UNL A   1      30.463  29.794  23.956  1.00  0.00     0.044 C 
ATOM     21  C   UNL A   1      31.276  29.184  25.058  1.00  0.00    -0.050 A 
ATOM     22  C   UNL A   1      31.838  30.012  26.038  1.00  0.00     0.003 A 
ATOM     23  C   UNL A   1      31.490  27.797  25.119  1.00  0.00     0.014 A 
ATOM     24  C   UNL A   1      32.578  29.465  27.082  1.00  0.00     0.001 A 
ATOM     25  C   UNL A   1      32.762  28.085  27.148  1.00  0.00     0.010 A 
ENDBRANCH  15  19
ENDBRANCH  13  14
ENDBRANCH   7  13
BRANCH  11  26
ATOM     26  C   UNL A   1      33.189  18.547  25.113  1.00  0.00     0.225 C 
ATOM     27  O   UNL A   1      32.533  18.656  26.156  1.00  0.00    -0.275 OA
BRANCH  26  28
ATOM     28  C   UNL A   1      33.830  17.185  24.822  1.00  0.00     0.072 C 
ATOM     29  C   UNL A   1      33.186  15.979  25.502  1.00  0.00     0.018 C 
ATOM     30  C   UNL A   1      34.063  16.971  23.333  1.00  0.00     0.018 C 
ENDBRANCH  26  28
ENDBRANCH  11  26
ENDBRANCH   4   7
ENDBRANCH   2   3
ENDBRANCH   1   2
BRANCH   1  31
ATOM     31  C   UNL A   1      39.296  22.633  26.876  1.00  0.00     0.118 C 
BRANCH  31  32
ATOM     32  N   UNL A   1      40.693  22.951  26.578  1.00  0.00    -0.352 N 
ATOM     33  C   UNL A   1      41.296  24.200  26.519  1.00  0.00     0.251 C 
ATOM     34  H   UNL A   1      41.279  22.180  26.396  1.00  0.00     0.163 HD
ATOM     35  O   UNL A   1      42.474  24.339  26.247  1.00  0.00    -0.269 OA
BRANCH  33  36
ATOM     36  C   UNL A   1      40.476  25.370  26.911  1.00  0.00     0.039 A 
ATOM     37  C   UNL A   1      40.676  26.561  26.207  1.00  0.00     0.014 A 
ATOM     38  C   UNL A   1      39.797  25.358  28.125  1.00  0.00     0.014 A 
ATOM     39  C   UNL A   1      40.413  27.770  26.841  1.00  0.00     0.010 A 
ATOM     40  C   UNL A   1      39.658  26.554  28.799  1.00  0.00     0.010 A 
ATOM     41  C   UNL A   1      40.019  27.757  28.180  1.00  0.00    -0.014 A 
BRANCH  41  42
ATOM     42  C   UNL A   1      40.098  28.935  29.041  1.00  0.00     0.031 A 
ATOM     43  C   UNL A   1      39.023  29.948  29.031  1.00  0.00     0.074 A 
ATOM     44  C   UNL A   1      41.138  29.091  29.891  1.00  0.00     0.049 A 
ATOM     45  N   UNL A   1      39.193  31.188  29.344  1.00  0.00    -0.248 NA
ATOM     46  C   UNL A   1      37.658  29.646  28.619  1.00  0.00     0.031 C 
ATOM     47  C   UNL A   1      41.255  30.061  30.977  1.00  0.00     0.029 A 
ATOM     48  N   UNL A   1      42.416  28.550  29.770  1.00  0.00    -0.354 N 
ATOM     49  C   UNL A   1      37.951  31.762  29.473  1.00  0.00     0.074 A 
ATOM     50  C   UNL A   1      37.033  30.780  28.943  1.00  0.00     0.031 C 
ATOM     51  C   UNL A   1      42.554  30.252  31.250  1.00  0.00     0.029 A 
ATOM     52  C   UNL A   1      43.319  29.507  30.267  1.00  0.00     0.049 A 
ATOM     53  H   UNL A   1      42.645  27.664  29.405  1.00  0.00     0.167 HD
ATOM     54  C   UNL A   1      37.819  32.942  30.145  1.00  0.00     0.034 A 
ATOM     55  C   UNL A   1      44.314  30.018  29.486  1.00  0.00     0.034 A 
ATOM     56  C   UNL A   1      39.114  33.465  30.579  1.00  0.00     0.049 A 
ATOM     57  C   UNL A   1      44.229  31.516  29.306  1.00  0.00     0.074 A 
ATOM     58  C   UNL A   1      39.767  33.477  31.801  1.00  0.00     0.029 A 
ATOM     59  N   UNL A   1      40.057  33.849  29.630  1.00  0.00    -0.354 N 
ATOM     60  N   UNL A   1      43.171  32.228  29.582  1.00  0.00    -0.248 NA
ATOM     61  C   UNL A   1      45.324  32.327  28.788  1.00  0.00     0.031 C 
ATOM     62  C   UNL A   1      41.120  33.839  31.576  1.00  0.00     0.029 A 
ATOM     63  C   UNL A   1      41.287  34.069  30.222  1.00  0.00     0.049 A 
ATOM     64  H   UNL A   1      39.873  33.951  28.668  1.00  0.00     0.167 HD
ATOM     65  C   UNL A   1      43.404  33.548  29.274  1.00  0.00     0.074 A 
ATOM     66  C   UNL A   1      44.779  33.556  28.803  1.00  0.00     0.031 C 
ATOM     67  C   UNL A   1      42.433  34.503  29.430  1.00  0.00     0.034 A 
BRANCH  54  68
ATOM     68  C   UNL A   1      36.497  33.453  30.681  1.00  0.00     0.023 A 
ATOM     69  C   UNL A   1      35.616  34.135  29.817  1.00  0.00     0.031 A 
ATOM     70  C   UNL A   1      36.065  33.351  32.018  1.00  0.00     0.131 A 
ATOM     71  C   UNL A   1      34.458  34.773  30.296  1.00  0.00     0.055 A 
ATOM     72  C   UNL A   1      34.948  34.039  32.511  1.00  0.00     0.041 A 
ATOM     73  F   UNL A   1      36.669  32.534  32.892  1.00  0.00    -0.206 F 
ATOM     74  C   UNL A   1      34.144  34.770  31.651  1.00  0.00     0.022 A 
BRANCH  71  75
ATOM     75  S   UNL A   1      33.355  35.600  29.116  1.00  0.00     0.124 S 
ATOM     76  O   UNL A   1      32.611  36.515  29.975  1.00  0.00    -0.237 OA
ATOM     77  O   UNL A   1      34.299  36.208  28.186  1.00  0.00    -0.237 OA
ATOM     78  O   UNL A   1      32.567  34.500  28.561  1.00  0.00    -0.744 OA
ENDBRANCH  71  75
ENDBRANCH  54  68
BRANCH  55  79
ATOM     79  C   UNL A   1      44.830  29.036  28.489  1.00  0.00     0.023 A 
ATOM     80  C   UNL A   1      45.681  28.023  28.983  1.00  0.00     0.031 A 
ATOM     81  C   UNL A   1      44.204  28.824  27.254  1.00  0.00     0.131 A 
ATOM     82  C   UNL A   1      45.732  26.772  28.352  1.00  0.00     0.055 A 
ATOM     83  C   UNL A   1      44.330  27.601  26.580  1.00  0.00     0.041 A 
ATOM     84  F   UNL A   1      43.358  29.733  26.750  1.00  0.00    -0.206 F 
ATOM     85  C   UNL A   1      45.056  26.553  27.152  1.00  0.00     0.022 A 
BRANCH  82  86
ATOM     86  S   UNL A   1      46.424  25.373  29.285  1.00  0.00     0.124 S 
ATOM     87  O   UNL A   1      45.927  24.228  28.532  1.00  0.00    -0.237 OA
ATOM     88  O   UNL A   1      47.864  25.617  29.208  1.00  0.00    -0.237 OA
ATOM     89  O   UNL A   1      45.870  25.537  30.627  1.00  0.00    -0.744 OA
ENDBRANCH  82  86
ENDBRANCH  55  79
BRANCH  67  90
ATOM     90  C   UNL A   1      42.485  35.946  28.949  1.00  0.00     0.023 A 
ATOM     91  C   UNL A   1      43.155  36.976  29.626  1.00  0.00     0.031 A 
ATOM     92  C   UNL A   1      41.886  36.328  27.720  1.00  0.00     0.131 A 
ATOM     93  C   UNL A   1      43.153  38.300  29.140  1.00  0.00     0.055 A 
ATOM     94  C   UNL A   1      41.943  37.627  27.204  1.00  0.00     0.041 A 
ATOM     95  F   UNL A   1      41.226  35.452  26.948  1.00  0.00    -0.206 F 
ATOM     96  C   UNL A   1      42.568  38.630  27.924  1.00  0.00     0.022 A 
BRANCH  93  97
ATOM     97  S   UNL A   1      43.895  39.592  30.173  1.00  0.00     0.124 S 
ATOM     98  O   UNL A   1      43.033  40.737  29.889  1.00  0.00    -0.237 OA
ATOM     99  O   UNL A   1      43.776  39.028  31.513  1.00  0.00    -0.237 OA
ATOM    100  O   UNL A   1      45.261  39.702  29.663  1.00  0.00    -0.744 OA
ENDBRANCH  93  97
ENDBRANCH  67  90
ENDBRANCH  41  42
ENDBRANCH  33  36
ENDBRANCH  31  32
ENDBRANCH   1  31
TORSDOF 18
ENDMDL
