MODEL 1
REMARK VINA RESULT:     -12.9      0.000      0.000
REMARK SMILES O=C(NCCCNC(=O)[C@H]1CC(=O)N(Cc2ccc3cc[nH]c3c2)C1)c1ccc(-c2c3nc(c(-c4cc(S(=O)(=O)[O-])ccc4F)c4ccc([nH]4)c(-c4cc(S(=O)(=O)[O-])ccc4F)c4nc(c(-c5cc(S(=O)(=O)[O-])ccc5F)c5ccc2[nH]5)C=C4)C=C3)cc1
REMARK SMILES IDX 4 1 3 2 1 3 2 4 26 6 27 7 88 8 28 9 87 10 29 11 30 12 31 13
REMARK SMILES IDX 81 14 32 15 86 16 80 17 82 18 33 19 85 20 79 21 78 22 34 24
REMARK SMILES IDX 66 25 46 26 65 27 47 28 50 29 64 30 83 31 48 32 49 33 63 35
REMARK SMILES IDX 84 36 51 37 35 38 36 39 44 40 37 41 43 42 45 43 42 44 38 45
REMARK SMILES IDX 39 46 40 47 41 48 67 49 68 50 76 51 69 52 75 53 77 54 74 55
REMARK SMILES IDX 70 56 71 57 72 58 73 59 52 60 53 61 61 62 54 63 60 64 62 65
REMARK SMILES IDX 59 66 55 67 56 68 57 69 58 70 5 71 6 72 7 73 8 74 9 76 10 77
REMARK SMILES IDX 11 78 25 79 12 80 14 81 13 82 15 83 16 84 17 85 24 86 18 87
REMARK SMILES IDX 23 88 19 89 22 90 20 91 21 92
REMARK H PARENT 3 5 82 23 50 34 7 75 22 93
REMARK Flexibility Score: inf
ROOT
ATOM      1  C   UNL A   1      32.056  30.827  26.531  1.00  0.00     0.118 C 
ENDROOT
BRANCH   1   2
ATOM      2  N   UNL A   1      32.001  32.264  26.772  1.00  0.00    -0.352 N 
ATOM      3  O   UNL A   1      32.531  34.233  27.728  1.00  0.00    -0.269 OA
ATOM      4  C   UNL A   1      32.843  33.065  27.507  1.00  0.00     0.251 C 
ATOM      5  H   UNL A   1      31.246  32.730  26.346  1.00  0.00     0.163 HD
BRANCH   4   6
ATOM      6  C   UNL A   1      34.109  32.518  28.044  1.00  0.00     0.039 A 
ATOM      7  C   UNL A   1      34.165  31.215  28.538  1.00  0.00     0.014 A 
ATOM      8  C   UNL A   1      35.252  33.321  28.060  1.00  0.00     0.014 A 
ATOM      9  C   UNL A   1      35.299  30.782  29.214  1.00  0.00     0.010 A 
ATOM     10  C   UNL A   1      36.430  32.840  28.644  1.00  0.00     0.010 A 
ATOM     11  C   UNL A   1      36.450  31.584  29.269  1.00  0.00    -0.014 A 
BRANCH  11  12
ATOM     12  C   UNL A   1      37.659  31.067  29.970  1.00  0.00     0.031 A 
ATOM     13  C   UNL A   1      37.949  31.445  31.399  1.00  0.00     0.074 A 
ATOM     14  C   UNL A   1      38.468  30.206  29.321  1.00  0.00     0.049 A 
ATOM     15  N   UNL A   1      38.929  31.050  32.174  1.00  0.00    -0.248 NA
ATOM     16  C   UNL A   1      37.029  32.397  32.038  1.00  0.00     0.031 C 
ATOM     17  C   UNL A   1      38.289  29.769  27.934  1.00  0.00     0.029 A 
ATOM     18  N   UNL A   1      39.581  29.523  29.739  1.00  0.00    -0.354 N 
ATOM     19  C   UNL A   1      38.757  31.719  33.382  1.00  0.00     0.074 A 
ATOM     20  C   UNL A   1      37.600  32.575  33.220  1.00  0.00     0.031 C 
ATOM     21  C   UNL A   1      39.214  28.846  27.639  1.00  0.00     0.029 A 
ATOM     22  C   UNL A   1      40.102  28.682  28.783  1.00  0.00     0.049 A 
ATOM     23  H   UNL A   1      39.968  29.624  30.639  1.00  0.00     0.167 HD
ATOM     24  C   UNL A   1      39.491  31.621  34.520  1.00  0.00     0.034 A 
ATOM     25  C   UNL A   1      41.184  27.880  28.814  1.00  0.00     0.034 A 
ATOM     26  C   UNL A   1      40.640  30.755  34.663  1.00  0.00     0.049 A 
ATOM     27  C   UNL A   1      42.002  27.819  30.076  1.00  0.00     0.074 A 
ATOM     28  C   UNL A   1      41.433  30.553  35.780  1.00  0.00     0.029 A 
ATOM     29  N   UNL A   1      41.169  29.956  33.656  1.00  0.00    -0.354 N 
ATOM     30  N   UNL A   1      41.812  28.442  31.216  1.00  0.00    -0.248 NA
ATOM     31  C   UNL A   1      43.178  26.942  30.056  1.00  0.00     0.031 C 
ATOM     32  C   UNL A   1      42.483  29.699  35.427  1.00  0.00     0.029 A 
ATOM     33  C   UNL A   1      42.296  29.289  34.117  1.00  0.00     0.049 A 
ATOM     34  H   UNL A   1      40.799  29.875  32.748  1.00  0.00     0.167 HD
ATOM     35  C   UNL A   1      42.826  28.001  32.062  1.00  0.00     0.074 A 
ATOM     36  C   UNL A   1      43.610  27.049  31.303  1.00  0.00     0.031 C 
ATOM     37  C   UNL A   1      43.080  28.348  33.350  1.00  0.00     0.034 A 
BRANCH  24  38
ATOM     38  C   UNL A   1      39.105  32.510  35.682  1.00  0.00     0.023 A 
ATOM     39  C   UNL A   1      39.560  33.836  35.792  1.00  0.00     0.031 A 
ATOM     40  C   UNL A   1      38.284  32.013  36.711  1.00  0.00     0.131 A 
ATOM     41  C   UNL A   1      39.254  34.590  36.936  1.00  0.00     0.055 A 
ATOM     42  C   UNL A   1      37.912  32.798  37.805  1.00  0.00     0.041 A 
ATOM     43  F   UNL A   1      37.834  30.748  36.676  1.00  0.00    -0.206 F 
ATOM     44  C   UNL A   1      38.411  34.090  37.930  1.00  0.00     0.022 A 
BRANCH  41  45
ATOM     45  S   UNL A   1      40.100  36.177  37.180  1.00  0.00     0.124 S 
ATOM     46  O   UNL A   1      39.292  36.782  38.236  1.00  0.00    -0.237 OA
ATOM     47  O   UNL A   1      41.444  35.762  37.563  1.00  0.00    -0.237 OA
ATOM     48  O   UNL A   1      39.993  36.827  35.876  1.00  0.00    -0.744 OA
ENDBRANCH  41  45
ENDBRANCH  24  38
BRANCH  25  49
ATOM     49  C   UNL A   1      41.568  27.086  27.613  1.00  0.00     0.023 A 
ATOM     50  C   UNL A   1      41.379  25.695  27.571  1.00  0.00     0.031 A 
ATOM     51  C   UNL A   1      42.169  27.701  26.500  1.00  0.00     0.131 A 
ATOM     52  C   UNL A   1      41.833  24.961  26.465  1.00  0.00     0.055 A 
ATOM     53  C   UNL A   1      42.561  26.975  25.375  1.00  0.00     0.041 A 
ATOM     54  F   UNL A   1      42.372  29.028  26.484  1.00  0.00    -0.206 F 
ATOM     55  C   UNL A   1      42.407  25.593  25.359  1.00  0.00     0.022 A 
BRANCH  52  56
ATOM     56  S   UNL A   1      41.750  23.151  26.532  1.00  0.00     0.124 S 
ATOM     57  O   UNL A   1      40.311  22.921  26.559  1.00  0.00    -0.237 OA
ATOM     58  O   UNL A   1      42.439  22.771  25.303  1.00  0.00    -0.237 OA
ATOM     59  O   UNL A   1      42.459  22.824  27.768  1.00  0.00    -0.744 OA
ENDBRANCH  52  56
ENDBRANCH  25  49
BRANCH  37  60
ATOM     60  C   UNL A   1      44.226  27.639  34.034  1.00  0.00     0.023 A 
ATOM     61  C   UNL A   1      44.051  26.425  34.722  1.00  0.00     0.031 A 
ATOM     62  C   UNL A   1      45.512  28.211  34.027  1.00  0.00     0.131 A 
ATOM     63  C   UNL A   1      45.120  25.864  35.434  1.00  0.00     0.055 A 
ATOM     64  C   UNL A   1      46.590  27.608  34.676  1.00  0.00     0.041 A 
ATOM     65  F   UNL A   1      45.741  29.372  33.391  1.00  0.00    -0.206 F 
ATOM     66  C   UNL A   1      46.394  26.437  35.400  1.00  0.00     0.022 A 
BRANCH  63  67
ATOM     67  S   UNL A   1      44.796  24.440  36.513  1.00  0.00     0.124 S 
ATOM     68  O   UNL A   1      44.926  23.321  35.584  1.00  0.00    -0.237 OA
ATOM     69  O   UNL A   1      45.849  24.563  37.515  1.00  0.00    -0.237 OA
ATOM     70  O   UNL A   1      43.441  24.683  37.004  1.00  0.00    -0.744 OA
ENDBRANCH  63  67
ENDBRANCH  37  60
ENDBRANCH  11  12
ENDBRANCH   4   6
ENDBRANCH   1   2
BRANCH   1  71
ATOM     71  C   UNL A   1      31.375  30.415  25.232  1.00  0.00     0.042 C 
BRANCH  71  72
ATOM     72  C   UNL A   1      32.010  29.198  24.571  1.00  0.00     0.117 C 
BRANCH  72  73
ATOM     73  N   UNL A   1      31.003  28.366  23.931  1.00  0.00    -0.356 N 
ATOM     74  C   UNL A   1      30.566  27.109  24.194  1.00  0.00     0.225 C 
ATOM     75  H   UNL A   1      30.556  28.793  23.166  1.00  0.00     0.163 HD
ATOM     76  O   UNL A   1      29.739  26.628  23.412  1.00  0.00    -0.275 OA
BRANCH  74  77
ATOM     77  C   UNL A   1      30.947  26.343  25.442  1.00  0.00     0.107 C 
ATOM     78  C   UNL A   1      29.933  25.386  26.057  1.00  0.00     0.115 C 
ATOM     79  C   UNL A   1      32.187  25.516  25.170  1.00  0.00     0.133 C 
ATOM     80  C   UNL A   1      30.775  24.222  26.526  1.00  0.00     0.223 C 
ATOM     81  N   UNL A   1      32.044  24.352  25.998  1.00  0.00    -0.338 N 
ATOM     82  O   UNL A   1      30.385  23.324  27.255  1.00  0.00    -0.275 OA
BRANCH  81  83
ATOM     83  C   UNL A   1      33.138  23.426  26.251  1.00  0.00     0.155 C 
BRANCH  83  84
ATOM     84  C   UNL A   1      32.966  22.080  25.579  1.00  0.00    -0.026 A 
ATOM     85  C   UNL A   1      32.745  21.992  24.196  1.00  0.00     0.006 A 
ATOM     86  C   UNL A   1      33.038  20.902  26.343  1.00  0.00     0.032 A 
ATOM     87  C   UNL A   1      32.543  20.762  23.561  1.00  0.00     0.010 A 
ATOM     88  C   UNL A   1      32.875  19.675  25.683  1.00  0.00     0.046 A 
ATOM     89  C   UNL A   1      32.614  19.581  24.318  1.00  0.00    -0.001 A 
ATOM     90  N   UNL A   1      32.921  18.389  26.174  1.00  0.00    -0.361 N 
ATOM     91  C   UNL A   1      32.474  18.200  24.009  1.00  0.00     0.028 A 
ATOM     92  C   UNL A   1      32.681  17.489  25.168  1.00  0.00     0.083 A 
ATOM     93  H   UNL A   1      33.100  18.149  27.112  1.00  0.00     0.166 HD
ENDBRANCH  83  84
ENDBRANCH  81  83
ENDBRANCH  74  77
ENDBRANCH  72  73
ENDBRANCH  71  72
ENDBRANCH   1  71
TORSDOF 15
ENDMDL
MODEL 2
REMARK VINA RESULT:     -12.9      1.347      1.511
REMARK SMILES O=C(NCCCNC(=O)[C@H]1CC(=O)N(Cc2ccc3cc[nH]c3c2)C1)c1ccc(-c2c3nc(c(-c4cc(S(=O)(=O)[O-])ccc4F)c4ccc([nH]4)c(-c4cc(S(=O)(=O)[O-])ccc4F)c4nc(c(-c5cc(S(=O)(=O)[O-])ccc5F)c5ccc2[nH]5)C=C4)C=C3)cc1
REMARK SMILES IDX 4 1 3 2 1 3 2 4 26 6 27 7 88 8 28 9 87 10 29 11 30 12 31 13
REMARK SMILES IDX 81 14 32 15 86 16 80 17 82 18 33 19 85 20 79 21 78 22 34 24
REMARK SMILES IDX 66 25 46 26 65 27 47 28 50 29 64 30 83 31 48 32 49 33 63 35
REMARK SMILES IDX 84 36 51 37 35 38 36 39 44 40 37 41 43 42 45 43 42 44 38 45
REMARK SMILES IDX 39 46 40 47 41 48 67 49 68 50 76 51 69 52 75 53 77 54 74 55
REMARK SMILES IDX 70 56 71 57 72 58 73 59 52 60 53 61 61 62 54 63 60 64 62 65
REMARK SMILES IDX 59 66 55 67 56 68 57 69 58 70 5 71 6 72 7 73 8 74 9 76 10 77
REMARK SMILES IDX 11 78 25 79 12 80 14 81 13 82 15 83 16 84 17 85 24 86 18 87
REMARK SMILES IDX 23 88 19 89 22 90 20 91 21 92
REMARK H PARENT 3 5 82 23 50 34 7 75 22 93
REMARK Flexibility Score: inf
ROOT
ATOM      1  C   UNL A   1      32.214  30.808  26.689  1.00  0.00     0.118 C 
ENDROOT
BRANCH   1   2
ATOM      2  N   UNL A   1      32.212  32.252  26.893  1.00  0.00    -0.352 N 
ATOM      3  O   UNL A   1      32.835  34.227  27.780  1.00  0.00    -0.269 OA
ATOM      4  C   UNL A   1      33.101  33.044  27.582  1.00  0.00     0.251 C 
ATOM      5  H   UNL A   1      31.461  32.732  26.476  1.00  0.00     0.163 HD
BRANCH   4   6
ATOM      6  C   UNL A   1      34.363  32.468  28.098  1.00  0.00     0.039 A 
ATOM      7  C   UNL A   1      34.403  31.157  28.572  1.00  0.00     0.014 A 
ATOM      8  C   UNL A   1      35.519  33.252  28.115  1.00  0.00     0.014 A 
ATOM      9  C   UNL A   1      35.537  30.696  29.230  1.00  0.00     0.010 A 
ATOM     10  C   UNL A   1      36.695  32.744  28.680  1.00  0.00     0.010 A 
ATOM     11  C   UNL A   1      36.701  31.478  29.285  1.00  0.00    -0.014 A 
BRANCH  11  12
ATOM     12  C   UNL A   1      37.908  30.931  29.966  1.00  0.00     0.031 A 
ATOM     13  C   UNL A   1      38.217  31.280  31.398  1.00  0.00     0.074 A 
ATOM     14  C   UNL A   1      38.698  30.070  29.294  1.00  0.00     0.049 A 
ATOM     15  N   UNL A   1      39.198  30.858  32.157  1.00  0.00    -0.248 NA
ATOM     16  C   UNL A   1      37.317  32.234  32.062  1.00  0.00     0.031 C 
ATOM     17  C   UNL A   1      38.500  29.659  27.902  1.00  0.00     0.029 A 
ATOM     18  N   UNL A   1      39.805  29.363  29.691  1.00  0.00    -0.354 N 
ATOM     19  C   UNL A   1      39.047  31.508  33.378  1.00  0.00     0.074 A 
ATOM     20  C   UNL A   1      37.901  32.383  33.242  1.00  0.00     0.031 C 
ATOM     21  C   UNL A   1      39.409  28.728  27.583  1.00  0.00     0.029 A 
ATOM     22  C   UNL A   1      40.305  28.531  28.716  1.00  0.00     0.049 A 
ATOM     23  H   UNL A   1      40.202  29.443  30.588  1.00  0.00     0.167 HD
ATOM     24  C   UNL A   1      39.789  31.379  34.507  1.00  0.00     0.034 A 
ATOM     25  C   UNL A   1      41.375  27.713  28.723  1.00  0.00     0.034 A 
ATOM     26  C   UNL A   1      40.926  30.494  34.625  1.00  0.00     0.049 A 
ATOM     27  C   UNL A   1      42.203  27.618  29.976  1.00  0.00     0.074 A 
ATOM     28  C   UNL A   1      41.726  30.261  35.731  1.00  0.00     0.029 A 
ATOM     29  N   UNL A   1      41.434  29.705  33.599  1.00  0.00    -0.354 N 
ATOM     30  N   UNL A   1      42.032  28.224  31.128  1.00  0.00    -0.248 NA
ATOM     31  C   UNL A   1      43.366  26.724  29.930  1.00  0.00     0.031 C 
ATOM     32  C   UNL A   1      42.760  29.397  35.354  1.00  0.00     0.029 A 
ATOM     33  C   UNL A   1      42.555  29.013  34.039  1.00  0.00     0.049 A 
ATOM     34  H   UNL A   1      41.054  29.645  32.694  1.00  0.00     0.167 HD
ATOM     35  C   UNL A   1      43.047  27.753  31.957  1.00  0.00     0.074 A 
ATOM     36  C   UNL A   1      43.811  26.803  31.174  1.00  0.00     0.031 C 
ATOM     37  C   UNL A   1      43.318  28.074  33.249  1.00  0.00     0.034 A 
BRANCH  24  38
ATOM     38  C   UNL A   1      39.427  32.253  35.688  1.00  0.00     0.023 A 
ATOM     39  C   UNL A   1      38.629  31.785  36.747  1.00  0.00     0.031 A 
ATOM     40  C   UNL A   1      39.872  33.587  35.745  1.00  0.00     0.131 A 
ATOM     41  C   UNL A   1      38.240  32.661  37.773  1.00  0.00     0.055 A 
ATOM     42  C   UNL A   1      39.552  34.428  36.813  1.00  0.00     0.041 A 
ATOM     43  F   UNL A   1      40.619  34.101  34.755  1.00  0.00    -0.206 F 
ATOM     44  C   UNL A   1      38.718  33.972  37.828  1.00  0.00     0.022 A 
BRANCH  41  45
ATOM     45  S   UNL A   1      36.975  32.109  38.952  1.00  0.00     0.124 S 
ATOM     46  O   UNL A   1      36.994  30.663  38.748  1.00  0.00    -0.237 OA
ATOM     47  O   UNL A   1      37.505  32.581  40.226  1.00  0.00    -0.237 OA
ATOM     48  O   UNL A   1      35.761  32.780  38.492  1.00  0.00    -0.744 OA
ENDBRANCH  41  45
ENDBRANCH  24  38
BRANCH  25  49
ATOM     49  C   UNL A   1      41.736  26.934  27.505  1.00  0.00     0.023 A 
ATOM     50  C   UNL A   1      41.508  25.550  27.433  1.00  0.00     0.031 A 
ATOM     51  C   UNL A   1      42.355  27.556  26.405  1.00  0.00     0.131 A 
ATOM     52  C   UNL A   1      41.940  24.828  26.311  1.00  0.00     0.055 A 
ATOM     53  C   UNL A   1      42.725  26.843  25.264  1.00  0.00     0.041 A 
ATOM     54  F   UNL A   1      42.595  28.877  26.418  1.00  0.00    -0.206 F 
ATOM     55  C   UNL A   1      42.533  25.467  25.219  1.00  0.00     0.022 A 
BRANCH  52  56
ATOM     56  S   UNL A   1      41.806  23.020  26.340  1.00  0.00     0.124 S 
ATOM     57  O   UNL A   1      40.361  22.830  26.376  1.00  0.00    -0.237 OA
ATOM     58  O   UNL A   1      42.471  22.647  25.095  1.00  0.00    -0.237 OA
ATOM     59  O   UNL A   1      42.517  22.645  27.561  1.00  0.00    -0.744 OA
ENDBRANCH  52  56
ENDBRANCH  25  49
BRANCH  37  60
ATOM     60  C   UNL A   1      44.460  27.337  33.909  1.00  0.00     0.023 A 
ATOM     61  C   UNL A   1      44.259  26.158  34.650  1.00  0.00     0.031 A 
ATOM     62  C   UNL A   1      45.769  27.845  33.826  1.00  0.00     0.131 A 
ATOM     63  C   UNL A   1      45.332  25.572  35.337  1.00  0.00     0.055 A 
ATOM     64  C   UNL A   1      46.845  27.216  34.451  1.00  0.00     0.041 A 
ATOM     65  F   UNL A   1      46.023  28.971  33.138  1.00  0.00    -0.206 F 
ATOM     66  C   UNL A   1      46.628  26.083  35.227  1.00  0.00     0.022 A 
BRANCH  63  67
ATOM     67  S   UNL A   1      44.991  24.205  36.482  1.00  0.00     0.124 S 
ATOM     68  O   UNL A   1      44.597  23.137  35.569  1.00  0.00    -0.237 OA
ATOM     69  O   UNL A   1      46.275  24.032  37.151  1.00  0.00    -0.237 OA
ATOM     70  O   UNL A   1      43.917  24.725  37.327  1.00  0.00    -0.744 OA
ENDBRANCH  63  67
ENDBRANCH  37  60
ENDBRANCH  11  12
ENDBRANCH   4   6
ENDBRANCH   1   2
BRANCH   1  71
ATOM     71  C   UNL A   1      31.401  30.380  25.473  1.00  0.00     0.042 C 
BRANCH  71  72
ATOM     72  C   UNL A   1      32.090  29.319  24.625  1.00  0.00     0.117 C 
BRANCH  72  73
ATOM     73  N   UNL A   1      31.116  28.439  23.995  1.00  0.00    -0.356 N 
ATOM     74  C   UNL A   1      30.771  27.150  24.236  1.00  0.00     0.225 C 
ATOM     75  H   UNL A   1      30.617  28.857  23.257  1.00  0.00     0.163 HD
ATOM     76  O   UNL A   1      29.950  26.637  23.469  1.00  0.00    -0.275 OA
BRANCH  74  77
ATOM     77  C   UNL A   1      31.244  26.378  25.448  1.00  0.00     0.107 C 
ATOM     78  C   UNL A   1      30.272  25.435  26.147  1.00  0.00     0.115 C 
ATOM     79  C   UNL A   1      32.445  25.533  25.073  1.00  0.00     0.133 C 
ATOM     80  C   UNL A   1      31.132  24.259  26.544  1.00  0.00     0.223 C 
ATOM     81  N   UNL A   1      32.355  24.370  25.911  1.00  0.00    -0.338 N 
ATOM     82  O   UNL A   1      30.792  23.366  27.303  1.00  0.00    -0.275 OA
BRANCH  81  83
ATOM     83  C   UNL A   1      33.452  23.428  26.071  1.00  0.00     0.155 C 
BRANCH  83  84
ATOM     84  C   UNL A   1      33.169  22.057  25.493  1.00  0.00    -0.026 A 
ATOM     85  C   UNL A   1      32.854  21.904  24.134  1.00  0.00     0.006 A 
ATOM     86  C   UNL A   1      33.233  20.922  26.320  1.00  0.00     0.032 A 
ATOM     87  C   UNL A   1      32.550  20.653  23.588  1.00  0.00     0.010 A 
ATOM     88  C   UNL A   1      32.966  19.671  25.747  1.00  0.00     0.046 A 
ATOM     89  C   UNL A   1      32.612  19.514  24.408  1.00  0.00    -0.001 A 
ATOM     90  N   UNL A   1      32.980  18.413  26.309  1.00  0.00    -0.361 N 
ATOM     91  C   UNL A   1      32.382  18.127  24.192  1.00  0.00     0.028 A 
ATOM     92  C   UNL A   1      32.630  17.472  25.376  1.00  0.00     0.083 A 
ATOM     93  H   UNL A   1      33.208  18.218  27.247  1.00  0.00     0.166 HD
ENDBRANCH  83  84
ENDBRANCH  81  83
ENDBRANCH  74  77
ENDBRANCH  72  73
ENDBRANCH  71  72
ENDBRANCH   1  71
TORSDOF 15
ENDMDL
MODEL 3
REMARK VINA RESULT:     -12.7      3.273      8.725
REMARK SMILES O=C(NCCCNC(=O)[C@H]1CC(=O)N(Cc2ccc3cc[nH]c3c2)C1)c1ccc(-c2c3nc(c(-c4cc(S(=O)(=O)[O-])ccc4F)c4ccc([nH]4)c(-c4cc(S(=O)(=O)[O-])ccc4F)c4nc(c(-c5cc(S(=O)(=O)[O-])ccc5F)c5ccc2[nH]5)C=C4)C=C3)cc1
REMARK SMILES IDX 4 1 3 2 1 3 2 4 26 6 27 7 88 8 28 9 87 10 29 11 30 12 31 13
REMARK SMILES IDX 81 14 32 15 86 16 80 17 82 18 33 19 85 20 79 21 78 22 34 24
REMARK SMILES IDX 66 25 46 26 65 27 47 28 50 29 64 30 83 31 48 32 49 33 63 35
REMARK SMILES IDX 84 36 51 37 35 38 36 39 44 40 37 41 43 42 45 43 42 44 38 45
REMARK SMILES IDX 39 46 40 47 41 48 67 49 68 50 76 51 69 52 75 53 77 54 74 55
REMARK SMILES IDX 70 56 71 57 72 58 73 59 52 60 53 61 61 62 54 63 60 64 62 65
REMARK SMILES IDX 59 66 55 67 56 68 57 69 58 70 5 71 6 72 7 73 8 74 9 76 10 77
REMARK SMILES IDX 11 78 25 79 12 80 14 81 13 82 15 83 16 84 17 85 24 86 18 87
REMARK SMILES IDX 23 88 19 89 22 90 20 91 21 92
REMARK H PARENT 3 5 82 23 50 34 7 75 22 93
REMARK Flexibility Score: inf
ROOT
ATOM      1  C   UNL A   1      32.926  32.815  27.330  1.00  0.00     0.118 C 
ENDROOT
BRANCH   1   2
ATOM      2  N   UNL A   1      32.697  34.202  27.718  1.00  0.00    -0.352 N 
ATOM      3  O   UNL A   1      32.787  36.037  29.021  1.00  0.00    -0.269 OA
ATOM      4  C   UNL A   1      33.235  34.923  28.759  1.00  0.00     0.251 C 
ATOM      5  H   UNL A   1      32.062  34.695  27.151  1.00  0.00     0.163 HD
BRANCH   4   6
ATOM      6  C   UNL A   1      34.332  34.352  29.570  1.00  0.00     0.039 A 
ATOM      7  C   UNL A   1      35.664  34.549  29.202  1.00  0.00     0.014 A 
ATOM      8  C   UNL A   1      34.027  33.602  30.709  1.00  0.00     0.014 A 
ATOM      9  C   UNL A   1      36.671  33.850  29.855  1.00  0.00     0.010 A 
ATOM     10  C   UNL A   1      35.056  32.987  31.432  1.00  0.00     0.010 A 
ATOM     11  C   UNL A   1      36.383  33.066  30.984  1.00  0.00    -0.014 A 
BRANCH  11  12
ATOM     12  C   UNL A   1      37.497  32.363  31.679  1.00  0.00     0.031 A 
ATOM     13  C   UNL A   1      38.265  31.261  30.998  1.00  0.00     0.074 A 
ATOM     14  C   UNL A   1      37.849  32.767  32.916  1.00  0.00     0.049 A 
ATOM     15  N   UNL A   1      39.291  30.575  31.439  1.00  0.00    -0.248 NA
ATOM     16  C   UNL A   1      37.817  30.867  29.654  1.00  0.00     0.031 C 
ATOM     17  C   UNL A   1      37.177  33.824  33.678  1.00  0.00     0.029 A 
ATOM     18  N   UNL A   1      38.867  32.364  33.742  1.00  0.00    -0.354 N 
ATOM     19  C   UNL A   1      39.599  29.658  30.439  1.00  0.00     0.074 A 
ATOM     20  C   UNL A   1      38.623  29.850  29.386  1.00  0.00     0.031 C 
ATOM     21  C   UNL A   1      37.838  34.029  34.825  1.00  0.00     0.029 A 
ATOM     22  C   UNL A   1      38.931  33.069  34.922  1.00  0.00     0.049 A 
ATOM     23  H   UNL A   1      39.492  31.640  33.512  1.00  0.00     0.167 HD
ATOM     24  C   UNL A   1      40.605  28.747  30.402  1.00  0.00     0.034 A 
ATOM     25  C   UNL A   1      39.763  32.948  35.974  1.00  0.00     0.034 A 
ATOM     26  C   UNL A   1      41.573  28.576  31.461  1.00  0.00     0.049 A 
ATOM     27  C   UNL A   1      40.846  31.905  35.922  1.00  0.00     0.074 A 
ATOM     28  C   UNL A   1      42.652  27.709  31.510  1.00  0.00     0.029 A 
ATOM     29  N   UNL A   1      41.575  29.273  32.664  1.00  0.00    -0.354 N 
ATOM     30  N   UNL A   1      41.136  31.061  34.959  1.00  0.00    -0.248 NA
ATOM     31  C   UNL A   1      41.719  31.803  37.097  1.00  0.00     0.031 C 
ATOM     32  C   UNL A   1      43.255  27.825  32.767  1.00  0.00     0.029 A 
ATOM     33  C   UNL A   1      42.614  28.832  33.471  1.00  0.00     0.049 A 
ATOM     34  H   UNL A   1      40.933  29.979  32.906  1.00  0.00     0.167 HD
ATOM     35  C   UNL A   1      42.250  30.352  35.400  1.00  0.00     0.074 A 
ATOM     36  C   UNL A   1      42.586  30.883  36.706  1.00  0.00     0.031 C 
ATOM     37  C   UNL A   1      42.936  29.358  34.778  1.00  0.00     0.034 A 
BRANCH  24  38
ATOM     38  C   UNL A   1      40.679  27.833  29.199  1.00  0.00     0.023 A 
ATOM     39  C   UNL A   1      41.601  28.040  28.158  1.00  0.00     0.031 A 
ATOM     40  C   UNL A   1      39.793  26.745  29.081  1.00  0.00     0.131 A 
ATOM     41  C   UNL A   1      41.568  27.222  27.017  1.00  0.00     0.055 A 
ATOM     42  C   UNL A   1      39.823  25.883  27.983  1.00  0.00     0.041 A 
ATOM     43  F   UNL A   1      38.874  26.506  30.030  1.00  0.00    -0.206 F 
ATOM     44  C   UNL A   1      40.703  26.128  26.933  1.00  0.00     0.022 A 
BRANCH  41  45
ATOM     45  S   UNL A   1      42.562  27.701  25.576  1.00  0.00     0.124 S 
ATOM     46  O   UNL A   1      43.866  27.947  26.187  1.00  0.00    -0.237 OA
ATOM     47  O   UNL A   1      42.469  26.522  24.723  1.00  0.00    -0.237 OA
ATOM     48  O   UNL A   1      41.885  28.893  25.072  1.00  0.00    -0.744 OA
ENDBRANCH  41  45
ENDBRANCH  24  38
BRANCH  25  49
ATOM     49  C   UNL A   1      39.596  33.821  37.171  1.00  0.00     0.023 A 
ATOM     50  C   UNL A   1      38.964  33.348  38.332  1.00  0.00     0.031 A 
ATOM     51  C   UNL A   1      40.029  35.159  37.157  1.00  0.00     0.131 A 
ATOM     52  C   UNL A   1      38.739  34.218  39.409  1.00  0.00     0.055 A 
ATOM     53  C   UNL A   1      39.860  36.003  38.255  1.00  0.00     0.041 A 
ATOM     54  F   UNL A   1      40.642  35.664  36.074  1.00  0.00    -0.206 F 
ATOM     55  C   UNL A   1      39.197  35.538  39.385  1.00  0.00     0.022 A 
BRANCH  52  56
ATOM     56  S   UNL A   1      37.749  33.628  40.809  1.00  0.00     0.124 S 
ATOM     57  O   UNL A   1      38.762  32.990  41.640  1.00  0.00    -0.237 OA
ATOM     58  O   UNL A   1      37.184  34.871  41.325  1.00  0.00    -0.237 OA
ATOM     59  O   UNL A   1      36.788  32.720  40.186  1.00  0.00    -0.744 OA
ENDBRANCH  52  56
ENDBRANCH  25  49
BRANCH  37  60
ATOM     60  C   UNL A   1      44.158  28.825  35.489  1.00  0.00     0.023 A 
ATOM     61  C   UNL A   1      44.088  27.752  36.395  1.00  0.00     0.031 A 
ATOM     62  C   UNL A   1      45.412  29.429  35.281  1.00  0.00     0.131 A 
ATOM     63  C   UNL A   1      45.229  27.367  37.114  1.00  0.00     0.055 A 
ATOM     64  C   UNL A   1      46.559  28.993  35.944  1.00  0.00     0.041 A 
ATOM     65  F   UNL A   1      45.542  30.462  34.432  1.00  0.00    -0.206 F 
ATOM     66  C   UNL A   1      46.469  27.968  36.880  1.00  0.00     0.022 A 
BRANCH  63  67
ATOM     67  S   UNL A   1      45.047  26.155  38.452  1.00  0.00     0.124 S 
ATOM     68  O   UNL A   1      44.537  24.989  37.737  1.00  0.00    -0.237 OA
ATOM     69  O   UNL A   1      46.411  26.045  38.960  1.00  0.00    -0.237 OA
ATOM     70  O   UNL A   1      44.096  26.788  39.363  1.00  0.00    -0.744 OA
ENDBRANCH  63  67
ENDBRANCH  37  60
ENDBRANCH  11  12
ENDBRANCH   4   6
ENDBRANCH   1   2
BRANCH   1  71
ATOM     71  C   UNL A   1      31.660  32.117  26.849  1.00  0.00     0.042 C 
BRANCH  71  72
ATOM     72  C   UNL A   1      31.864  30.642  26.524  1.00  0.00     0.117 C 
BRANCH  72  73
ATOM     73  N   UNL A   1      33.241  30.239  26.772  1.00  0.00    -0.356 N 
ATOM     74  C   UNL A   1      33.842  29.024  26.772  1.00  0.00     0.225 C 
ATOM     75  H   UNL A   1      33.847  30.986  26.978  1.00  0.00     0.163 HD
ATOM     76  O   UNL A   1      35.032  28.987  27.104  1.00  0.00    -0.275 OA
BRANCH  74  77
ATOM     77  C   UNL A   1      33.167  27.764  26.276  1.00  0.00     0.107 C 
ATOM     78  C   UNL A   1      32.053  27.147  27.113  1.00  0.00     0.115 C 
ATOM     79  C   UNL A   1      32.567  28.016  24.908  1.00  0.00     0.133 C 
ATOM     80  C   UNL A   1      31.059  26.657  26.086  1.00  0.00     0.223 C 
ATOM     81  N   UNL A   1      31.404  27.176  24.853  1.00  0.00    -0.338 N 
ATOM     82  O   UNL A   1      30.113  25.923  26.320  1.00  0.00    -0.275 OA
BRANCH  81  83
ATOM     83  C   UNL A   1      30.686  26.903  23.617  1.00  0.00     0.155 C 
BRANCH  83  84
ATOM     84  C   UNL A   1      29.746  28.014  23.199  1.00  0.00    -0.026 A 
ATOM     85  C   UNL A   1      28.367  27.912  23.436  1.00  0.00     0.006 A 
ATOM     86  C   UNL A   1      30.258  29.166  22.576  1.00  0.00     0.032 A 
ATOM     87  C   UNL A   1      27.475  28.908  23.022  1.00  0.00     0.010 A 
ATOM     88  C   UNL A   1      29.354  30.173  22.205  1.00  0.00     0.046 A 
ATOM     89  C   UNL A   1      27.979  30.062  22.400  1.00  0.00    -0.001 A 
ATOM     90  N   UNL A   1      29.580  31.395  21.611  1.00  0.00    -0.361 N 
ATOM     91  C   UNL A   1      27.382  31.242  21.875  1.00  0.00     0.028 A 
ATOM     92  C   UNL A   1      28.393  32.050  21.409  1.00  0.00     0.083 A 
ATOM     93  H   UNL A   1      30.466  31.748  21.367  1.00  0.00     0.166 HD
ENDBRANCH  83  84
ENDBRANCH  81  83
ENDBRANCH  74  77
ENDBRANCH  72  73
ENDBRANCH  71  72
ENDBRANCH   1  71
TORSDOF 15
ENDMDL
