MODEL 1
REMARK VINA RESULT:     -11.9      0.000      0.000
REMARK SMILES C[C@@H]1CCCCN1S(=O)(=O)c1ccc(CCC(=O)NCCCNC(=O)c2ccc(-c3c4nc(c(-c5cc(S(=O)(=O)[O-])ccc5F)c5ccc([nH]5)c(-c5cc(S(=O)(=O)[O-])ccc5F)c5nc(c(-c6cc(S(=O)(=O)[O-])ccc6F)c6ccc3[nH]6)C=C5)C=C4)cc2)cc1
REMARK SMILES IDX 20 1 19 2 17 3 18 4 16 6 15 7 14 8 11 9 12 10 90 11 13 12
REMARK SMILES IDX 89 13 8 14 9 15 10 16 7 17 1 18 2 19 3 20 4 21 6 22 5 23
REMARK SMILES IDX 21 24 22 25 23 26 24 27 25 29 26 30 27 31 88 32 28 33 87 34
REMARK SMILES IDX 29 35 30 36 31 37 81 38 32 39 86 40 80 41 82 42 33 43 85 44
REMARK SMILES IDX 79 45 78 46 34 48 66 49 46 50 65 51 47 52 50 53 64 54 83 55
REMARK SMILES IDX 48 56 49 57 63 59 84 60 51 61 35 62 36 63 44 64 37 65 43 66
REMARK SMILES IDX 45 67 42 68 38 69 39 70 40 71 41 72 67 73 68 74 76 75 69 76
REMARK SMILES IDX 75 77 77 78 74 79 70 80 71 81 72 82 73 83 52 84 53 85 61 86
REMARK SMILES IDX 54 87 60 88 62 89 59 90 55 91 56 92 57 93 58 94
REMARK H PARENT 19 5 23 28 82 47 50 58
REMARK Flexibility Score: inf
ROOT
ATOM      1  C   UNL A   1      35.625  20.655  25.487  1.00  0.00     0.117 C 
ENDROOT
BRANCH   1   2
ATOM      2  N   UNL A   1      35.574  19.360  24.817  1.00  0.00    -0.356 N 
ATOM      3  C   UNL A   1      34.536  18.502  24.608  1.00  0.00     0.220 C 
ATOM      4  O   UNL A   1      34.789  17.391  24.135  1.00  0.00    -0.275 OA
ATOM      5  H   UNL A   1      36.436  19.054  24.453  1.00  0.00     0.163 HD
BRANCH   3   6
ATOM      6  C   UNL A   1      33.099  18.902  24.889  1.00  0.00     0.105 C 
BRANCH   6   7
ATOM      7  C   UNL A   1      32.366  19.445  23.652  1.00  0.00     0.045 C 
BRANCH   7   8
ATOM      8  C   UNL A   1      32.239  20.950  23.677  1.00  0.00    -0.047 A 
ATOM      9  C   UNL A   1      32.600  23.721  23.681  1.00  0.00     0.082 A 
ATOM     10  C   UNL A   1      32.412  23.046  24.893  1.00  0.00     0.022 A 
ATOM     11  C   UNL A   1      32.462  23.038  22.469  1.00  0.00     0.022 A 
ATOM     12  C   UNL A   1      32.231  21.657  24.888  1.00  0.00     0.005 A 
ATOM     13  C   UNL A   1      32.253  21.662  22.470  1.00  0.00     0.005 A 
BRANCH   9  14
ATOM     14  S   UNL A   1      33.514  25.256  23.673  1.00  0.00     0.243 S 
ATOM     15  O   UNL A   1      34.002  25.449  22.322  1.00  0.00    -0.207 OA
ATOM     16  O   UNL A   1      34.457  25.168  24.768  1.00  0.00    -0.207 OA
BRANCH  14  17
ATOM     17  N   UNL A   1      32.434  26.510  24.026  1.00  0.00    -0.195 NA
ATOM     18  C   UNL A   1      31.885  26.093  26.458  1.00  0.00     0.026 C 
ATOM     19  C   UNL A   1      32.372  27.082  25.401  1.00  0.00     0.070 C 
ATOM     20  C   UNL A   1      31.488  28.349  25.414  1.00  0.00     0.020 C 
ATOM     21  C   UNL A   1      30.951  28.721  24.039  1.00  0.00     0.003 C 
ATOM     22  C   UNL A   1      31.085  26.262  23.431  1.00  0.00     0.103 C 
ATOM     23  C   UNL A   1      30.232  27.526  23.429  1.00  0.00     0.017 C 
ENDBRANCH  14  17
ENDBRANCH   9  14
ENDBRANCH   7   8
ENDBRANCH   6   7
ENDBRANCH   3   6
ENDBRANCH   1   2
BRANCH   1  24
ATOM     24  C   UNL A   1      36.236  21.725  24.588  1.00  0.00     0.042 C 
BRANCH  24  25
ATOM     25  C   UNL A   1      37.410  22.504  25.173  1.00  0.00     0.118 C 
BRANCH  25  26
ATOM     26  N   UNL A   1      38.442  21.637  25.717  1.00  0.00    -0.352 N 
ATOM     27  C   UNL A   1      39.615  21.897  26.390  1.00  0.00     0.251 C 
ATOM     28  H   UNL A   1      38.269  20.679  25.576  1.00  0.00     0.163 HD
ATOM     29  O   UNL A   1      40.379  20.944  26.567  1.00  0.00    -0.269 OA
BRANCH  27  30
ATOM     30  C   UNL A   1      40.010  23.242  26.903  1.00  0.00     0.039 A 
ATOM     31  C   UNL A   1      39.655  24.365  26.138  1.00  0.00     0.014 A 
ATOM     32  C   UNL A   1      40.785  23.443  28.049  1.00  0.00     0.014 A 
ATOM     33  C   UNL A   1      40.018  25.660  26.539  1.00  0.00     0.010 A 
ATOM     34  C   UNL A   1      41.093  24.741  28.486  1.00  0.00     0.010 A 
ATOM     35  C   UNL A   1      40.725  25.866  27.733  1.00  0.00    -0.014 A 
BRANCH  35  36
ATOM     36  C   UNL A   1      41.123  27.242  28.162  1.00  0.00     0.031 A 
ATOM     37  C   UNL A   1      42.561  27.678  28.085  1.00  0.00     0.074 A 
ATOM     38  C   UNL A   1      40.207  28.103  28.652  1.00  0.00     0.049 A 
ATOM     39  N   UNL A   1      43.099  28.820  28.433  1.00  0.00    -0.248 NA
ATOM     40  C   UNL A   1      43.525  26.687  27.587  1.00  0.00     0.031 C 
ATOM     41  C   UNL A   1      38.797  27.788  28.857  1.00  0.00     0.029 A 
ATOM     42  N   UNL A   1      40.317  29.411  29.070  1.00  0.00    -0.354 N 
ATOM     43  C   UNL A   1      44.468  28.673  28.236  1.00  0.00     0.074 A 
ATOM     44  C   UNL A   1      44.675  27.320  27.761  1.00  0.00     0.031 C 
ATOM     45  C   UNL A   1      38.167  28.883  29.308  1.00  0.00     0.029 A 
ATOM     46  C   UNL A   1      39.124  29.969  29.473  1.00  0.00     0.049 A 
ATOM     47  H   UNL A   1      41.170  29.902  29.080  1.00  0.00     0.167 HD
ATOM     48  C   UNL A   1      45.457  29.579  28.431  1.00  0.00     0.034 A 
ATOM     49  C   UNL A   1      38.822  31.203  29.931  1.00  0.00     0.034 A 
ATOM     50  C   UNL A   1      45.242  30.935  28.880  1.00  0.00     0.049 A 
ATOM     51  C   UNL A   1      39.935  32.209  30.092  1.00  0.00     0.074 A 
ATOM     52  C   UNL A   1      46.176  31.945  29.038  1.00  0.00     0.029 A 
ATOM     53  N   UNL A   1      44.016  31.470  29.251  1.00  0.00    -0.354 N 
ATOM     54  N   UNL A   1      41.215  32.068  29.839  1.00  0.00    -0.248 NA
ATOM     55  C   UNL A   1      39.567  33.535  30.606  1.00  0.00     0.031 C 
ATOM     56  C   UNL A   1      45.528  33.068  29.566  1.00  0.00     0.029 A 
ATOM     57  C   UNL A   1      44.176  32.785  29.669  1.00  0.00     0.049 A 
ATOM     58  H   UNL A   1      43.158  30.989  29.221  1.00  0.00     0.167 HD
ATOM     59  C   UNL A   1      41.801  33.291  30.154  1.00  0.00     0.074 A 
ATOM     60  C   UNL A   1      40.730  34.168  30.580  1.00  0.00     0.031 C 
ATOM     61  C   UNL A   1      43.107  33.651  30.106  1.00  0.00     0.034 A 
BRANCH  48  62
ATOM     62  C   UNL A   1      46.875  29.114  28.207  1.00  0.00     0.023 A 
ATOM     63  C   UNL A   1      47.379  28.854  26.922  1.00  0.00     0.031 A 
ATOM     64  C   UNL A   1      47.731  28.910  29.305  1.00  0.00     0.131 A 
ATOM     65  C   UNL A   1      48.675  28.337  26.771  1.00  0.00     0.055 A 
ATOM     66  C   UNL A   1      49.045  28.471  29.143  1.00  0.00     0.041 A 
ATOM     67  F   UNL A   1      47.298  29.125  30.558  1.00  0.00    -0.206 F 
ATOM     68  C   UNL A   1      49.520  28.167  27.871  1.00  0.00     0.022 A 
BRANCH  65  69
ATOM     69  S   UNL A   1      49.194  27.766  25.130  1.00  0.00     0.124 S 
ATOM     70  O   UNL A   1      50.428  28.522  24.932  1.00  0.00    -0.237 OA
ATOM     71  O   UNL A   1      49.348  26.330  25.330  1.00  0.00    -0.237 OA
ATOM     72  O   UNL A   1      48.085  28.160  24.264  1.00  0.00    -0.744 OA
ENDBRANCH  65  69
ENDBRANCH  48  62
BRANCH  49  73
ATOM     73  C   UNL A   1      37.418  31.571  30.299  1.00  0.00     0.023 A 
ATOM     74  C   UNL A   1      36.515  32.042  29.330  1.00  0.00     0.031 A 
ATOM     75  C   UNL A   1      36.976  31.524  31.633  1.00  0.00     0.131 A 
ATOM     76  C   UNL A   1      35.243  32.497  29.714  1.00  0.00     0.055 A 
ATOM     77  C   UNL A   1      35.686  31.916  32.001  1.00  0.00     0.041 A 
ATOM     78  F   UNL A   1      37.793  31.086  32.605  1.00  0.00    -0.206 F 
ATOM     79  C   UNL A   1      34.817  32.422  31.041  1.00  0.00     0.022 A 
BRANCH  76  80
ATOM     80  S   UNL A   1      34.189  33.296  28.471  1.00  0.00     0.124 S 
ATOM     81  O   UNL A   1      33.552  32.149  27.836  1.00  0.00    -0.237 OA
ATOM     82  O   UNL A   1      33.328  34.134  29.299  1.00  0.00    -0.237 OA
ATOM     83  O   UNL A   1      35.142  34.023  27.634  1.00  0.00    -0.744 OA
ENDBRANCH  76  80
ENDBRANCH  49  73
BRANCH  61  84
ATOM     84  C   UNL A   1      43.442  35.069  30.500  1.00  0.00     0.023 A 
ATOM     85  C   UNL A   1      43.420  36.121  29.567  1.00  0.00     0.031 A 
ATOM     86  C   UNL A   1      43.803  35.369  31.826  1.00  0.00     0.131 A 
ATOM     87  C   UNL A   1      43.808  37.412  29.958  1.00  0.00     0.055 A 
ATOM     88  C   UNL A   1      44.131  36.666  32.223  1.00  0.00     0.041 A 
ATOM     89  F   UNL A   1      43.844  34.404  32.758  1.00  0.00    -0.206 F 
ATOM     90  C   UNL A   1      44.147  37.694  31.283  1.00  0.00     0.022 A 
BRANCH  87  91
ATOM     91  S   UNL A   1      43.946  38.703  28.691  1.00  0.00     0.124 S 
ATOM     92  O   UNL A   1      44.358  37.937  27.520  1.00  0.00    -0.237 OA
ATOM     93  O   UNL A   1      42.593  39.250  28.652  1.00  0.00    -0.237 OA
ATOM     94  O   UNL A   1      44.961  39.606  29.231  1.00  0.00    -0.744 OA
ENDBRANCH  87  91
ENDBRANCH  61  84
ENDBRANCH  35  36
ENDBRANCH  27  30
ENDBRANCH  25  26
ENDBRANCH  24  25
ENDBRANCH   1  24
TORSDOF 17
ENDMDL
MODEL 2
REMARK VINA RESULT:     -11.8      4.692      9.935
REMARK SMILES C[C@@H]1CCCCN1S(=O)(=O)c1ccc(CCC(=O)NCCCNC(=O)c2ccc(-c3c4nc(c(-c5cc(S(=O)(=O)[O-])ccc5F)c5ccc([nH]5)c(-c5cc(S(=O)(=O)[O-])ccc5F)c5nc(c(-c6cc(S(=O)(=O)[O-])ccc6F)c6ccc3[nH]6)C=C5)C=C4)cc2)cc1
REMARK SMILES IDX 20 1 19 2 17 3 18 4 16 6 15 7 14 8 11 9 12 10 90 11 13 12
REMARK SMILES IDX 89 13 8 14 9 15 10 16 7 17 1 18 2 19 3 20 4 21 6 22 5 23
REMARK SMILES IDX 21 24 22 25 23 26 24 27 25 29 26 30 27 31 88 32 28 33 87 34
REMARK SMILES IDX 29 35 30 36 31 37 81 38 32 39 86 40 80 41 82 42 33 43 85 44
REMARK SMILES IDX 79 45 78 46 34 48 66 49 46 50 65 51 47 52 50 53 64 54 83 55
REMARK SMILES IDX 48 56 49 57 63 59 84 60 51 61 35 62 36 63 44 64 37 65 43 66
REMARK SMILES IDX 45 67 42 68 38 69 39 70 40 71 41 72 67 73 68 74 76 75 69 76
REMARK SMILES IDX 75 77 77 78 74 79 70 80 71 81 72 82 73 83 52 84 53 85 61 86
REMARK SMILES IDX 54 87 60 88 62 89 59 90 55 91 56 92 57 93 58 94
REMARK H PARENT 19 5 23 28 82 47 50 58
REMARK Flexibility Score: inf
ROOT
ATOM      1  C   UNL A   1      31.921  29.671  24.898  1.00  0.00     0.117 C 
ENDROOT
BRANCH   1   2
ATOM      2  N   UNL A   1      30.650  30.200  24.416  1.00  0.00    -0.356 N 
ATOM      3  C   UNL A   1      29.846  29.798  23.392  1.00  0.00     0.220 C 
ATOM      4  O   UNL A   1      28.884  30.513  23.096  1.00  0.00    -0.275 OA
ATOM      5  H   UNL A   1      30.316  30.980  24.916  1.00  0.00     0.163 HD
BRANCH   3   6
ATOM      6  C   UNL A   1      30.075  28.488  22.661  1.00  0.00     0.105 C 
BRANCH   6   7
ATOM      7  C   UNL A   1      29.390  27.289  23.336  1.00  0.00     0.045 C 
BRANCH   7   8
ATOM      8  C   UNL A   1      30.336  26.513  24.223  1.00  0.00    -0.047 A 
ATOM      9  C   UNL A   1      31.933  24.620  25.514  1.00  0.00     0.082 A 
ATOM     10  C   UNL A   1      30.688  24.960  26.056  1.00  0.00     0.022 A 
ATOM     11  C   UNL A   1      32.438  25.326  24.418  1.00  0.00     0.022 A 
ATOM     12  C   UNL A   1      29.890  25.910  25.407  1.00  0.00     0.005 A 
ATOM     13  C   UNL A   1      31.652  26.289  23.794  1.00  0.00     0.005 A 
BRANCH   9  14
ATOM     14  S   UNL A   1      32.614  23.001  25.848  1.00  0.00     0.243 S 
ATOM     15  O   UNL A   1      31.878  22.058  25.030  1.00  0.00    -0.207 OA
ATOM     16  O   UNL A   1      32.611  22.853  27.287  1.00  0.00    -0.207 OA
BRANCH  14  17
ATOM     17  N   UNL A   1      34.227  22.996  25.335  1.00  0.00    -0.195 NA
ATOM     18  C   UNL A   1      34.685  20.534  24.992  1.00  0.00     0.026 C 
ATOM     19  C   UNL A   1      34.714  21.941  24.401  1.00  0.00     0.070 C 
ATOM     20  C   UNL A   1      36.139  22.280  23.908  1.00  0.00     0.020 C 
ATOM     21  C   UNL A   1      36.662  23.603  24.448  1.00  0.00     0.003 C 
ATOM     22  C   UNL A   1      35.168  23.257  26.468  1.00  0.00     0.103 C 
ATOM     23  C   UNL A   1      36.563  23.613  25.967  1.00  0.00     0.017 C 
ENDBRANCH  14  17
ENDBRANCH   9  14
ENDBRANCH   7   8
ENDBRANCH   6   7
ENDBRANCH   3   6
ENDBRANCH   1   2
BRANCH   1  24
ATOM     24  C   UNL A   1      31.907  29.472  26.410  1.00  0.00     0.042 C 
BRANCH  24  25
ATOM     25  C   UNL A   1      33.213  29.772  27.140  1.00  0.00     0.118 C 
BRANCH  25  26
ATOM     26  N   UNL A   1      33.354  31.178  27.480  1.00  0.00    -0.352 N 
ATOM     27  C   UNL A   1      34.324  31.877  28.163  1.00  0.00     0.251 C 
ATOM     28  H   UNL A   1      32.611  31.739  27.159  1.00  0.00     0.163 HD
ATOM     29  O   UNL A   1      34.070  33.051  28.448  1.00  0.00    -0.269 OA
BRANCH  27  30
ATOM     30  C   UNL A   1      35.639  31.304  28.576  1.00  0.00     0.039 A 
ATOM     31  C   UNL A   1      35.631  30.100  29.300  1.00  0.00     0.014 A 
ATOM     32  C   UNL A   1      36.867  31.937  28.362  1.00  0.00     0.014 A 
ATOM     33  C   UNL A   1      36.825  29.517  29.749  1.00  0.00     0.010 A 
ATOM     34  C   UNL A   1      38.067  31.322  28.755  1.00  0.00     0.010 A 
ATOM     35  C   UNL A   1      38.063  30.111  29.463  1.00  0.00    -0.014 A 
BRANCH  35  36
ATOM     36  C   UNL A   1      39.339  29.500  29.946  1.00  0.00     0.031 A 
ATOM     37  C   UNL A   1      40.021  30.033  31.177  1.00  0.00     0.074 A 
ATOM     38  C   UNL A   1      39.914  28.483  29.272  1.00  0.00     0.049 A 
ATOM     39  N   UNL A   1      41.142  29.648  31.733  1.00  0.00    -0.248 NA
ATOM     40  C   UNL A   1      39.377  31.170  31.848  1.00  0.00     0.031 C 
ATOM     41  C   UNL A   1      39.407  27.921  28.025  1.00  0.00     0.029 A 
ATOM     42  N   UNL A   1      41.046  27.741  29.532  1.00  0.00    -0.354 N 
ATOM     43  C   UNL A   1      41.361  30.521  32.794  1.00  0.00     0.074 A 
ATOM     44  C   UNL A   1      40.265  31.468  32.783  1.00  0.00     0.031 C 
ATOM     45  C   UNL A   1      40.190  26.895  27.658  1.00  0.00     0.029 A 
ATOM     46  C   UNL A   1      41.283  26.745  28.610  1.00  0.00     0.049 A 
ATOM     47  H   UNL A   1      41.632  27.907  30.305  1.00  0.00     0.167 HD
ATOM     48  C   UNL A   1      42.378  30.532  33.691  1.00  0.00     0.034 A 
ATOM     49  C   UNL A   1      42.264  25.821  28.523  1.00  0.00     0.034 A 
ATOM     50  C   UNL A   1      43.454  29.568  33.713  1.00  0.00     0.049 A 
ATOM     51  C   UNL A   1      43.356  25.823  29.563  1.00  0.00     0.074 A 
ATOM     52  C   UNL A   1      44.488  29.457  34.627  1.00  0.00     0.029 A 
ATOM     53  N   UNL A   1      43.643  28.559  32.779  1.00  0.00    -0.354 N 
ATOM     54  N   UNL A   1      43.509  26.619  30.596  1.00  0.00    -0.248 NA
ATOM     55  C   UNL A   1      44.412  24.810  29.425  1.00  0.00     0.031 C 
ATOM     56  C   UNL A   1      45.338  28.426  34.210  1.00  0.00     0.029 A 
ATOM     57  C   UNL A   1      44.795  27.843  33.076  1.00  0.00     0.049 A 
ATOM     58  H   UNL A   1      43.047  28.376  32.017  1.00  0.00     0.167 HD
ATOM     59  C   UNL A   1      44.672  26.195  31.232  1.00  0.00     0.074 A 
ATOM     60  C   UNL A   1      45.159  25.050  30.492  1.00  0.00     0.031 C 
ATOM     61  C   UNL A   1      45.285  26.712  32.326  1.00  0.00     0.034 A 
BRANCH  48  62
ATOM     62  C   UNL A   1      42.400  31.655  34.698  1.00  0.00     0.023 A 
ATOM     63  C   UNL A   1      41.586  31.645  35.843  1.00  0.00     0.031 A 
ATOM     64  C   UNL A   1      43.240  32.765  34.495  1.00  0.00     0.131 A 
ATOM     65  C   UNL A   1      41.576  32.754  36.702  1.00  0.00     0.055 A 
ATOM     66  C   UNL A   1      43.283  33.830  35.395  1.00  0.00     0.041 A 
ATOM     67  F   UNL A   1      44.027  32.838  33.409  1.00  0.00    -0.206 F 
ATOM     68  C   UNL A   1      42.437  33.836  36.500  1.00  0.00     0.022 A 
BRANCH  65  69
ATOM     69  S   UNL A   1      40.327  32.822  38.015  1.00  0.00     0.124 S 
ATOM     70  O   UNL A   1      39.297  31.930  37.488  1.00  0.00    -0.237 OA
ATOM     71  O   UNL A   1      41.063  32.335  39.176  1.00  0.00    -0.237 OA
ATOM     72  O   UNL A   1      39.954  34.234  38.061  1.00  0.00    -0.744 OA
ENDBRANCH  65  69
ENDBRANCH  48  62
BRANCH  49  73
ATOM     73  C   UNL A   1      42.291  24.824  27.407  1.00  0.00     0.023 A 
ATOM     74  C   UNL A   1      41.483  23.673  27.443  1.00  0.00     0.031 A 
ATOM     75  C   UNL A   1      43.172  24.966  26.320  1.00  0.00     0.131 A 
ATOM     76  C   UNL A   1      41.612  22.690  26.448  1.00  0.00     0.055 A 
ATOM     77  C   UNL A   1      43.249  24.017  25.298  1.00  0.00     0.041 A 
ATOM     78  F   UNL A   1      43.971  26.041  26.230  1.00  0.00    -0.206 F 
ATOM     79  C   UNL A   1      42.478  22.861  25.368  1.00  0.00     0.022 A 
BRANCH  76  80
ATOM     80  S   UNL A   1      40.712  21.125  26.645  1.00  0.00     0.124 S 
ATOM     81  O   UNL A   1      39.383  21.483  26.166  1.00  0.00    -0.237 OA
ATOM     82  O   UNL A   1      41.483  20.225  25.794  1.00  0.00    -0.237 OA
ATOM     83  O   UNL A   1      40.808  20.857  28.079  1.00  0.00    -0.744 OA
ENDBRANCH  76  80
ENDBRANCH  49  73
BRANCH  61  84
ATOM     84  C   UNL A   1      46.541  26.019  32.799  1.00  0.00     0.023 A 
ATOM     85  C   UNL A   1      46.491  24.854  33.584  1.00  0.00     0.031 A 
ATOM     86  C   UNL A   1      47.803  26.543  32.471  1.00  0.00     0.131 A 
ATOM     87  C   UNL A   1      47.680  24.283  34.064  1.00  0.00     0.055 A 
ATOM     88  C   UNL A   1      48.985  25.937  32.902  1.00  0.00     0.041 A 
ATOM     89  F   UNL A   1      47.911  27.656  31.726  1.00  0.00    -0.206 F 
ATOM     90  C   UNL A   1      48.927  24.807  33.713  1.00  0.00     0.022 A 
BRANCH  87  91
ATOM     91  S   UNL A   1      47.574  22.892  35.223  1.00  0.00     0.124 S 
ATOM     92  O   UNL A   1      47.757  23.555  36.511  1.00  0.00    -0.237 OA
ATOM     93  O   UNL A   1      46.238  22.365  34.961  1.00  0.00    -0.237 OA
ATOM     94  O   UNL A   1      48.673  22.019  34.814  1.00  0.00    -0.744 OA
ENDBRANCH  87  91
ENDBRANCH  61  84
ENDBRANCH  35  36
ENDBRANCH  27  30
ENDBRANCH  25  26
ENDBRANCH  24  25
ENDBRANCH   1  24
TORSDOF 17
ENDMDL
MODEL 3
REMARK VINA RESULT:     -11.8      1.473      1.992
REMARK SMILES C[C@@H]1CCCCN1S(=O)(=O)c1ccc(CCC(=O)NCCCNC(=O)c2ccc(-c3c4nc(c(-c5cc(S(=O)(=O)[O-])ccc5F)c5ccc([nH]5)c(-c5cc(S(=O)(=O)[O-])ccc5F)c5nc(c(-c6cc(S(=O)(=O)[O-])ccc6F)c6ccc3[nH]6)C=C5)C=C4)cc2)cc1
REMARK SMILES IDX 20 1 19 2 17 3 18 4 16 6 15 7 14 8 11 9 12 10 90 11 13 12
REMARK SMILES IDX 89 13 8 14 9 15 10 16 7 17 1 18 2 19 3 20 4 21 6 22 5 23
REMARK SMILES IDX 21 24 22 25 23 26 24 27 25 29 26 30 27 31 88 32 28 33 87 34
REMARK SMILES IDX 29 35 30 36 31 37 81 38 32 39 86 40 80 41 82 42 33 43 85 44
REMARK SMILES IDX 79 45 78 46 34 48 66 49 46 50 65 51 47 52 50 53 64 54 83 55
REMARK SMILES IDX 48 56 49 57 63 59 84 60 51 61 35 62 36 63 44 64 37 65 43 66
REMARK SMILES IDX 45 67 42 68 38 69 39 70 40 71 41 72 67 73 68 74 76 75 69 76
REMARK SMILES IDX 75 77 77 78 74 79 70 80 71 81 72 82 73 83 52 84 53 85 61 86
REMARK SMILES IDX 54 87 60 88 62 89 59 90 55 91 56 92 57 93 58 94
REMARK H PARENT 19 5 23 28 82 47 50 58
REMARK Flexibility Score: inf
ROOT
ATOM      1  C   UNL A   1      35.267  20.729  25.554  1.00  0.00     0.117 C 
ENDROOT
BRANCH   1   2
ATOM      2  N   UNL A   1      34.765  19.498  24.954  1.00  0.00    -0.356 N 
ATOM      3  C   UNL A   1      33.503  19.132  24.591  1.00  0.00     0.220 C 
ATOM      4  O   UNL A   1      33.319  17.965  24.233  1.00  0.00    -0.275 OA
ATOM      5  H   UNL A   1      35.453  18.816  24.781  1.00  0.00     0.163 HD
BRANCH   3   6
ATOM      6  C   UNL A   1      32.357  20.126  24.567  1.00  0.00     0.105 C 
BRANCH   6   7
ATOM      7  C   UNL A   1      32.445  21.127  23.403  1.00  0.00     0.045 C 
BRANCH   7   8
ATOM      8  C   UNL A   1      32.302  22.558  23.866  1.00  0.00    -0.047 A 
ATOM      9  C   UNL A   1      31.638  25.240  24.279  1.00  0.00     0.082 A 
ATOM     10  C   UNL A   1      32.796  24.916  23.561  1.00  0.00     0.022 A 
ATOM     11  C   UNL A   1      30.899  24.235  24.909  1.00  0.00     0.022 A 
ATOM     12  C   UNL A   1      33.127  23.571  23.357  1.00  0.00     0.005 A 
ATOM     13  C   UNL A   1      31.249  22.900  24.725  1.00  0.00     0.005 A 
BRANCH   9  14
ATOM     14  S   UNL A   1      30.822  26.796  23.956  1.00  0.00     0.243 S 
ATOM     15  O   UNL A   1      29.411  26.594  24.216  1.00  0.00    -0.207 OA
ATOM     16  O   UNL A   1      31.253  27.211  22.637  1.00  0.00    -0.207 OA
BRANCH  14  17
ATOM     17  N   UNL A   1      31.404  27.933  25.066  1.00  0.00    -0.195 NA
ATOM     18  C   UNL A   1      33.782  28.292  24.288  1.00  0.00     0.026 C 
ATOM     19  C   UNL A   1      32.440  28.923  24.654  1.00  0.00     0.070 C 
ATOM     20  C   UNL A   1      32.637  29.983  25.760  1.00  0.00     0.020 C 
ATOM     21  C   UNL A   1      31.709  29.789  26.950  1.00  0.00     0.003 C 
ATOM     22  C   UNL A   1      31.680  27.314  26.399  1.00  0.00     0.103 C 
ATOM     23  C   UNL A   1      31.849  28.370  27.485  1.00  0.00     0.017 C 
ENDBRANCH  14  17
ENDBRANCH   9  14
ENDBRANCH   7   8
ENDBRANCH   6   7
ENDBRANCH   3   6
ENDBRANCH   1   2
BRANCH   1  24
ATOM     24  C   UNL A   1      35.987  21.598  24.527  1.00  0.00     0.042 C 
BRANCH  24  25
ATOM     25  C   UNL A   1      37.299  22.229  24.983  1.00  0.00     0.118 C 
BRANCH  25  26
ATOM     26  N   UNL A   1      38.179  21.279  25.643  1.00  0.00    -0.352 N 
ATOM     27  C   UNL A   1      39.334  21.434  26.376  1.00  0.00     0.251 C 
ATOM     28  H   UNL A   1      37.892  20.342  25.548  1.00  0.00     0.163 HD
ATOM     29  O   UNL A   1      39.958  20.408  26.659  1.00  0.00    -0.269 OA
BRANCH  27  30
ATOM     30  C   UNL A   1      39.869  22.752  26.833  1.00  0.00     0.039 A 
ATOM     31  C   UNL A   1      39.423  23.906  26.169  1.00  0.00     0.014 A 
ATOM     32  C   UNL A   1      40.847  22.895  27.821  1.00  0.00     0.014 A 
ATOM     33  C   UNL A   1      39.904  25.176  26.521  1.00  0.00     0.010 A 
ATOM     34  C   UNL A   1      41.281  24.170  28.219  1.00  0.00     0.010 A 
ATOM     35  C   UNL A   1      40.824  25.327  27.568  1.00  0.00    -0.014 A 
BRANCH  35  36
ATOM     36  C   UNL A   1      41.348  26.676  27.943  1.00  0.00     0.031 A 
ATOM     37  C   UNL A   1      42.739  27.091  27.548  1.00  0.00     0.074 A 
ATOM     38  C   UNL A   1      40.594  27.531  28.666  1.00  0.00     0.049 A 
ATOM     39  N   UNL A   1      43.373  28.208  27.803  1.00  0.00    -0.248 NA
ATOM     40  C   UNL A   1      43.534  26.107  26.802  1.00  0.00     0.031 C 
ATOM     41  C   UNL A   1      39.263  27.231  29.183  1.00  0.00     0.029 A 
ATOM     42  N   UNL A   1      40.832  28.818  29.095  1.00  0.00    -0.354 N 
ATOM     43  C   UNL A   1      44.654  28.047  27.286  1.00  0.00     0.074 A 
ATOM     44  C   UNL A   1      44.709  26.712  26.726  1.00  0.00     0.031 C 
ATOM     45  C   UNL A   1      38.784  28.317  29.809  1.00  0.00     0.029 A 
ATOM     46  C   UNL A   1      39.781  29.379  29.786  1.00  0.00     0.049 A 
ATOM     47  H   UNL A   1      41.677  29.294  28.923  1.00  0.00     0.167 HD
ATOM     48  C   UNL A   1      45.685  28.927  27.278  1.00  0.00     0.034 A 
ATOM     49  C   UNL A   1      39.627  30.597  30.348  1.00  0.00     0.034 A 
ATOM     50  C   UNL A   1      45.616  30.266  27.815  1.00  0.00     0.049 A 
ATOM     51  C   UNL A   1      40.772  31.576  30.281  1.00  0.00     0.074 A 
ATOM     52  C   UNL A   1      46.587  31.253  27.788  1.00  0.00     0.029 A 
ATOM     53  N   UNL A   1      44.525  30.806  28.482  1.00  0.00    -0.354 N 
ATOM     54  N   UNL A   1      41.955  31.425  29.731  1.00  0.00    -0.248 NA
ATOM     55  C   UNL A   1      40.569  32.885  30.917  1.00  0.00     0.031 C 
ATOM     56  C   UNL A   1      46.110  32.363  28.494  1.00  0.00     0.029 A 
ATOM     57  C   UNL A   1      44.812  32.099  28.900  1.00  0.00     0.049 A 
ATOM     58  H   UNL A   1      43.671  30.340  28.636  1.00  0.00     0.167 HD
ATOM     59  C   UNL A   1      42.629  32.623  29.946  1.00  0.00     0.074 A 
ATOM     60  C   UNL A   1      41.711  33.499  30.642  1.00  0.00     0.031 C 
ATOM     61  C   UNL A   1      43.897  32.963  29.606  1.00  0.00     0.034 A 
BRANCH  48  62
ATOM     62  C   UNL A   1      46.999  28.448  26.711  1.00  0.00     0.023 A 
ATOM     63  C   UNL A   1      47.223  28.355  25.327  1.00  0.00     0.031 A 
ATOM     64  C   UNL A   1      48.039  28.060  27.576  1.00  0.00     0.131 A 
ATOM     65  C   UNL A   1      48.428  27.819  24.850  1.00  0.00     0.055 A 
ATOM     66  C   UNL A   1      49.264  27.602  27.093  1.00  0.00     0.041 A 
ATOM     67  F   UNL A   1      47.875  28.111  28.908  1.00  0.00    -0.206 F 
ATOM     68  C   UNL A   1      49.461  27.465  25.723  1.00  0.00     0.022 A 
BRANCH  65  69
ATOM     69  S   UNL A   1      48.578  27.468  23.077  1.00  0.00     0.124 S 
ATOM     70  O   UNL A   1      47.431  28.191  22.535  1.00  0.00    -0.237 OA
ATOM     71  O   UNL A   1      49.891  28.018  22.757  1.00  0.00    -0.237 OA
ATOM     72  O   UNL A   1      48.478  26.012  23.006  1.00  0.00    -0.744 OA
ENDBRANCH  65  69
ENDBRANCH  48  62
BRANCH  49  73
ATOM     73  C   UNL A   1      38.358  30.972  31.047  1.00  0.00     0.023 A 
ATOM     74  C   UNL A   1      37.298  31.579  30.350  1.00  0.00     0.031 A 
ATOM     75  C   UNL A   1      38.207  30.795  32.435  1.00  0.00     0.131 A 
ATOM     76  C   UNL A   1      36.166  32.034  31.046  1.00  0.00     0.055 A 
ATOM     77  C   UNL A   1      37.051  31.190  33.112  1.00  0.00     0.041 A 
ATOM     78  F   UNL A   1      39.185  30.225  33.156  1.00  0.00    -0.206 F 
ATOM     79  C   UNL A   1      36.029  31.830  32.419  1.00  0.00     0.022 A 
BRANCH  76  80
ATOM     80  S   UNL A   1      34.920  33.003  30.147  1.00  0.00     0.124 S 
ATOM     81  O   UNL A   1      35.728  34.076  29.580  1.00  0.00    -0.237 OA
ATOM     82  O   UNL A   1      34.399  32.021  29.202  1.00  0.00    -0.237 OA
ATOM     83  O   UNL A   1      33.987  33.411  31.195  1.00  0.00    -0.744 OA
ENDBRANCH  76  80
ENDBRANCH  49  73
BRANCH  61  84
ATOM     84  C   UNL A   1      44.351  34.358  29.964  1.00  0.00     0.023 A 
ATOM     85  C   UNL A   1      44.107  35.455  29.119  1.00  0.00     0.031 A 
ATOM     86  C   UNL A   1      45.053  34.588  31.161  1.00  0.00     0.131 A 
ATOM     87  C   UNL A   1      44.610  36.722  29.453  1.00  0.00     0.055 A 
ATOM     88  C   UNL A   1      45.499  35.862  31.517  1.00  0.00     0.041 A 
ATOM     89  F   UNL A   1      45.317  33.578  32.005  1.00  0.00    -0.206 F 
ATOM     90  C   UNL A   1      45.289  36.935  30.655  1.00  0.00     0.022 A 
BRANCH  87  91
ATOM     91  S   UNL A   1      44.437  38.073  28.256  1.00  0.00     0.124 S 
ATOM     92  O   UNL A   1      43.568  39.003  28.969  1.00  0.00    -0.237 OA
ATOM     93  O   UNL A   1      45.819  38.507  28.071  1.00  0.00    -0.237 OA
ATOM     94  O   UNL A   1      43.833  37.426  27.092  1.00  0.00    -0.744 OA
ENDBRANCH  87  91
ENDBRANCH  61  84
ENDBRANCH  35  36
ENDBRANCH  27  30
ENDBRANCH  25  26
ENDBRANCH  24  25
ENDBRANCH   1  24
TORSDOF 17
ENDMDL
