MODEL 1
REMARK VINA RESULT:     -12.2      0.000      0.000
REMARK SMILES O=C(Cc1ccn(-c2ccccc2F)c1)NCCCNC(=O)c1ccc(-c2c3nc(c(-c4cc(S(=O)(=O)[O-])ccc4F)c4ccc([nH]4)c(-c4cc(S(=O)(=O)[O-])ccc4F)c4nc(c(-c5cc(S(=O)(=O)[O-])ccc5F)c5ccc2[nH]5)C=C4)C=C3)cc1
REMARK SMILES IDX 18 1 17 2 16 3 1 4 2 5 3 7 4 8 5 9 15 10 6 11 7 12 8 13 9 14
REMARK SMILES IDX 13 15 10 16 12 17 14 18 11 19 19 20 20 21 21 22 22 24 23 25
REMARK SMILES IDX 24 26 85 27 25 28 84 29 26 30 27 31 28 32 78 33 29 34 83 35
REMARK SMILES IDX 77 36 79 37 30 38 82 39 76 40 75 41 31 43 63 44 43 45 62 46
REMARK SMILES IDX 44 47 47 48 61 49 80 50 45 51 46 52 60 54 81 55 48 56 32 57
REMARK SMILES IDX 33 58 41 59 34 60 40 61 42 62 39 63 35 64 36 65 37 66 38 67
REMARK SMILES IDX 64 68 65 69 73 70 66 71 72 72 74 73 71 74 67 75 68 76 69 77
REMARK SMILES IDX 70 78 49 79 50 80 58 81 51 82 57 83 59 84 56 85 52 86 53 87
REMARK SMILES IDX 54 88 55 89
REMARK H PARENT 16 6 20 23 79 42 47 53
REMARK Flexibility Score: inf
ROOT
ATOM      1  C   UNL A   1      36.391  23.610  25.692  1.00  0.00     0.042 C 
ENDROOT
BRANCH   1   2
ATOM      2  C   UNL A   1      36.602  23.289  24.211  1.00  0.00     0.117 C 
BRANCH   2   3
ATOM      3  N   UNL A   1      35.452  23.607  23.385  1.00  0.00    -0.356 N 
ATOM      4  O   UNL A   1      34.068  22.002  24.263  1.00  0.00    -0.275 OA
ATOM      5  C   UNL A   1      34.236  22.963  23.515  1.00  0.00     0.224 C 
ATOM      6  H   UNL A   1      35.542  24.311  22.702  1.00  0.00     0.163 HD
BRANCH   5   7
ATOM      7  C   UNL A   1      33.122  23.492  22.616  1.00  0.00     0.137 C 
BRANCH   7   8
ATOM      8  C   UNL A   1      32.363  24.635  23.222  1.00  0.00    -0.021 A 
ATOM      9  C   UNL A   1      32.425  25.093  24.565  1.00  0.00     0.024 A 
ATOM     10  C   UNL A   1      31.450  25.453  22.579  1.00  0.00     0.095 A 
ATOM     11  C   UNL A   1      31.651  26.227  24.657  1.00  0.00     0.091 A 
ATOM     12  N   UNL A   1      31.040  26.453  23.439  1.00  0.00    -0.321 N 
BRANCH  12  13
ATOM     13  C   UNL A   1      30.202  27.547  23.120  1.00  0.00     0.081 A 
ATOM     14  C   UNL A   1      30.754  28.699  22.543  1.00  0.00     0.030 A 
ATOM     15  C   UNL A   1      28.825  27.478  23.347  1.00  0.00     0.147 A 
ATOM     16  C   UNL A   1      29.918  29.753  22.166  1.00  0.00     0.002 A 
ATOM     17  C   UNL A   1      28.001  28.549  23.008  1.00  0.00     0.041 A 
ATOM     18  F   UNL A   1      28.274  26.421  23.960  1.00  0.00    -0.205 F 
ATOM     19  C   UNL A   1      28.545  29.682  22.406  1.00  0.00     0.003 A 
ENDBRANCH  12  13
ENDBRANCH   7   8
ENDBRANCH   5   7
ENDBRANCH   2   3
ENDBRANCH   1   2
BRANCH   1  20
ATOM     20  C   UNL A   1      37.488  24.493  26.275  1.00  0.00     0.118 C 
BRANCH  20  21
ATOM     21  N   UNL A   1      38.587  23.714  26.829  1.00  0.00    -0.352 N 
ATOM     22  C   UNL A   1      39.758  24.146  27.409  1.00  0.00     0.251 C 
ATOM     23  H   UNL A   1      38.476  22.736  26.781  1.00  0.00     0.163 HD
ATOM     24  O   UNL A   1      40.696  23.367  27.517  1.00  0.00    -0.269 OA
BRANCH  22  25
ATOM     25  C   UNL A   1      39.896  25.540  27.881  1.00  0.00     0.039 A 
ATOM     26  C   UNL A   1      39.601  25.829  29.220  1.00  0.00     0.014 A 
ATOM     27  C   UNL A   1      40.238  26.569  26.997  1.00  0.00     0.014 A 
ATOM     28  C   UNL A   1      39.710  27.137  29.679  1.00  0.00     0.010 A 
ATOM     29  C   UNL A   1      40.411  27.859  27.462  1.00  0.00     0.010 A 
ATOM     30  C   UNL A   1      40.130  28.142  28.798  1.00  0.00    -0.014 A 
BRANCH  30  31
ATOM     31  C   UNL A   1      40.286  29.521  29.294  1.00  0.00     0.031 A 
ATOM     32  C   UNL A   1      38.936  30.138  29.678  1.00  0.00     0.074 A 
ATOM     33  C   UNL A   1      41.567  29.999  29.291  1.00  0.00     0.049 A 
ATOM     34  N   UNL A   1      38.466  31.326  29.460  1.00  0.00    -0.248 NA
ATOM     35  C   UNL A   1      37.901  29.257  30.284  1.00  0.00     0.031 C 
ATOM     36  C   UNL A   1      42.762  29.202  28.917  1.00  0.00     0.029 A 
ATOM     37  N   UNL A   1      42.143  31.212  29.592  1.00  0.00    -0.354 N 
ATOM     38  C   UNL A   1      37.197  31.406  30.085  1.00  0.00     0.074 A 
ATOM     39  C   UNL A   1      36.840  30.058  30.416  1.00  0.00     0.031 C 
ATOM     40  C   UNL A   1      43.879  29.959  28.932  1.00  0.00     0.029 A 
ATOM     41  C   UNL A   1      43.530  31.314  29.299  1.00  0.00     0.049 A 
ATOM     42  H   UNL A   1      41.631  31.957  29.984  1.00  0.00     0.167 HD
ATOM     43  C   UNL A   1      36.609  32.592  30.439  1.00  0.00     0.034 A 
ATOM     44  C   UNL A   1      44.328  32.425  29.275  1.00  0.00     0.034 A 
ATOM     45  C   UNL A   1      37.491  33.667  30.111  1.00  0.00     0.049 A 
ATOM     46  C   UNL A   1      43.460  33.531  29.714  1.00  0.00     0.074 A 
ATOM     47  C   UNL A   1      37.903  34.224  28.930  1.00  0.00     0.029 A 
ATOM     48  N   UNL A   1      38.339  34.079  31.115  1.00  0.00    -0.354 N 
ATOM     49  N   UNL A   1      43.012  33.699  30.922  1.00  0.00    -0.248 NA
ATOM     50  C   UNL A   1      42.929  34.446  28.695  1.00  0.00     0.031 C 
ATOM     51  C   UNL A   1      39.261  34.530  29.173  1.00  0.00     0.029 A 
ATOM     52  C   UNL A   1      39.549  34.352  30.532  1.00  0.00     0.049 A 
ATOM     53  H   UNL A   1      38.116  34.162  32.070  1.00  0.00     0.167 HD
ATOM     54  C   UNL A   1      41.919  34.510  30.731  1.00  0.00     0.074 A 
ATOM     55  C   UNL A   1      42.095  35.154  29.449  1.00  0.00     0.031 C 
ATOM     56  C   UNL A   1      40.743  34.213  31.340  1.00  0.00     0.034 A 
BRANCH  43  57
ATOM     57  C   UNL A   1      35.425  32.951  31.315  1.00  0.00     0.023 A 
ATOM     58  C   UNL A   1      34.551  33.953  30.813  1.00  0.00     0.031 A 
ATOM     59  C   UNL A   1      35.257  32.613  32.664  1.00  0.00     0.131 A 
ATOM     60  C   UNL A   1      33.675  34.661  31.650  1.00  0.00     0.055 A 
ATOM     61  C   UNL A   1      34.334  33.280  33.488  1.00  0.00     0.041 A 
ATOM     62  F   UNL A   1      36.021  31.692  33.262  1.00  0.00    -0.206 F 
ATOM     63  C   UNL A   1      33.566  34.332  32.994  1.00  0.00     0.022 A 
BRANCH  60  64
ATOM     64  S   UNL A   1      32.815  36.112  30.975  1.00  0.00     0.124 S 
ATOM     65  O   UNL A   1      32.571  35.714  29.594  1.00  0.00    -0.237 OA
ATOM     66  O   UNL A   1      31.638  36.197  31.834  1.00  0.00    -0.237 OA
ATOM     67  O   UNL A   1      33.785  37.192  31.148  1.00  0.00    -0.744 OA
ENDBRANCH  60  64
ENDBRANCH  43  57
BRANCH  44  68
ATOM     68  C   UNL A   1      45.708  32.784  28.760  1.00  0.00     0.023 A 
ATOM     69  C   UNL A   1      45.998  33.422  27.542  1.00  0.00     0.031 A 
ATOM     70  C   UNL A   1      46.840  32.559  29.599  1.00  0.00     0.131 A 
ATOM     71  C   UNL A   1      47.311  33.884  27.264  1.00  0.00     0.055 A 
ATOM     72  C   UNL A   1      48.111  33.086  29.360  1.00  0.00     0.041 A 
ATOM     73  F   UNL A   1      46.760  31.826  30.718  1.00  0.00    -0.206 F 
ATOM     74  C   UNL A   1      48.348  33.774  28.192  1.00  0.00     0.022 A 
BRANCH  71  75
ATOM     75  S   UNL A   1      47.717  34.686  25.686  1.00  0.00     0.124 S 
ATOM     76  O   UNL A   1      46.504  34.454  24.909  1.00  0.00    -0.237 OA
ATOM     77  O   UNL A   1      47.972  36.071  26.068  1.00  0.00    -0.237 OA
ATOM     78  O   UNL A   1      48.896  33.945  25.237  1.00  0.00    -0.744 OA
ENDBRANCH  71  75
ENDBRANCH  44  68
BRANCH  56  79
ATOM     79  C   UNL A   1      40.879  33.395  32.616  1.00  0.00     0.023 A 
ATOM     80  C   UNL A   1      40.530  32.034  32.618  1.00  0.00     0.031 A 
ATOM     81  C   UNL A   1      41.234  33.943  33.862  1.00  0.00     0.131 A 
ATOM     82  C   UNL A   1      40.526  31.290  33.814  1.00  0.00     0.055 A 
ATOM     83  C   UNL A   1      41.241  33.206  35.053  1.00  0.00     0.041 A 
ATOM     84  F   UNL A   1      41.567  35.228  33.970  1.00  0.00    -0.206 F 
ATOM     85  C   UNL A   1      40.881  31.868  35.034  1.00  0.00     0.022 A 
BRANCH  82  86
ATOM     86  S   UNL A   1      40.078  29.534  33.762  1.00  0.00     0.124 S 
ATOM     87  O   UNL A   1      40.603  29.035  35.028  1.00  0.00    -0.237 OA
ATOM     88  O   UNL A   1      38.624  29.582  33.648  1.00  0.00    -0.237 OA
ATOM     89  O   UNL A   1      40.768  29.041  32.570  1.00  0.00    -0.744 OA
ENDBRANCH  82  86
ENDBRANCH  56  79
ENDBRANCH  30  31
ENDBRANCH  22  25
ENDBRANCH  20  21
ENDBRANCH   1  20
TORSDOF 15
ENDMDL
MODEL 2
REMARK VINA RESULT:     -12.2      4.853     10.583
REMARK SMILES O=C(Cc1ccn(-c2ccccc2F)c1)NCCCNC(=O)c1ccc(-c2c3nc(c(-c4cc(S(=O)(=O)[O-])ccc4F)c4ccc([nH]4)c(-c4cc(S(=O)(=O)[O-])ccc4F)c4nc(c(-c5cc(S(=O)(=O)[O-])ccc5F)c5ccc2[nH]5)C=C4)C=C3)cc1
REMARK SMILES IDX 18 1 17 2 16 3 1 4 2 5 3 7 4 8 5 9 15 10 6 11 7 12 8 13 9 14
REMARK SMILES IDX 13 15 10 16 12 17 14 18 11 19 19 20 20 21 21 22 22 24 23 25
REMARK SMILES IDX 24 26 85 27 25 28 84 29 26 30 27 31 28 32 78 33 29 34 83 35
REMARK SMILES IDX 77 36 79 37 30 38 82 39 76 40 75 41 31 43 63 44 43 45 62 46
REMARK SMILES IDX 44 47 47 48 61 49 80 50 45 51 46 52 60 54 81 55 48 56 32 57
REMARK SMILES IDX 33 58 41 59 34 60 40 61 42 62 39 63 35 64 36 65 37 66 38 67
REMARK SMILES IDX 64 68 65 69 73 70 66 71 72 72 74 73 71 74 67 75 68 76 69 77
REMARK SMILES IDX 70 78 49 79 50 80 58 81 51 82 57 83 59 84 56 85 52 86 53 87
REMARK SMILES IDX 54 88 55 89
REMARK H PARENT 16 6 20 23 79 42 47 53
REMARK Flexibility Score: inf
ROOT
ATOM      1  C   UNL A   1      34.060  28.141  25.707  1.00  0.00     0.042 C 
ENDROOT
BRANCH   1   2
ATOM      2  C   UNL A   1      32.628  27.782  26.108  1.00  0.00     0.117 C 
BRANCH   2   3
ATOM      3  N   UNL A   1      32.446  26.371  26.388  1.00  0.00    -0.356 N 
ATOM      4  O   UNL A   1      30.228  26.289  25.808  1.00  0.00    -0.275 OA
ATOM      5  C   UNL A   1      31.254  25.710  26.161  1.00  0.00     0.224 C 
ATOM      6  H   UNL A   1      33.204  25.861  26.756  1.00  0.00     0.163 HD
BRANCH   5   7
ATOM      7  C   UNL A   1      31.280  24.209  26.437  1.00  0.00     0.137 C 
BRANCH   7   8
ATOM      8  C   UNL A   1      32.364  23.488  25.694  1.00  0.00    -0.021 A 
ATOM      9  C   UNL A   1      32.341  23.059  24.340  1.00  0.00     0.024 A 
ATOM     10  C   UNL A   1      33.593  23.097  26.199  1.00  0.00     0.095 A 
ATOM     11  C   UNL A   1      33.581  22.540  24.043  1.00  0.00     0.091 A 
ATOM     12  N   UNL A   1      34.356  22.553  25.185  1.00  0.00    -0.321 N 
BRANCH  12  13
ATOM     13  C   UNL A   1      35.707  22.143  25.276  1.00  0.00     0.081 A 
ATOM     14  C   UNL A   1      36.055  20.823  24.957  1.00  0.00     0.030 A 
ATOM     15  C   UNL A   1      36.702  23.048  25.652  1.00  0.00     0.147 A 
ATOM     16  C   UNL A   1      37.397  20.435  24.982  1.00  0.00     0.002 A 
ATOM     17  C   UNL A   1      38.035  22.646  25.716  1.00  0.00     0.041 A 
ATOM     18  F   UNL A   1      36.398  24.298  26.030  1.00  0.00    -0.205 F 
ATOM     19  C   UNL A   1      38.384  21.342  25.369  1.00  0.00     0.003 A 
ENDBRANCH  12  13
ENDBRANCH   7   8
ENDBRANCH   5   7
ENDBRANCH   2   3
ENDBRANCH   1   2
BRANCH   1  20
ATOM     20  C   UNL A   1      34.972  28.391  26.902  1.00  0.00     0.118 C 
BRANCH  20  21
ATOM     21  N   UNL A   1      35.223  29.810  27.116  1.00  0.00    -0.352 N 
ATOM     22  C   UNL A   1      36.238  30.421  27.817  1.00  0.00     0.251 C 
ATOM     23  H   UNL A   1      34.572  30.421  26.700  1.00  0.00     0.163 HD
ATOM     24  O   UNL A   1      36.108  31.588  28.163  1.00  0.00    -0.269 OA
BRANCH  22  25
ATOM     25  C   UNL A   1      37.465  29.676  28.170  1.00  0.00     0.039 A 
ATOM     26  C   UNL A   1      38.574  29.765  27.318  1.00  0.00     0.014 A 
ATOM     27  C   UNL A   1      37.502  28.836  29.287  1.00  0.00     0.014 A 
ATOM     28  C   UNL A   1      39.732  29.060  27.623  1.00  0.00     0.010 A 
ATOM     29  C   UNL A   1      38.671  28.184  29.632  1.00  0.00     0.010 A 
ATOM     30  C   UNL A   1      39.777  28.285  28.789  1.00  0.00    -0.014 A 
BRANCH  30  31
ATOM     31  C   UNL A   1      41.018  27.570  29.137  1.00  0.00     0.031 A 
ATOM     32  C   UNL A   1      41.325  26.453  28.132  1.00  0.00     0.074 A 
ATOM     33  C   UNL A   1      41.637  27.998  30.279  1.00  0.00     0.049 A 
ATOM     34  N   UNL A   1      41.748  25.243  28.328  1.00  0.00    -0.248 NA
ATOM     35  C   UNL A   1      40.987  26.675  26.700  1.00  0.00     0.031 C 
ATOM     36  C   UNL A   1      41.189  29.154  31.095  1.00  0.00     0.029 A 
ATOM     37  N   UNL A   1      42.740  27.586  30.989  1.00  0.00    -0.354 N 
ATOM     38  C   UNL A   1      41.938  24.645  27.059  1.00  0.00     0.074 A 
ATOM     39  C   UNL A   1      41.289  25.511  26.119  1.00  0.00     0.031 C 
ATOM     40  C   UNL A   1      41.945  29.291  32.205  1.00  0.00     0.029 A 
ATOM     41  C   UNL A   1      42.941  28.244  32.233  1.00  0.00     0.049 A 
ATOM     42  H   UNL A   1      43.349  26.885  30.659  1.00  0.00     0.167 HD
ATOM     43  C   UNL A   1      42.761  23.570  26.851  1.00  0.00     0.034 A 
ATOM     44  C   UNL A   1      43.797  27.922  33.251  1.00  0.00     0.034 A 
ATOM     45  C   UNL A   1      43.386  23.216  28.086  1.00  0.00     0.049 A 
ATOM     46  C   UNL A   1      44.564  26.765  32.757  1.00  0.00     0.074 A 
ATOM     47  C   UNL A   1      42.932  22.645  29.245  1.00  0.00     0.029 A 
ATOM     48  N   UNL A   1      44.615  23.789  28.327  1.00  0.00    -0.354 N 
ATOM     49  N   UNL A   1      45.463  26.806  31.821  1.00  0.00    -0.248 NA
ATOM     50  C   UNL A   1      44.200  25.429  33.247  1.00  0.00     0.031 C 
ATOM     51  C   UNL A   1      43.654  23.330  30.248  1.00  0.00     0.029 A 
ATOM     52  C   UNL A   1      44.653  24.116  29.658  1.00  0.00     0.049 A 
ATOM     53  H   UNL A   1      45.330  23.936  27.667  1.00  0.00     0.167 HD
ATOM     54  C   UNL A   1      45.517  25.501  31.394  1.00  0.00     0.074 A 
ATOM     55  C   UNL A   1      44.977  24.689  32.462  1.00  0.00     0.031 C 
ATOM     56  C   UNL A   1      45.493  25.221  30.066  1.00  0.00     0.034 A 
BRANCH  43  57
ATOM     57  C   UNL A   1      43.330  22.912  25.610  1.00  0.00     0.023 A 
ATOM     58  C   UNL A   1      43.312  21.491  25.584  1.00  0.00     0.031 A 
ATOM     59  C   UNL A   1      44.113  23.531  24.627  1.00  0.00     0.131 A 
ATOM     60  C   UNL A   1      44.139  20.754  24.723  1.00  0.00     0.055 A 
ATOM     61  C   UNL A   1      44.894  22.790  23.723  1.00  0.00     0.041 A 
ATOM     62  F   UNL A   1      44.225  24.862  24.547  1.00  0.00    -0.206 F 
ATOM     63  C   UNL A   1      44.939  21.400  23.792  1.00  0.00     0.022 A 
BRANCH  60  64
ATOM     64  S   UNL A   1      44.258  18.957  24.966  1.00  0.00     0.124 S 
ATOM     65  O   UNL A   1      42.927  18.621  25.458  1.00  0.00    -0.237 OA
ATOM     66  O   UNL A   1      44.580  18.488  23.622  1.00  0.00    -0.237 OA
ATOM     67  O   UNL A   1      45.336  18.817  25.944  1.00  0.00    -0.744 OA
ENDBRANCH  60  64
ENDBRANCH  43  57
BRANCH  44  68
ATOM     68  C   UNL A   1      43.982  28.312  34.704  1.00  0.00     0.023 A 
ATOM     69  C   UNL A   1      44.057  27.431  35.796  1.00  0.00     0.031 A 
ATOM     70  C   UNL A   1      44.201  29.684  35.030  1.00  0.00     0.131 A 
ATOM     71  C   UNL A   1      44.432  27.904  37.081  1.00  0.00     0.055 A 
ATOM     72  C   UNL A   1      44.648  30.134  36.274  1.00  0.00     0.041 A 
ATOM     73  F   UNL A   1      44.009  30.665  34.137  1.00  0.00    -0.206 F 
ATOM     74  C   UNL A   1      44.787  29.236  37.307  1.00  0.00     0.022 A 
BRANCH  71  75
ATOM     75  S   UNL A   1      44.509  26.791  38.514  1.00  0.00     0.124 S 
ATOM     76  O   UNL A   1      45.535  25.838  38.099  1.00  0.00    -0.237 OA
ATOM     77  O   UNL A   1      44.875  27.680  39.612  1.00  0.00    -0.237 OA
ATOM     78  O   UNL A   1      43.150  26.253  38.583  1.00  0.00    -0.744 OA
ENDBRANCH  71  75
ENDBRANCH  44  68
BRANCH  56  79
ATOM     79  C   UNL A   1      46.007  26.342  29.175  1.00  0.00     0.023 A 
ATOM     80  C   UNL A   1      45.098  27.152  28.472  1.00  0.00     0.031 A 
ATOM     81  C   UNL A   1      47.370  26.565  28.905  1.00  0.00     0.131 A 
ATOM     82  C   UNL A   1      45.551  28.110  27.544  1.00  0.00     0.055 A 
ATOM     83  C   UNL A   1      47.826  27.523  27.990  1.00  0.00     0.041 A 
ATOM     84  F   UNL A   1      48.309  25.840  29.507  1.00  0.00    -0.206 F 
ATOM     85  C   UNL A   1      46.912  28.302  27.299  1.00  0.00     0.022 A 
BRANCH  82  86
ATOM     86  S   UNL A   1      44.340  29.138  26.671  1.00  0.00     0.124 S 
ATOM     87  O   UNL A   1      45.154  30.247  26.186  1.00  0.00    -0.237 OA
ATOM     88  O   UNL A   1      43.829  28.227  25.652  1.00  0.00    -0.237 OA
ATOM     89  O   UNL A   1      43.376  29.490  27.713  1.00  0.00    -0.744 OA
ENDBRANCH  82  86
ENDBRANCH  56  79
ENDBRANCH  30  31
ENDBRANCH  22  25
ENDBRANCH  20  21
ENDBRANCH   1  20
TORSDOF 15
ENDMDL
MODEL 3
REMARK VINA RESULT:     -12.2      1.816      2.332
REMARK SMILES O=C(Cc1ccn(-c2ccccc2F)c1)NCCCNC(=O)c1ccc(-c2c3nc(c(-c4cc(S(=O)(=O)[O-])ccc4F)c4ccc([nH]4)c(-c4cc(S(=O)(=O)[O-])ccc4F)c4nc(c(-c5cc(S(=O)(=O)[O-])ccc5F)c5ccc2[nH]5)C=C4)C=C3)cc1
REMARK SMILES IDX 18 1 17 2 16 3 1 4 2 5 3 7 4 8 5 9 15 10 6 11 7 12 8 13 9 14
REMARK SMILES IDX 13 15 10 16 12 17 14 18 11 19 19 20 20 21 21 22 22 24 23 25
REMARK SMILES IDX 24 26 85 27 25 28 84 29 26 30 27 31 28 32 78 33 29 34 83 35
REMARK SMILES IDX 77 36 79 37 30 38 82 39 76 40 75 41 31 43 63 44 43 45 62 46
REMARK SMILES IDX 44 47 47 48 61 49 80 50 45 51 46 52 60 54 81 55 48 56 32 57
REMARK SMILES IDX 33 58 41 59 34 60 40 61 42 62 39 63 35 64 36 65 37 66 38 67
REMARK SMILES IDX 64 68 65 69 73 70 66 71 72 72 74 73 71 74 67 75 68 76 69 77
REMARK SMILES IDX 70 78 49 79 50 80 58 81 51 82 57 83 59 84 56 85 52 86 53 87
REMARK SMILES IDX 54 88 55 89
REMARK H PARENT 16 6 20 23 79 42 47 53
REMARK Flexibility Score: inf
ROOT
ATOM      1  C   UNL A   1      36.152  23.530  26.014  1.00  0.00     0.042 C 
ENDROOT
BRANCH   1   2
ATOM      2  C   UNL A   1      36.257  23.074  24.558  1.00  0.00     0.117 C 
BRANCH   2   3
ATOM      3  N   UNL A   1      35.424  23.843  23.653  1.00  0.00    -0.356 N 
ATOM      4  O   UNL A   1      33.454  22.793  24.180  1.00  0.00    -0.275 OA
ATOM      5  C   UNL A   1      34.054  23.677  23.572  1.00  0.00     0.224 C 
ATOM      6  H   UNL A   1      35.852  24.513  23.070  1.00  0.00     0.163 HD
BRANCH   5   7
ATOM      7  C   UNL A   1      33.338  24.635  22.624  1.00  0.00     0.137 C 
BRANCH   7   8
ATOM      8  C   UNL A   1      33.463  26.074  23.029  1.00  0.00    -0.021 A 
ATOM      9  C   UNL A   1      33.532  27.205  22.173  1.00  0.00     0.024 A 
ATOM     10  C   UNL A   1      33.541  26.565  24.321  1.00  0.00     0.095 A 
ATOM     11  C   UNL A   1      33.530  28.330  22.965  1.00  0.00     0.091 A 
ATOM     12  N   UNL A   1      33.543  27.945  24.291  1.00  0.00    -0.321 N 
BRANCH  12  13
ATOM     13  C   UNL A   1      33.499  28.812  25.408  1.00  0.00     0.081 A 
ATOM     14  C   UNL A   1      34.511  28.749  26.376  1.00  0.00     0.030 A 
ATOM     15  C   UNL A   1      32.474  29.751  25.540  1.00  0.00     0.147 A 
ATOM     16  C   UNL A   1      34.505  29.649  27.445  1.00  0.00     0.002 A 
ATOM     17  C   UNL A   1      32.448  30.619  26.630  1.00  0.00     0.041 A 
ATOM     18  F   UNL A   1      31.453  29.793  24.671  1.00  0.00    -0.205 F 
ATOM     19  C   UNL A   1      33.471  30.577  27.576  1.00  0.00     0.003 A 
ENDBRANCH  12  13
ENDBRANCH   7   8
ENDBRANCH   5   7
ENDBRANCH   2   3
ENDBRANCH   1   2
BRANCH   1  20
ATOM     20  C   UNL A   1      37.289  24.454  26.435  1.00  0.00     0.118 C 
BRANCH  20  21
ATOM     21  N   UNL A   1      38.512  23.722  26.733  1.00  0.00    -0.352 N 
ATOM     22  C   UNL A   1      39.746  24.201  27.111  1.00  0.00     0.251 C 
ATOM     23  H   UNL A   1      38.447  22.742  26.653  1.00  0.00     0.163 HD
ATOM     24  O   UNL A   1      40.728  23.479  27.000  1.00  0.00    -0.269 OA
BRANCH  22  25
ATOM     25  C   UNL A   1      39.894  25.579  27.626  1.00  0.00     0.039 A 
ATOM     26  C   UNL A   1      39.690  25.812  28.992  1.00  0.00     0.014 A 
ATOM     27  C   UNL A   1      40.158  26.646  26.761  1.00  0.00     0.014 A 
ATOM     28  C   UNL A   1      39.810  27.103  29.493  1.00  0.00     0.010 A 
ATOM     29  C   UNL A   1      40.342  27.921  27.262  1.00  0.00     0.010 A 
ATOM     30  C   UNL A   1      40.151  28.148  28.625  1.00  0.00    -0.014 A 
BRANCH  30  31
ATOM     31  C   UNL A   1      40.320  29.510  29.161  1.00  0.00     0.031 A 
ATOM     32  C   UNL A   1      38.976  30.126  29.569  1.00  0.00     0.074 A 
ATOM     33  C   UNL A   1      41.604  29.979  29.169  1.00  0.00     0.049 A 
ATOM     34  N   UNL A   1      38.514  31.324  29.388  1.00  0.00    -0.248 NA
ATOM     35  C   UNL A   1      37.935  29.235  30.151  1.00  0.00     0.031 C 
ATOM     36  C   UNL A   1      42.791  29.184  28.767  1.00  0.00     0.029 A 
ATOM     37  N   UNL A   1      42.191  31.177  29.504  1.00  0.00    -0.354 N 
ATOM     38  C   UNL A   1      37.248  31.395  30.020  1.00  0.00     0.074 A 
ATOM     39  C   UNL A   1      36.881  30.040  30.310  1.00  0.00     0.031 C 
ATOM     40  C   UNL A   1      43.914  29.932  28.800  1.00  0.00     0.029 A 
ATOM     41  C   UNL A   1      43.577  31.277  29.209  1.00  0.00     0.049 A 
ATOM     42  H   UNL A   1      41.686  31.913  29.920  1.00  0.00     0.167 HD
ATOM     43  C   UNL A   1      36.670  32.574  30.412  1.00  0.00     0.034 A 
ATOM     44  C   UNL A   1      44.384  32.382  29.217  1.00  0.00     0.034 A 
ATOM     45  C   UNL A   1      37.559  33.651  30.113  1.00  0.00     0.049 A 
ATOM     46  C   UNL A   1      43.526  33.481  29.692  1.00  0.00     0.074 A 
ATOM     47  C   UNL A   1      37.972  34.241  28.948  1.00  0.00     0.029 A 
ATOM     48  N   UNL A   1      38.414  34.026  31.127  1.00  0.00    -0.354 N 
ATOM     49  N   UNL A   1      43.084  33.616  30.906  1.00  0.00    -0.248 NA
ATOM     50  C   UNL A   1      42.999  34.431  28.703  1.00  0.00     0.031 C 
ATOM     51  C   UNL A   1      39.333  34.529  29.196  1.00  0.00     0.029 A 
ATOM     52  C   UNL A   1      39.625  34.307  30.548  1.00  0.00     0.049 A 
ATOM     53  H   UNL A   1      38.195  34.082  32.084  1.00  0.00     0.167 HD
ATOM     54  C   UNL A   1      41.996  34.440  30.744  1.00  0.00     0.074 A 
ATOM     55  C   UNL A   1      42.173  35.122  29.481  1.00  0.00     0.031 C 
ATOM     56  C   UNL A   1      40.819  34.135  31.347  1.00  0.00     0.034 A 
BRANCH  43  57
ATOM     57  C   UNL A   1      35.492  32.915  31.301  1.00  0.00     0.023 A 
ATOM     58  C   UNL A   1      34.602  33.911  30.815  1.00  0.00     0.031 A 
ATOM     59  C   UNL A   1      35.341  32.568  32.650  1.00  0.00     0.131 A 
ATOM     60  C   UNL A   1      33.728  34.604  31.666  1.00  0.00     0.055 A 
ATOM     61  C   UNL A   1      34.421  33.220  33.488  1.00  0.00     0.041 A 
ATOM     62  F   UNL A   1      36.122  31.652  33.235  1.00  0.00    -0.206 F 
ATOM     63  C   UNL A   1      33.637  34.267  33.008  1.00  0.00     0.022 A 
BRANCH  60  64
ATOM     64  S   UNL A   1      32.846  36.051  31.008  1.00  0.00     0.124 S 
ATOM     65  O   UNL A   1      32.605  35.664  29.623  1.00  0.00    -0.237 OA
ATOM     66  O   UNL A   1      31.669  36.108  31.869  1.00  0.00    -0.237 OA
ATOM     67  O   UNL A   1      33.800  37.143  31.192  1.00  0.00    -0.744 OA
ENDBRANCH  60  64
ENDBRANCH  43  57
BRANCH  44  68
ATOM     68  C   UNL A   1      45.765  32.746  28.709  1.00  0.00     0.023 A 
ATOM     69  C   UNL A   1      46.872  33.102  29.498  1.00  0.00     0.031 A 
ATOM     70  C   UNL A   1      46.039  32.640  27.312  1.00  0.00     0.131 A 
ATOM     71  C   UNL A   1      48.162  33.226  28.918  1.00  0.00     0.055 A 
ATOM     72  C   UNL A   1      47.320  32.683  26.758  1.00  0.00     0.041 A 
ATOM     73  F   UNL A   1      45.064  32.466  26.409  1.00  0.00    -0.206 F 
ATOM     74  C   UNL A   1      48.398  32.957  27.569  1.00  0.00     0.022 A 
BRANCH  71  75
ATOM     75  S   UNL A   1      49.603  33.711  29.912  1.00  0.00     0.124 S 
ATOM     76  O   UNL A   1      49.294  33.107  31.204  1.00  0.00    -0.237 OA
ATOM     77  O   UNL A   1      50.725  33.123  29.187  1.00  0.00    -0.237 OA
ATOM     78  O   UNL A   1      49.546  35.173  29.877  1.00  0.00    -0.744 OA
ENDBRANCH  71  75
ENDBRANCH  44  68
BRANCH  56  79
ATOM     79  C   UNL A   1      40.953  33.278  32.597  1.00  0.00     0.023 A 
ATOM     80  C   UNL A   1      40.605  31.917  32.556  1.00  0.00     0.031 A 
ATOM     81  C   UNL A   1      41.305  33.787  33.861  1.00  0.00     0.131 A 
ATOM     82  C   UNL A   1      40.598  31.135  33.728  1.00  0.00     0.055 A 
ATOM     83  C   UNL A   1      41.310  33.013  35.028  1.00  0.00     0.041 A 
ATOM     84  F   UNL A   1      41.636  35.067  34.009  1.00  0.00    -0.206 F 
ATOM     85  C   UNL A   1      40.951  31.675  34.966  1.00  0.00     0.022 A 
BRANCH  82  86
ATOM     86  S   UNL A   1      40.152  29.382  33.621  1.00  0.00     0.124 S 
ATOM     87  O   UNL A   1      40.853  28.949  32.417  1.00  0.00    -0.237 OA
ATOM     88  O   UNL A   1      40.658  28.849  34.881  1.00  0.00    -0.237 OA
ATOM     89  O   UNL A   1      38.693  29.407  33.510  1.00  0.00    -0.744 OA
ENDBRANCH  82  86
ENDBRANCH  56  79
ENDBRANCH  30  31
ENDBRANCH  22  25
ENDBRANCH  20  21
ENDBRANCH   1  20
TORSDOF 15
ENDMDL
