MODEL 1
REMARK VINA RESULT:     -12.6      0.000      0.000
REMARK SMILES CC(C)(C)c1cc(-n2cnc(C(=O)NCCCNC(=O)c3ccc(-c4c5nc(c(-c6cc(S(=O)(=O)[O-])ccc6F)c6ccc([nH]6)c(-c6cc(S(=O)(=O)[O-])ccc6F)c6nc(c(-c7cc(S(=O)(=O)[O-])ccc7F)c7ccc4[nH]7)C=C6)C=C5)cc3)c2)nc(Cl)n1
REMARK SMILES IDX 16 1 15 2 14 3 12 4 13 5 11 7 8 8 9 9 84 10 10 11 7 12 5 13
REMARK SMILES IDX 6 14 88 15 86 16 85 17 87 18 2 19 1 20 3 21 4 22 17 23 18 24
REMARK SMILES IDX 19 25 20 27 21 28 22 29 83 30 23 31 82 32 24 33 25 34 26 35
REMARK SMILES IDX 76 36 27 37 81 38 75 39 77 40 28 41 80 42 74 43 73 44 29 46
REMARK SMILES IDX 61 47 41 48 60 49 42 50 45 51 59 52 78 53 43 54 44 55 58 57
REMARK SMILES IDX 79 58 46 59 30 60 31 61 39 62 32 63 38 64 40 65 37 66 33 67
REMARK SMILES IDX 34 68 35 69 36 70 62 71 63 72 71 73 64 74 70 75 72 76 69 77
REMARK SMILES IDX 65 78 66 79 67 80 68 81 47 82 48 83 56 84 49 85 55 86 57 87
REMARK SMILES IDX 54 88 50 89 51 90 52 91 53 92
REMARK H PARENT 14 6 18 26 77 45 45 56
REMARK Flexibility Score: inf
ROOT
ATOM      1  C   UNL A   1      37.475  19.965  24.824  1.00  0.00     0.042 C 
ENDROOT
BRANCH   1   2
ATOM      2  C   UNL A   1      36.225  20.751  25.246  1.00  0.00     0.118 C 
BRANCH   2   3
ATOM      3  N   UNL A   1      34.989  20.022  25.010  1.00  0.00    -0.351 N 
ATOM      4  C   UNL A   1      33.657  20.389  25.090  1.00  0.00     0.271 C 
ATOM      5  O   UNL A   1      32.831  19.576  24.696  1.00  0.00    -0.267 OA
ATOM      6  H   UNL A   1      35.126  19.084  24.740  1.00  0.00     0.163 HD
BRANCH   4   7
ATOM      7  C   UNL A   1      33.267  21.714  25.605  1.00  0.00     0.146 A 
ATOM      8  N   UNL A   1      32.579  23.798  25.816  1.00  0.00    -0.290 N 
ATOM      9  C   UNL A   1      32.738  23.250  27.055  1.00  0.00     0.206 A 
ATOM     10  C   UNL A   1      33.045  22.880  24.913  1.00  0.00     0.128 A 
ATOM     11  N   UNL A   1      33.086  21.981  26.963  1.00  0.00    -0.231 NA
BRANCH   8  12
ATOM     12  C   UNL A   1      31.982  25.023  25.466  1.00  0.00     0.143 A 
ATOM     13  C   UNL A   1      32.056  27.383  25.579  1.00  0.00     0.053 A 
ATOM     14  C   UNL A   1      32.639  26.174  25.888  1.00  0.00     0.072 A 
ATOM     15  N   UNL A   1      30.845  27.419  24.980  1.00  0.00    -0.222 NA
ATOM     16  C   UNL A   1      30.298  26.239  24.633  1.00  0.00     0.224 A 
ATOM     17  N   UNL A   1      30.826  25.022  24.789  1.00  0.00    -0.200 NA
ATOM     18  Cl  UNL A   1      28.723  26.306  23.981  1.00  0.00    -0.041 Cl
BRANCH  13  19
ATOM     19  C   UNL A   1      32.772  28.720  25.798  1.00  0.00     0.004 C 
ATOM     20  C   UNL A   1      31.890  29.824  26.424  1.00  0.00     0.017 C 
ATOM     21  C   UNL A   1      33.306  29.256  24.458  1.00  0.00     0.017 C 
ATOM     22  C   UNL A   1      33.951  28.461  26.758  1.00  0.00     0.017 C 
ENDBRANCH  13  19
ENDBRANCH   8  12
ENDBRANCH   4   7
ENDBRANCH   2   3
ENDBRANCH   1   2
BRANCH   1  23
ATOM     23  C   UNL A   1      38.713  20.434  25.572  1.00  0.00     0.118 C 
BRANCH  23  24
ATOM     24  N   UNL A   1      39.709  19.365  25.722  1.00  0.00    -0.352 N 
ATOM     25  C   UNL A   1      41.069  19.473  25.955  1.00  0.00     0.251 C 
ATOM     26  H   UNL A   1      39.362  18.446  25.646  1.00  0.00     0.163 HD
ATOM     27  O   UNL A   1      41.814  18.535  25.693  1.00  0.00    -0.269 OA
BRANCH  25  28
ATOM     28  C   UNL A   1      41.594  20.728  26.523  1.00  0.00     0.039 A 
ATOM     29  C   UNL A   1      42.210  21.709  25.741  1.00  0.00     0.014 A 
ATOM     30  C   UNL A   1      41.412  20.924  27.886  1.00  0.00     0.014 A 
ATOM     31  C   UNL A   1      42.565  22.917  26.344  1.00  0.00     0.010 A 
ATOM     32  C   UNL A   1      41.548  22.174  28.416  1.00  0.00     0.010 A 
ATOM     33  C   UNL A   1      42.210  23.146  27.685  1.00  0.00    -0.014 A 
BRANCH  33  34
ATOM     34  C   UNL A   1      42.367  24.446  28.330  1.00  0.00     0.031 A 
ATOM     35  C   UNL A   1      41.256  25.379  28.014  1.00  0.00     0.074 A 
ATOM     36  C   UNL A   1      43.261  24.667  29.323  1.00  0.00     0.049 A 
ATOM     37  N   UNL A   1      41.284  26.394  27.215  1.00  0.00    -0.248 NA
ATOM     38  C   UNL A   1      39.893  25.008  28.441  1.00  0.00     0.031 C 
ATOM     39  C   UNL A   1      44.197  23.710  29.930  1.00  0.00     0.029 A 
ATOM     40  N   UNL A   1      43.454  25.775  30.089  1.00  0.00    -0.354 N 
ATOM     41  C   UNL A   1      40.021  26.969  27.305  1.00  0.00     0.074 A 
ATOM     42  C   UNL A   1      39.166  25.931  27.807  1.00  0.00     0.031 C 
ATOM     43  C   UNL A   1      44.673  24.204  31.096  1.00  0.00     0.029 A 
ATOM     44  C   UNL A   1      44.219  25.576  31.242  1.00  0.00     0.049 A 
ATOM     45  H   UNL A   1      43.083  26.654  29.847  1.00  0.00     0.167 HD
ATOM     46  C   UNL A   1      39.878  28.324  27.285  1.00  0.00     0.034 A 
ATOM     47  C   UNL A   1      44.458  26.466  32.250  1.00  0.00     0.034 A 
ATOM     48  C   UNL A   1      41.099  28.950  26.804  1.00  0.00     0.049 A 
ATOM     49  C   UNL A   1      44.192  27.812  31.682  1.00  0.00     0.074 A 
ATOM     50  C   UNL A   1      41.860  28.833  25.655  1.00  0.00     0.029 A 
ATOM     51  N   UNL A   1      41.938  29.529  27.736  1.00  0.00    -0.354 N 
ATOM     52  N   UNL A   1      44.910  28.326  30.720  1.00  0.00    -0.248 NA
ATOM     53  C   UNL A   1      42.841  28.340  31.794  1.00  0.00     0.031 C 
ATOM     54  C   UNL A   1      43.215  28.861  26.107  1.00  0.00     0.029 A 
ATOM     55  C   UNL A   1      43.219  29.108  27.480  1.00  0.00     0.049 A 
ATOM     56  H   UNL A   1      41.663  30.139  28.458  1.00  0.00     0.167 HD
ATOM     57  C   UNL A   1      43.988  28.884  29.844  1.00  0.00     0.074 A 
ATOM     58  C   UNL A   1      42.739  28.947  30.606  1.00  0.00     0.031 C 
ATOM     59  C   UNL A   1      44.241  28.954  28.501  1.00  0.00     0.034 A 
BRANCH  46  60
ATOM     60  C   UNL A   1      38.860  29.097  28.113  1.00  0.00     0.023 A 
ATOM     61  C   UNL A   1      39.020  29.028  29.509  1.00  0.00     0.031 A 
ATOM     62  C   UNL A   1      37.621  29.616  27.674  1.00  0.00     0.131 A 
ATOM     63  C   UNL A   1      37.942  29.265  30.376  1.00  0.00     0.055 A 
ATOM     64  C   UNL A   1      36.567  29.913  28.547  1.00  0.00     0.041 A 
ATOM     65  F   UNL A   1      37.317  29.814  26.389  1.00  0.00    -0.206 F 
ATOM     66  C   UNL A   1      36.707  29.692  29.904  1.00  0.00     0.022 A 
BRANCH  63  67
ATOM     67  S   UNL A   1      38.137  28.789  32.110  1.00  0.00     0.124 S 
ATOM     68  O   UNL A   1      39.254  29.637  32.512  1.00  0.00    -0.237 OA
ATOM     69  O   UNL A   1      36.831  29.134  32.661  1.00  0.00    -0.237 OA
ATOM     70  O   UNL A   1      38.428  27.360  32.036  1.00  0.00    -0.744 OA
ENDBRANCH  63  67
ENDBRANCH  46  60
BRANCH  47  71
ATOM     71  C   UNL A   1      44.571  26.197  33.718  1.00  0.00     0.023 A 
ATOM     72  C   UNL A   1      43.515  26.377  34.647  1.00  0.00     0.031 A 
ATOM     73  C   UNL A   1      45.704  25.498  34.192  1.00  0.00     0.131 A 
ATOM     74  C   UNL A   1      43.627  25.873  35.970  1.00  0.00     0.055 A 
ATOM     75  C   UNL A   1      45.806  25.000  35.495  1.00  0.00     0.041 A 
ATOM     76  F   UNL A   1      46.725  25.200  33.372  1.00  0.00    -0.206 F 
ATOM     77  C   UNL A   1      44.763  25.178  36.388  1.00  0.00     0.022 A 
BRANCH  74  78
ATOM     78  S   UNL A   1      42.263  26.057  37.177  1.00  0.00     0.124 S 
ATOM     79  O   UNL A   1      42.975  26.298  38.426  1.00  0.00    -0.237 OA
ATOM     80  O   UNL A   1      41.508  27.178  36.631  1.00  0.00    -0.237 OA
ATOM     81  O   UNL A   1      41.569  24.768  37.111  1.00  0.00    -0.744 OA
ENDBRANCH  74  78
ENDBRANCH  47  71
BRANCH  59  82
ATOM     82  C   UNL A   1      45.656  28.677  28.022  1.00  0.00     0.023 A 
ATOM     83  C   UNL A   1      46.174  27.403  27.686  1.00  0.00     0.031 A 
ATOM     84  C   UNL A   1      46.476  29.794  27.785  1.00  0.00     0.131 A 
ATOM     85  C   UNL A   1      47.475  27.289  27.148  1.00  0.00     0.055 A 
ATOM     86  C   UNL A   1      47.749  29.679  27.231  1.00  0.00     0.041 A 
ATOM     87  F   UNL A   1      46.033  31.033  28.056  1.00  0.00    -0.206 F 
ATOM     88  C   UNL A   1      48.256  28.425  26.917  1.00  0.00     0.022 A 
BRANCH  85  89
ATOM     89  S   UNL A   1      48.187  25.656  26.752  1.00  0.00     0.124 S 
ATOM     90  O   UNL A   1      47.079  24.942  26.129  1.00  0.00    -0.237 OA
ATOM     91  O   UNL A   1      49.301  25.999  25.873  1.00  0.00    -0.237 OA
ATOM     92  O   UNL A   1      48.589  25.133  28.060  1.00  0.00    -0.744 OA
ENDBRANCH  85  89
ENDBRANCH  59  82
ENDBRANCH  33  34
ENDBRANCH  25  28
ENDBRANCH  23  24
ENDBRANCH   1  23
TORSDOF 15
ENDMDL
MODEL 2
REMARK VINA RESULT:     -12.2      4.522      9.738
REMARK SMILES CC(C)(C)c1cc(-n2cnc(C(=O)NCCCNC(=O)c3ccc(-c4c5nc(c(-c6cc(S(=O)(=O)[O-])ccc6F)c6ccc([nH]6)c(-c6cc(S(=O)(=O)[O-])ccc6F)c6nc(c(-c7cc(S(=O)(=O)[O-])ccc7F)c7ccc4[nH]7)C=C6)C=C5)cc3)c2)nc(Cl)n1
REMARK SMILES IDX 16 1 15 2 14 3 12 4 13 5 11 7 8 8 9 9 84 10 10 11 7 12 5 13
REMARK SMILES IDX 6 14 88 15 86 16 85 17 87 18 2 19 1 20 3 21 4 22 17 23 18 24
REMARK SMILES IDX 19 25 20 27 21 28 22 29 83 30 23 31 82 32 24 33 25 34 26 35
REMARK SMILES IDX 76 36 27 37 81 38 75 39 77 40 28 41 80 42 74 43 73 44 29 46
REMARK SMILES IDX 61 47 41 48 60 49 42 50 45 51 59 52 78 53 43 54 44 55 58 57
REMARK SMILES IDX 79 58 46 59 30 60 31 61 39 62 32 63 38 64 40 65 37 66 33 67
REMARK SMILES IDX 34 68 35 69 36 70 62 71 63 72 71 73 64 74 70 75 72 76 69 77
REMARK SMILES IDX 65 78 66 79 67 80 68 81 47 82 48 83 56 84 49 85 55 86 57 87
REMARK SMILES IDX 54 88 50 89 51 90 52 91 53 92
REMARK H PARENT 14 6 18 26 77 45 45 56
REMARK Flexibility Score: inf
ROOT
ATOM      1  C   UNL A   1      31.389  31.114  26.560  1.00  0.00     0.042 C 
ENDROOT
BRANCH   1   2
ATOM      2  C   UNL A   1      31.740  30.276  25.321  1.00  0.00     0.118 C 
BRANCH   2   3
ATOM      3  N   UNL A   1      30.696  30.296  24.308  1.00  0.00    -0.351 N 
ATOM      4  C   UNL A   1      30.131  29.301  23.530  1.00  0.00     0.271 C 
ATOM      5  O   UNL A   1      29.163  29.612  22.848  1.00  0.00    -0.267 OA
ATOM      6  H   UNL A   1      30.320  31.191  24.143  1.00  0.00     0.163 HD
BRANCH   4   7
ATOM      7  C   UNL A   1      30.663  27.927  23.552  1.00  0.00     0.146 A 
ATOM      8  N   UNL A   1      31.292  25.897  24.136  1.00  0.00    -0.290 N 
ATOM      9  C   UNL A   1      31.434  26.039  22.787  1.00  0.00     0.206 A 
ATOM     10  C   UNL A   1      30.943  27.124  24.631  1.00  0.00     0.128 A 
ATOM     11  N   UNL A   1      31.004  27.223  22.396  1.00  0.00    -0.231 NA
BRANCH   8  12
ATOM     12  C   UNL A   1      31.388  24.727  24.912  1.00  0.00     0.143 A 
ATOM     13  C   UNL A   1      32.599  22.760  25.414  1.00  0.00     0.053 A 
ATOM     14  C   UNL A   1      32.501  23.924  24.685  1.00  0.00     0.072 A 
ATOM     15  N   UNL A   1      31.592  22.387  26.236  1.00  0.00    -0.222 NA
ATOM     16  C   UNL A   1      30.559  23.239  26.363  1.00  0.00     0.224 A 
ATOM     17  N   UNL A   1      30.417  24.435  25.786  1.00  0.00    -0.200 NA
ATOM     18  Cl  UNL A   1      29.252  22.696  27.317  1.00  0.00    -0.041 Cl
BRANCH  13  19
ATOM     19  C   UNL A   1      33.864  21.894  25.415  1.00  0.00     0.004 C 
ATOM     20  C   UNL A   1      33.599  20.372  25.460  1.00  0.00     0.017 C 
ATOM     21  C   UNL A   1      34.743  22.249  26.627  1.00  0.00     0.017 C 
ATOM     22  C   UNL A   1      34.632  22.198  24.113  1.00  0.00     0.017 C 
ENDBRANCH  13  19
ENDBRANCH   8  12
ENDBRANCH   4   7
ENDBRANCH   2   3
ENDBRANCH   1   2
BRANCH   1  23
ATOM     23  C   UNL A   1      32.611  31.816  27.128  1.00  0.00     0.118 C 
BRANCH  23  24
ATOM     24  N   UNL A   1      32.369  33.246  27.366  1.00  0.00    -0.352 N 
ATOM     25  C   UNL A   1      32.981  34.089  28.277  1.00  0.00     0.251 C 
ATOM     26  H   UNL A   1      31.678  33.660  26.800  1.00  0.00     0.163 HD
ATOM     27  O   UNL A   1      32.435  35.134  28.610  1.00  0.00    -0.269 OA
BRANCH  25  28
ATOM     28  C   UNL A   1      34.294  33.706  28.828  1.00  0.00     0.039 A 
ATOM     29  C   UNL A   1      34.433  33.041  30.050  1.00  0.00     0.014 A 
ATOM     30  C   UNL A   1      35.409  33.998  28.053  1.00  0.00     0.014 A 
ATOM     31  C   UNL A   1      35.704  32.608  30.432  1.00  0.00     0.010 A 
ATOM     32  C   UNL A   1      36.598  33.382  28.316  1.00  0.00     0.010 A 
ATOM     33  C   UNL A   1      36.781  32.769  29.545  1.00  0.00    -0.014 A 
BRANCH  33  34
ATOM     34  C   UNL A   1      38.093  32.175  29.781  1.00  0.00     0.031 A 
ATOM     35  C   UNL A   1      38.158  30.750  29.368  1.00  0.00     0.074 A 
ATOM     36  C   UNL A   1      39.191  32.915  30.069  1.00  0.00     0.049 A 
ATOM     37  N   UNL A   1      38.164  29.709  30.132  1.00  0.00    -0.248 NA
ATOM     38  C   UNL A   1      37.950  30.430  27.943  1.00  0.00     0.031 C 
ATOM     39  C   UNL A   1      39.294  34.376  30.189  1.00  0.00     0.029 A 
ATOM     40  N   UNL A   1      40.487  32.528  30.210  1.00  0.00    -0.354 N 
ATOM     41  C   UNL A   1      38.289  28.622  29.273  1.00  0.00     0.074 A 
ATOM     42  C   UNL A   1      37.853  29.099  27.991  1.00  0.00     0.031 C 
ATOM     43  C   UNL A   1      40.592  34.753  30.149  1.00  0.00     0.029 A 
ATOM     44  C   UNL A   1      41.425  33.564  30.173  1.00  0.00     0.049 A 
ATOM     45  H   UNL A   1      40.746  31.586  30.330  1.00  0.00     0.167 HD
ATOM     46  C   UNL A   1      39.057  27.552  29.624  1.00  0.00     0.034 A 
ATOM     47  C   UNL A   1      42.787  33.459  30.156  1.00  0.00     0.034 A 
ATOM     48  C   UNL A   1      39.346  27.588  31.048  1.00  0.00     0.049 A 
ATOM     49  C   UNL A   1      43.101  32.105  30.682  1.00  0.00     0.074 A 
ATOM     50  C   UNL A   1      38.570  27.635  32.193  1.00  0.00     0.029 A 
ATOM     51  N   UNL A   1      40.599  28.011  31.443  1.00  0.00    -0.354 N 
ATOM     52  N   UNL A   1      42.839  31.746  31.909  1.00  0.00    -0.248 NA
ATOM     53  C   UNL A   1      43.195  31.013  29.725  1.00  0.00     0.031 C 
ATOM     54  C   UNL A   1      39.243  28.553  33.055  1.00  0.00     0.029 A 
ATOM     55  C   UNL A   1      40.443  28.930  32.451  1.00  0.00     0.049 A 
ATOM     56  H   UNL A   1      41.456  27.707  31.066  1.00  0.00     0.167 HD
ATOM     57  C   UNL A   1      42.293  30.474  31.801  1.00  0.00     0.074 A 
ATOM     58  C   UNL A   1      42.628  30.037  30.444  1.00  0.00     0.031 C 
ATOM     59  C   UNL A   1      41.366  30.024  32.701  1.00  0.00     0.034 A 
BRANCH  46  60
ATOM     60  C   UNL A   1      39.923  26.756  28.656  1.00  0.00     0.023 A 
ATOM     61  C   UNL A   1      41.018  27.443  28.100  1.00  0.00     0.031 A 
ATOM     62  C   UNL A   1      39.596  25.534  28.025  1.00  0.00     0.131 A 
ATOM     63  C   UNL A   1      41.593  27.031  26.887  1.00  0.00     0.055 A 
ATOM     64  C   UNL A   1      40.215  25.094  26.850  1.00  0.00     0.041 A 
ATOM     65  F   UNL A   1      38.629  24.718  28.453  1.00  0.00    -0.206 F 
ATOM     66  C   UNL A   1      41.188  25.868  26.246  1.00  0.00     0.022 A 
BRANCH  63  67
ATOM     67  S   UNL A   1      42.728  28.174  26.065  1.00  0.00     0.124 S 
ATOM     68  O   UNL A   1      42.298  28.049  24.676  1.00  0.00    -0.237 OA
ATOM     69  O   UNL A   1      42.413  29.434  26.728  1.00  0.00    -0.237 OA
ATOM     70  O   UNL A   1      44.044  27.619  26.368  1.00  0.00    -0.744 OA
ENDBRANCH  63  67
ENDBRANCH  46  60
BRANCH  47  71
ATOM     71  C   UNL A   1      43.774  34.308  29.418  1.00  0.00     0.023 A 
ATOM     72  C   UNL A   1      44.314  33.984  28.148  1.00  0.00     0.031 A 
ATOM     73  C   UNL A   1      44.014  35.622  29.880  1.00  0.00     0.131 A 
ATOM     74  C   UNL A   1      45.052  34.950  27.412  1.00  0.00     0.055 A 
ATOM     75  C   UNL A   1      44.735  36.570  29.149  1.00  0.00     0.041 A 
ATOM     76  F   UNL A   1      43.477  36.058  31.031  1.00  0.00    -0.206 F 
ATOM     77  C   UNL A   1      45.251  36.240  27.907  1.00  0.00     0.022 A 
BRANCH  74  78
ATOM     78  S   UNL A   1      45.725  34.572  25.753  1.00  0.00     0.124 S 
ATOM     79  O   UNL A   1      46.598  35.712  25.498  1.00  0.00    -0.237 OA
ATOM     80  O   UNL A   1      46.381  33.287  25.964  1.00  0.00    -0.237 OA
ATOM     81  O   UNL A   1      44.534  34.515  24.903  1.00  0.00    -0.744 OA
ENDBRANCH  74  78
ENDBRANCH  47  71
BRANCH  59  82
ATOM     82  C   UNL A   1      41.156  30.823  33.976  1.00  0.00     0.023 A 
ATOM     83  C   UNL A   1      40.147  31.795  34.180  1.00  0.00     0.031 A 
ATOM     84  C   UNL A   1      41.960  30.482  35.078  1.00  0.00     0.131 A 
ATOM     85  C   UNL A   1      39.988  32.392  35.449  1.00  0.00     0.055 A 
ATOM     86  C   UNL A   1      41.783  31.056  36.335  1.00  0.00     0.041 A 
ATOM     87  F   UNL A   1      42.917  29.546  34.959  1.00  0.00    -0.206 F 
ATOM     88  C   UNL A   1      40.800  32.018  36.524  1.00  0.00     0.022 A 
BRANCH  85  89
ATOM     89  S   UNL A   1      38.728  33.683  35.728  1.00  0.00     0.124 S 
ATOM     90  O   UNL A   1      38.722  33.847  37.177  1.00  0.00    -0.237 OA
ATOM     91  O   UNL A   1      39.250  34.809  34.960  1.00  0.00    -0.237 OA
ATOM     92  O   UNL A   1      37.506  33.090  35.178  1.00  0.00    -0.744 OA
ENDBRANCH  85  89
ENDBRANCH  59  82
ENDBRANCH  33  34
ENDBRANCH  25  28
ENDBRANCH  23  24
ENDBRANCH   1  23
TORSDOF 15
ENDMDL
MODEL 3
REMARK VINA RESULT:     -12.2      4.799     10.044
REMARK SMILES CC(C)(C)c1cc(-n2cnc(C(=O)NCCCNC(=O)c3ccc(-c4c5nc(c(-c6cc(S(=O)(=O)[O-])ccc6F)c6ccc([nH]6)c(-c6cc(S(=O)(=O)[O-])ccc6F)c6nc(c(-c7cc(S(=O)(=O)[O-])ccc7F)c7ccc4[nH]7)C=C6)C=C5)cc3)c2)nc(Cl)n1
REMARK SMILES IDX 16 1 15 2 14 3 12 4 13 5 11 7 8 8 9 9 84 10 10 11 7 12 5 13
REMARK SMILES IDX 6 14 88 15 86 16 85 17 87 18 2 19 1 20 3 21 4 22 17 23 18 24
REMARK SMILES IDX 19 25 20 27 21 28 22 29 83 30 23 31 82 32 24 33 25 34 26 35
REMARK SMILES IDX 76 36 27 37 81 38 75 39 77 40 28 41 80 42 74 43 73 44 29 46
REMARK SMILES IDX 61 47 41 48 60 49 42 50 45 51 59 52 78 53 43 54 44 55 58 57
REMARK SMILES IDX 79 58 46 59 30 60 31 61 39 62 32 63 38 64 40 65 37 66 33 67
REMARK SMILES IDX 34 68 35 69 36 70 62 71 63 72 71 73 64 74 70 75 72 76 69 77
REMARK SMILES IDX 65 78 66 79 67 80 68 81 47 82 48 83 56 84 49 85 55 86 57 87
REMARK SMILES IDX 54 88 50 89 51 90 52 91 53 92
REMARK H PARENT 14 6 18 26 77 45 45 56
REMARK Flexibility Score: inf
ROOT
ATOM      1  C   UNL A   1      35.177  31.690  27.635  1.00  0.00     0.042 C 
ENDROOT
BRANCH   1   2
ATOM      2  C   UNL A   1      33.867  32.074  28.341  1.00  0.00     0.118 C 
BRANCH   2   3
ATOM      3  N   UNL A   1      33.720  33.509  28.524  1.00  0.00    -0.351 N 
ATOM      4  C   UNL A   1      34.024  34.352  29.578  1.00  0.00     0.271 C 
ATOM      5  O   UNL A   1      33.906  35.554  29.380  1.00  0.00    -0.267 OA
ATOM      6  H   UNL A   1      33.329  33.971  27.747  1.00  0.00     0.163 HD
BRANCH   4   7
ATOM      7  C   UNL A   1      34.495  33.814  30.867  1.00  0.00     0.146 A 
ATOM      8  N   UNL A   1      35.697  32.965  32.508  1.00  0.00    -0.290 N 
ATOM      9  C   UNL A   1      34.474  33.328  32.990  1.00  0.00     0.206 A 
ATOM     10  C   UNL A   1      35.658  33.140  31.151  1.00  0.00     0.128 A 
ATOM     11  N   UNL A   1      33.752  33.901  32.046  1.00  0.00    -0.231 NA
BRANCH   8  12
ATOM     12  C   UNL A   1      36.840  32.563  33.223  1.00  0.00     0.143 A 
ATOM     13  C   UNL A   1      39.057  31.746  33.145  1.00  0.00     0.053 A 
ATOM     14  C   UNL A   1      37.937  32.169  32.464  1.00  0.00     0.072 A 
ATOM     15  N   UNL A   1      39.029  31.631  34.492  1.00  0.00    -0.222 NA
ATOM     16  C   UNL A   1      37.905  32.027  35.117  1.00  0.00     0.224 A 
ATOM     17  N   UNL A   1      36.809  32.550  34.562  1.00  0.00    -0.200 NA
ATOM     18  Cl  UNL A   1      37.853  31.768  36.803  1.00  0.00    -0.041 Cl
BRANCH  13  19
ATOM     19  C   UNL A   1      40.395  31.485  32.445  1.00  0.00     0.004 C 
ATOM     20  C   UNL A   1      40.794  29.994  32.361  1.00  0.00     0.017 C 
ATOM     21  C   UNL A   1      41.525  32.227  33.179  1.00  0.00     0.017 C 
ATOM     22  C   UNL A   1      40.275  32.020  31.005  1.00  0.00     0.017 C 
ENDBRANCH  13  19
ENDBRANCH   8  12
ENDBRANCH   4   7
ENDBRANCH   2   3
ENDBRANCH   1   2
BRANCH   1  23
ATOM     23  C   UNL A   1      35.684  30.332  28.093  1.00  0.00     0.118 C 
BRANCH  23  24
ATOM     24  N   UNL A   1      35.765  30.236  29.557  1.00  0.00    -0.352 N 
ATOM     25  C   UNL A   1      36.635  29.487  30.331  1.00  0.00     0.251 C 
ATOM     26  H   UNL A   1      35.111  30.778  30.055  1.00  0.00     0.163 HD
ATOM     27  O   UNL A   1      36.352  29.225  31.494  1.00  0.00    -0.269 OA
BRANCH  25  28
ATOM     28  C   UNL A   1      37.897  29.022  29.729  1.00  0.00     0.039 A 
ATOM     29  C   UNL A   1      38.521  29.692  28.673  1.00  0.00     0.014 A 
ATOM     30  C   UNL A   1      38.480  27.892  30.290  1.00  0.00     0.014 A 
ATOM     31  C   UNL A   1      39.775  29.248  28.249  1.00  0.00     0.010 A 
ATOM     32  C   UNL A   1      39.789  27.605  30.031  1.00  0.00     0.010 A 
ATOM     33  C   UNL A   1      40.410  28.211  28.951  1.00  0.00    -0.014 A 
BRANCH  33  34
ATOM     34  C   UNL A   1      41.794  27.821  28.700  1.00  0.00     0.031 A 
ATOM     35  C   UNL A   1      41.902  26.540  27.958  1.00  0.00     0.074 A 
ATOM     36  C   UNL A   1      42.836  28.670  28.869  1.00  0.00     0.049 A 
ATOM     37  N   UNL A   1      42.245  25.386  28.426  1.00  0.00    -0.248 NA
ATOM     38  C   UNL A   1      41.333  26.474  26.598  1.00  0.00     0.031 C 
ATOM     39  C   UNL A   1      42.801  30.074  29.302  1.00  0.00     0.029 A 
ATOM     40  N   UNL A   1      44.154  28.497  28.581  1.00  0.00    -0.354 N 
ATOM     41  C   UNL A   1      42.244  24.528  27.331  1.00  0.00     0.074 A 
ATOM     42  C   UNL A   1      41.408  25.164  26.352  1.00  0.00     0.031 C 
ATOM     43  C   UNL A   1      43.981  30.674  29.026  1.00  0.00     0.029 A 
ATOM     44  C   UNL A   1      44.917  29.669  28.555  1.00  0.00     0.049 A 
ATOM     45  H   UNL A   1      44.543  27.610  28.405  1.00  0.00     0.167 HD
ATOM     46  C   UNL A   1      43.197  23.561  27.211  1.00  0.00     0.034 A 
ATOM     47  C   UNL A   1      46.220  29.809  28.170  1.00  0.00     0.034 A 
ATOM     48  C   UNL A   1      43.875  23.366  28.483  1.00  0.00     0.049 A 
ATOM     49  C   UNL A   1      46.824  28.456  28.262  1.00  0.00     0.074 A 
ATOM     50  C   UNL A   1      43.458  23.050  29.764  1.00  0.00     0.029 A 
ATOM     51  N   UNL A   1      45.132  23.917  28.637  1.00  0.00    -0.354 N 
ATOM     52  N   UNL A   1      46.967  27.822  29.394  1.00  0.00    -0.248 NA
ATOM     53  C   UNL A   1      46.766  27.606  27.082  1.00  0.00     0.031 C 
ATOM     54  C   UNL A   1      44.239  23.885  30.620  1.00  0.00     0.029 A 
ATOM     55  C   UNL A   1      45.166  24.578  29.840  1.00  0.00     0.049 A 
ATOM     56  H   UNL A   1      45.874  23.848  27.995  1.00  0.00     0.167 HD
ATOM     57  C   UNL A   1      46.563  26.520  29.129  1.00  0.00     0.074 A 
ATOM     58  C   UNL A   1      46.544  26.424  27.668  1.00  0.00     0.031 C 
ATOM     59  C   UNL A   1      45.989  25.746  30.101  1.00  0.00     0.034 A 
BRANCH  46  60
ATOM     60  C   UNL A   1      43.836  23.136  25.896  1.00  0.00     0.023 A 
ATOM     61  C   UNL A   1      43.848  21.753  25.635  1.00  0.00     0.031 A 
ATOM     62  C   UNL A   1      44.673  23.913  25.063  1.00  0.00     0.131 A 
ATOM     63  C   UNL A   1      44.782  21.190  24.751  1.00  0.00     0.055 A 
ATOM     64  C   UNL A   1      45.559  23.351  24.136  1.00  0.00     0.041 A 
ATOM     65  F   UNL A   1      44.743  25.245  25.124  1.00  0.00    -0.206 F 
ATOM     66  C   UNL A   1      45.652  21.978  24.010  1.00  0.00     0.022 A 
BRANCH  63  67
ATOM     67  S   UNL A   1      44.972  19.391  24.764  1.00  0.00     0.124 S 
ATOM     68  O   UNL A   1      43.957  19.007  25.740  1.00  0.00    -0.237 OA
ATOM     69  O   UNL A   1      44.693  19.053  23.374  1.00  0.00    -0.237 OA
ATOM     70  O   UNL A   1      46.356  19.202  25.190  1.00  0.00    -0.744 OA
ENDBRANCH  63  67
ENDBRANCH  46  60
BRANCH  47  71
ATOM     71  C   UNL A   1      46.851  30.947  27.430  1.00  0.00     0.023 A 
ATOM     72  C   UNL A   1      46.133  32.045  26.891  1.00  0.00     0.031 A 
ATOM     73  C   UNL A   1      48.257  31.079  27.464  1.00  0.00     0.131 A 
ATOM     74  C   UNL A   1      46.823  33.194  26.419  1.00  0.00     0.055 A 
ATOM     75  C   UNL A   1      48.930  32.215  27.004  1.00  0.00     0.041 A 
ATOM     76  F   UNL A   1      49.026  30.135  28.030  1.00  0.00    -0.206 F 
ATOM     77  C   UNL A   1      48.215  33.281  26.486  1.00  0.00     0.022 A 
BRANCH  74  78
ATOM     78  S   UNL A   1      45.921  34.641  25.756  1.00  0.00     0.124 S 
ATOM     79  O   UNL A   1      44.843  34.813  26.723  1.00  0.00    -0.237 OA
ATOM     80  O   UNL A   1      46.950  35.674  25.740  1.00  0.00    -0.237 OA
ATOM     81  O   UNL A   1      45.484  34.197  24.431  1.00  0.00    -0.744 OA
ENDBRANCH  74  78
ENDBRANCH  47  71
BRANCH  59  82
ATOM     82  C   UNL A   1      46.062  26.228  31.540  1.00  0.00     0.023 A 
ATOM     83  C   UNL A   1      45.024  26.891  32.237  1.00  0.00     0.031 A 
ATOM     84  C   UNL A   1      47.215  25.884  32.267  1.00  0.00     0.131 A 
ATOM     85  C   UNL A   1      45.175  27.193  33.608  1.00  0.00     0.055 A 
ATOM     86  C   UNL A   1      47.350  26.163  33.625  1.00  0.00     0.041 A 
ATOM     87  F   UNL A   1      48.226  25.230  31.670  1.00  0.00    -0.206 F 
ATOM     88  C   UNL A   1      46.332  26.825  34.300  1.00  0.00     0.022 A 
BRANCH  85  89
ATOM     89  S   UNL A   1      43.873  28.089  34.521  1.00  0.00     0.124 S 
ATOM     90  O   UNL A   1      42.689  27.261  34.329  1.00  0.00    -0.237 OA
ATOM     91  O   UNL A   1      44.408  28.134  35.878  1.00  0.00    -0.237 OA
ATOM     92  O   UNL A   1      43.820  29.391  33.849  1.00  0.00    -0.744 OA
ENDBRANCH  85  89
ENDBRANCH  59  82
ENDBRANCH  33  34
ENDBRANCH  25  28
ENDBRANCH  23  24
ENDBRANCH   1  23
TORSDOF 15
ENDMDL
