MODEL 1
REMARK VINA RESULT:     -12.2      0.000      0.000
REMARK SMILES C[NH+]1CCN(C(=O)c2ccc3c(c2)N(CC(=O)NCCCNC(=O)c2ccc(-c4c5nc(c(-c6cc(S(=O)(=O)[O-])ccc6F)c6ccc([nH]6)c(-c6cc(S(=O)(=O)[O-])ccc6F)c6nc(c(-c7cc(S(=O)(=O)[O-])ccc7F)c7ccc4[nH]7)C=C6)C=C5)cc2)C(=O)CO3)CC1
REMARK SMILES IDX 20 1 19 2 18 3 16 4 17 5 15 7 14 8 8 9 9 10 13 11 10 12
REMARK SMILES IDX 12 13 11 14 91 15 88 16 90 17 89 18 6 19 1 20 2 21 3 22
REMARK SMILES IDX 93 23 4 25 92 26 5 27 7 28 21 29 22 30 23 31 24 33 25 34
REMARK SMILES IDX 26 35 87 36 27 37 86 38 28 39 29 40 30 41 80 42 31 43 85 44
REMARK SMILES IDX 79 45 81 46 32 47 84 48 78 49 77 50 33 52 65 53 45 54 64 55
REMARK SMILES IDX 46 56 49 57 63 58 82 59 47 60 48 61 62 63 83 64 50 65 34 66
REMARK SMILES IDX 35 67 43 68 36 69 42 70 44 71 41 72 37 73 38 74 39 75 40 76
REMARK SMILES IDX 66 77 67 78 75 79 68 80 74 81 76 82 73 83 69 84 70 85 71 86
REMARK SMILES IDX 72 87 51 88 52 89 60 90 53 91 59 92 61 93 58 94 54 95 55 96
REMARK SMILES IDX 56 97 57 98
REMARK H PARENT 18 6 2 24 22 32 81 51 49 62
REMARK Flexibility Score: inf
ROOT
ATOM      1  C   UNL A   1      35.233  23.057  25.164  1.00  0.00     0.042 C 
ENDROOT
BRANCH   1   2
ATOM      2  C   UNL A   1      34.428  22.488  26.328  1.00  0.00     0.117 C 
BRANCH   2   3
ATOM      3  N   UNL A   1      33.533  23.463  26.919  1.00  0.00    -0.354 N 
ATOM      4  C   UNL A   1      32.173  23.530  26.865  1.00  0.00     0.240 C 
ATOM      5  O   UNL A   1      31.613  24.366  27.579  1.00  0.00    -0.273 OA
ATOM      6  H   UNL A   1      33.970  24.180  27.432  1.00  0.00     0.163 HD
BRANCH   4   7
ATOM      7  C   UNL A   1      31.351  22.555  26.012  1.00  0.00     0.225 C 
BRANCH   7   8
ATOM      8  N   UNL A   1      31.732  22.505  24.600  1.00  0.00    -0.296 N 
ATOM      9  C   UNL A   1      31.503  26.079  23.486  1.00  0.00     0.042 A 
ATOM     10  C   UNL A   1      32.112  26.007  22.233  1.00  0.00     0.018 A 
ATOM     11  C   UNL A   1      31.321  24.924  24.260  1.00  0.00     0.044 A 
ATOM     12  C   UNL A   1      32.579  24.780  21.769  1.00  0.00     0.049 A 
ATOM     13  C   UNL A   1      31.806  23.689  23.811  1.00  0.00     0.087 A 
ATOM     14  C   UNL A   1      32.419  23.632  22.548  1.00  0.00     0.143 A 
ATOM     15  O   UNL A   1      32.962  22.492  22.025  1.00  0.00    -0.482 OA
ATOM     16  C   UNL A   1      32.034  21.275  24.031  1.00  0.00     0.265 C 
ATOM     17  C   UNL A   1      32.398  21.310  22.552  1.00  0.00     0.330 C 
ATOM     18  O   UNL A   1      31.956  20.207  24.641  1.00  0.00    -0.270 OA
BRANCH   9  19
ATOM     19  C   UNL A   1      30.998  27.389  23.951  1.00  0.00     0.254 C 
ATOM     20  C   UNL A   1      34.099  30.485  27.415  1.00  0.00     0.332 C 
ATOM     21  N   UNL A   1      33.522  30.069  26.138  1.00  0.00    -0.334 N 
ATOM     22  C   UNL A   1      32.044  30.121  26.189  1.00  0.00     0.283 C 
ATOM     23  C   UNL A   1      33.953  28.694  25.806  1.00  0.00     0.283 C 
ATOM     24  H   UNL A   1      33.852  30.712  25.419  1.00  0.00     0.347 HD
ATOM     25  C   UNL A   1      31.390  29.629  24.882  1.00  0.00     0.181 C 
ATOM     26  C   UNL A   1      33.357  28.216  24.468  1.00  0.00     0.181 C 
ATOM     27  N   UNL A   1      31.891  28.315  24.475  1.00  0.00    -0.327 N 
ATOM     28  O   UNL A   1      29.791  27.592  23.838  1.00  0.00    -0.269 OA
ENDBRANCH   9  19
ENDBRANCH   7   8
ENDBRANCH   4   7
ENDBRANCH   2   3
ENDBRANCH   1   2
BRANCH   1  29
ATOM     29  C   UNL A   1      36.590  23.634  25.562  1.00  0.00     0.118 C 
BRANCH  29  30
ATOM     30  N   UNL A   1      37.575  22.603  25.860  1.00  0.00    -0.352 N 
ATOM     31  C   UNL A   1      38.855  22.705  26.339  1.00  0.00     0.251 C 
ATOM     32  H   UNL A   1      37.273  21.682  25.688  1.00  0.00     0.163 HD
ATOM     33  O   UNL A   1      39.575  21.703  26.324  1.00  0.00    -0.269 OA
BRANCH  31  34
ATOM     34  C   UNL A   1      39.385  23.988  26.852  1.00  0.00     0.039 A 
ATOM     35  C   UNL A   1      40.008  24.865  25.958  1.00  0.00     0.014 A 
ATOM     36  C   UNL A   1      39.310  24.317  28.208  1.00  0.00     0.014 A 
ATOM     37  C   UNL A   1      40.494  26.095  26.411  1.00  0.00     0.010 A 
ATOM     38  C   UNL A   1      39.729  25.573  28.645  1.00  0.00     0.010 A 
ATOM     39  C   UNL A   1      40.325  26.477  27.752  1.00  0.00    -0.014 A 
BRANCH  39  40
ATOM     40  C   UNL A   1      40.756  27.817  28.233  1.00  0.00     0.031 A 
ATOM     41  C   UNL A   1      42.221  28.137  28.373  1.00  0.00     0.074 A 
ATOM     42  C   UNL A   1      39.829  28.723  28.601  1.00  0.00     0.049 A 
ATOM     43  N   UNL A   1      42.791  29.212  28.856  1.00  0.00    -0.248 NA
ATOM     44  C   UNL A   1      43.168  27.099  27.940  1.00  0.00     0.031 C 
ATOM     45  C   UNL A   1      38.379  28.519  28.542  1.00  0.00     0.029 A 
ATOM     46  N   UNL A   1      39.961  29.992  29.109  1.00  0.00    -0.354 N 
ATOM     47  C   UNL A   1      44.161  28.976  28.797  1.00  0.00     0.074 A 
ATOM     48  C   UNL A   1      44.331  27.632  28.285  1.00  0.00     0.031 C 
ATOM     49  C   UNL A   1      37.760  29.628  28.975  1.00  0.00     0.029 A 
ATOM     50  C   UNL A   1      38.761  30.604  29.392  1.00  0.00     0.049 A 
ATOM     51  H   UNL A   1      40.833  30.424  29.257  1.00  0.00     0.167 HD
ATOM     52  C   UNL A   1      45.181  29.810  29.121  1.00  0.00     0.034 A 
ATOM     53  C   UNL A   1      38.496  31.806  29.942  1.00  0.00     0.034 A 
ATOM     54  C   UNL A   1      44.994  31.152  29.619  1.00  0.00     0.049 A 
ATOM     55  C   UNL A   1      39.647  32.703  30.323  1.00  0.00     0.074 A 
ATOM     56  C   UNL A   1      45.956  32.099  29.926  1.00  0.00     0.029 A 
ATOM     57  N   UNL A   1      43.764  31.737  29.894  1.00  0.00    -0.354 N 
ATOM     58  N   UNL A   1      40.937  32.481  30.215  1.00  0.00    -0.248 NA
ATOM     59  C   UNL A   1      39.307  34.014  30.890  1.00  0.00     0.031 C 
ATOM     60  C   UNL A   1      45.314  33.224  30.453  1.00  0.00     0.029 A 
ATOM     61  C   UNL A   1      43.945  33.016  30.398  1.00  0.00     0.049 A 
ATOM     62  H   UNL A   1      42.890  31.305  29.752  1.00  0.00     0.167 HD
ATOM     63  C   UNL A   1      41.560  33.642  30.669  1.00  0.00     0.074 A 
ATOM     64  C   UNL A   1      40.504  34.563  31.036  1.00  0.00     0.031 C 
ATOM     65  C   UNL A   1      42.884  33.923  30.770  1.00  0.00     0.034 A 
BRANCH  52  66
ATOM     66  C   UNL A   1      46.589  29.283  28.972  1.00  0.00     0.023 A 
ATOM     67  C   UNL A   1      47.200  29.151  27.711  1.00  0.00     0.031 A 
ATOM     68  C   UNL A   1      47.328  28.894  30.103  1.00  0.00     0.131 A 
ATOM     69  C   UNL A   1      48.477  28.579  27.607  1.00  0.00     0.055 A 
ATOM     70  C   UNL A   1      48.631  28.402  29.999  1.00  0.00     0.041 A 
ATOM     71  F   UNL A   1      46.793  28.977  31.331  1.00  0.00    -0.206 F 
ATOM     72  C   UNL A   1      49.207  28.228  28.745  1.00  0.00     0.022 A 
BRANCH  69  73
ATOM     73  S   UNL A   1      49.110  28.168  25.958  1.00  0.00     0.124 S 
ATOM     74  O   UNL A   1      47.954  28.465  25.116  1.00  0.00    -0.237 OA
ATOM     75  O   UNL A   1      50.248  29.070  25.823  1.00  0.00    -0.237 OA
ATOM     76  O   UNL A   1      49.446  26.749  26.063  1.00  0.00    -0.744 OA
ENDBRANCH  69  73
ENDBRANCH  52  66
BRANCH  53  77
ATOM     77  C   UNL A   1      37.088  32.232  30.188  1.00  0.00     0.023 A 
ATOM     78  C   UNL A   1      36.355  32.913  29.203  1.00  0.00     0.031 A 
ATOM     79  C   UNL A   1      36.469  32.012  31.432  1.00  0.00     0.131 A 
ATOM     80  C   UNL A   1      35.070  33.397  29.493  1.00  0.00     0.055 A 
ATOM     81  C   UNL A   1      35.168  32.443  31.697  1.00  0.00     0.041 A 
ATOM     82  F   UNL A   1      37.122  31.363  32.410  1.00  0.00    -0.206 F 
ATOM     83  C   UNL A   1      34.466  33.154  30.729  1.00  0.00     0.022 A 
BRANCH  80  84
ATOM     84  S   UNL A   1      34.235  34.439  28.265  1.00  0.00     0.124 S 
ATOM     85  O   UNL A   1      34.106  35.700  28.984  1.00  0.00    -0.237 OA
ATOM     86  O   UNL A   1      35.189  34.424  27.160  1.00  0.00    -0.237 OA
ATOM     87  O   UNL A   1      32.983  33.730  28.013  1.00  0.00    -0.744 OA
ENDBRANCH  80  84
ENDBRANCH  53  77
BRANCH  65  88
ATOM     88  C   UNL A   1      43.259  35.305  31.250  1.00  0.00     0.023 A 
ATOM     89  C   UNL A   1      43.324  35.623  32.618  1.00  0.00     0.031 A 
ATOM     90  C   UNL A   1      43.548  36.320  30.321  1.00  0.00     0.131 A 
ATOM     91  C   UNL A   1      43.609  36.937  33.017  1.00  0.00     0.055 A 
ATOM     92  C   UNL A   1      43.895  37.610  30.725  1.00  0.00     0.041 A 
ATOM     93  F   UNL A   1      43.499  36.075  29.001  1.00  0.00    -0.206 F 
ATOM     94  C   UNL A   1      43.913  37.928  32.080  1.00  0.00     0.022 A 
BRANCH  91  95
ATOM     95  S   UNL A   1      43.485  37.362  34.776  1.00  0.00     0.124 S 
ATOM     96  O   UNL A   1      42.068  37.134  35.043  1.00  0.00    -0.237 OA
ATOM     97  O   UNL A   1      44.410  36.415  35.392  1.00  0.00    -0.237 OA
ATOM     98  O   UNL A   1      43.908  38.759  34.823  1.00  0.00    -0.744 OA
ENDBRANCH  91  95
ENDBRANCH  65  88
ENDBRANCH  39  40
ENDBRANCH  31  34
ENDBRANCH  29  30
ENDBRANCH   1  29
TORSDOF 15
ENDMDL
MODEL 2
REMARK VINA RESULT:     -12.1      4.509      8.360
REMARK SMILES C[NH+]1CCN(C(=O)c2ccc3c(c2)N(CC(=O)NCCCNC(=O)c2ccc(-c4c5nc(c(-c6cc(S(=O)(=O)[O-])ccc6F)c6ccc([nH]6)c(-c6cc(S(=O)(=O)[O-])ccc6F)c6nc(c(-c7cc(S(=O)(=O)[O-])ccc7F)c7ccc4[nH]7)C=C6)C=C5)cc2)C(=O)CO3)CC1
REMARK SMILES IDX 20 1 19 2 18 3 16 4 17 5 15 7 14 8 8 9 9 10 13 11 10 12
REMARK SMILES IDX 12 13 11 14 91 15 88 16 90 17 89 18 6 19 1 20 2 21 3 22
REMARK SMILES IDX 93 23 4 25 92 26 5 27 7 28 21 29 22 30 23 31 24 33 25 34
REMARK SMILES IDX 26 35 87 36 27 37 86 38 28 39 29 40 30 41 80 42 31 43 85 44
REMARK SMILES IDX 79 45 81 46 32 47 84 48 78 49 77 50 33 52 65 53 45 54 64 55
REMARK SMILES IDX 46 56 49 57 63 58 82 59 47 60 48 61 62 63 83 64 50 65 34 66
REMARK SMILES IDX 35 67 43 68 36 69 42 70 44 71 41 72 37 73 38 74 39 75 40 76
REMARK SMILES IDX 66 77 67 78 75 79 68 80 74 81 76 82 73 83 69 84 70 85 71 86
REMARK SMILES IDX 72 87 51 88 52 89 60 90 53 91 59 92 61 93 58 94 54 95 55 96
REMARK SMILES IDX 56 97 57 98
REMARK H PARENT 18 6 2 24 22 32 81 51 49 62
REMARK Flexibility Score: inf
ROOT
ATOM      1  C   UNL A   1      31.496  32.401  26.803  1.00  0.00     0.042 C 
ENDROOT
BRANCH   1   2
ATOM      2  C   UNL A   1      31.555  30.928  27.197  1.00  0.00     0.117 C 
BRANCH   2   3
ATOM      3  N   UNL A   1      32.820  30.308  26.856  1.00  0.00    -0.354 N 
ATOM      4  C   UNL A   1      33.059  29.120  26.233  1.00  0.00     0.240 C 
ATOM      5  O   UNL A   1      34.222  28.868  25.907  1.00  0.00    -0.273 OA
ATOM      6  H   UNL A   1      33.622  30.817  27.114  1.00  0.00     0.163 HD
BRANCH   4   7
ATOM      7  C   UNL A   1      31.921  28.156  25.872  1.00  0.00     0.225 C 
BRANCH   7   8
ATOM      8  N   UNL A   1      31.648  28.039  24.440  1.00  0.00    -0.296 N 
ATOM      9  C   UNL A   1      33.446  24.901  23.442  1.00  0.00     0.042 A 
ATOM     10  C   UNL A   1      32.946  24.706  22.154  1.00  0.00     0.018 A 
ATOM     11  C   UNL A   1      33.069  26.024  24.192  1.00  0.00     0.044 A 
ATOM     12  C   UNL A   1      32.034  25.617  21.629  1.00  0.00     0.049 A 
ATOM     13  C   UNL A   1      32.135  26.935  23.681  1.00  0.00     0.087 A 
ATOM     14  C   UNL A   1      31.639  26.725  22.384  1.00  0.00     0.143 A 
ATOM     15  O   UNL A   1      30.699  27.525  21.797  1.00  0.00    -0.482 OA
ATOM     16  C   UNL A   1      30.889  29.022  23.820  1.00  0.00     0.265 C 
ATOM     17  C   UNL A   1      30.671  28.835  22.323  1.00  0.00     0.330 C 
ATOM     18  O   UNL A   1      30.465  30.022  24.402  1.00  0.00    -0.270 OA
BRANCH   9  19
ATOM     19  C   UNL A   1      34.427  23.932  23.973  1.00  0.00     0.254 C 
ATOM     20  C   UNL A   1      32.758  18.802  25.421  1.00  0.00     0.332 C 
ATOM     21  N   UNL A   1      33.364  19.828  24.575  1.00  0.00    -0.334 N 
ATOM     22  C   UNL A   1      34.489  20.487  25.274  1.00  0.00     0.283 C 
ATOM     23  C   UNL A   1      32.357  20.845  24.201  1.00  0.00     0.283 C 
ATOM     24  H   UNL A   1      33.718  19.373  23.733  1.00  0.00     0.347 HD
ATOM     25  C   UNL A   1      35.120  21.621  24.442  1.00  0.00     0.181 C 
ATOM     26  C   UNL A   1      32.962  21.948  23.314  1.00  0.00     0.181 C 
ATOM     27  N   UNL A   1      34.119  22.578  23.965  1.00  0.00    -0.327 N 
ATOM     28  O   UNL A   1      35.489  24.388  24.394  1.00  0.00    -0.269 OA
ENDBRANCH   9  19
ENDBRANCH   7   8
ENDBRANCH   4   7
ENDBRANCH   2   3
ENDBRANCH   1   2
BRANCH   1  29
ATOM     29  C   UNL A   1      32.797  33.166  27.039  1.00  0.00     0.118 C 
BRANCH  29  30
ATOM     30  N   UNL A   1      32.596  34.401  27.785  1.00  0.00    -0.352 N 
ATOM     31  C   UNL A   1      33.173  34.843  28.947  1.00  0.00     0.251 C 
ATOM     32  H   UNL A   1      31.939  35.019  27.391  1.00  0.00     0.163 HD
ATOM     33  O   UNL A   1      32.698  35.839  29.502  1.00  0.00    -0.269 OA
BRANCH  31  34
ATOM     34  C   UNL A   1      34.329  34.143  29.548  1.00  0.00     0.039 A 
ATOM     35  C   UNL A   1      35.621  34.537  29.182  1.00  0.00     0.014 A 
ATOM     36  C   UNL A   1      34.154  33.078  30.435  1.00  0.00     0.014 A 
ATOM     37  C   UNL A   1      36.730  33.909  29.755  1.00  0.00     0.010 A 
ATOM     38  C   UNL A   1      35.260  32.502  31.060  1.00  0.00     0.010 A 
ATOM     39  C   UNL A   1      36.561  32.911  30.728  1.00  0.00    -0.014 A 
BRANCH  39  40
ATOM     40  C   UNL A   1      37.729  32.293  31.411  1.00  0.00     0.031 A 
ATOM     41  C   UNL A   1      38.473  31.156  30.764  1.00  0.00     0.074 A 
ATOM     42  C   UNL A   1      38.080  32.716  32.642  1.00  0.00     0.049 A 
ATOM     43  N   UNL A   1      39.456  30.433  31.238  1.00  0.00    -0.248 NA
ATOM     44  C   UNL A   1      38.033  30.762  29.417  1.00  0.00     0.031 C 
ATOM     45  C   UNL A   1      37.416  33.789  33.387  1.00  0.00     0.029 A 
ATOM     46  N   UNL A   1      39.073  32.293  33.491  1.00  0.00    -0.354 N 
ATOM     47  C   UNL A   1      39.744  29.491  30.255  1.00  0.00     0.074 A 
ATOM     48  C   UNL A   1      38.792  29.700  29.185  1.00  0.00     0.031 C 
ATOM     49  C   UNL A   1      38.032  33.950  34.569  1.00  0.00     0.029 A 
ATOM     50  C   UNL A   1      39.100  32.964  34.692  1.00  0.00     0.049 A 
ATOM     51  H   UNL A   1      39.707  31.575  33.261  1.00  0.00     0.167 HD
ATOM     52  C   UNL A   1      40.724  28.553  30.240  1.00  0.00     0.034 A 
ATOM     53  C   UNL A   1      39.881  32.792  35.777  1.00  0.00     0.034 A 
ATOM     54  C   UNL A   1      41.673  28.365  31.311  1.00  0.00     0.049 A 
ATOM     55  C   UNL A   1      40.943  31.722  35.748  1.00  0.00     0.074 A 
ATOM     56  C   UNL A   1      42.737  27.482  31.375  1.00  0.00     0.029 A 
ATOM     57  N   UNL A   1      41.668  29.063  32.513  1.00  0.00    -0.354 N 
ATOM     58  N   UNL A   1      41.233  30.872  34.790  1.00  0.00    -0.248 NA
ATOM     59  C   UNL A   1      41.789  31.595  36.941  1.00  0.00     0.031 C 
ATOM     60  C   UNL A   1      43.329  27.595  32.637  1.00  0.00     0.029 A 
ATOM     61  C   UNL A   1      42.688  28.606  33.334  1.00  0.00     0.049 A 
ATOM     62  H   UNL A   1      41.032  29.777  32.747  1.00  0.00     0.167 HD
ATOM     63  C   UNL A   1      42.319  30.133  35.255  1.00  0.00     0.074 A 
ATOM     64  C   UNL A   1      42.640  30.649  36.570  1.00  0.00     0.031 C 
ATOM     65  C   UNL A   1      42.993  29.123  34.649  1.00  0.00     0.034 A 
BRANCH  52  66
ATOM     66  C   UNL A   1      40.800  27.641  29.037  1.00  0.00     0.023 A 
ATOM     67  C   UNL A   1      41.731  27.854  28.004  1.00  0.00     0.031 A 
ATOM     68  C   UNL A   1      39.922  26.550  28.914  1.00  0.00     0.131 A 
ATOM     69  C   UNL A   1      41.714  27.036  26.865  1.00  0.00     0.055 A 
ATOM     70  C   UNL A   1      39.965  25.689  27.815  1.00  0.00     0.041 A 
ATOM     71  F   UNL A   1      38.998  26.306  29.856  1.00  0.00    -0.206 F 
ATOM     72  C   UNL A   1      40.855  25.939  26.775  1.00  0.00     0.022 A 
BRANCH  69  73
ATOM     73  S   UNL A   1      42.732  27.513  25.441  1.00  0.00     0.124 S 
ATOM     74  O   UNL A   1      42.011  28.682  24.942  1.00  0.00    -0.237 OA
ATOM     75  O   UNL A   1      44.028  27.774  26.054  1.00  0.00    -0.237 OA
ATOM     76  O   UNL A   1      42.677  26.339  24.572  1.00  0.00    -0.744 OA
ENDBRANCH  69  73
ENDBRANCH  52  66
BRANCH  53  77
ATOM     77  C   UNL A   1      39.685  33.635  36.992  1.00  0.00     0.023 A 
ATOM     78  C   UNL A   1      40.497  34.753  37.237  1.00  0.00     0.031 A 
ATOM     79  C   UNL A   1      38.716  33.303  37.956  1.00  0.00     0.131 A 
ATOM     80  C   UNL A   1      40.365  35.468  38.438  1.00  0.00     0.055 A 
ATOM     81  C   UNL A   1      38.546  34.053  39.122  1.00  0.00     0.041 A 
ATOM     82  F   UNL A   1      37.909  32.246  37.773  1.00  0.00    -0.206 F 
ATOM     83  C   UNL A   1      39.384  35.134  39.376  1.00  0.00     0.022 A 
BRANCH  80  84
ATOM     84  S   UNL A   1      41.559  36.782  38.804  1.00  0.00     0.124 S 
ATOM     85  O   UNL A   1      42.373  36.163  39.843  1.00  0.00    -0.237 OA
ATOM     86  O   UNL A   1      42.206  36.971  37.509  1.00  0.00    -0.237 OA
ATOM     87  O   UNL A   1      40.719  37.893  39.245  1.00  0.00    -0.744 OA
ENDBRANCH  80  84
ENDBRANCH  53  77
BRANCH  65  88
ATOM     88  C   UNL A   1      44.178  28.547  35.386  1.00  0.00     0.023 A 
ATOM     89  C   UNL A   1      44.037  27.503  36.318  1.00  0.00     0.031 A 
ATOM     90  C   UNL A   1      45.467  29.059  35.158  1.00  0.00     0.131 A 
ATOM     91  C   UNL A   1      45.156  27.046  37.030  1.00  0.00     0.055 A 
ATOM     92  C   UNL A   1      46.588  28.556  35.822  1.00  0.00     0.041 A 
ATOM     93  F   UNL A   1      45.662  30.058  34.282  1.00  0.00    -0.206 F 
ATOM     94  C   UNL A   1      46.432  27.553  36.775  1.00  0.00     0.022 A 
BRANCH  91  95
ATOM     95  S   UNL A   1      44.909  25.845  38.366  1.00  0.00     0.124 S 
ATOM     96  O   UNL A   1      46.278  25.433  38.659  1.00  0.00    -0.237 OA
ATOM     97  O   UNL A   1      44.252  26.649  39.392  1.00  0.00    -0.237 OA
ATOM     98  O   UNL A   1      44.070  24.817  37.754  1.00  0.00    -0.744 OA
ENDBRANCH  91  95
ENDBRANCH  65  88
ENDBRANCH  39  40
ENDBRANCH  31  34
ENDBRANCH  29  30
ENDBRANCH   1  29
TORSDOF 15
ENDMDL
MODEL 3
REMARK VINA RESULT:     -12.1      3.710      8.685
REMARK SMILES C[NH+]1CCN(C(=O)c2ccc3c(c2)N(CC(=O)NCCCNC(=O)c2ccc(-c4c5nc(c(-c6cc(S(=O)(=O)[O-])ccc6F)c6ccc([nH]6)c(-c6cc(S(=O)(=O)[O-])ccc6F)c6nc(c(-c7cc(S(=O)(=O)[O-])ccc7F)c7ccc4[nH]7)C=C6)C=C5)cc2)C(=O)CO3)CC1
REMARK SMILES IDX 20 1 19 2 18 3 16 4 17 5 15 7 14 8 8 9 9 10 13 11 10 12
REMARK SMILES IDX 12 13 11 14 91 15 88 16 90 17 89 18 6 19 1 20 2 21 3 22
REMARK SMILES IDX 93 23 4 25 92 26 5 27 7 28 21 29 22 30 23 31 24 33 25 34
REMARK SMILES IDX 26 35 87 36 27 37 86 38 28 39 29 40 30 41 80 42 31 43 85 44
REMARK SMILES IDX 79 45 81 46 32 47 84 48 78 49 77 50 33 52 65 53 45 54 64 55
REMARK SMILES IDX 46 56 49 57 63 58 82 59 47 60 48 61 62 63 83 64 50 65 34 66
REMARK SMILES IDX 35 67 43 68 36 69 42 70 44 71 41 72 37 73 38 74 39 75 40 76
REMARK SMILES IDX 66 77 67 78 75 79 68 80 74 81 76 82 73 83 69 84 70 85 71 86
REMARK SMILES IDX 72 87 51 88 52 89 60 90 53 91 59 92 61 93 58 94 54 95 55 96
REMARK SMILES IDX 56 97 57 98
REMARK H PARENT 18 6 2 24 22 32 81 51 49 62
REMARK Flexibility Score: inf
ROOT
ATOM      1  C   UNL A   1      38.295  20.190  24.868  1.00  0.00     0.042 C 
ENDROOT
BRANCH   1   2
ATOM      2  C   UNL A   1      36.826  20.364  25.242  1.00  0.00     0.117 C 
BRANCH   2   3
ATOM      3  N   UNL A   1      36.491  21.736  25.570  1.00  0.00    -0.354 N 
ATOM      4  C   UNL A   1      35.325  22.246  26.058  1.00  0.00     0.240 C 
ATOM      5  O   UNL A   1      35.322  23.429  26.411  1.00  0.00    -0.273 OA
ATOM      6  H   UNL A   1      37.207  22.393  25.417  1.00  0.00     0.163 HD
BRANCH   4   7
ATOM      7  C   UNL A   1      34.077  21.373  26.242  1.00  0.00     0.225 C 
BRANCH   7   8
ATOM      8  N   UNL A   1      33.227  21.261  25.056  1.00  0.00    -0.296 N 
ATOM      9  C   UNL A   1      31.186  24.408  25.123  1.00  0.00     0.042 A 
ATOM     10  C   UNL A   1      30.595  24.369  23.860  1.00  0.00     0.018 A 
ATOM     11  C   UNL A   1      32.017  23.365  25.556  1.00  0.00     0.044 A 
ATOM     12  C   UNL A   1      30.868  23.300  23.010  1.00  0.00     0.049 A 
ATOM     13  C   UNL A   1      32.314  22.296  24.700  1.00  0.00     0.087 A 
ATOM     14  C   UNL A   1      31.714  22.271  23.431  1.00  0.00     0.143 A 
ATOM     15  O   UNL A   1      31.958  21.301  22.500  1.00  0.00    -0.482 OA
ATOM     16  C   UNL A   1      33.327  20.125  24.265  1.00  0.00     0.265 C 
ATOM     17  C   UNL A   1      32.391  20.080  23.063  1.00  0.00     0.330 C 
ATOM     18  O   UNL A   1      34.066  19.175  24.530  1.00  0.00    -0.270 OA
BRANCH   9  19
ATOM     19  C   UNL A   1      30.868  25.542  26.016  1.00  0.00     0.254 C 
ATOM     20  C   UNL A   1      34.805  29.319  27.215  1.00  0.00     0.332 C 
ATOM     21  N   UNL A   1      33.629  28.773  26.540  1.00  0.00    -0.334 N 
ATOM     22  C   UNL A   1      32.569  28.443  27.518  1.00  0.00     0.283 C 
ATOM     23  C   UNL A   1      33.993  27.555  25.783  1.00  0.00     0.283 C 
ATOM     24  H   UNL A   1      33.278  29.482  25.896  1.00  0.00     0.347 HD
ATOM     25  C   UNL A   1      31.332  27.804  26.856  1.00  0.00     0.181 C 
ATOM     26  C   UNL A   1      32.775  26.946  25.063  1.00  0.00     0.181 C 
ATOM     27  N   UNL A   1      31.686  26.665  26.008  1.00  0.00    -0.327 N 
ATOM     28  O   UNL A   1      29.870  25.429  26.726  1.00  0.00    -0.269 OA
ENDBRANCH   9  19
ENDBRANCH   7   8
ENDBRANCH   4   7
ENDBRANCH   2   3
ENDBRANCH   1   2
BRANCH   1  29
ATOM     29  C   UNL A   1      39.261  20.321  26.045  1.00  0.00     0.118 C 
BRANCH  29  30
ATOM     30  N   UNL A   1      40.323  19.325  26.015  1.00  0.00    -0.352 N 
ATOM     31  C   UNL A   1      41.685  19.474  26.052  1.00  0.00     0.251 C 
ATOM     32  H   UNL A   1      40.012  18.393  25.958  1.00  0.00     0.163 HD
ATOM     33  O   UNL A   1      42.395  18.492  25.812  1.00  0.00    -0.269 OA
BRANCH  31  34
ATOM     34  C   UNL A   1      42.309  20.781  26.355  1.00  0.00     0.039 A 
ATOM     35  C   UNL A   1      42.671  21.617  25.293  1.00  0.00     0.014 A 
ATOM     36  C   UNL A   1      42.577  21.173  27.668  1.00  0.00     0.014 A 
ATOM     37  C   UNL A   1      43.238  22.868  25.552  1.00  0.00     0.010 A 
ATOM     38  C   UNL A   1      43.075  22.449  27.927  1.00  0.00     0.010 A 
ATOM     39  C   UNL A   1      43.410  23.312  26.873  1.00  0.00    -0.014 A 
BRANCH  39  40
ATOM     40  C   UNL A   1      43.930  24.674  27.167  1.00  0.00     0.031 A 
ATOM     41  C   UNL A   1      43.006  25.744  27.686  1.00  0.00     0.074 A 
ATOM     42  C   UNL A   1      45.221  24.965  26.908  1.00  0.00     0.049 A 
ATOM     43  N   UNL A   1      43.251  27.009  27.918  1.00  0.00    -0.248 NA
ATOM     44  C   UNL A   1      41.617  25.343  27.952  1.00  0.00     0.031 C 
ATOM     45  C   UNL A   1      46.207  24.022  26.373  1.00  0.00     0.029 A 
ATOM     46  N   UNL A   1      45.927  26.134  27.047  1.00  0.00    -0.354 N 
ATOM     47  C   UNL A   1      42.046  27.558  28.345  1.00  0.00     0.074 A 
ATOM     48  C   UNL A   1      41.060  26.499  28.282  1.00  0.00     0.031 C 
ATOM     49  C   UNL A   1      47.390  24.645  26.249  1.00  0.00     0.029 A 
ATOM     50  C   UNL A   1      47.240  26.042  26.644  1.00  0.00     0.049 A 
ATOM     51  H   UNL A   1      45.530  26.963  27.401  1.00  0.00     0.167 HD
ATOM     52  C   UNL A   1      41.791  28.822  28.766  1.00  0.00     0.034 A 
ATOM     53  C   UNL A   1      48.208  26.977  26.582  1.00  0.00     0.034 A 
ATOM     54  C   UNL A   1      42.789  29.863  28.833  1.00  0.00     0.049 A 
ATOM     55  C   UNL A   1      47.892  28.383  27.028  1.00  0.00     0.074 A 
ATOM     56  C   UNL A   1      42.651  31.160  29.296  1.00  0.00     0.029 A 
ATOM     57  N   UNL A   1      44.108  29.732  28.416  1.00  0.00    -0.354 N 
ATOM     58  N   UNL A   1      46.758  28.873  27.474  1.00  0.00    -0.248 NA
ATOM     59  C   UNL A   1      48.988  29.358  26.971  1.00  0.00     0.031 C 
ATOM     60  C   UNL A   1      43.861  31.832  29.092  1.00  0.00     0.029 A 
ATOM     61  C   UNL A   1      44.783  30.933  28.579  1.00  0.00     0.049 A 
ATOM     62  H   UNL A   1      44.506  28.906  28.056  1.00  0.00     0.167 HD
ATOM     63  C   UNL A   1      47.017  30.206  27.783  1.00  0.00     0.074 A 
ATOM     64  C   UNL A   1      48.416  30.436  27.487  1.00  0.00     0.031 C 
ATOM     65  C   UNL A   1      46.177  31.153  28.271  1.00  0.00     0.034 A 
BRANCH  52  66
ATOM     66  C   UNL A   1      40.371  29.154  29.163  1.00  0.00     0.023 A 
ATOM     67  C   UNL A   1      39.952  29.126  30.506  1.00  0.00     0.031 A 
ATOM     68  C   UNL A   1      39.419  29.491  28.185  1.00  0.00     0.131 A 
ATOM     69  C   UNL A   1      38.606  29.357  30.824  1.00  0.00     0.055 A 
ATOM     70  C   UNL A   1      38.099  29.802  28.518  1.00  0.00     0.041 A 
ATOM     71  F   UNL A   1      39.753  29.516  26.885  1.00  0.00    -0.206 F 
ATOM     72  C   UNL A   1      37.681  29.721  29.842  1.00  0.00     0.022 A 
BRANCH  69  73
ATOM     73  S   UNL A   1      38.050  29.036  32.521  1.00  0.00     0.124 S 
ATOM     74  O   UNL A   1      38.842  30.002  33.278  1.00  0.00    -0.237 OA
ATOM     75  O   UNL A   1      36.619  29.305  32.440  1.00  0.00    -0.237 OA
ATOM     76  O   UNL A   1      38.411  27.637  32.741  1.00  0.00    -0.744 OA
ENDBRANCH  69  73
ENDBRANCH  52  66
BRANCH  53  77
ATOM     77  C   UNL A   1      49.563  26.631  26.064  1.00  0.00     0.023 A 
ATOM     78  C   UNL A   1      49.990  27.072  24.801  1.00  0.00     0.031 A 
ATOM     79  C   UNL A   1      50.434  25.809  26.802  1.00  0.00     0.131 A 
ATOM     80  C   UNL A   1      51.227  26.647  24.291  1.00  0.00     0.055 A 
ATOM     81  C   UNL A   1      51.689  25.437  26.316  1.00  0.00     0.041 A 
ATOM     82  F   UNL A   1      50.079  25.361  28.017  1.00  0.00    -0.206 F 
ATOM     83  C   UNL A   1      52.085  25.844  25.046  1.00  0.00     0.022 A 
BRANCH  80  84
ATOM     84  S   UNL A   1      51.655  27.077  22.582  1.00  0.00     0.124 S 
ATOM     85  O   UNL A   1      50.411  26.783  21.881  1.00  0.00    -0.237 OA
ATOM     86  O   UNL A   1      52.005  28.488  22.705  1.00  0.00    -0.237 OA
ATOM     87  O   UNL A   1      52.772  26.185  22.277  1.00  0.00    -0.744 OA
ENDBRANCH  80  84
ENDBRANCH  53  77
BRANCH  65  88
ATOM     88  C   UNL A   1      46.767  32.512  28.564  1.00  0.00     0.023 A 
ATOM     89  C   UNL A   1      46.869  33.506  27.574  1.00  0.00     0.031 A 
ATOM     90  C   UNL A   1      47.243  32.812  29.852  1.00  0.00     0.131 A 
ATOM     91  C   UNL A   1      47.488  34.729  27.873  1.00  0.00     0.055 A 
ATOM     92  C   UNL A   1      47.799  34.055  30.162  1.00  0.00     0.041 A 
ATOM     93  F   UNL A   1      47.175  31.901  30.837  1.00  0.00    -0.206 F 
ATOM     94  C   UNL A   1      47.936  35.016  29.165  1.00  0.00     0.022 A 
BRANCH  91  95
ATOM     95  S   UNL A   1      47.786  35.908  26.527  1.00  0.00     0.124 S 
ATOM     96  O   UNL A   1      46.466  36.505  26.351  1.00  0.00    -0.237 OA
ATOM     97  O   UNL A   1      48.809  36.780  27.097  1.00  0.00    -0.237 OA
ATOM     98  O   UNL A   1      48.237  35.064  25.424  1.00  0.00    -0.744 OA
ENDBRANCH  91  95
ENDBRANCH  65  88
ENDBRANCH  39  40
ENDBRANCH  31  34
ENDBRANCH  29  30
ENDBRANCH   1  29
TORSDOF 15
ENDMDL
