MODEL 1
REMARK VINA RESULT:     -11.7      0.000      0.000
REMARK SMILES Cc1ccc(OCCC[N@H+]2CCCC[C@@H]2C(=O)NCCCNC(=O)c2ccc(-c3c4nc(c(-c5cc(S(=O)(=O)[O-])ccc5F)c5ccc([nH]5)c(-c5cc(S(=O)(=O)[O-])ccc5F)c5nc(c(-c6cc(S(=O)(=O)[O-])ccc6F)c6ccc3[nH]6)C=C5)C=C4)cc2)cc1C
REMARK SMILES IDX 19 1 18 2 16 3 17 4 15 6 10 7 11 8 12 10 14 11 13 12 9 13
REMARK SMILES IDX 8 14 7 15 6 16 5 17 1 18 2 19 3 20 89 21 4 22 88 23 90 24
REMARK SMILES IDX 20 25 21 26 22 27 23 28 24 30 25 31 26 32 87 33 27 34 86 35
REMARK SMILES IDX 28 36 29 37 30 38 80 39 31 40 85 41 79 42 81 43 32 44 84 45
REMARK SMILES IDX 78 46 77 47 33 49 65 50 45 51 64 52 46 53 49 54 63 55 82 56
REMARK SMILES IDX 47 57 48 58 62 60 83 61 50 62 34 63 35 64 43 65 36 66 42 67
REMARK SMILES IDX 44 68 41 69 37 70 38 71 39 72 40 73 66 74 67 75 75 76 68 77
REMARK SMILES IDX 74 78 76 79 73 80 69 81 70 82 71 83 72 84 51 85 52 86 60 87
REMARK SMILES IDX 53 88 59 89 61 90 58 91 54 92 55 93 56 94 57 95
REMARK H PARENT 18 5 10 9 22 29 81 48 49 59
REMARK Flexibility Score: inf
ROOT
ATOM      1  C   UNL A   1      32.317  29.580  26.276  1.00  0.00     0.118 C 
ENDROOT
BRANCH   1   2
ATOM      2  N   UNL A   1      32.649  29.445  24.864  1.00  0.00    -0.351 N 
ATOM      3  C   UNL A   1      31.840  29.220  23.788  1.00  0.00     0.278 C 
ATOM      4  O   UNL A   1      32.372  29.037  22.687  1.00  0.00    -0.268 OA
ATOM      5  H   UNL A   1      33.607  29.528  24.653  1.00  0.00     0.163 HD
BRANCH   3   6
ATOM      6  C   UNL A   1      30.308  29.121  23.919  1.00  0.00     0.274 C 
ATOM      7  N   UNL A   1      29.762  27.859  23.312  1.00  0.00    -0.325 N 
ATOM      8  C   UNL A   1      28.282  27.898  23.297  1.00  0.00     0.262 C 
ATOM      9  H   UNL A   1      30.114  27.785  22.358  1.00  0.00     0.348 HD
ATOM     10  C   UNL A   1      27.698  29.173  22.685  1.00  0.00     0.062 C 
ATOM     11  C   UNL A   1      29.716  30.430  23.373  1.00  0.00     0.076 C 
ATOM     12  C   UNL A   1      28.202  30.408  23.416  1.00  0.00     0.012 C 
BRANCH   7  13
ATOM     13  C   UNL A   1      30.202  26.677  24.102  1.00  0.00     0.266 C 
BRANCH  13  14
ATOM     14  C   UNL A   1      30.808  25.514  23.291  1.00  0.00     0.103 C 
BRANCH  14  15
ATOM     15  C   UNL A   1      32.334  25.551  23.133  1.00  0.00     0.235 C 
BRANCH  15  16
ATOM     16  O   UNL A   1      33.041  25.502  24.391  1.00  0.00    -0.493 OA
BRANCH  16  17
ATOM     17  C   UNL A   1      34.099  24.632  24.339  1.00  0.00     0.119 A 
ATOM     18  C   UNL A   1      37.134  21.587  24.251  1.00  0.00     0.044 C 
ATOM     19  C   UNL A   1      36.145  22.720  24.279  1.00  0.00    -0.048 A 
ATOM     20  C   UNL A   1      35.166  22.759  23.279  1.00  0.00     0.007 A 
ATOM     21  C   UNL A   1      36.177  23.745  25.245  1.00  0.00    -0.045 A 
ATOM     22  C   UNL A   1      34.179  23.739  23.284  1.00  0.00     0.047 A 
ATOM     23  C   UNL A   1      35.124  24.684  25.284  1.00  0.00     0.050 A 
ATOM     24  C   UNL A   1      37.355  23.934  26.164  1.00  0.00     0.045 C 
ENDBRANCH  16  17
ENDBRANCH  15  16
ENDBRANCH  14  15
ENDBRANCH  13  14
ENDBRANCH   7  13
ENDBRANCH   3   6
ENDBRANCH   1   2
BRANCH   1  25
ATOM     25  C   UNL A   1      31.888  30.996  26.630  1.00  0.00     0.042 C 
BRANCH  25  26
ATOM     26  C   UNL A   1      33.013  31.827  27.240  1.00  0.00     0.118 C 
BRANCH  26  27
ATOM     27  N   UNL A   1      32.651  33.231  27.416  1.00  0.00    -0.352 N 
ATOM     28  C   UNL A   1      33.129  34.154  28.321  1.00  0.00     0.251 C 
ATOM     29  H   UNL A   1      31.963  33.567  26.797  1.00  0.00     0.163 HD
ATOM     30  O   UNL A   1      32.585  35.241  28.436  1.00  0.00    -0.269 OA
BRANCH  28  31
ATOM     31  C   UNL A   1      34.290  33.800  29.168  1.00  0.00     0.039 A 
ATOM     32  C   UNL A   1      34.106  32.952  30.262  1.00  0.00     0.014 A 
ATOM     33  C   UNL A   1      35.563  34.281  28.855  1.00  0.00     0.014 A 
ATOM     34  C   UNL A   1      35.217  32.507  30.985  1.00  0.00     0.010 A 
ATOM     35  C   UNL A   1      36.672  33.777  29.525  1.00  0.00     0.010 A 
ATOM     36  C   UNL A   1      36.512  32.877  30.591  1.00  0.00    -0.014 A 
BRANCH  36  37
ATOM     37  C   UNL A   1      37.726  32.344  31.263  1.00  0.00     0.031 A 
ATOM     38  C   UNL A   1      38.495  31.220  30.624  1.00  0.00     0.074 A 
ATOM     39  C   UNL A   1      38.065  32.788  32.489  1.00  0.00     0.049 A 
ATOM     40  N   UNL A   1      39.459  30.488  31.119  1.00  0.00    -0.248 NA
ATOM     41  C   UNL A   1      38.094  30.849  29.260  1.00  0.00     0.031 C 
ATOM     42  C   UNL A   1      37.375  33.847  33.229  1.00  0.00     0.029 A 
ATOM     43  N   UNL A   1      39.061  32.384  33.345  1.00  0.00    -0.354 N 
ATOM     44  C   UNL A   1      39.759  29.548  30.138  1.00  0.00     0.074 A 
ATOM     45  C   UNL A   1      38.838  29.775  29.044  1.00  0.00     0.031 C 
ATOM     46  C   UNL A   1      37.973  34.015  34.419  1.00  0.00     0.029 A 
ATOM     47  C   UNL A   1      39.053  33.043  34.553  1.00  0.00     0.049 A 
ATOM     48  H   UNL A   1      39.718  31.689  33.114  1.00  0.00     0.167 HD
ATOM     49  C   UNL A   1      40.723  28.595  30.146  1.00  0.00     0.034 A 
ATOM     50  C   UNL A   1      39.814  32.867  35.652  1.00  0.00     0.034 A 
ATOM     51  C   UNL A   1      41.649  28.400  31.233  1.00  0.00     0.049 A 
ATOM     52  C   UNL A   1      40.877  31.799  35.640  1.00  0.00     0.074 A 
ATOM     53  C   UNL A   1      42.704  27.508  31.321  1.00  0.00     0.029 A 
ATOM     54  N   UNL A   1      41.631  29.111  32.428  1.00  0.00    -0.354 N 
ATOM     55  N   UNL A   1      41.170  30.938  34.693  1.00  0.00    -0.248 NA
ATOM     56  C   UNL A   1      41.714  31.682  36.842  1.00  0.00     0.031 C 
ATOM     57  C   UNL A   1      43.289  27.642  32.585  1.00  0.00     0.029 A 
ATOM     58  C   UNL A   1      42.640  28.661  33.264  1.00  0.00     0.049 A 
ATOM     59  H   UNL A   1      40.994  29.828  32.647  1.00  0.00     0.167 HD
ATOM     60  C   UNL A   1      42.248  30.199  35.174  1.00  0.00     0.074 A 
ATOM     61  C   UNL A   1      42.553  30.717  36.491  1.00  0.00     0.031 C 
ATOM     62  C   UNL A   1      42.928  29.189  34.576  1.00  0.00     0.034 A 
BRANCH  49  63
ATOM     63  C   UNL A   1      40.798  27.678  28.949  1.00  0.00     0.023 A 
ATOM     64  C   UNL A   1      41.776  27.844  27.953  1.00  0.00     0.031 A 
ATOM     65  C   UNL A   1      39.855  26.649  28.780  1.00  0.00     0.131 A 
ATOM     66  C   UNL A   1      41.740  27.051  26.796  1.00  0.00     0.055 A 
ATOM     67  C   UNL A   1      39.875  25.809  27.665  1.00  0.00     0.041 A 
ATOM     68  F   UNL A   1      38.886  26.454  29.688  1.00  0.00    -0.206 F 
ATOM     69  C   UNL A   1      40.810  26.018  26.657  1.00  0.00     0.022 A 
BRANCH  66  70
ATOM     70  S   UNL A   1      42.828  27.490  25.413  1.00  0.00     0.124 S 
ATOM     71  O   UNL A   1      42.947  26.212  24.716  1.00  0.00    -0.237 OA
ATOM     72  O   UNL A   1      42.062  28.524  24.726  1.00  0.00    -0.237 OA
ATOM     73  O   UNL A   1      44.049  27.950  26.072  1.00  0.00    -0.744 OA
ENDBRANCH  66  70
ENDBRANCH  49  63
BRANCH  50  74
ATOM     74  C   UNL A   1      39.591  33.704  36.865  1.00  0.00     0.023 A 
ATOM     75  C   UNL A   1      38.914  33.189  37.981  1.00  0.00     0.031 A 
ATOM     76  C   UNL A   1      40.021  35.041  36.912  1.00  0.00     0.131 A 
ATOM     77  C   UNL A   1      38.650  34.017  39.083  1.00  0.00     0.055 A 
ATOM     78  C   UNL A   1      39.797  35.848  38.029  1.00  0.00     0.041 A 
ATOM     79  F   UNL A   1      40.681  35.580  35.873  1.00  0.00    -0.206 F 
ATOM     80  C   UNL A   1      39.097  35.340  39.118  1.00  0.00     0.022 A 
BRANCH  77  81
ATOM     81  S   UNL A   1      37.648  33.359  40.444  1.00  0.00     0.124 S 
ATOM     82  O   UNL A   1      38.500  32.289  40.950  1.00  0.00    -0.237 OA
ATOM     83  O   UNL A   1      37.505  34.529  41.306  1.00  0.00    -0.237 OA
ATOM     84  O   UNL A   1      36.421  32.922  39.783  1.00  0.00    -0.744 OA
ENDBRANCH  77  81
ENDBRANCH  50  74
BRANCH  62  85
ATOM     85  C   UNL A   1      44.107  28.622  35.322  1.00  0.00     0.023 A 
ATOM     86  C   UNL A   1      43.959  27.610  36.285  1.00  0.00     0.031 A 
ATOM     87  C   UNL A   1      45.402  29.101  35.053  1.00  0.00     0.131 A 
ATOM     88  C   UNL A   1      45.084  27.133  36.973  1.00  0.00     0.055 A 
ATOM     89  C   UNL A   1      46.523  28.591  35.708  1.00  0.00     0.041 A 
ATOM     90  F   UNL A   1      45.597  30.069  34.143  1.00  0.00    -0.206 F 
ATOM     91  C   UNL A   1      46.367  27.606  36.681  1.00  0.00     0.022 A 
BRANCH  88  92
ATOM     92  S   UNL A   1      44.848  25.921  38.301  1.00  0.00     0.124 S 
ATOM     93  O   UNL A   1      44.531  24.709  37.552  1.00  0.00    -0.237 OA
ATOM     94  O   UNL A   1      46.144  25.936  38.973  1.00  0.00    -0.237 OA
ATOM     95  O   UNL A   1      43.742  26.475  39.081  1.00  0.00    -0.744 OA
ENDBRANCH  88  92
ENDBRANCH  62  85
ENDBRANCH  36  37
ENDBRANCH  28  31
ENDBRANCH  26  27
ENDBRANCH  25  26
ENDBRANCH   1  25
TORSDOF 18
ENDMDL
MODEL 2
REMARK VINA RESULT:     -11.7      5.100      8.182
REMARK SMILES Cc1ccc(OCCC[N@H+]2CCCC[C@@H]2C(=O)NCCCNC(=O)c2ccc(-c3c4nc(c(-c5cc(S(=O)(=O)[O-])ccc5F)c5ccc([nH]5)c(-c5cc(S(=O)(=O)[O-])ccc5F)c5nc(c(-c6cc(S(=O)(=O)[O-])ccc6F)c6ccc3[nH]6)C=C5)C=C4)cc2)cc1C
REMARK SMILES IDX 19 1 18 2 16 3 17 4 15 6 10 7 11 8 12 10 14 11 13 12 9 13
REMARK SMILES IDX 8 14 7 15 6 16 5 17 1 18 2 19 3 20 89 21 4 22 88 23 90 24
REMARK SMILES IDX 20 25 21 26 22 27 23 28 24 30 25 31 26 32 87 33 27 34 86 35
REMARK SMILES IDX 28 36 29 37 30 38 80 39 31 40 85 41 79 42 81 43 32 44 84 45
REMARK SMILES IDX 78 46 77 47 33 49 65 50 45 51 64 52 46 53 49 54 63 55 82 56
REMARK SMILES IDX 47 57 48 58 62 60 83 61 50 62 34 63 35 64 43 65 36 66 42 67
REMARK SMILES IDX 44 68 41 69 37 70 38 71 39 72 40 73 66 74 67 75 75 76 68 77
REMARK SMILES IDX 74 78 76 79 73 80 69 81 70 82 71 83 72 84 51 85 52 86 60 87
REMARK SMILES IDX 53 88 59 89 61 90 58 91 54 92 55 93 56 94 57 95
REMARK H PARENT 18 5 10 9 22 29 81 48 49 59
REMARK Flexibility Score: inf
ROOT
ATOM      1  C   UNL A   1      34.280  24.673  24.894  1.00  0.00     0.118 C 
ENDROOT
BRANCH   1   2
ATOM      2  N   UNL A   1      34.077  25.753  23.937  1.00  0.00    -0.351 N 
ATOM      3  C   UNL A   1      33.655  27.036  24.135  1.00  0.00     0.278 C 
ATOM      4  O   UNL A   1      33.457  27.743  23.141  1.00  0.00    -0.268 OA
ATOM      5  H   UNL A   1      34.274  25.520  23.001  1.00  0.00     0.163 HD
BRANCH   3   6
ATOM      6  C   UNL A   1      33.356  27.594  25.539  1.00  0.00     0.274 C 
ATOM      7  N   UNL A   1      31.942  28.086  25.670  1.00  0.00    -0.325 N 
ATOM      8  C   UNL A   1      31.760  28.778  26.966  1.00  0.00     0.262 C 
ATOM      9  H   UNL A   1      31.756  28.734  24.905  1.00  0.00     0.348 HD
ATOM     10  C   UNL A   1      32.810  29.853  27.252  1.00  0.00     0.062 C 
ATOM     11  C   UNL A   1      34.449  28.624  25.865  1.00  0.00     0.076 C 
ATOM     12  C   UNL A   1      34.213  29.268  27.216  1.00  0.00     0.012 C 
BRANCH   7  13
ATOM     13  C   UNL A   1      30.991  26.942  25.600  1.00  0.00     0.266 C 
BRANCH  13  14
ATOM     14  C   UNL A   1      31.194  25.834  26.653  1.00  0.00     0.103 C 
BRANCH  14  15
ATOM     15  C   UNL A   1      30.563  24.479  26.307  1.00  0.00     0.235 C 
BRANCH  15  16
ATOM     16  O   UNL A   1      30.911  23.430  27.237  1.00  0.00    -0.493 OA
BRANCH  16  17
ATOM     17  C   UNL A   1      31.840  22.575  26.706  1.00  0.00     0.119 A 
ATOM     18  C   UNL A   1      35.033  20.220  25.046  1.00  0.00     0.044 C 
ATOM     19  C   UNL A   1      33.855  20.967  25.609  1.00  0.00    -0.048 A 
ATOM     20  C   UNL A   1      33.950  21.447  26.921  1.00  0.00     0.007 A 
ATOM     21  C   UNL A   1      32.664  21.182  24.888  1.00  0.00    -0.045 A 
ATOM     22  C   UNL A   1      32.927  22.205  27.481  1.00  0.00     0.047 A 
ATOM     23  C   UNL A   1      31.669  22.019  25.439  1.00  0.00     0.050 A 
ATOM     24  C   UNL A   1      32.373  20.458  23.600  1.00  0.00     0.045 C 
ENDBRANCH  16  17
ENDBRANCH  15  16
ENDBRANCH  14  15
ENDBRANCH  13  14
ENDBRANCH   7  13
ENDBRANCH   3   6
ENDBRANCH   1   2
BRANCH   1  25
ATOM     25  C   UNL A   1      35.667  24.060  24.778  1.00  0.00     0.042 C 
BRANCH  25  26
ATOM     26  C   UNL A   1      36.364  23.899  26.126  1.00  0.00     0.118 C 
BRANCH  26  27
ATOM     27  N   UNL A   1      37.313  22.789  26.145  1.00  0.00    -0.352 N 
ATOM     28  C   UNL A   1      38.675  22.802  26.360  1.00  0.00     0.251 C 
ATOM     29  H   UNL A   1      36.923  21.901  25.980  1.00  0.00     0.163 HD
ATOM     30  O   UNL A   1      39.337  21.794  26.168  1.00  0.00    -0.269 OA
BRANCH  28  31
ATOM     31  C   UNL A   1      39.325  24.057  26.799  1.00  0.00     0.039 A 
ATOM     32  C   UNL A   1      39.955  24.868  25.852  1.00  0.00     0.014 A 
ATOM     33  C   UNL A   1      39.278  24.443  28.140  1.00  0.00     0.014 A 
ATOM     34  C   UNL A   1      40.453  26.117  26.236  1.00  0.00     0.010 A 
ATOM     35  C   UNL A   1      39.703  25.717  28.503  1.00  0.00     0.010 A 
ATOM     36  C   UNL A   1      40.286  26.571  27.554  1.00  0.00    -0.014 A 
BRANCH  36  37
ATOM     37  C   UNL A   1      40.703  27.932  27.980  1.00  0.00     0.031 A 
ATOM     38  C   UNL A   1      42.165  28.285  28.009  1.00  0.00     0.074 A 
ATOM     39  C   UNL A   1      39.785  28.802  28.444  1.00  0.00     0.049 A 
ATOM     40  N   UNL A   1      42.755  29.337  28.517  1.00  0.00    -0.248 NA
ATOM     41  C   UNL A   1      43.085  27.301  27.422  1.00  0.00     0.031 C 
ATOM     42  C   UNL A   1      38.341  28.563  28.501  1.00  0.00     0.029 A 
ATOM     43  N   UNL A   1      39.931  30.058  28.983  1.00  0.00    -0.354 N 
ATOM     44  C   UNL A   1      44.118  29.125  28.340  1.00  0.00     0.074 A 
ATOM     45  C   UNL A   1      44.264  27.823  27.722  1.00  0.00     0.031 C 
ATOM     46  C   UNL A   1      37.737  29.636  29.035  1.00  0.00     0.029 A 
ATOM     47  C   UNL A   1      38.749  30.619  29.408  1.00  0.00     0.049 A 
ATOM     48  H   UNL A   1      40.802  30.512  29.059  1.00  0.00     0.167 HD
ATOM     49  C   UNL A   1      45.150  29.949  28.649  1.00  0.00     0.034 A 
ATOM     50  C   UNL A   1      38.510  31.782  30.045  1.00  0.00     0.034 A 
ATOM     51  C   UNL A   1      44.985  31.254  29.239  1.00  0.00     0.049 A 
ATOM     52  C   UNL A   1      39.672  32.680  30.384  1.00  0.00     0.074 A 
ATOM     53  C   UNL A   1      45.953  32.196  29.536  1.00  0.00     0.029 A 
ATOM     54  N   UNL A   1      43.767  31.802  29.623  1.00  0.00    -0.354 N 
ATOM     55  N   UNL A   1      40.954  32.482  30.181  1.00  0.00    -0.248 NA
ATOM     56  C   UNL A   1      39.356  33.960  31.032  1.00  0.00     0.031 C 
ATOM     57  C   UNL A   1      45.330  33.290  30.148  1.00  0.00     0.029 A 
ATOM     58  C   UNL A   1      43.964  33.058  30.175  1.00  0.00     0.049 A 
ATOM     59  H   UNL A   1      42.893  31.362  29.520  1.00  0.00     0.167 HD
ATOM     60  C   UNL A   1      41.593  33.628  30.648  1.00  0.00     0.074 A 
ATOM     61  C   UNL A   1      40.557  34.511  31.139  1.00  0.00     0.031 C 
ATOM     62  C   UNL A   1      42.917  33.924  30.661  1.00  0.00     0.034 A 
BRANCH  49  63
ATOM     63  C   UNL A   1      46.545  29.441  28.377  1.00  0.00     0.023 A 
ATOM     64  C   UNL A   1      47.269  28.718  29.340  1.00  0.00     0.031 A 
ATOM     65  C   UNL A   1      47.177  29.718  27.151  1.00  0.00     0.131 A 
ATOM     66  C   UNL A   1      48.606  28.370  29.098  1.00  0.00     0.055 A 
ATOM     67  C   UNL A   1      48.480  29.295  26.883  1.00  0.00     0.041 A 
ATOM     68  F   UNL A   1      46.543  30.420  26.198  1.00  0.00    -0.206 F 
ATOM     69  C   UNL A   1      49.209  28.632  27.865  1.00  0.00     0.022 A 
BRANCH  66  70
ATOM     70  S   UNL A   1      49.588  27.705  30.469  1.00  0.00     0.124 S 
ATOM     71  O   UNL A   1      48.571  27.000  31.245  1.00  0.00    -0.237 OA
ATOM     72  O   UNL A   1      50.563  26.867  29.781  1.00  0.00    -0.237 OA
ATOM     73  O   UNL A   1      50.134  28.900  31.110  1.00  0.00    -0.744 OA
ENDBRANCH  66  70
ENDBRANCH  49  63
BRANCH  50  74
ATOM     74  C   UNL A   1      37.121  32.161  30.427  1.00  0.00     0.023 A 
ATOM     75  C   UNL A   1      36.275  32.811  29.516  1.00  0.00     0.031 A 
ATOM     76  C   UNL A   1      36.630  31.909  31.720  1.00  0.00     0.131 A 
ATOM     77  C   UNL A   1      34.996  33.224  29.920  1.00  0.00     0.055 A 
ATOM     78  C   UNL A   1      35.340  32.282  32.104  1.00  0.00     0.041 A 
ATOM     79  F   UNL A   1      37.397  31.282  32.627  1.00  0.00    -0.206 F 
ATOM     80  C   UNL A   1      34.519  32.954  31.205  1.00  0.00     0.022 A 
BRANCH  77  81
ATOM     81  S   UNL A   1      33.987  34.188  28.760  1.00  0.00     0.124 S 
ATOM     82  O   UNL A   1      33.710  33.205  27.719  1.00  0.00    -0.237 OA
ATOM     83  O   UNL A   1      32.855  34.576  29.596  1.00  0.00    -0.237 OA
ATOM     84  O   UNL A   1      34.873  35.282  28.367  1.00  0.00    -0.744 OA
ENDBRANCH  77  81
ENDBRANCH  50  74
BRANCH  62  85
ATOM     85  C   UNL A   1      43.308  35.287  31.171  1.00  0.00     0.023 A 
ATOM     86  C   UNL A   1      43.483  36.380  30.306  1.00  0.00     0.031 A 
ATOM     87  C   UNL A   1      43.497  35.490  32.549  1.00  0.00     0.131 A 
ATOM     88  C   UNL A   1      43.873  37.623  30.826  1.00  0.00     0.055 A 
ATOM     89  C   UNL A   1      43.840  36.740  33.065  1.00  0.00     0.041 A 
ATOM     90  F   UNL A   1      43.343  34.477  33.417  1.00  0.00    -0.206 F 
ATOM     91  C   UNL A   1      44.039  37.814  32.201  1.00  0.00     0.022 A 
BRANCH  88  92
ATOM     92  S   UNL A   1      44.219  38.982  29.677  1.00  0.00     0.124 S 
ATOM     93  O   UNL A   1      45.619  39.275  29.965  1.00  0.00    -0.237 OA
ATOM     94  O   UNL A   1      43.949  38.371  28.379  1.00  0.00    -0.237 OA
ATOM     95  O   UNL A   1      43.273  40.022  30.078  1.00  0.00    -0.744 OA
ENDBRANCH  88  92
ENDBRANCH  62  85
ENDBRANCH  36  37
ENDBRANCH  28  31
ENDBRANCH  26  27
ENDBRANCH  25  26
ENDBRANCH   1  25
TORSDOF 18
ENDMDL
MODEL 3
REMARK VINA RESULT:     -11.2      4.893      8.076
REMARK SMILES Cc1ccc(OCCC[N@H+]2CCCC[C@@H]2C(=O)NCCCNC(=O)c2ccc(-c3c4nc(c(-c5cc(S(=O)(=O)[O-])ccc5F)c5ccc([nH]5)c(-c5cc(S(=O)(=O)[O-])ccc5F)c5nc(c(-c6cc(S(=O)(=O)[O-])ccc6F)c6ccc3[nH]6)C=C5)C=C4)cc2)cc1C
REMARK SMILES IDX 19 1 18 2 16 3 17 4 15 6 10 7 11 8 12 10 14 11 13 12 9 13
REMARK SMILES IDX 8 14 7 15 6 16 5 17 1 18 2 19 3 20 89 21 4 22 88 23 90 24
REMARK SMILES IDX 20 25 21 26 22 27 23 28 24 30 25 31 26 32 87 33 27 34 86 35
REMARK SMILES IDX 28 36 29 37 30 38 80 39 31 40 85 41 79 42 81 43 32 44 84 45
REMARK SMILES IDX 78 46 77 47 33 49 65 50 45 51 64 52 46 53 49 54 63 55 82 56
REMARK SMILES IDX 47 57 48 58 62 60 83 61 50 62 34 63 35 64 43 65 36 66 42 67
REMARK SMILES IDX 44 68 41 69 37 70 38 71 39 72 40 73 66 74 67 75 75 76 68 77
REMARK SMILES IDX 74 78 76 79 73 80 69 81 70 82 71 83 72 84 51 85 52 86 60 87
REMARK SMILES IDX 53 88 59 89 61 90 58 91 54 92 55 93 56 94 57 95
REMARK H PARENT 18 5 10 9 22 29 81 48 49 59
REMARK Flexibility Score: inf
ROOT
ATOM      1  C   UNL A   1      35.120  24.155  24.603  1.00  0.00     0.118 C 
ENDROOT
BRANCH   1   2
ATOM      2  N   UNL A   1      34.753  24.548  23.249  1.00  0.00    -0.351 N 
ATOM      3  C   UNL A   1      33.774  25.393  22.813  1.00  0.00     0.278 C 
ATOM      4  O   UNL A   1      33.586  25.487  21.595  1.00  0.00    -0.268 OA
ATOM      5  H   UNL A   1      35.296  24.139  22.538  1.00  0.00     0.163 HD
BRANCH   3   6
ATOM      6  C   UNL A   1      32.865  26.168  23.786  1.00  0.00     0.274 C 
ATOM      7  N   UNL A   1      31.410  25.849  23.587  1.00  0.00    -0.325 N 
ATOM      8  C   UNL A   1      30.572  26.750  24.410  1.00  0.00     0.262 C 
ATOM      9  H   UNL A   1      31.187  25.978  22.600  1.00  0.00     0.348 HD
ATOM     10  C   UNL A   1      30.901  28.234  24.243  1.00  0.00     0.062 C 
ATOM     11  C   UNL A   1      33.239  27.654  23.677  1.00  0.00     0.076 C 
ATOM     12  C   UNL A   1      32.361  28.509  24.568  1.00  0.00     0.012 C 
BRANCH   7  13
ATOM     13  C   UNL A   1      31.134  24.441  23.984  1.00  0.00     0.266 C 
BRANCH  13  14
ATOM     14  C   UNL A   1      31.399  24.095  25.463  1.00  0.00     0.103 C 
BRANCH  14  15
ATOM     15  C   UNL A   1      31.392  22.597  25.796  1.00  0.00     0.235 C 
BRANCH  15  16
ATOM     16  O   UNL A   1      32.647  22.123  26.330  1.00  0.00    -0.493 OA
BRANCH  16  17
ATOM     17  C   UNL A   1      33.108  21.033  25.640  1.00  0.00     0.119 A 
ATOM     18  C   UNL A   1      34.330  17.367  23.751  1.00  0.00     0.044 C 
ATOM     19  C   UNL A   1      33.967  18.697  24.353  1.00  0.00    -0.048 A 
ATOM     20  C   UNL A   1      32.625  19.093  24.308  1.00  0.00     0.007 A 
ATOM     21  C   UNL A   1      34.916  19.562  24.934  1.00  0.00    -0.045 A 
ATOM     22  C   UNL A   1      32.209  20.277  24.906  1.00  0.00     0.047 A 
ATOM     23  C   UNL A   1      34.467  20.720  25.607  1.00  0.00     0.050 A 
ATOM     24  C   UNL A   1      36.396  19.348  24.765  1.00  0.00     0.045 C 
ENDBRANCH  16  17
ENDBRANCH  15  16
ENDBRANCH  14  15
ENDBRANCH  13  14
ENDBRANCH   7  13
ENDBRANCH   3   6
ENDBRANCH   1   2
BRANCH   1  25
ATOM     25  C   UNL A   1      36.491  23.499  24.657  1.00  0.00     0.042 C 
BRANCH  25  26
ATOM     26  C   UNL A   1      37.077  23.451  26.065  1.00  0.00     0.118 C 
BRANCH  26  27
ATOM     27  N   UNL A   1      38.064  22.388  26.235  1.00  0.00    -0.352 N 
ATOM     28  C   UNL A   1      39.412  22.477  26.508  1.00  0.00     0.251 C 
ATOM     29  H   UNL A   1      37.714  21.473  26.139  1.00  0.00     0.163 HD
ATOM     30  O   UNL A   1      40.119  21.484  26.444  1.00  0.00    -0.269 OA
BRANCH  28  31
ATOM     31  C   UNL A   1      39.994  23.794  26.851  1.00  0.00     0.039 A 
ATOM     32  C   UNL A   1      40.139  24.759  25.852  1.00  0.00     0.014 A 
ATOM     33  C   UNL A   1      40.360  24.081  28.168  1.00  0.00     0.014 A 
ATOM     34  C   UNL A   1      40.562  26.047  26.193  1.00  0.00     0.010 A 
ATOM     35  C   UNL A   1      40.704  25.382  28.517  1.00  0.00     0.010 A 
ATOM     36  C   UNL A   1      40.799  26.382  27.536  1.00  0.00    -0.014 A 
BRANCH  36  37
ATOM     37  C   UNL A   1      41.146  27.765  27.956  1.00  0.00     0.031 A 
ATOM     38  C   UNL A   1      42.589  28.183  28.014  1.00  0.00     0.074 A 
ATOM     39  C   UNL A   1      40.180  28.597  28.391  1.00  0.00     0.049 A 
ATOM     40  N   UNL A   1      43.121  29.264  28.524  1.00  0.00    -0.248 NA
ATOM     41  C   UNL A   1      43.565  27.235  27.457  1.00  0.00     0.031 C 
ATOM     42  C   UNL A   1      38.747  28.293  28.419  1.00  0.00     0.029 A 
ATOM     43  N   UNL A   1      40.258  29.862  28.921  1.00  0.00    -0.354 N 
ATOM     44  C   UNL A   1      44.496  29.112  28.379  1.00  0.00     0.074 A 
ATOM     45  C   UNL A   1      44.713  27.812  27.778  1.00  0.00     0.031 C 
ATOM     46  C   UNL A   1      38.084  29.343  28.928  1.00  0.00     0.029 A 
ATOM     47  C   UNL A   1      39.042  30.374  29.313  1.00  0.00     0.049 A 
ATOM     48  H   UNL A   1      41.105  30.356  29.011  1.00  0.00     0.167 HD
ATOM     49  C   UNL A   1      45.483  29.984  28.702  1.00  0.00     0.034 A 
ATOM     50  C   UNL A   1      38.738  31.531  29.933  1.00  0.00     0.034 A 
ATOM     51  C   UNL A   1      45.246  31.286  29.274  1.00  0.00     0.049 A 
ATOM     52  C   UNL A   1      39.851  32.484  30.288  1.00  0.00     0.074 A 
ATOM     53  C   UNL A   1      46.164  32.274  29.584  1.00  0.00     0.029 A 
ATOM     54  N   UNL A   1      43.996  31.782  29.626  1.00  0.00    -0.354 N 
ATOM     55  N   UNL A   1      41.145  32.341  30.115  1.00  0.00    -0.248 NA
ATOM     56  C   UNL A   1      39.463  33.754  30.916  1.00  0.00     0.031 C 
ATOM     57  C   UNL A   1      45.479  33.344  30.170  1.00  0.00     0.029 A 
ATOM     58  C   UNL A   1      44.124  33.051  30.169  1.00  0.00     0.049 A 
ATOM     59  H   UNL A   1      43.146  31.303  29.508  1.00  0.00     0.167 HD
ATOM     60  C   UNL A   1      41.721  33.519  30.584  1.00  0.00     0.074 A 
ATOM     61  C   UNL A   1      40.636  34.359  31.043  1.00  0.00     0.031 C 
ATOM     62  C   UNL A   1      43.030  33.875  30.623  1.00  0.00     0.034 A 
BRANCH  49  63
ATOM     63  C   UNL A   1      46.905  29.537  28.466  1.00  0.00     0.023 A 
ATOM     64  C   UNL A   1      47.638  28.858  29.453  1.00  0.00     0.031 A 
ATOM     65  C   UNL A   1      47.550  29.829  27.251  1.00  0.00     0.131 A 
ATOM     66  C   UNL A   1      48.995  28.567  29.243  1.00  0.00     0.055 A 
ATOM     67  C   UNL A   1      48.877  29.463  27.016  1.00  0.00     0.041 A 
ATOM     68  F   UNL A   1      46.907  30.493  26.277  1.00  0.00    -0.206 F 
ATOM     69  C   UNL A   1      49.612  28.843  28.021  1.00  0.00     0.022 A 
BRANCH  66  70
ATOM     70  S   UNL A   1      49.975  27.962  30.644  1.00  0.00     0.124 S 
ATOM     71  O   UNL A   1      48.947  27.782  31.666  1.00  0.00    -0.237 OA
ATOM     72  O   UNL A   1      50.566  26.740  30.109  1.00  0.00    -0.237 OA
ATOM     73  O   UNL A   1      50.916  29.051  30.899  1.00  0.00    -0.744 OA
ENDBRANCH  66  70
ENDBRANCH  49  63
BRANCH  50  74
ATOM     74  C   UNL A   1      37.324  31.851  30.280  1.00  0.00     0.023 A 
ATOM     75  C   UNL A   1      36.439  32.346  29.311  1.00  0.00     0.031 A 
ATOM     76  C   UNL A   1      36.848  31.699  31.594  1.00  0.00     0.131 A 
ATOM     77  C   UNL A   1      35.134  32.710  29.677  1.00  0.00     0.055 A 
ATOM     78  C   UNL A   1      35.535  32.019  31.943  1.00  0.00     0.041 A 
ATOM     79  F   UNL A   1      37.653  31.220  32.557  1.00  0.00    -0.206 F 
ATOM     80  C   UNL A   1      34.673  32.539  30.984  1.00  0.00     0.022 A 
BRANCH  77  81
ATOM     81  S   UNL A   1      34.065  33.481  28.430  1.00  0.00     0.124 S 
ATOM     82  O   UNL A   1      35.037  34.174  27.592  1.00  0.00    -0.237 OA
ATOM     83  O   UNL A   1      33.414  32.319  27.831  1.00  0.00    -0.237 OA
ATOM     84  O   UNL A   1      33.190  34.345  29.218  1.00  0.00    -0.744 OA
ENDBRANCH  77  81
ENDBRANCH  50  74
BRANCH  62  85
ATOM     85  C   UNL A   1      43.348  35.258  31.127  1.00  0.00     0.023 A 
ATOM     86  C   UNL A   1      43.419  35.549  32.499  1.00  0.00     0.031 A 
ATOM     87  C   UNL A   1      43.593  36.297  30.212  1.00  0.00     0.131 A 
ATOM     88  C   UNL A   1      43.692  36.859  32.920  1.00  0.00     0.055 A 
ATOM     89  C   UNL A   1      43.910  37.588  30.636  1.00  0.00     0.041 A 
ATOM     90  F   UNL A   1      43.536  36.070  28.889  1.00  0.00    -0.206 F 
ATOM     91  C   UNL A   1      43.952  37.877  31.997  1.00  0.00     0.022 A 
BRANCH  88  92
ATOM     92  S   UNL A   1      43.649  37.235  34.693  1.00  0.00     0.124 S 
ATOM     93  O   UNL A   1      44.419  36.131  35.256  1.00  0.00    -0.237 OA
ATOM     94  O   UNL A   1      44.282  38.549  34.751  1.00  0.00    -0.237 OA
ATOM     95  O   UNL A   1      42.222  37.223  35.013  1.00  0.00    -0.744 OA
ENDBRANCH  88  92
ENDBRANCH  62  85
ENDBRANCH  36  37
ENDBRANCH  28  31
ENDBRANCH  26  27
ENDBRANCH  25  26
ENDBRANCH   1  25
TORSDOF 18
ENDMDL
