MODEL 1
REMARK VINA RESULT:     -12.1      0.000      0.000
REMARK SMILES CC(C)CSc1cc2c(cc1Cl)C=C(C(=O)NCCCNC(=O)c1ccc(-c3c4nc(c(-c5cc(S(=O)(=O)[O-])ccc5F)c5ccc([nH]5)c(-c5cc(S(=O)(=O)[O-])ccc5F)c5nc(c(-c6cc(S(=O)(=O)[O-])ccc6F)c6ccc3[nH]6)C=C5)C=C4)cc1)[C@@H](C(F)(F)F)O2
REMARK SMILES IDX 19 1 18 2 17 3 15 4 16 5 14 7 6 8 7 9 11 10 8 11 10 12 12 13
REMARK SMILES IDX 9 14 92 15 13 16 87 17 5 18 4 19 2 20 1 21 3 22 88 23 89 24
REMARK SMILES IDX 90 25 91 26 20 27 21 28 22 29 23 31 24 32 25 33 86 34 26 35
REMARK SMILES IDX 85 36 27 37 28 38 29 39 79 40 30 41 84 42 78 43 80 44 31 45
REMARK SMILES IDX 83 46 77 47 76 48 32 50 64 51 44 52 63 53 45 54 48 55 62 56
REMARK SMILES IDX 81 57 46 58 47 59 61 61 82 62 49 63 33 64 34 65 42 66 35 67
REMARK SMILES IDX 41 68 43 69 40 70 36 71 37 72 38 73 39 74 65 75 66 76 74 77
REMARK SMILES IDX 67 78 73 79 75 80 72 81 68 82 69 83 70 84 71 85 50 86 51 87
REMARK SMILES IDX 59 88 52 89 58 90 60 91 57 92 53 93 54 94 55 95 56 96
REMARK H PARENT 17 6 21 30 80 49 48 60
REMARK Flexibility Score: inf
ROOT
ATOM      1  C   UNL A   1      31.367  31.992  26.886  1.00  0.00     0.042 C 
ENDROOT
BRANCH   1   2
ATOM      2  C   UNL A   1      31.649  30.550  26.502  1.00  0.00     0.118 C 
BRANCH   2   3
ATOM      3  N   UNL A   1      31.421  30.301  25.082  1.00  0.00    -0.352 N 
ATOM      4  C   UNL A   1      31.376  29.234  24.249  1.00  0.00     0.251 C 
ATOM      5  O   UNL A   1      31.118  29.489  23.069  1.00  0.00    -0.270 OA
ATOM      6  H   UNL A   1      31.254  31.140  24.595  1.00  0.00     0.163 HD
BRANCH   4   7
ATOM      7  C   UNL A   1      31.606  27.819  24.662  1.00  0.00     0.067 C 
ATOM      8  C   UNL A   1      33.635  23.427  26.139  1.00  0.00     0.030 A 
ATOM      9  C   UNL A   1      32.355  23.938  25.963  1.00  0.00     0.063 A 
ATOM     10  C   UNL A   1      34.708  24.245  25.727  1.00  0.00     0.055 A 
ATOM     11  C   UNL A   1      32.139  25.241  25.541  1.00  0.00     0.129 A 
ATOM     12  C   UNL A   1      34.483  25.544  25.223  1.00  0.00     0.033 A 
ATOM     13  Cl  UNL A   1      36.357  23.720  25.815  1.00  0.00    -0.083 Cl
ATOM     14  C   UNL A   1      33.187  26.059  25.156  1.00  0.00     0.019 A 
ATOM     15  O   UNL A   1      30.845  25.644  25.629  1.00  0.00    -0.475 OA
ATOM     16  C   UNL A   1      32.893  27.425  24.745  1.00  0.00     0.025 C 
ATOM     17  C   UNL A   1      30.481  26.869  24.961  1.00  0.00     0.314 C 
BRANCH   8  18
ATOM     18  S   UNL A   1      33.874  21.848  26.965  1.00  0.00    -0.124 SA
BRANCH  18  19
ATOM     19  C   UNL A   1      34.384  20.665  25.647  1.00  0.00     0.078 C 
BRANCH  19  20
ATOM     20  C   UNL A   1      33.279  19.766  25.041  1.00  0.00    -0.007 C 
ATOM     21  C   UNL A   1      32.439  20.385  23.921  1.00  0.00     0.008 C 
ATOM     22  C   UNL A   1      33.932  18.489  24.494  1.00  0.00     0.008 C 
ENDBRANCH  19  20
ENDBRANCH  18  19
ENDBRANCH   8  18
BRANCH  17  23
ATOM     23  C   UNL A   1      29.657  26.472  23.725  1.00  0.00     0.429 C 
ATOM     24  F   UNL A   1      30.367  26.709  22.592  1.00  0.00    -0.167 F 
ATOM     25  F   UNL A   1      29.319  25.164  23.701  1.00  0.00    -0.167 F 
ATOM     26  F   UNL A   1      28.505  27.177  23.631  1.00  0.00    -0.167 F 
ENDBRANCH  17  23
ENDBRANCH   4   7
ENDBRANCH   2   3
ENDBRANCH   1   2
BRANCH   1  27
ATOM     27  C   UNL A   1      32.619  32.855  26.827  1.00  0.00     0.118 C 
BRANCH  27  28
ATOM     28  N   UNL A   1      32.510  34.043  27.673  1.00  0.00    -0.352 N 
ATOM     29  C   UNL A   1      33.219  34.411  28.796  1.00  0.00     0.251 C 
ATOM     30  H   UNL A   1      31.817  34.684  27.396  1.00  0.00     0.163 HD
ATOM     31  O   UNL A   1      32.817  35.334  29.488  1.00  0.00    -0.269 OA
BRANCH  29  32
ATOM     32  C   UNL A   1      34.443  33.669  29.165  1.00  0.00     0.039 A 
ATOM     33  C   UNL A   1      34.349  32.441  29.817  1.00  0.00     0.014 A 
ATOM     34  C   UNL A   1      35.698  34.211  28.872  1.00  0.00     0.014 A 
ATOM     35  C   UNL A   1      35.483  31.872  30.375  1.00  0.00     0.010 A 
ATOM     36  C   UNL A   1      36.853  33.566  29.326  1.00  0.00     0.010 A 
ATOM     37  C   UNL A   1      36.752  32.424  30.135  1.00  0.00    -0.014 A 
BRANCH  37  38
ATOM     38  C   UNL A   1      37.945  31.770  30.736  1.00  0.00     0.031 A 
ATOM     39  C   UNL A   1      38.347  32.048  32.159  1.00  0.00     0.074 A 
ATOM     40  C   UNL A   1      38.623  30.862  30.005  1.00  0.00     0.049 A 
ATOM     41  N   UNL A   1      39.327  31.526  32.850  1.00  0.00    -0.248 NA
ATOM     42  C   UNL A   1      37.557  33.042  32.903  1.00  0.00     0.031 C 
ATOM     43  C   UNL A   1      38.318  30.517  28.615  1.00  0.00     0.029 A 
ATOM     44  N   UNL A   1      39.674  30.041  30.326  1.00  0.00    -0.354 N 
ATOM     45  C   UNL A   1      39.291  32.144  34.095  1.00  0.00     0.074 A 
ATOM     46  C   UNL A   1      38.210  33.103  34.057  1.00  0.00     0.031 C 
ATOM     47  C   UNL A   1      39.108  29.510  28.228  1.00  0.00     0.029 A 
ATOM     48  C   UNL A   1      40.041  29.193  29.306  1.00  0.00     0.049 A 
ATOM     49  H   UNL A   1      40.125  30.057  31.200  1.00  0.00     0.167 HD
ATOM     50  C   UNL A   1      40.081  31.921  35.171  1.00  0.00     0.034 A 
ATOM     51  C   UNL A   1      41.024  28.273  29.231  1.00  0.00     0.034 A 
ATOM     52  C   UNL A   1      41.132  30.935  35.202  1.00  0.00     0.049 A 
ATOM     53  C   UNL A   1      41.892  28.051  30.441  1.00  0.00     0.074 A 
ATOM     54  C   UNL A   1      41.961  30.605  36.259  1.00  0.00     0.029 A 
ATOM     55  N   UNL A   1      41.496  30.120  34.139  1.00  0.00    -0.354 N 
ATOM     56  N   UNL A   1      41.814  28.614  31.623  1.00  0.00    -0.248 NA
ATOM     57  C   UNL A   1      42.982  27.076  30.312  1.00  0.00     0.031 C 
ATOM     58  C   UNL A   1      42.864  29.637  35.819  1.00  0.00     0.029 A 
ATOM     59  C   UNL A   1      42.556  29.308  34.508  1.00  0.00     0.049 A 
ATOM     60  H   UNL A   1      41.065  30.119  33.254  1.00  0.00     0.167 HD
ATOM     61  C   UNL A   1      42.838  28.057  32.383  1.00  0.00     0.074 A 
ATOM     62  C   UNL A   1      43.498  27.086  31.535  1.00  0.00     0.031 C 
ATOM     63  C   UNL A   1      43.202  28.335  33.658  1.00  0.00     0.034 A 
BRANCH  50  64
ATOM     64  C   UNL A   1      39.857  32.737  36.422  1.00  0.00     0.023 A 
ATOM     65  C   UNL A   1      38.926  32.301  37.384  1.00  0.00     0.031 A 
ATOM     66  C   UNL A   1      40.458  33.995  36.599  1.00  0.00     0.131 A 
ATOM     67  C   UNL A   1      38.598  33.134  38.463  1.00  0.00     0.055 A 
ATOM     68  C   UNL A   1      40.155  34.804  37.697  1.00  0.00     0.041 A 
ATOM     69  F   UNL A   1      41.353  34.455  35.710  1.00  0.00    -0.206 F 
ATOM     70  C   UNL A   1      39.212  34.380  38.627  1.00  0.00     0.022 A 
BRANCH  67  71
ATOM     71  S   UNL A   1      37.317  32.661  39.657  1.00  0.00     0.124 S 
ATOM     72  O   UNL A   1      36.122  32.632  38.816  1.00  0.00    -0.237 OA
ATOM     73  O   UNL A   1      37.790  31.356  40.111  1.00  0.00    -0.237 OA
ATOM     74  O   UNL A   1      37.351  33.727  40.651  1.00  0.00    -0.744 OA
ENDBRANCH  67  71
ENDBRANCH  50  64
BRANCH  51  75
ATOM     75  C   UNL A   1      41.192  27.491  27.971  1.00  0.00     0.023 A 
ATOM     76  C   UNL A   1      40.855  26.125  27.922  1.00  0.00     0.031 A 
ATOM     77  C   UNL A   1      41.810  28.059  26.845  1.00  0.00     0.131 A 
ATOM     78  C   UNL A   1      41.219  25.355  26.811  1.00  0.00     0.055 A 
ATOM     79  C   UNL A   1      42.097  27.304  25.706  1.00  0.00     0.041 A 
ATOM     80  F   UNL A   1      42.162  29.353  26.846  1.00  0.00    -0.206 F 
ATOM     81  C   UNL A   1      41.822  25.939  25.694  1.00  0.00     0.022 A 
BRANCH  78  82
ATOM     82  S   UNL A   1      41.076  23.546  26.853  1.00  0.00     0.124 S 
ATOM     83  O   UNL A   1      39.650  23.349  26.614  1.00  0.00    -0.237 OA
ATOM     84  O   UNL A   1      41.960  23.150  25.759  1.00  0.00    -0.237 OA
ATOM     85  O   UNL A   1      41.551  23.194  28.187  1.00  0.00    -0.744 OA
ENDBRANCH  78  82
ENDBRANCH  51  75
BRANCH  63  86
ATOM     86  C   UNL A   1      44.377  27.593  34.247  1.00  0.00     0.023 A 
ATOM     87  C   UNL A   1      44.182  26.342  34.863  1.00  0.00     0.031 A 
ATOM     88  C   UNL A   1      45.646  28.191  34.337  1.00  0.00     0.131 A 
ATOM     89  C   UNL A   1      45.228  25.750  35.580  1.00  0.00     0.055 A 
ATOM     90  C   UNL A   1      46.699  27.573  35.011  1.00  0.00     0.041 A 
ATOM     91  F   UNL A   1      45.875  29.387  33.774  1.00  0.00    -0.206 F 
ATOM     92  C   UNL A   1      46.488  26.355  35.651  1.00  0.00     0.022 A 
BRANCH  89  93
ATOM     93  S   UNL A   1      44.968  24.223  36.524  1.00  0.00     0.124 S 
ATOM     94  O   UNL A   1      46.295  23.610  36.477  1.00  0.00    -0.237 OA
ATOM     95  O   UNL A   1      44.562  24.733  37.830  1.00  0.00    -0.237 OA
ATOM     96  O   UNL A   1      43.933  23.517  35.776  1.00  0.00    -0.744 OA
ENDBRANCH  89  93
ENDBRANCH  63  86
ENDBRANCH  37  38
ENDBRANCH  29  32
ENDBRANCH  27  28
ENDBRANCH   1  27
TORSDOF 17
ENDMDL
MODEL 2
REMARK VINA RESULT:     -12.1      2.048      2.589
REMARK SMILES CC(C)CSc1cc2c(cc1Cl)C=C(C(=O)NCCCNC(=O)c1ccc(-c3c4nc(c(-c5cc(S(=O)(=O)[O-])ccc5F)c5ccc([nH]5)c(-c5cc(S(=O)(=O)[O-])ccc5F)c5nc(c(-c6cc(S(=O)(=O)[O-])ccc6F)c6ccc3[nH]6)C=C5)C=C4)cc1)[C@@H](C(F)(F)F)O2
REMARK SMILES IDX 19 1 18 2 17 3 15 4 16 5 14 7 6 8 7 9 11 10 8 11 10 12 12 13
REMARK SMILES IDX 9 14 92 15 13 16 87 17 5 18 4 19 2 20 1 21 3 22 88 23 89 24
REMARK SMILES IDX 90 25 91 26 20 27 21 28 22 29 23 31 24 32 25 33 86 34 26 35
REMARK SMILES IDX 85 36 27 37 28 38 29 39 79 40 30 41 84 42 78 43 80 44 31 45
REMARK SMILES IDX 83 46 77 47 76 48 32 50 64 51 44 52 63 53 45 54 48 55 62 56
REMARK SMILES IDX 81 57 46 58 47 59 61 61 82 62 49 63 33 64 34 65 42 66 35 67
REMARK SMILES IDX 41 68 43 69 40 70 36 71 37 72 38 73 39 74 65 75 66 76 74 77
REMARK SMILES IDX 67 78 73 79 75 80 72 81 68 82 69 83 70 84 71 85 50 86 51 87
REMARK SMILES IDX 59 88 52 89 58 90 60 91 57 92 53 93 54 94 55 95 56 96
REMARK H PARENT 17 6 21 30 80 49 48 60
REMARK Flexibility Score: inf
ROOT
ATOM      1  C   UNL A   1      31.865  31.386  26.952  1.00  0.00     0.042 C 
ENDROOT
BRANCH   1   2
ATOM      2  C   UNL A   1      32.135  30.320  25.905  1.00  0.00     0.118 C 
BRANCH   2   3
ATOM      3  N   UNL A   1      31.127  30.313  24.849  1.00  0.00    -0.352 N 
ATOM      4  C   UNL A   1      30.657  29.445  23.922  1.00  0.00     0.251 C 
ATOM      5  O   UNL A   1      29.740  29.867  23.212  1.00  0.00    -0.270 OA
ATOM      6  H   UNL A   1      30.660  31.177  24.796  1.00  0.00     0.163 HD
BRANCH   4   7
ATOM      7  C   UNL A   1      31.162  28.055  23.720  1.00  0.00     0.067 C 
ATOM      8  C   UNL A   1      31.939  23.061  23.915  1.00  0.00     0.030 A 
ATOM      9  C   UNL A   1      32.384  24.121  23.136  1.00  0.00     0.063 A 
ATOM     10  C   UNL A   1      31.136  23.384  25.029  1.00  0.00     0.055 A 
ATOM     11  C   UNL A   1      31.947  25.419  23.348  1.00  0.00     0.129 A 
ATOM     12  C   UNL A   1      30.755  24.718  25.290  1.00  0.00     0.033 A 
ATOM     13  Cl  UNL A   1      30.565  22.181  26.138  1.00  0.00    -0.083 Cl
ATOM     14  C   UNL A   1      31.140  25.743  24.424  1.00  0.00     0.019 A 
ATOM     15  O   UNL A   1      32.307  26.291  22.370  1.00  0.00    -0.475 OA
ATOM     16  C   UNL A   1      30.698  27.122  24.576  1.00  0.00     0.025 C 
ATOM     17  C   UNL A   1      32.140  27.698  22.638  1.00  0.00     0.314 C 
BRANCH   8  18
ATOM     18  S   UNL A   1      32.292  21.366  23.428  1.00  0.00    -0.124 SA
BRANCH  18  19
ATOM     19  C   UNL A   1      33.664  20.804  24.524  1.00  0.00     0.078 C 
BRANCH  19  20
ATOM     20  C   UNL A   1      34.538  21.901  25.177  1.00  0.00    -0.007 C 
ATOM     21  C   UNL A   1      34.368  22.097  26.686  1.00  0.00     0.008 C 
ATOM     22  C   UNL A   1      36.014  21.578  24.905  1.00  0.00     0.008 C 
ENDBRANCH  19  20
ENDBRANCH  18  19
ENDBRANCH   8  18
BRANCH  17  23
ATOM     23  C   UNL A   1      33.548  28.277  22.856  1.00  0.00     0.429 C 
ATOM     24  F   UNL A   1      34.100  27.755  23.982  1.00  0.00    -0.167 F 
ATOM     25  F   UNL A   1      34.405  28.005  21.847  1.00  0.00    -0.167 F 
ATOM     26  F   UNL A   1      33.531  29.622  23.004  1.00  0.00    -0.167 F 
ENDBRANCH  17  23
ENDBRANCH   4   7
ENDBRANCH   2   3
ENDBRANCH   1   2
BRANCH   1  27
ATOM     27  C   UNL A   1      33.118  32.174  27.304  1.00  0.00     0.118 C 
BRANCH  27  28
ATOM     28  N   UNL A   1      32.824  33.575  27.598  1.00  0.00    -0.352 N 
ATOM     29  C   UNL A   1      33.296  34.399  28.597  1.00  0.00     0.251 C 
ATOM     30  H   UNL A   1      32.184  34.000  26.983  1.00  0.00     0.163 HD
ATOM     31  O   UNL A   1      32.749  35.472  28.804  1.00  0.00    -0.269 OA
BRANCH  29  32
ATOM     32  C   UNL A   1      34.441  33.963  29.426  1.00  0.00     0.039 A 
ATOM     33  C   UNL A   1      35.726  34.419  29.140  1.00  0.00     0.014 A 
ATOM     34  C   UNL A   1      34.231  33.079  30.488  1.00  0.00     0.014 A 
ATOM     35  C   UNL A   1      36.816  33.824  29.756  1.00  0.00     0.010 A 
ATOM     36  C   UNL A   1      35.328  32.576  31.195  1.00  0.00     0.010 A 
ATOM     37  C   UNL A   1      36.633  32.897  30.795  1.00  0.00    -0.014 A 
BRANCH  37  38
ATOM     38  C   UNL A   1      37.831  32.298  31.442  1.00  0.00     0.031 A 
ATOM     39  C   UNL A   1      38.260  32.720  32.821  1.00  0.00     0.074 A 
ATOM     40  C   UNL A   1      38.489  31.312  30.799  1.00  0.00     0.049 A 
ATOM     41  N   UNL A   1      39.248  32.263  33.547  1.00  0.00    -0.248 NA
ATOM     42  C   UNL A   1      37.491  33.794  33.469  1.00  0.00     0.031 C 
ATOM     43  C   UNL A   1      38.157  30.826  29.459  1.00  0.00     0.029 A 
ATOM     44  N   UNL A   1      39.540  30.519  31.187  1.00  0.00    -0.354 N 
ATOM     45  C   UNL A   1      39.239  33.010  34.720  1.00  0.00     0.074 A 
ATOM     46  C   UNL A   1      38.164  33.969  34.599  1.00  0.00     0.031 C 
ATOM     47  C   UNL A   1      38.933  29.775  29.166  1.00  0.00     0.029 A 
ATOM     48  C   UNL A   1      39.881  29.565  30.256  1.00  0.00     0.049 A 
ATOM     49  H   UNL A   1      40.005  30.623  32.048  1.00  0.00     0.167 HD
ATOM     50  C   UNL A   1      40.045  32.893  35.801  1.00  0.00     0.034 A 
ATOM     51  C   UNL A   1      40.856  28.633  30.263  1.00  0.00     0.034 A 
ATOM     52  C   UNL A   1      41.088  31.906  35.918  1.00  0.00     0.049 A 
ATOM     53  C   UNL A   1      41.744  28.530  31.474  1.00  0.00     0.074 A 
ATOM     54  C   UNL A   1      41.933  31.681  36.990  1.00  0.00     0.029 A 
ATOM     55  N   UNL A   1      41.428  30.980  34.940  1.00  0.00    -0.354 N 
ATOM     56  N   UNL A   1      41.690  29.216  32.592  1.00  0.00    -0.248 NA
ATOM     57  C   UNL A   1      42.823  27.537  31.431  1.00  0.00     0.031 C 
ATOM     58  C   UNL A   1      42.821  30.663  36.640  1.00  0.00     0.029 A 
ATOM     59  C   UNL A   1      42.488  30.202  35.375  1.00  0.00     0.049 A 
ATOM     60  H   UNL A   1      40.981  30.890  34.067  1.00  0.00     0.167 HD
ATOM     61  C   UNL A   1      42.722  28.732  33.389  1.00  0.00     0.074 A 
ATOM     62  C   UNL A   1      43.360  27.670  32.637  1.00  0.00     0.031 C 
ATOM     63  C   UNL A   1      43.111  29.138  34.622  1.00  0.00     0.034 A 
BRANCH  50  64
ATOM     64  C   UNL A   1      39.849  33.838  36.962  1.00  0.00     0.023 A 
ATOM     65  C   UNL A   1      39.231  33.379  38.141  1.00  0.00     0.031 A 
ATOM     66  C   UNL A   1      40.150  35.207  36.858  1.00  0.00     0.131 A 
ATOM     67  C   UNL A   1      38.902  34.290  39.155  1.00  0.00     0.055 A 
ATOM     68  C   UNL A   1      39.855  36.103  37.888  1.00  0.00     0.041 A 
ATOM     69  F   UNL A   1      40.742  35.694  35.755  1.00  0.00    -0.206 F 
ATOM     70  C   UNL A   1      39.216  35.647  39.036  1.00  0.00     0.022 A 
BRANCH  67  71
ATOM     71  S   UNL A   1      37.998  33.759  40.635  1.00  0.00     0.124 S 
ATOM     72  O   UNL A   1      38.973  32.883  41.282  1.00  0.00    -0.237 OA
ATOM     73  O   UNL A   1      37.753  35.028  41.314  1.00  0.00    -0.237 OA
ATOM     74  O   UNL A   1      36.817  33.088  40.105  1.00  0.00    -0.744 OA
ENDBRANCH  67  71
ENDBRANCH  50  64
BRANCH  51  75
ATOM     75  C   UNL A   1      40.996  27.721  29.089  1.00  0.00     0.023 A 
ATOM     76  C   UNL A   1      42.007  27.931  28.132  1.00  0.00     0.031 A 
ATOM     77  C   UNL A   1      40.049  26.715  28.838  1.00  0.00     0.131 A 
ATOM     78  C   UNL A   1      41.995  27.211  26.932  1.00  0.00     0.055 A 
ATOM     79  C   UNL A   1      40.089  25.942  27.675  1.00  0.00     0.041 A 
ATOM     80  F   UNL A   1      39.058  26.484  29.712  1.00  0.00    -0.206 F 
ATOM     81  C   UNL A   1      41.052  26.203  26.705  1.00  0.00     0.022 A 
BRANCH  78  82
ATOM     82  S   UNL A   1      43.092  27.674  25.563  1.00  0.00     0.124 S 
ATOM     83  O   UNL A   1      43.621  26.379  25.147  1.00  0.00    -0.237 OA
ATOM     84  O   UNL A   1      42.160  28.305  24.631  1.00  0.00    -0.237 OA
ATOM     85  O   UNL A   1      44.052  28.581  26.184  1.00  0.00    -0.744 OA
ENDBRANCH  78  82
ENDBRANCH  51  75
BRANCH  63  86
ATOM     86  C   UNL A   1      44.290  28.451  35.266  1.00  0.00     0.023 A 
ATOM     87  C   UNL A   1      44.080  27.462  36.245  1.00  0.00     0.031 A 
ATOM     88  C   UNL A   1      45.606  28.883  35.026  1.00  0.00     0.131 A 
ATOM     89  C   UNL A   1      45.164  26.970  36.981  1.00  0.00     0.055 A 
ATOM     90  C   UNL A   1      46.689  28.354  35.729  1.00  0.00     0.041 A 
ATOM     91  F   UNL A   1      45.854  29.831  34.109  1.00  0.00    -0.206 F 
ATOM     92  C   UNL A   1      46.468  27.405  36.723  1.00  0.00     0.022 A 
BRANCH  89  93
ATOM     93  S   UNL A   1      44.913  25.820  38.361  1.00  0.00     0.124 S 
ATOM     94  O   UNL A   1      43.818  26.458  39.090  1.00  0.00    -0.237 OA
ATOM     95  O   UNL A   1      44.564  24.581  37.671  1.00  0.00    -0.237 OA
ATOM     96  O   UNL A   1      46.198  25.813  39.053  1.00  0.00    -0.744 OA
ENDBRANCH  89  93
ENDBRANCH  63  86
ENDBRANCH  37  38
ENDBRANCH  29  32
ENDBRANCH  27  28
ENDBRANCH   1  27
TORSDOF 17
ENDMDL
MODEL 3
REMARK VINA RESULT:     -12.0      1.718      2.457
REMARK SMILES CC(C)CSc1cc2c(cc1Cl)C=C(C(=O)NCCCNC(=O)c1ccc(-c3c4nc(c(-c5cc(S(=O)(=O)[O-])ccc5F)c5ccc([nH]5)c(-c5cc(S(=O)(=O)[O-])ccc5F)c5nc(c(-c6cc(S(=O)(=O)[O-])ccc6F)c6ccc3[nH]6)C=C5)C=C4)cc1)[C@@H](C(F)(F)F)O2
REMARK SMILES IDX 19 1 18 2 17 3 15 4 16 5 14 7 6 8 7 9 11 10 8 11 10 12 12 13
REMARK SMILES IDX 9 14 92 15 13 16 87 17 5 18 4 19 2 20 1 21 3 22 88 23 89 24
REMARK SMILES IDX 90 25 91 26 20 27 21 28 22 29 23 31 24 32 25 33 86 34 26 35
REMARK SMILES IDX 85 36 27 37 28 38 29 39 79 40 30 41 84 42 78 43 80 44 31 45
REMARK SMILES IDX 83 46 77 47 76 48 32 50 64 51 44 52 63 53 45 54 48 55 62 56
REMARK SMILES IDX 81 57 46 58 47 59 61 61 82 62 49 63 33 64 34 65 42 66 35 67
REMARK SMILES IDX 41 68 43 69 40 70 36 71 37 72 38 73 39 74 65 75 66 76 74 77
REMARK SMILES IDX 67 78 73 79 75 80 72 81 68 82 69 83 70 84 71 85 50 86 51 87
REMARK SMILES IDX 59 88 52 89 58 90 60 91 57 92 53 93 54 94 55 95 56 96
REMARK H PARENT 17 6 21 30 80 49 48 60
REMARK Flexibility Score: inf
ROOT
ATOM      1  C   UNL A   1      33.192  29.331  24.864  1.00  0.00     0.042 C 
ENDROOT
BRANCH   1   2
ATOM      2  C   UNL A   1      32.185  28.324  24.335  1.00  0.00     0.118 C 
BRANCH   2   3
ATOM      3  N   UNL A   1      31.340  27.779  25.392  1.00  0.00    -0.352 N 
ATOM      4  C   UNL A   1      31.127  26.580  25.983  1.00  0.00     0.251 C 
ATOM      5  O   UNL A   1      30.295  26.574  26.895  1.00  0.00    -0.270 OA
ATOM      6  H   UNL A   1      30.765  28.476  25.783  1.00  0.00     0.163 HD
BRANCH   4   7
ATOM      7  C   UNL A   1      31.819  25.311  25.613  1.00  0.00     0.067 C 
ATOM      8  C   UNL A   1      35.156  21.554  25.032  1.00  0.00     0.030 A 
ATOM      9  C   UNL A   1      33.807  21.754  24.767  1.00  0.00     0.063 A 
ATOM     10  C   UNL A   1      35.886  22.669  25.490  1.00  0.00     0.055 A 
ATOM     11  C   UNL A   1      33.171  22.948  25.073  1.00  0.00     0.129 A 
ATOM     12  C   UNL A   1      35.253  23.908  25.728  1.00  0.00     0.033 A 
ATOM     13  Cl  UNL A   1      37.591  22.597  25.795  1.00  0.00    -0.083 Cl
ATOM     14  C   UNL A   1      33.875  24.041  25.546  1.00  0.00     0.019 A 
ATOM     15  O   UNL A   1      31.819  22.901  24.952  1.00  0.00    -0.475 OA
ATOM     16  C   UNL A   1      33.142  25.257  25.870  1.00  0.00     0.025 C 
ATOM     17  C   UNL A   1      31.104  24.153  24.978  1.00  0.00     0.314 C 
BRANCH   8  18
ATOM     18  S   UNL A   1      35.871  19.908  24.898  1.00  0.00    -0.124 SA
BRANCH  18  19
ATOM     19  C   UNL A   1      34.448  18.762  24.651  1.00  0.00     0.078 C 
BRANCH  19  20
ATOM     20  C   UNL A   1      34.773  17.335  24.150  1.00  0.00    -0.007 C 
ATOM     21  C   UNL A   1      34.655  16.209  25.181  1.00  0.00     0.008 C 
ATOM     22  C   UNL A   1      33.839  17.003  22.977  1.00  0.00     0.008 C 
ENDBRANCH  19  20
ENDBRANCH  18  19
ENDBRANCH   8  18
BRANCH  17  23
ATOM     23  C   UNL A   1      30.634  24.425  23.539  1.00  0.00     0.429 C 
ATOM     24  F   UNL A   1      30.329  23.257  22.918  1.00  0.00    -0.167 F 
ATOM     25  F   UNL A   1      29.526  25.196  23.472  1.00  0.00    -0.167 F 
ATOM     26  F   UNL A   1      31.586  25.038  22.798  1.00  0.00    -0.167 F 
ENDBRANCH  17  23
ENDBRANCH   4   7
ENDBRANCH   2   3
ENDBRANCH   1   2
BRANCH   1  27
ATOM     27  C   UNL A   1      33.070  29.528  26.367  1.00  0.00     0.118 C 
BRANCH  27  28
ATOM     28  N   UNL A   1      32.918  30.936  26.728  1.00  0.00    -0.352 N 
ATOM     29  C   UNL A   1      33.706  31.749  27.514  1.00  0.00     0.251 C 
ATOM     30  H   UNL A   1      32.123  31.376  26.349  1.00  0.00     0.163 HD
ATOM     31  O   UNL A   1      33.279  32.835  27.878  1.00  0.00    -0.269 OA
BRANCH  29  32
ATOM     32  C   UNL A   1      35.047  31.288  27.932  1.00  0.00     0.039 A 
ATOM     33  C   UNL A   1      35.226  29.988  28.403  1.00  0.00     0.014 A 
ATOM     34  C   UNL A   1      36.133  32.166  27.869  1.00  0.00     0.014 A 
ATOM     35  C   UNL A   1      36.419  29.641  29.018  1.00  0.00     0.010 A 
ATOM     36  C   UNL A   1      37.374  31.767  28.375  1.00  0.00     0.010 A 
ATOM     37  C   UNL A   1      37.511  30.524  29.010  1.00  0.00    -0.014 A 
BRANCH  37  38
ATOM     38  C   UNL A   1      38.779  30.102  29.664  1.00  0.00     0.031 A 
ATOM     39  C   UNL A   1      39.129  30.571  31.050  1.00  0.00     0.074 A 
ATOM     40  C   UNL A   1      39.581  29.230  29.020  1.00  0.00     0.049 A 
ATOM     41  N   UNL A   1      40.168  30.259  31.782  1.00  0.00    -0.248 NA
ATOM     42  C   UNL A   1      38.205  31.514  31.699  1.00  0.00     0.031 C 
ATOM     43  C   UNL A   1      39.335  28.712  27.673  1.00  0.00     0.029 A 
ATOM     44  N   UNL A   1      40.733  28.597  29.412  1.00  0.00    -0.354 N 
ATOM     45  C   UNL A   1      40.039  30.985  32.960  1.00  0.00     0.074 A 
ATOM     46  C   UNL A   1      38.836  31.777  32.836  1.00  0.00     0.031 C 
ATOM     47  C   UNL A   1      40.259  27.790  27.380  1.00  0.00     0.029 A 
ATOM     48  C   UNL A   1      41.219  27.712  28.477  1.00  0.00     0.049 A 
ATOM     49  H   UNL A   1      41.171  28.761  30.278  1.00  0.00     0.167 HD
ATOM     50  C   UNL A   1      40.845  30.980  34.048  1.00  0.00     0.034 A 
ATOM     51  C   UNL A   1      42.321  26.934  28.486  1.00  0.00     0.034 A 
ATOM     52  C   UNL A   1      42.021  30.156  34.167  1.00  0.00     0.049 A 
ATOM     53  C   UNL A   1      43.204  26.952  29.705  1.00  0.00     0.074 A 
ATOM     54  C   UNL A   1      42.881  30.048  35.246  1.00  0.00     0.029 A 
ATOM     55  N   UNL A   1      42.502  29.299  33.186  1.00  0.00    -0.354 N 
ATOM     56  N   UNL A   1      43.041  27.613  30.827  1.00  0.00    -0.248 NA
ATOM     57  C   UNL A   1      44.419  26.129  29.665  1.00  0.00     0.031 C 
ATOM     58  C   UNL A   1      43.913  29.176  34.896  1.00  0.00     0.029 A 
ATOM     59  C   UNL A   1      43.661  28.681  33.625  1.00  0.00     0.049 A 
ATOM     60  H   UNL A   1      42.081  29.152  32.308  1.00  0.00     0.167 HD
ATOM     61  C   UNL A   1      44.127  27.279  31.630  1.00  0.00     0.074 A 
ATOM     62  C   UNL A   1      44.920  26.330  30.877  1.00  0.00     0.031 C 
ATOM     63  C   UNL A   1      44.441  27.728  32.870  1.00  0.00     0.034 A 
BRANCH  50  64
ATOM     64  C   UNL A   1      40.502  31.876  35.214  1.00  0.00     0.023 A 
ATOM     65  C   UNL A   1      39.499  31.488  36.122  1.00  0.00     0.031 A 
ATOM     66  C   UNL A   1      41.068  33.154  35.353  1.00  0.00     0.131 A 
ATOM     67  C   UNL A   1      39.067  32.386  37.108  1.00  0.00     0.055 A 
ATOM     68  C   UNL A   1      40.660  34.031  36.361  1.00  0.00     0.041 A 
ATOM     69  F   UNL A   1      42.030  33.570  34.513  1.00  0.00    -0.206 F 
ATOM     70  C   UNL A   1      39.647  33.653  37.235  1.00  0.00     0.022 A 
BRANCH  67  71
ATOM     71  S   UNL A   1      37.694  31.972  38.218  1.00  0.00     0.124 S 
ATOM     72  O   UNL A   1      38.319  32.117  39.532  1.00  0.00    -0.237 OA
ATOM     73  O   UNL A   1      36.708  32.995  37.881  1.00  0.00    -0.237 OA
ATOM     74  O   UNL A   1      37.341  30.606  37.847  1.00  0.00    -0.744 OA
ENDBRANCH  67  71
ENDBRANCH  50  64
BRANCH  51  75
ATOM     75  C   UNL A   1      42.603  26.063  27.307  1.00  0.00     0.023 A 
ATOM     76  C   UNL A   1      42.130  24.738  27.261  1.00  0.00     0.031 A 
ATOM     77  C   UNL A   1      43.456  26.494  26.278  1.00  0.00     0.131 A 
ATOM     78  C   UNL A   1      42.581  23.868  26.262  1.00  0.00     0.055 A 
ATOM     79  C   UNL A   1      43.838  25.645  25.236  1.00  0.00     0.041 A 
ATOM     80  F   UNL A   1      43.945  27.743  26.282  1.00  0.00    -0.206 F 
ATOM     81  C   UNL A   1      43.419  24.318  25.238  1.00  0.00     0.022 A 
BRANCH  78  82
ATOM     82  S   UNL A   1      42.232  22.089  26.357  1.00  0.00     0.124 S 
ATOM     83  O   UNL A   1      43.143  21.548  25.354  1.00  0.00    -0.237 OA
ATOM     84  O   UNL A   1      42.573  21.790  27.747  1.00  0.00    -0.237 OA
ATOM     85  O   UNL A   1      40.811  22.000  26.038  1.00  0.00    -0.744 OA
ENDBRANCH  78  82
ENDBRANCH  51  75
BRANCH  63  86
ATOM     86  C   UNL A   1      45.703  27.217  33.520  1.00  0.00     0.023 A 
ATOM     87  C   UNL A   1      45.654  26.089  34.362  1.00  0.00     0.031 A 
ATOM     88  C   UNL A   1      46.910  27.932  33.432  1.00  0.00     0.131 A 
ATOM     89  C   UNL A   1      46.778  25.736  35.118  1.00  0.00     0.055 A 
ATOM     90  C   UNL A   1      48.043  27.547  34.151  1.00  0.00     0.041 A 
ATOM     91  F   UNL A   1      47.001  29.019  32.650  1.00  0.00    -0.206 F 
ATOM     92  C   UNL A   1      47.974  26.454  35.011  1.00  0.00     0.022 A 
BRANCH  89  93
ATOM     93  S   UNL A   1      46.703  24.394  36.336  1.00  0.00     0.124 S 
ATOM     94  O   UNL A   1      45.338  23.901  36.157  1.00  0.00    -0.237 OA
ATOM     95  O   UNL A   1      47.756  23.496  35.870  1.00  0.00    -0.237 OA
ATOM     96  O   UNL A   1      46.962  25.058  37.609  1.00  0.00    -0.744 OA
ENDBRANCH  89  93
ENDBRANCH  63  86
ENDBRANCH  37  38
ENDBRANCH  29  32
ENDBRANCH  27  28
ENDBRANCH   1  27
TORSDOF 17
ENDMDL
