MODEL 1
REMARK VINA RESULT:     -12.8      0.000      0.000
REMARK SMILES Cc1c(Cl)cc2c(c1C)O[C@H](C(F)(F)F)C(C(=O)NCCCNC(=O)c1ccc(-c3c4nc(c(-c5cc(S(=O)(=O)[O-])ccc5F)c5ccc([nH]5)c(-c5cc(S(=O)(=O)[O-])ccc5F)c5nc(c(-c6cc(S(=O)(=O)[O-])ccc6F)c6ccc3[nH]6)C=C5)C=C4)cc1)=C2
REMARK SMILES IDX 22 1 21 2 20 3 19 4 17 5 18 6 16 8 1 9 2 10 3 11 8 12 4 13
REMARK SMILES IDX 5 14 7 15 9 16 6 17 10 18 89 19 11 20 12 21 13 22 14 23
REMARK SMILES IDX 15 24 23 25 24 26 25 28 26 29 27 30 88 31 28 32 87 33 29 34
REMARK SMILES IDX 30 35 31 36 81 37 32 38 86 39 80 40 82 41 33 42 85 43 79 44
REMARK SMILES IDX 78 45 34 47 66 48 46 49 65 50 47 51 50 52 64 53 83 54 48 55
REMARK SMILES IDX 49 56 63 58 84 59 51 60 35 61 36 62 44 63 37 64 43 65 45 66
REMARK SMILES IDX 42 67 38 68 39 69 40 70 41 71 67 72 68 73 76 74 69 75 75 76
REMARK SMILES IDX 77 77 74 78 70 79 71 80 72 81 73 82 52 83 53 84 61 85 54 86
REMARK SMILES IDX 60 87 62 88 59 89 55 90 56 91 57 92 58 93
REMARK H PARENT 19 7 23 27 82 46 50 57
REMARK Flexibility Score: inf
ROOT
ATOM      1  C   UNL A   1      32.698  32.819  27.245  1.00  0.00     0.118 C 
ENDROOT
BRANCH   1   2
ATOM      2  C   UNL A   1      31.401  32.233  26.703  1.00  0.00     0.042 C 
BRANCH   2   3
ATOM      3  C   UNL A   1      31.521  30.743  26.418  1.00  0.00     0.118 C 
BRANCH   3   4
ATOM      4  N   UNL A   1      31.283  30.432  25.015  1.00  0.00    -0.352 N 
ATOM      5  C   UNL A   1      31.242  29.326  24.238  1.00  0.00     0.251 C 
ATOM      6  O   UNL A   1      30.968  29.522  23.050  1.00  0.00    -0.270 OA
ATOM      7  H   UNL A   1      31.104  31.246  24.491  1.00  0.00     0.163 HD
BRANCH   5   8
ATOM      8  C   UNL A   1      31.497  27.936  24.716  1.00  0.00     0.067 C 
ATOM      9  C   UNL A   1      33.957  22.278  26.883  1.00  0.00     0.046 C 
ATOM     10  C   UNL A   1      33.668  23.644  26.314  1.00  0.00    -0.026 A 
ATOM     11  C   UNL A   1      34.684  24.457  25.769  1.00  0.00     0.045 A 
ATOM     12  C   UNL A   1      32.344  24.142  26.334  1.00  0.00    -0.004 A 
ATOM     13  Cl  UNL A   1      36.335  23.944  25.683  1.00  0.00    -0.084 Cl
ATOM     14  C   UNL A   1      34.402  25.736  25.272  1.00  0.00     0.032 A 
ATOM     15  C   UNL A   1      32.086  25.429  25.826  1.00  0.00     0.131 A 
ATOM     16  C   UNL A   1      31.175  23.354  26.874  1.00  0.00     0.049 C 
ATOM     17  C   UNL A   1      33.101  26.229  25.303  1.00  0.00     0.019 A 
ATOM     18  O   UNL A   1      30.798  25.879  25.924  1.00  0.00    -0.475 OA
ATOM     19  C   UNL A   1      32.789  27.578  24.842  1.00  0.00     0.025 C 
ATOM     20  C   UNL A   1      30.413  26.949  25.027  1.00  0.00     0.314 C 
BRANCH  20  21
ATOM     21  C   UNL A   1      29.780  26.346  23.757  1.00  0.00     0.429 C 
ATOM     22  F   UNL A   1      29.472  25.040  23.954  1.00  0.00    -0.167 F 
ATOM     23  F   UNL A   1      28.628  26.964  23.403  1.00  0.00    -0.167 F 
ATOM     24  F   UNL A   1      30.601  26.410  22.685  1.00  0.00    -0.167 F 
ENDBRANCH  20  21
ENDBRANCH   5   8
ENDBRANCH   3   4
ENDBRANCH   2   3
ENDBRANCH   1   2
BRANCH   1  25
ATOM     25  N   UNL A   1      32.526  34.207  27.668  1.00  0.00    -0.352 N 
ATOM     26  C   UNL A   1      33.034  34.868  28.757  1.00  0.00     0.251 C 
ATOM     27  H   UNL A   1      31.956  34.752  27.079  1.00  0.00     0.163 HD
ATOM     28  O   UNL A   1      32.532  35.936  29.103  1.00  0.00    -0.269 OA
BRANCH  26  29
ATOM     29  C   UNL A   1      34.170  34.296  29.504  1.00  0.00     0.039 A 
ATOM     30  C   UNL A   1      33.932  33.585  30.682  1.00  0.00     0.014 A 
ATOM     31  C   UNL A   1      35.478  34.486  29.048  1.00  0.00     0.014 A 
ATOM     32  C   UNL A   1      35.005  33.007  31.363  1.00  0.00     0.010 A 
ATOM     33  C   UNL A   1      36.530  33.830  29.670  1.00  0.00     0.010 A 
ATOM     34  C   UNL A   1      36.307  33.093  30.841  1.00  0.00    -0.014 A 
BRANCH  34  35
ATOM     35  C   UNL A   1      37.461  32.460  31.524  1.00  0.00     0.031 A 
ATOM     36  C   UNL A   1      38.171  31.308  30.863  1.00  0.00     0.074 A 
ATOM     37  C   UNL A   1      37.841  32.894  32.742  1.00  0.00     0.049 A 
ATOM     38  N   UNL A   1      39.132  30.556  31.331  1.00  0.00    -0.248 NA
ATOM     39  C   UNL A   1      37.726  30.936  29.509  1.00  0.00     0.031 C 
ATOM     40  C   UNL A   1      37.216  33.995  33.482  1.00  0.00     0.029 A 
ATOM     41  N   UNL A   1      38.847  32.470  33.572  1.00  0.00    -0.354 N 
ATOM     42  C   UNL A   1      39.410  29.632  30.331  1.00  0.00     0.074 A 
ATOM     43  C   UNL A   1      38.467  29.867  29.260  1.00  0.00     0.031 C 
ATOM     44  C   UNL A   1      37.886  34.189  34.630  1.00  0.00     0.029 A 
ATOM     45  C   UNL A   1      38.951  33.199  34.736  1.00  0.00     0.049 A 
ATOM     46  H   UNL A   1      39.441  31.716  33.355  1.00  0.00     0.167 HD
ATOM     47  C   UNL A   1      40.387  28.698  30.292  1.00  0.00     0.034 A 
ATOM     48  C   UNL A   1      39.807  33.075  35.770  1.00  0.00     0.034 A 
ATOM     49  C   UNL A   1      41.343  28.494  31.347  1.00  0.00     0.049 A 
ATOM     50  C   UNL A   1      40.846  31.981  35.722  1.00  0.00     0.074 A 
ATOM     51  C   UNL A   1      42.380  27.581  31.400  1.00  0.00     0.029 A 
ATOM     52  N   UNL A   1      41.389  29.225  32.524  1.00  0.00    -0.354 N 
ATOM     53  N   UNL A   1      41.080  31.107  34.770  1.00  0.00    -0.248 NA
ATOM     54  C   UNL A   1      41.733  31.855  36.887  1.00  0.00     0.031 C 
ATOM     55  C   UNL A   1      43.028  27.730  32.628  1.00  0.00     0.029 A 
ATOM     56  C   UNL A   1      42.431  28.774  33.316  1.00  0.00     0.049 A 
ATOM     57  H   UNL A   1      40.774  29.956  32.762  1.00  0.00     0.167 HD
ATOM     58  C   UNL A   1      42.163  30.353  35.210  1.00  0.00     0.074 A 
ATOM     59  C   UNL A   1      42.540  30.877  36.506  1.00  0.00     0.031 C 
ATOM     60  C   UNL A   1      42.792  29.318  34.599  1.00  0.00     0.034 A 
BRANCH  47  61
ATOM     61  C   UNL A   1      40.497  27.845  29.060  1.00  0.00     0.023 A 
ATOM     62  C   UNL A   1      41.418  28.157  28.046  1.00  0.00     0.031 A 
ATOM     63  C   UNL A   1      39.724  26.681  28.922  1.00  0.00     0.131 A 
ATOM     64  C   UNL A   1      41.529  27.324  26.924  1.00  0.00     0.055 A 
ATOM     65  C   UNL A   1      39.878  25.825  27.831  1.00  0.00     0.041 A 
ATOM     66  F   UNL A   1      38.818  26.348  29.856  1.00  0.00    -0.206 F 
ATOM     67  C   UNL A   1      40.784  26.145  26.822  1.00  0.00     0.022 A 
BRANCH  64  68
ATOM     68  S   UNL A   1      42.633  27.823  25.577  1.00  0.00     0.124 S 
ATOM     69  O   UNL A   1      41.903  28.949  25.002  1.00  0.00    -0.237 OA
ATOM     70  O   UNL A   1      43.866  28.155  26.282  1.00  0.00    -0.237 OA
ATOM     71  O   UNL A   1      42.701  26.633  24.732  1.00  0.00    -0.744 OA
ENDBRANCH  64  68
ENDBRANCH  47  61
BRANCH  48  72
ATOM     72  C   UNL A   1      39.739  33.999  36.936  1.00  0.00     0.023 A 
ATOM     73  C   UNL A   1      39.194  33.568  38.156  1.00  0.00     0.031 A 
ATOM     74  C   UNL A   1      40.162  35.337  36.839  1.00  0.00     0.131 A 
ATOM     75  C   UNL A   1      39.036  34.476  39.214  1.00  0.00     0.055 A 
ATOM     76  C   UNL A   1      40.051  36.224  37.911  1.00  0.00     0.041 A 
ATOM     77  F   UNL A   1      40.694  35.800  35.697  1.00  0.00    -0.206 F 
ATOM     78  C   UNL A   1      39.472  35.799  39.103  1.00  0.00     0.022 A 
BRANCH  75  79
ATOM     79  S   UNL A   1      38.172  33.924  40.708  1.00  0.00     0.124 S 
ATOM     80  O   UNL A   1      37.810  35.195  41.326  1.00  0.00    -0.237 OA
ATOM     81  O   UNL A   1      37.072  33.144  40.152  1.00  0.00    -0.237 OA
ATOM     82  O   UNL A   1      39.185  33.149  41.421  1.00  0.00    -0.744 OA
ENDBRANCH  75  79
ENDBRANCH  48  72
BRANCH  60  83
ATOM     83  C   UNL A   1      43.974  28.711  35.302  1.00  0.00     0.023 A 
ATOM     84  C   UNL A   1      43.821  27.629  36.183  1.00  0.00     0.031 A 
ATOM     85  C   UNL A   1      45.271  29.186  35.041  1.00  0.00     0.131 A 
ATOM     86  C   UNL A   1      44.951  27.072  36.798  1.00  0.00     0.055 A 
ATOM     87  C   UNL A   1      46.394  28.596  35.619  1.00  0.00     0.041 A 
ATOM     88  F   UNL A   1      45.466  30.215  34.201  1.00  0.00    -0.206 F 
ATOM     89  C   UNL A   1      46.237  27.535  36.508  1.00  0.00     0.022 A 
BRANCH  86  90
ATOM     90  S   UNL A   1      44.711  25.746  38.011  1.00  0.00     0.124 S 
ATOM     91  O   UNL A   1      46.073  25.519  38.484  1.00  0.00    -0.237 OA
ATOM     92  O   UNL A   1      43.797  26.357  38.971  1.00  0.00    -0.237 OA
ATOM     93  O   UNL A   1      44.138  24.658  37.220  1.00  0.00    -0.744 OA
ENDBRANCH  86  90
ENDBRANCH  60  83
ENDBRANCH  34  35
ENDBRANCH  26  29
ENDBRANCH   1  25
TORSDOF 14
ENDMDL
MODEL 2
REMARK VINA RESULT:     -12.7      6.054     11.755
REMARK SMILES Cc1c(Cl)cc2c(c1C)O[C@H](C(F)(F)F)C(C(=O)NCCCNC(=O)c1ccc(-c3c4nc(c(-c5cc(S(=O)(=O)[O-])ccc5F)c5ccc([nH]5)c(-c5cc(S(=O)(=O)[O-])ccc5F)c5nc(c(-c6cc(S(=O)(=O)[O-])ccc6F)c6ccc3[nH]6)C=C5)C=C4)cc1)=C2
REMARK SMILES IDX 22 1 21 2 20 3 19 4 17 5 18 6 16 8 1 9 2 10 3 11 8 12 4 13
REMARK SMILES IDX 5 14 7 15 9 16 6 17 10 18 89 19 11 20 12 21 13 22 14 23
REMARK SMILES IDX 15 24 23 25 24 26 25 28 26 29 27 30 88 31 28 32 87 33 29 34
REMARK SMILES IDX 30 35 31 36 81 37 32 38 86 39 80 40 82 41 33 42 85 43 79 44
REMARK SMILES IDX 78 45 34 47 66 48 46 49 65 50 47 51 50 52 64 53 83 54 48 55
REMARK SMILES IDX 49 56 63 58 84 59 51 60 35 61 36 62 44 63 37 64 43 65 45 66
REMARK SMILES IDX 42 67 38 68 39 69 40 70 41 71 67 72 68 73 76 74 69 75 75 76
REMARK SMILES IDX 77 77 74 78 70 79 71 80 72 81 73 82 52 83 53 84 61 85 54 86
REMARK SMILES IDX 60 87 62 88 59 89 55 90 56 91 57 92 58 93
REMARK H PARENT 19 7 23 27 82 46 50 57
REMARK Flexibility Score: inf
ROOT
ATOM      1  C   UNL A   1      39.146  20.209  25.748  1.00  0.00     0.118 C 
ENDROOT
BRANCH   1   2
ATOM      2  C   UNL A   1      37.948  19.634  25.005  1.00  0.00     0.042 C 
BRANCH   2   3
ATOM      3  C   UNL A   1      36.897  20.693  24.707  1.00  0.00     0.118 C 
BRANCH   3   4
ATOM      4  N   UNL A   1      35.832  20.705  25.701  1.00  0.00    -0.352 N 
ATOM      5  C   UNL A   1      34.729  21.442  25.964  1.00  0.00     0.251 C 
ATOM      6  O   UNL A   1      34.064  21.072  26.936  1.00  0.00    -0.270 OA
ATOM      7  H   UNL A   1      35.946  19.981  26.358  1.00  0.00     0.163 HD
BRANCH   5   8
ATOM      8  C   UNL A   1      34.288  22.629  25.176  1.00  0.00     0.067 C 
ATOM      9  C   UNL A   1      32.986  28.562  22.754  1.00  0.00     0.046 C 
ATOM     10  C   UNL A   1      33.337  27.339  23.562  1.00  0.00    -0.026 A 
ATOM     11  C   UNL A   1      33.667  27.417  24.932  1.00  0.00     0.045 A 
ATOM     12  C   UNL A   1      33.352  26.071  22.937  1.00  0.00    -0.004 A 
ATOM     13  Cl  UNL A   1      33.669  28.914  25.801  1.00  0.00    -0.084 Cl
ATOM     14  C   UNL A   1      34.019  26.274  25.660  1.00  0.00     0.032 A 
ATOM     15  C   UNL A   1      33.707  24.937  23.691  1.00  0.00     0.131 A 
ATOM     16  C   UNL A   1      32.997  25.863  21.484  1.00  0.00     0.049 C 
ATOM     17  C   UNL A   1      34.046  25.028  25.040  1.00  0.00     0.019 A 
ATOM     18  O   UNL A   1      33.759  23.746  23.019  1.00  0.00    -0.475 OA
ATOM     19  C   UNL A   1      34.462  23.830  25.762  1.00  0.00     0.025 C 
ATOM     20  C   UNL A   1      33.659  22.542  23.819  1.00  0.00     0.314 C 
BRANCH  20  21
ATOM     21  C   UNL A   1      32.185  22.093  23.878  1.00  0.00     0.429 C 
ATOM     22  F   UNL A   1      32.103  20.740  23.939  1.00  0.00    -0.167 F 
ATOM     23  F   UNL A   1      31.537  22.567  24.969  1.00  0.00    -0.167 F 
ATOM     24  F   UNL A   1      31.474  22.493  22.800  1.00  0.00    -0.167 F 
ENDBRANCH  20  21
ENDBRANCH   5   8
ENDBRANCH   3   4
ENDBRANCH   2   3
ENDBRANCH   1   2
BRANCH   1  25
ATOM     25  N   UNL A   1      40.177  19.197  25.970  1.00  0.00    -0.352 N 
ATOM     26  C   UNL A   1      41.538  19.332  26.075  1.00  0.00     0.251 C 
ATOM     27  H   UNL A   1      39.843  18.276  26.057  1.00  0.00     0.163 HD
ATOM     28  O   UNL A   1      42.254  18.339  25.953  1.00  0.00    -0.269 OA
BRANCH  26  29
ATOM     29  C   UNL A   1      42.131  20.659  26.327  1.00  0.00     0.039 A 
ATOM     30  C   UNL A   1      42.571  21.433  25.252  1.00  0.00     0.014 A 
ATOM     31  C   UNL A   1      42.274  21.126  27.636  1.00  0.00     0.014 A 
ATOM     32  C   UNL A   1      43.091  22.706  25.490  1.00  0.00     0.010 A 
ATOM     33  C   UNL A   1      42.699  22.428  27.863  1.00  0.00     0.010 A 
ATOM     34  C   UNL A   1      43.124  23.227  26.794  1.00  0.00    -0.014 A 
BRANCH  34  35
ATOM     35  C   UNL A   1      43.639  24.589  27.074  1.00  0.00     0.031 A 
ATOM     36  C   UNL A   1      42.697  25.646  27.589  1.00  0.00     0.074 A 
ATOM     37  C   UNL A   1      44.932  24.881  26.831  1.00  0.00     0.049 A 
ATOM     38  N   UNL A   1      42.921  26.915  27.802  1.00  0.00    -0.248 NA
ATOM     39  C   UNL A   1      41.314  25.226  27.879  1.00  0.00     0.031 C 
ATOM     40  C   UNL A   1      45.932  23.939  26.320  1.00  0.00     0.029 A 
ATOM     41  N   UNL A   1      45.633  26.050  26.988  1.00  0.00    -0.354 N 
ATOM     42  C   UNL A   1      41.717  27.441  28.255  1.00  0.00     0.074 A 
ATOM     43  C   UNL A   1      40.744  26.372  28.216  1.00  0.00     0.031 C 
ATOM     44  C   UNL A   1      47.124  24.554  26.254  1.00  0.00     0.029 A 
ATOM     45  C   UNL A   1      46.967  25.944  26.666  1.00  0.00     0.049 A 
ATOM     46  H   UNL A   1      45.220  26.886  27.303  1.00  0.00     0.167 HD
ATOM     47  C   UNL A   1      41.455  28.690  28.701  1.00  0.00     0.034 A 
ATOM     48  C   UNL A   1      47.949  26.868  26.698  1.00  0.00     0.034 A 
ATOM     49  C   UNL A   1      42.437  29.739  28.769  1.00  0.00     0.049 A 
ATOM     50  C   UNL A   1      47.609  28.271  27.140  1.00  0.00     0.074 A 
ATOM     51  C   UNL A   1      42.276  31.038  29.215  1.00  0.00     0.029 A 
ATOM     52  N   UNL A   1      43.766  29.603  28.396  1.00  0.00    -0.354 N 
ATOM     53  N   UNL A   1      46.457  28.749  27.551  1.00  0.00    -0.248 NA
ATOM     54  C   UNL A   1      48.698  29.256  27.122  1.00  0.00     0.031 C 
ATOM     55  C   UNL A   1      43.497  31.701  29.073  1.00  0.00     0.029 A 
ATOM     56  C   UNL A   1      44.433  30.800  28.592  1.00  0.00     0.049 A 
ATOM     57  H   UNL A   1      44.175  28.779  28.045  1.00  0.00     0.167 HD
ATOM     58  C   UNL A   1      46.695  30.081  27.871  1.00  0.00     0.074 A 
ATOM     59  C   UNL A   1      48.098  30.330  27.613  1.00  0.00     0.031 C 
ATOM     60  C   UNL A   1      45.833  31.019  28.337  1.00  0.00     0.034 A 
BRANCH  47  61
ATOM     61  C   UNL A   1      40.063  28.990  29.180  1.00  0.00     0.023 A 
ATOM     62  C   UNL A   1      39.733  28.896  30.543  1.00  0.00     0.031 A 
ATOM     63  C   UNL A   1      39.075  29.431  28.284  1.00  0.00     0.131 A 
ATOM     64  C   UNL A   1      38.438  29.218  30.970  1.00  0.00     0.055 A 
ATOM     65  C   UNL A   1      37.804  29.805  28.723  1.00  0.00     0.041 A 
ATOM     66  F   UNL A   1      39.336  29.522  26.970  1.00  0.00    -0.206 F 
ATOM     67  C   UNL A   1      37.479  29.698  30.073  1.00  0.00     0.022 A 
BRANCH  64  68
ATOM     68  S   UNL A   1      38.010  28.964  32.712  1.00  0.00     0.124 S 
ATOM     69  O   UNL A   1      36.652  29.499  32.761  1.00  0.00    -0.237 OA
ATOM     70  O   UNL A   1      38.133  27.519  32.863  1.00  0.00    -0.237 OA
ATOM     71  O   UNL A   1      39.011  29.752  33.428  1.00  0.00    -0.744 OA
ENDBRANCH  64  68
ENDBRANCH  47  61
BRANCH  48  72
ATOM     72  C   UNL A   1      49.344  26.517  26.311  1.00  0.00     0.023 A 
ATOM     73  C   UNL A   1      49.899  27.015  25.121  1.00  0.00     0.031 A 
ATOM     74  C   UNL A   1      50.123  25.641  27.086  1.00  0.00     0.131 A 
ATOM     75  C   UNL A   1      51.174  26.594  24.713  1.00  0.00     0.055 A 
ATOM     76  C   UNL A   1      51.412  25.266  26.703  1.00  0.00     0.041 A 
ATOM     77  F   UNL A   1      49.642  25.140  28.235  1.00  0.00    -0.206 F 
ATOM     78  C   UNL A   1      51.939  25.731  25.502  1.00  0.00     0.022 A 
BRANCH  75  79
ATOM     79  S   UNL A   1      51.783  27.123  23.090  1.00  0.00     0.124 S 
ATOM     80  O   UNL A   1      52.815  26.127  22.822  1.00  0.00    -0.237 OA
ATOM     81  O   UNL A   1      50.579  27.036  22.271  1.00  0.00    -0.237 OA
ATOM     82  O   UNL A   1      52.270  28.478  23.334  1.00  0.00    -0.744 OA
ENDBRANCH  75  79
ENDBRANCH  48  72
BRANCH  60  83
ATOM     83  C   UNL A   1      46.386  32.384  28.635  1.00  0.00     0.023 A 
ATOM     84  C   UNL A   1      46.401  33.394  27.660  1.00  0.00     0.031 A 
ATOM     85  C   UNL A   1      46.851  32.691  29.926  1.00  0.00     0.131 A 
ATOM     86  C   UNL A   1      46.900  34.664  27.985  1.00  0.00     0.055 A 
ATOM     87  C   UNL A   1      47.300  33.969  30.255  1.00  0.00     0.041 A 
ATOM     88  F   UNL A   1      46.850  31.759  30.892  1.00  0.00    -0.206 F 
ATOM     89  C   UNL A   1      47.332  34.963  29.280  1.00  0.00     0.022 A 
BRANCH  86  90
ATOM     90  S   UNL A   1      47.003  35.914  26.677  1.00  0.00     0.124 S 
ATOM     91  O   UNL A   1      48.248  36.598  27.009  1.00  0.00    -0.237 OA
ATOM     92  O   UNL A   1      47.028  35.102  25.464  1.00  0.00    -0.237 OA
ATOM     93  O   UNL A   1      45.789  36.706  26.864  1.00  0.00    -0.744 OA
ENDBRANCH  86  90
ENDBRANCH  60  83
ENDBRANCH  34  35
ENDBRANCH  26  29
ENDBRANCH   1  25
TORSDOF 14
ENDMDL
MODEL 3
REMARK VINA RESULT:     -12.7      2.499      3.331
REMARK SMILES Cc1c(Cl)cc2c(c1C)O[C@H](C(F)(F)F)C(C(=O)NCCCNC(=O)c1ccc(-c3c4nc(c(-c5cc(S(=O)(=O)[O-])ccc5F)c5ccc([nH]5)c(-c5cc(S(=O)(=O)[O-])ccc5F)c5nc(c(-c6cc(S(=O)(=O)[O-])ccc6F)c6ccc3[nH]6)C=C5)C=C4)cc1)=C2
REMARK SMILES IDX 22 1 21 2 20 3 19 4 17 5 18 6 16 8 1 9 2 10 3 11 8 12 4 13
REMARK SMILES IDX 5 14 7 15 9 16 6 17 10 18 89 19 11 20 12 21 13 22 14 23
REMARK SMILES IDX 15 24 23 25 24 26 25 28 26 29 27 30 88 31 28 32 87 33 29 34
REMARK SMILES IDX 30 35 31 36 81 37 32 38 86 39 80 40 82 41 33 42 85 43 79 44
REMARK SMILES IDX 78 45 34 47 66 48 46 49 65 50 47 51 50 52 64 53 83 54 48 55
REMARK SMILES IDX 49 56 63 58 84 59 51 60 35 61 36 62 44 63 37 64 43 65 45 66
REMARK SMILES IDX 42 67 38 68 39 69 40 70 41 71 67 72 68 73 76 74 69 75 75 76
REMARK SMILES IDX 77 77 74 78 70 79 71 80 72 81 73 82 52 83 53 84 61 85 54 86
REMARK SMILES IDX 60 87 62 88 59 89 55 90 56 91 57 92 58 93
REMARK H PARENT 19 7 23 27 82 46 50 57
REMARK Flexibility Score: inf
ROOT
ATOM      1  C   UNL A   1      33.416  29.167  25.199  1.00  0.00     0.118 C 
ENDROOT
BRANCH   1   2
ATOM      2  C   UNL A   1      32.894  28.840  23.806  1.00  0.00     0.042 C 
BRANCH   2   3
ATOM      3  C   UNL A   1      31.515  28.201  23.846  1.00  0.00     0.118 C 
BRANCH   3   4
ATOM      4  N   UNL A   1      31.085  27.909  25.207  1.00  0.00    -0.352 N 
ATOM      5  C   UNL A   1      31.151  26.867  26.066  1.00  0.00     0.251 C 
ATOM      6  O   UNL A   1      30.658  27.066  27.181  1.00  0.00    -0.270 OA
ATOM      7  H   UNL A   1      30.621  28.678  25.610  1.00  0.00     0.163 HD
BRANCH   5   8
ATOM      8  C   UNL A   1      31.764  25.543  25.757  1.00  0.00     0.067 C 
ATOM      9  C   UNL A   1      35.598  20.300  25.001  1.00  0.00     0.046 C 
ATOM     10  C   UNL A   1      34.966  21.651  25.216  1.00  0.00    -0.026 A 
ATOM     11  C   UNL A   1      35.739  22.809  25.448  1.00  0.00     0.045 A 
ATOM     12  C   UNL A   1      33.557  21.773  25.200  1.00  0.00    -0.004 A 
ATOM     13  Cl  UNL A   1      37.469  22.778  25.477  1.00  0.00    -0.084 Cl
ATOM     14  C   UNL A   1      35.134  24.052  25.676  1.00  0.00     0.032 A 
ATOM     15  C   UNL A   1      32.974  23.034  25.429  1.00  0.00     0.131 A 
ATOM     16  C   UNL A   1      32.631  20.609  24.942  1.00  0.00     0.049 C 
ATOM     17  C   UNL A   1      33.747  24.168  25.672  1.00  0.00     0.019 A 
ATOM     18  O   UNL A   1      31.607  23.080  25.458  1.00  0.00    -0.475 OA
ATOM     19  C   UNL A   1      33.091  25.439  25.960  1.00  0.00     0.025 C 
ATOM     20  C   UNL A   1      30.994  24.371  25.226  1.00  0.00     0.314 C 
BRANCH  20  21
ATOM     21  C   UNL A   1      30.660  24.514  23.728  1.00  0.00     0.429 C 
ATOM     22  F   UNL A   1      31.734  24.981  23.044  1.00  0.00    -0.167 F 
ATOM     23  F   UNL A   1      30.321  23.335  23.153  1.00  0.00    -0.167 F 
ATOM     24  F   UNL A   1      29.635  25.365  23.500  1.00  0.00    -0.167 F 
ENDBRANCH  20  21
ENDBRANCH   5   8
ENDBRANCH   3   4
ENDBRANCH   2   3
ENDBRANCH   1   2
BRANCH   1  25
ATOM     25  N   UNL A   1      32.881  30.435  25.689  1.00  0.00    -0.352 N 
ATOM     26  C   UNL A   1      33.200  31.152  26.814  1.00  0.00     0.251 C 
ATOM     27  H   UNL A   1      32.183  30.838  25.124  1.00  0.00     0.163 HD
ATOM     28  O   UNL A   1      32.432  32.028  27.211  1.00  0.00    -0.269 OA
BRANCH  26  29
ATOM     29  C   UNL A   1      34.452  30.867  27.541  1.00  0.00     0.039 A 
ATOM     30  C   UNL A   1      35.381  31.890  27.742  1.00  0.00     0.014 A 
ATOM     31  C   UNL A   1      34.717  29.574  28.002  1.00  0.00     0.014 A 
ATOM     32  C   UNL A   1      36.544  31.628  28.468  1.00  0.00     0.010 A 
ATOM     33  C   UNL A   1      35.824  29.340  28.806  1.00  0.00     0.010 A 
ATOM     34  C   UNL A   1      36.755  30.361  29.037  1.00  0.00    -0.014 A 
BRANCH  34  35
ATOM     35  C   UNL A   1      37.965  30.063  29.842  1.00  0.00     0.031 A 
ATOM     36  C   UNL A   1      39.030  29.164  29.271  1.00  0.00     0.074 A 
ATOM     37  C   UNL A   1      38.084  30.566  31.087  1.00  0.00     0.049 A 
ATOM     38  N   UNL A   1      40.110  28.702  29.843  1.00  0.00    -0.248 NA
ATOM     39  C   UNL A   1      38.845  28.704  27.883  1.00  0.00     0.031 C 
ATOM     40  C   UNL A   1      37.108  31.438  31.745  1.00  0.00     0.029 A 
ATOM     41  N   UNL A   1      39.080  30.425  32.019  1.00  0.00    -0.354 N 
ATOM     42  C   UNL A   1      40.733  27.907  28.888  1.00  0.00     0.074 A 
ATOM     43  C   UNL A   1      39.875  27.888  27.724  1.00  0.00     0.031 C 
ATOM     44  C   UNL A   1      37.577  31.792  32.953  1.00  0.00     0.029 A 
ATOM     45  C   UNL A   1      38.859  31.135  33.178  1.00  0.00     0.049 A 
ATOM     46  H   UNL A   1      39.879  29.869  31.873  1.00  0.00     0.167 HD
ATOM     47  C   UNL A   1      41.930  27.282  28.960  1.00  0.00     0.034 A 
ATOM     48  C   UNL A   1      39.608  31.237  34.295  1.00  0.00     0.034 A 
ATOM     49  C   UNL A   1      42.794  27.335  30.109  1.00  0.00     0.049 A 
ATOM     50  C   UNL A   1      40.909  30.476  34.367  1.00  0.00     0.074 A 
ATOM     51  C   UNL A   1      44.033  26.745  30.278  1.00  0.00     0.029 A 
ATOM     52  N   UNL A   1      42.516  28.030  31.275  1.00  0.00    -0.354 N 
ATOM     53  N   UNL A   1      41.471  29.717  33.455  1.00  0.00    -0.248 NA
ATOM     54  C   UNL A   1      41.674  30.583  35.617  1.00  0.00     0.031 C 
ATOM     55  C   UNL A   1      44.487  27.048  31.564  1.00  0.00     0.029 A 
ATOM     56  C   UNL A   1      43.557  27.874  32.174  1.00  0.00     0.049 A 
ATOM     57  H   UNL A   1      41.701  28.558  31.440  1.00  0.00     0.167 HD
ATOM     58  C   UNL A   1      42.671  29.287  34.011  1.00  0.00     0.074 A 
ATOM     59  C   UNL A   1      42.755  29.874  35.332  1.00  0.00     0.031 C 
ATOM     60  C   UNL A   1      43.621  28.477  33.480  1.00  0.00     0.034 A 
BRANCH  47  61
ATOM     61  C   UNL A   1      42.396  26.513  27.757  1.00  0.00     0.023 A 
ATOM     62  C   UNL A   1      42.072  25.155  27.598  1.00  0.00     0.031 A 
ATOM     63  C   UNL A   1      43.115  27.150  26.732  1.00  0.00     0.131 A 
ATOM     64  C   UNL A   1      42.486  24.469  26.448  1.00  0.00     0.055 A 
ATOM     65  C   UNL A   1      43.475  26.477  25.563  1.00  0.00     0.041 A 
ATOM     66  F   UNL A   1      43.463  28.442  26.843  1.00  0.00    -0.206 F 
ATOM     67  C   UNL A   1      43.162  25.128  25.417  1.00  0.00     0.022 A 
BRANCH  64  68
ATOM     68  S   UNL A   1      42.162  22.690  26.334  1.00  0.00     0.124 S 
ATOM     69  O   UNL A   1      40.713  22.644  26.511  1.00  0.00    -0.237 OA
ATOM     70  O   UNL A   1      42.653  22.361  25.001  1.00  0.00    -0.237 OA
ATOM     71  O   UNL A   1      42.938  22.131  27.438  1.00  0.00    -0.744 OA
ENDBRANCH  64  68
ENDBRANCH  47  61
BRANCH  48  72
ATOM     72  C   UNL A   1      39.168  32.088  35.437  1.00  0.00     0.023 A 
ATOM     73  C   UNL A   1      39.607  33.417  35.545  1.00  0.00     0.031 A 
ATOM     74  C   UNL A   1      38.352  31.577  36.461  1.00  0.00     0.131 A 
ATOM     75  C   UNL A   1      39.274  34.175  36.678  1.00  0.00     0.055 A 
ATOM     76  C   UNL A   1      37.979  32.352  37.561  1.00  0.00     0.041 A 
ATOM     77  F   UNL A   1      37.900  30.314  36.404  1.00  0.00    -0.206 F 
ATOM     78  C   UNL A   1      38.453  33.655  37.681  1.00  0.00     0.022 A 
BRANCH  75  79
ATOM     79  S   UNL A   1      40.003  35.825  36.861  1.00  0.00     0.124 S 
ATOM     80  O   UNL A   1      41.413  35.505  37.053  1.00  0.00    -0.237 OA
ATOM     81  O   UNL A   1      39.653  36.453  35.593  1.00  0.00    -0.237 OA
ATOM     82  O   UNL A   1      39.321  36.369  38.033  1.00  0.00    -0.744 OA
ENDBRANCH  75  79
ENDBRANCH  48  72
BRANCH  60  83
ATOM     83  C   UNL A   1      44.848  28.211  34.306  1.00  0.00     0.023 A 
ATOM     84  C   UNL A   1      44.894  27.147  35.222  1.00  0.00     0.031 A 
ATOM     85  C   UNL A   1      46.001  28.997  34.133  1.00  0.00     0.131 A 
ATOM     86  C   UNL A   1      46.067  26.914  35.955  1.00  0.00     0.055 A 
ATOM     87  C   UNL A   1      47.179  28.729  34.829  1.00  0.00     0.041 A 
ATOM     88  F   UNL A   1      46.005  30.021  33.264  1.00  0.00    -0.206 F 
ATOM     89  C   UNL A   1      47.214  27.686  35.750  1.00  0.00     0.022 A 
BRANCH  86  90
ATOM     90  S   UNL A   1      46.060  25.601  37.204  1.00  0.00     0.124 S 
ATOM     91  O   UNL A   1      46.607  26.289  38.369  1.00  0.00    -0.237 OA
ATOM     92  O   UNL A   1      44.647  25.245  37.280  1.00  0.00    -0.237 OA
ATOM     93  O   UNL A   1      46.925  24.574  36.625  1.00  0.00    -0.744 OA
ENDBRANCH  86  90
ENDBRANCH  60  83
ENDBRANCH  34  35
ENDBRANCH  26  29
ENDBRANCH   1  25
TORSDOF 14
ENDMDL
