MODEL 1
REMARK VINA RESULT:     -11.4      0.000      0.000
REMARK SMILES C[C@@H](Oc1ccc(I)cc1)C(=O)NCc1ccc(C(=O)NCCCNC(=O)c2ccc(-c3c4nc(c(-c5cc(S(=O)(=O)[O-])ccc5F)c5ccc([nH]5)c(-c5cc(S(=O)(=O)[O-])ccc5F)c5nc(c(-c6cc(S(=O)(=O)[O-])ccc6F)c6ccc3[nH]6)C=C5)C=C4)cc2)cc1
REMARK SMILES IDX 22 1 21 2 19 3 20 4 18 6 15 7 16 8 92 9 17 10 91 11 14 12
REMARK SMILES IDX 13 13 11 14 12 15 2 17 1 18 3 19 4 20 5 21 10 22 6 23 9 24
REMARK SMILES IDX 7 25 8 26 23 27 24 28 25 29 26 30 27 32 28 33 29 34 90 35
REMARK SMILES IDX 30 36 89 37 31 38 32 39 33 40 83 41 34 42 88 43 82 44 84 45
REMARK SMILES IDX 35 46 87 47 81 48 80 49 36 51 68 52 48 53 67 54 49 55 52 56
REMARK SMILES IDX 66 57 85 58 50 59 51 60 65 62 86 63 53 64 37 65 38 66 46 67
REMARK SMILES IDX 39 68 45 69 47 70 44 71 40 72 41 73 42 74 43 75 69 76 70 77
REMARK SMILES IDX 78 78 71 79 77 80 79 81 76 82 72 83 73 84 74 85 75 86 54 87
REMARK SMILES IDX 55 88 63 89 56 90 62 91 64 92 61 93 57 94 58 95 59 96 60 97
REMARK H PARENT 21 5 13 16 25 31 84 50 52 61
REMARK Flexibility Score: inf
ROOT
ATOM      1  C   UNL A   1      31.855  28.753  26.264  1.00  0.00     0.118 C 
ENDROOT
BRANCH   1   2
ATOM      2  N   UNL A   1      32.312  29.253  24.978  1.00  0.00    -0.352 N 
ATOM      3  C   UNL A   1      32.992  28.646  23.953  1.00  0.00     0.251 C 
ATOM      4  O   UNL A   1      33.167  29.281  22.914  1.00  0.00    -0.269 OA
ATOM      5  H   UNL A   1      32.094  30.199  24.813  1.00  0.00     0.163 HD
BRANCH   3   6
ATOM      6  C   UNL A   1      33.473  27.242  24.028  1.00  0.00     0.039 A 
ATOM      7  C   UNL A   1      34.420  24.594  24.336  1.00  0.00    -0.029 A 
ATOM      8  C   UNL A   1      34.249  25.422  25.451  1.00  0.00     0.006 A 
ATOM      9  C   UNL A   1      34.073  25.098  23.072  1.00  0.00     0.006 A 
ATOM     10  C   UNL A   1      33.778  26.731  25.298  1.00  0.00     0.014 A 
ATOM     11  C   UNL A   1      33.583  26.399  22.923  1.00  0.00     0.014 A 
BRANCH   7  12
ATOM     12  C   UNL A   1      34.945  23.182  24.406  1.00  0.00     0.151 C 
BRANCH  12  13
ATOM     13  N   UNL A   1      34.768  22.519  25.683  1.00  0.00    -0.349 N 
ATOM     14  C   UNL A   1      33.826  21.616  26.082  1.00  0.00     0.261 C 
ATOM     15  O   UNL A   1      33.953  21.120  27.207  1.00  0.00    -0.271 OA
ATOM     16  H   UNL A   1      35.432  22.757  26.369  1.00  0.00     0.163 HD
BRANCH  14  17
ATOM     17  C   UNL A   1      32.592  21.296  25.216  1.00  0.00     0.258 C 
ATOM     18  C   UNL A   1      32.473  19.778  25.110  1.00  0.00     0.064 C 
BRANCH  17  19
ATOM     19  O   UNL A   1      31.445  21.938  25.775  1.00  0.00    -0.481 OA
BRANCH  19  20
ATOM     20  C   UNL A   1      31.118  23.148  25.237  1.00  0.00     0.120 A 
ATOM     21  C   UNL A   1      30.943  23.305  23.864  1.00  0.00     0.047 A 
ATOM     22  C   UNL A   1      30.768  24.176  26.110  1.00  0.00     0.047 A 
ATOM     23  C   UNL A   1      30.473  24.516  23.353  1.00  0.00     0.018 A 
ATOM     24  C   UNL A   1      30.284  25.386  25.604  1.00  0.00     0.018 A 
ATOM     25  C   UNL A   1      30.144  25.552  24.225  1.00  0.00     0.013 A 
ATOM     26  I   UNL A   1      29.399  27.337  23.466  1.00  0.00    -0.044 I 
ENDBRANCH  19  20
ENDBRANCH  17  19
ENDBRANCH  14  17
ENDBRANCH  12  13
ENDBRANCH   7  12
ENDBRANCH   3   6
ENDBRANCH   1   2
BRANCH   1  27
ATOM     27  C   UNL A   1      32.658  29.359  27.414  1.00  0.00     0.042 C 
BRANCH  27  28
ATOM     28  C   UNL A   1      33.846  30.199  26.951  1.00  0.00     0.118 C 
BRANCH  28  29
ATOM     29  N   UNL A   1      33.831  31.529  27.541  1.00  0.00    -0.352 N 
ATOM     30  C   UNL A   1      34.619  32.062  28.531  1.00  0.00     0.251 C 
ATOM     31  H   UNL A   1      33.152  32.139  27.175  1.00  0.00     0.163 HD
ATOM     32  O   UNL A   1      34.280  33.119  29.055  1.00  0.00    -0.269 OA
BRANCH  30  33
ATOM     33  C   UNL A   1      35.854  31.372  28.972  1.00  0.00     0.039 A 
ATOM     34  C   UNL A   1      37.092  31.910  28.605  1.00  0.00     0.014 A 
ATOM     35  C   UNL A   1      35.801  30.179  29.697  1.00  0.00     0.014 A 
ATOM     36  C   UNL A   1      38.272  31.279  29.006  1.00  0.00     0.010 A 
ATOM     37  C   UNL A   1      36.977  29.590  30.157  1.00  0.00     0.010 A 
ATOM     38  C   UNL A   1      38.225  30.128  29.808  1.00  0.00    -0.014 A 
BRANCH  38  39
ATOM     39  C   UNL A   1      39.470  29.467  30.280  1.00  0.00     0.031 A 
ATOM     40  C   UNL A   1      40.179  29.975  31.506  1.00  0.00     0.074 A 
ATOM     41  C   UNL A   1      39.993  28.450  29.569  1.00  0.00     0.049 A 
ATOM     42  N   UNL A   1      41.302  29.572  32.042  1.00  0.00    -0.248 NA
ATOM     43  C   UNL A   1      39.553  31.109  32.200  1.00  0.00     0.031 C 
ATOM     44  C   UNL A   1      39.415  27.892  28.345  1.00  0.00     0.029 A 
ATOM     45  N   UNL A   1      41.127  27.705  29.770  1.00  0.00    -0.354 N 
ATOM     46  C   UNL A   1      41.529  30.414  33.126  1.00  0.00     0.074 A 
ATOM     47  C   UNL A   1      40.458  31.388  33.126  1.00  0.00     0.031 C 
ATOM     48  C   UNL A   1      40.179  26.871  27.925  1.00  0.00     0.029 A 
ATOM     49  C   UNL A   1      41.323  26.731  28.820  1.00  0.00     0.049 A 
ATOM     50  H   UNL A   1      41.743  27.854  30.524  1.00  0.00     0.167 HD
ATOM     51  C   UNL A   1      42.526  30.367  34.047  1.00  0.00     0.034 A 
ATOM     52  C   UNL A   1      42.316  25.831  28.682  1.00  0.00     0.034 A 
ATOM     53  C   UNL A   1      43.581  29.380  34.032  1.00  0.00     0.049 A 
ATOM     54  C   UNL A   1      43.430  25.816  29.694  1.00  0.00     0.074 A 
ATOM     55  C   UNL A   1      44.601  29.191  34.949  1.00  0.00     0.029 A 
ATOM     56  N   UNL A   1      43.762  28.423  33.039  1.00  0.00    -0.354 N 
ATOM     57  N   UNL A   1      43.603  26.581  30.747  1.00  0.00    -0.248 NA
ATOM     58  C   UNL A   1      44.481  24.810  29.499  1.00  0.00     0.031 C 
ATOM     59  C   UNL A   1      45.437  28.172  34.474  1.00  0.00     0.029 A 
ATOM     60  C   UNL A   1      44.898  27.670  33.300  1.00  0.00     0.049 A 
ATOM     61  H   UNL A   1      43.170  28.299  32.263  1.00  0.00     0.167 HD
ATOM     62  C   UNL A   1      44.767  26.125  31.359  1.00  0.00     0.074 A 
ATOM     63  C   UNL A   1      45.247  25.014  30.560  1.00  0.00     0.031 C 
ATOM     64  C   UNL A   1      45.380  26.578  32.483  1.00  0.00     0.034 A 
BRANCH  51  65
ATOM     65  C   UNL A   1      42.533  31.438  35.115  1.00  0.00     0.023 A 
ATOM     66  C   UNL A   1      41.539  31.501  36.108  1.00  0.00     0.031 A 
ATOM     67  C   UNL A   1      43.512  32.449  35.107  1.00  0.00     0.131 A 
ATOM     68  C   UNL A   1      41.482  32.601  36.978  1.00  0.00     0.055 A 
ATOM     69  C   UNL A   1      43.505  33.490  36.038  1.00  0.00     0.041 A 
ATOM     70  F   UNL A   1      44.478  32.457  34.175  1.00  0.00    -0.206 F 
ATOM     71  C   UNL A   1      42.473  33.583  36.967  1.00  0.00     0.022 A 
BRANCH  68  72
ATOM     72  S   UNL A   1      39.992  32.824  37.990  1.00  0.00     0.124 S 
ATOM     73  O   UNL A   1      40.485  32.477  39.321  1.00  0.00    -0.237 OA
ATOM     74  O   UNL A   1      39.674  34.231  37.773  1.00  0.00    -0.237 OA
ATOM     75  O   UNL A   1      39.042  31.872  37.417  1.00  0.00    -0.744 OA
ENDBRANCH  68  72
ENDBRANCH  51  65
BRANCH  52  76
ATOM     76  C   UNL A   1      42.294  24.859  27.554  1.00  0.00     0.023 A 
ATOM     77  C   UNL A   1      41.539  23.680  27.638  1.00  0.00     0.031 A 
ATOM     78  C   UNL A   1      43.039  25.085  26.383  1.00  0.00     0.131 A 
ATOM     79  C   UNL A   1      41.568  22.752  26.586  1.00  0.00     0.055 A 
ATOM     80  C   UNL A   1      43.031  24.180  25.319  1.00  0.00     0.041 A 
ATOM     81  F   UNL A   1      43.772  26.202  26.248  1.00  0.00    -0.206 F 
ATOM     82  C   UNL A   1      42.299  23.000  25.421  1.00  0.00     0.022 A 
BRANCH  79  83
ATOM     83  S   UNL A   1      40.676  21.185  26.784  1.00  0.00     0.124 S 
ATOM     84  O   UNL A   1      41.482  20.280  25.972  1.00  0.00    -0.237 OA
ATOM     85  O   UNL A   1      40.737  20.982  28.227  1.00  0.00    -0.237 OA
ATOM     86  O   UNL A   1      39.346  21.484  26.256  1.00  0.00    -0.744 OA
ENDBRANCH  79  83
ENDBRANCH  52  76
BRANCH  64  87
ATOM     87  C   UNL A   1      46.617  25.838  32.932  1.00  0.00     0.023 A 
ATOM     88  C   UNL A   1      47.861  26.026  32.304  1.00  0.00     0.031 A 
ATOM     89  C   UNL A   1      46.542  24.914  33.989  1.00  0.00     0.131 A 
ATOM     90  C   UNL A   1      48.965  25.256  32.699  1.00  0.00     0.055 A 
ATOM     91  C   UNL A   1      47.660  24.196  34.418  1.00  0.00     0.041 A 
ATOM     92  F   UNL A   1      45.380  24.690  34.622  1.00  0.00    -0.206 F 
ATOM     93  C   UNL A   1      48.878  24.356  33.763  1.00  0.00     0.022 A 
BRANCH  90  94
ATOM     94  S   UNL A   1      50.498  25.374  31.735  1.00  0.00     0.124 S 
ATOM     95  O   UNL A   1      50.027  25.965  30.486  1.00  0.00    -0.237 OA
ATOM     96  O   UNL A   1      51.329  26.232  32.573  1.00  0.00    -0.237 OA
ATOM     97  O   UNL A   1      50.947  23.986  31.633  1.00  0.00    -0.744 OA
ENDBRANCH  90  94
ENDBRANCH  64  87
ENDBRANCH  38  39
ENDBRANCH  30  33
ENDBRANCH  28  29
ENDBRANCH  27  28
ENDBRANCH   1  27
TORSDOF 18
ENDMDL
MODEL 2
REMARK VINA RESULT:     -11.3      3.656      8.737
REMARK SMILES C[C@@H](Oc1ccc(I)cc1)C(=O)NCc1ccc(C(=O)NCCCNC(=O)c2ccc(-c3c4nc(c(-c5cc(S(=O)(=O)[O-])ccc5F)c5ccc([nH]5)c(-c5cc(S(=O)(=O)[O-])ccc5F)c5nc(c(-c6cc(S(=O)(=O)[O-])ccc6F)c6ccc3[nH]6)C=C5)C=C4)cc2)cc1
REMARK SMILES IDX 22 1 21 2 19 3 20 4 18 6 15 7 16 8 92 9 17 10 91 11 14 12
REMARK SMILES IDX 13 13 11 14 12 15 2 17 1 18 3 19 4 20 5 21 10 22 6 23 9 24
REMARK SMILES IDX 7 25 8 26 23 27 24 28 25 29 26 30 27 32 28 33 29 34 90 35
REMARK SMILES IDX 30 36 89 37 31 38 32 39 33 40 83 41 34 42 88 43 82 44 84 45
REMARK SMILES IDX 35 46 87 47 81 48 80 49 36 51 68 52 48 53 67 54 49 55 52 56
REMARK SMILES IDX 66 57 85 58 50 59 51 60 65 62 86 63 53 64 37 65 38 66 46 67
REMARK SMILES IDX 39 68 45 69 47 70 44 71 40 72 41 73 42 74 43 75 69 76 70 77
REMARK SMILES IDX 78 78 71 79 77 80 79 81 76 82 72 83 73 84 74 85 75 86 54 87
REMARK SMILES IDX 55 88 63 89 56 90 62 91 64 92 61 93 57 94 58 95 59 96 60 97
REMARK H PARENT 21 5 13 16 25 31 84 50 52 61
REMARK Flexibility Score: inf
ROOT
ATOM      1  C   UNL A   1      31.497  30.985  26.124  1.00  0.00     0.118 C 
ENDROOT
BRANCH   1   2
ATOM      2  N   UNL A   1      30.663  30.817  24.946  1.00  0.00    -0.352 N 
ATOM      3  C   UNL A   1      30.531  29.776  24.063  1.00  0.00     0.251 C 
ATOM      4  O   UNL A   1      29.661  29.856  23.196  1.00  0.00    -0.269 OA
ATOM      5  H   UNL A   1      30.088  31.592  24.746  1.00  0.00     0.163 HD
BRANCH   3   6
ATOM      6  C   UNL A   1      31.354  28.542  24.146  1.00  0.00     0.039 A 
ATOM      7  C   UNL A   1      33.023  26.258  24.187  1.00  0.00    -0.029 A 
ATOM      8  C   UNL A   1      33.392  27.396  23.460  1.00  0.00     0.006 A 
ATOM      9  C   UNL A   1      31.828  26.297  24.923  1.00  0.00     0.006 A 
ATOM     10  C   UNL A   1      32.567  28.525  23.442  1.00  0.00     0.014 A 
ATOM     11  C   UNL A   1      31.015  27.434  24.922  1.00  0.00     0.014 A 
BRANCH   7  12
ATOM     12  C   UNL A   1      33.838  24.991  24.241  1.00  0.00     0.151 C 
BRANCH  12  13
ATOM     13  N   UNL A   1      34.015  24.314  22.972  1.00  0.00    -0.349 N 
ATOM     14  C   UNL A   1      33.242  23.367  22.365  1.00  0.00     0.261 C 
ATOM     15  O   UNL A   1      33.563  23.015  21.224  1.00  0.00    -0.271 OA
ATOM     16  H   UNL A   1      34.818  24.580  22.469  1.00  0.00     0.163 HD
BRANCH  14  17
ATOM     17  C   UNL A   1      32.075  22.680  23.101  1.00  0.00     0.258 C 
ATOM     18  C   UNL A   1      30.906  23.661  23.146  1.00  0.00     0.064 C 
BRANCH  17  19
ATOM     19  O   UNL A   1      31.777  21.440  22.457  1.00  0.00    -0.481 OA
BRANCH  19  20
ATOM     20  C   UNL A   1      32.222  20.318  23.091  1.00  0.00     0.120 A 
ATOM     21  C   UNL A   1      32.344  20.272  24.479  1.00  0.00     0.047 A 
ATOM     22  C   UNL A   1      32.361  19.154  22.337  1.00  0.00     0.047 A 
ATOM     23  C   UNL A   1      32.667  19.072  25.114  1.00  0.00     0.018 A 
ATOM     24  C   UNL A   1      32.670  17.946  22.970  1.00  0.00     0.018 A 
ATOM     25  C   UNL A   1      32.827  17.912  24.357  1.00  0.00     0.013 A 
ATOM     26  I   UNL A   1      33.259  16.116  25.307  1.00  0.00    -0.044 I 
ENDBRANCH  19  20
ENDBRANCH  17  19
ENDBRANCH  14  17
ENDBRANCH  12  13
ENDBRANCH   7  12
ENDBRANCH   3   6
ENDBRANCH   1   2
BRANCH   1  27
ATOM     27  C   UNL A   1      31.404  32.406  26.675  1.00  0.00     0.042 C 
BRANCH  27  28
ATOM     28  C   UNL A   1      32.727  32.936  27.222  1.00  0.00     0.118 C 
BRANCH  28  29
ATOM     29  N   UNL A   1      32.602  34.298  27.717  1.00  0.00    -0.352 N 
ATOM     30  C   UNL A   1      33.198  34.901  28.798  1.00  0.00     0.251 C 
ATOM     31  H   UNL A   1      31.998  34.876  27.200  1.00  0.00     0.163 HD
ATOM     32  O   UNL A   1      32.766  35.982  29.188  1.00  0.00    -0.269 OA
BRANCH  30  33
ATOM     33  C   UNL A   1      34.336  34.256  29.494  1.00  0.00     0.039 A 
ATOM     34  C   UNL A   1      35.634  34.512  29.041  1.00  0.00     0.014 A 
ATOM     35  C   UNL A   1      34.131  33.367  30.553  1.00  0.00     0.014 A 
ATOM     36  C   UNL A   1      36.725  33.916  29.678  1.00  0.00     0.010 A 
ATOM     37  C   UNL A   1      35.223  32.831  31.233  1.00  0.00     0.010 A 
ATOM     38  C   UNL A   1      36.530  33.091  30.796  1.00  0.00    -0.014 A 
BRANCH  38  39
ATOM     39  C   UNL A   1      37.682  32.482  31.514  1.00  0.00     0.031 A 
ATOM     40  C   UNL A   1      38.439  31.337  30.897  1.00  0.00     0.074 A 
ATOM     41  C   UNL A   1      38.004  32.921  32.745  1.00  0.00     0.049 A 
ATOM     42  N   UNL A   1      39.430  30.639  31.387  1.00  0.00    -0.248 NA
ATOM     43  C   UNL A   1      37.996  30.903  29.565  1.00  0.00     0.031 C 
ATOM     44  C   UNL A   1      37.322  34.002  33.461  1.00  0.00     0.029 A 
ATOM     45  N   UNL A   1      38.984  32.515  33.614  1.00  0.00    -0.354 N 
ATOM     46  C   UNL A   1      39.720  29.669  30.432  1.00  0.00     0.074 A 
ATOM     47  C   UNL A   1      38.753  29.835  29.367  1.00  0.00     0.031 C 
ATOM     48  C   UNL A   1      37.928  34.195  34.643  1.00  0.00     0.029 A 
ATOM     49  C   UNL A   1      39.008  33.226  34.791  1.00  0.00     0.049 A 
ATOM     50  H   UNL A   1      39.612  31.784  33.414  1.00  0.00     0.167 HD
ATOM     51  C   UNL A   1      40.712  28.742  30.433  1.00  0.00     0.034 A 
ATOM     52  C   UNL A   1      39.807  33.105  35.869  1.00  0.00     0.034 A 
ATOM     53  C   UNL A   1      41.671  28.601  31.504  1.00  0.00     0.049 A 
ATOM     54  C   UNL A   1      40.879  32.049  35.866  1.00  0.00     0.074 A 
ATOM     55  C   UNL A   1      42.759  27.748  31.583  1.00  0.00     0.029 A 
ATOM     56  N   UNL A   1      41.650  29.322  32.693  1.00  0.00    -0.354 N 
ATOM     57  N   UNL A   1      41.179  31.176  34.933  1.00  0.00    -0.248 NA
ATOM     58  C   UNL A   1      41.724  31.967  37.064  1.00  0.00     0.031 C 
ATOM     59  C   UNL A   1      43.347  27.901  32.844  1.00  0.00     0.029 A 
ATOM     60  C   UNL A   1      42.678  28.904  33.526  1.00  0.00     0.049 A 
ATOM     61  H   UNL A   1      40.998  30.026  32.912  1.00  0.00     0.167 HD
ATOM     62  C   UNL A   1      42.271  30.462  35.419  1.00  0.00     0.074 A 
ATOM     63  C   UNL A   1      42.579  31.014  36.723  1.00  0.00     0.031 C 
ATOM     64  C   UNL A   1      42.961  29.448  34.836  1.00  0.00     0.034 A 
BRANCH  51  65
ATOM     65  C   UNL A   1      40.773  27.792  29.258  1.00  0.00     0.023 A 
ATOM     66  C   UNL A   1      41.697  27.967  28.211  1.00  0.00     0.031 A 
ATOM     67  C   UNL A   1      39.856  26.732  29.148  1.00  0.00     0.131 A 
ATOM     68  C   UNL A   1      41.615  27.169  27.060  1.00  0.00     0.055 A 
ATOM     69  C   UNL A   1      39.842  25.878  28.042  1.00  0.00     0.041 A 
ATOM     70  F   UNL A   1      38.936  26.521  30.103  1.00  0.00    -0.206 F 
ATOM     71  C   UNL A   1      40.711  26.108  26.978  1.00  0.00     0.022 A 
BRANCH  68  72
ATOM     72  S   UNL A   1      42.575  27.658  25.600  1.00  0.00     0.124 S 
ATOM     73  O   UNL A   1      43.923  27.761  26.154  1.00  0.00    -0.237 OA
ATOM     74  O   UNL A   1      42.343  26.547  24.685  1.00  0.00    -0.237 OA
ATOM     75  O   UNL A   1      41.975  28.931  25.205  1.00  0.00    -0.744 OA
ENDBRANCH  68  72
ENDBRANCH  51  65
BRANCH  52  76
ATOM     76  C   UNL A   1      39.635  34.018  37.034  1.00  0.00     0.023 A 
ATOM     77  C   UNL A   1      39.011  33.570  38.208  1.00  0.00     0.031 A 
ATOM     78  C   UNL A   1      40.075  35.352  36.986  1.00  0.00     0.131 A 
ATOM     79  C   UNL A   1      38.813  34.457  39.278  1.00  0.00     0.055 A 
ATOM     80  C   UNL A   1      39.917  36.219  38.069  1.00  0.00     0.041 A 
ATOM     81  F   UNL A   1      40.686  35.828  35.889  1.00  0.00    -0.206 F 
ATOM     82  C   UNL A   1      39.274  35.774  39.221  1.00  0.00     0.022 A 
BRANCH  79  83
ATOM     83  S   UNL A   1      37.895  33.875  40.729  1.00  0.00     0.124 S 
ATOM     84  O   UNL A   1      36.821  33.105  40.112  1.00  0.00    -0.237 OA
ATOM     85  O   UNL A   1      38.909  33.107  41.442  1.00  0.00    -0.237 OA
ATOM     86  O   UNL A   1      37.480  35.114  41.386  1.00  0.00    -0.744 OA
ENDBRANCH  79  83
ENDBRANCH  52  76
BRANCH  64  87
ATOM     87  C   UNL A   1      44.144  28.902  35.599  1.00  0.00     0.023 A 
ATOM     88  C   UNL A   1      44.019  27.815  36.482  1.00  0.00     0.031 A 
ATOM     89  C   UNL A   1      45.411  29.494  35.455  1.00  0.00     0.131 A 
ATOM     90  C   UNL A   1      45.127  27.393  37.232  1.00  0.00     0.055 A 
ATOM     91  C   UNL A   1      46.524  29.030  36.158  1.00  0.00     0.041 A 
ATOM     92  F   UNL A   1      45.589  30.538  34.630  1.00  0.00    -0.206 F 
ATOM     93  C   UNL A   1      46.382  27.982  37.063  1.00  0.00     0.022 A 
BRANCH  90  94
ATOM     94  S   UNL A   1      44.883  26.128  38.509  1.00  0.00     0.124 S 
ATOM     95  O   UNL A   1      46.256  25.778  38.856  1.00  0.00    -0.237 OA
ATOM     96  O   UNL A   1      44.132  26.853  39.528  1.00  0.00    -0.237 OA
ATOM     97  O   UNL A   1      44.133  25.080  37.816  1.00  0.00    -0.744 OA
ENDBRANCH  90  94
ENDBRANCH  64  87
ENDBRANCH  38  39
ENDBRANCH  30  33
ENDBRANCH  28  29
ENDBRANCH  27  28
ENDBRANCH   1  27
TORSDOF 18
ENDMDL
MODEL 3
REMARK VINA RESULT:     -11.3      1.763      2.352
REMARK SMILES C[C@@H](Oc1ccc(I)cc1)C(=O)NCc1ccc(C(=O)NCCCNC(=O)c2ccc(-c3c4nc(c(-c5cc(S(=O)(=O)[O-])ccc5F)c5ccc([nH]5)c(-c5cc(S(=O)(=O)[O-])ccc5F)c5nc(c(-c6cc(S(=O)(=O)[O-])ccc6F)c6ccc3[nH]6)C=C5)C=C4)cc2)cc1
REMARK SMILES IDX 22 1 21 2 19 3 20 4 18 6 15 7 16 8 92 9 17 10 91 11 14 12
REMARK SMILES IDX 13 13 11 14 12 15 2 17 1 18 3 19 4 20 5 21 10 22 6 23 9 24
REMARK SMILES IDX 7 25 8 26 23 27 24 28 25 29 26 30 27 32 28 33 29 34 90 35
REMARK SMILES IDX 30 36 89 37 31 38 32 39 33 40 83 41 34 42 88 43 82 44 84 45
REMARK SMILES IDX 35 46 87 47 81 48 80 49 36 51 68 52 48 53 67 54 49 55 52 56
REMARK SMILES IDX 66 57 85 58 50 59 51 60 65 62 86 63 53 64 37 65 38 66 46 67
REMARK SMILES IDX 39 68 45 69 47 70 44 71 40 72 41 73 42 74 43 75 69 76 70 77
REMARK SMILES IDX 78 78 71 79 77 80 79 81 76 82 72 83 73 84 74 85 75 86 54 87
REMARK SMILES IDX 55 88 63 89 56 90 62 91 64 92 61 93 57 94 58 95 59 96 60 97
REMARK H PARENT 21 5 13 16 25 31 84 50 52 61
REMARK Flexibility Score: inf
ROOT
ATOM      1  C   UNL A   1      32.073  27.928  27.228  1.00  0.00     0.118 C 
ENDROOT
BRANCH   1   2
ATOM      2  N   UNL A   1      31.222  27.494  26.133  1.00  0.00    -0.352 N 
ATOM      3  C   UNL A   1      31.002  26.255  25.585  1.00  0.00     0.251 C 
ATOM      4  O   UNL A   1      30.137  26.149  24.716  1.00  0.00    -0.269 OA
ATOM      5  H   UNL A   1      30.711  28.220  25.707  1.00  0.00     0.163 HD
BRANCH   3   6
ATOM      6  C   UNL A   1      31.722  25.037  26.037  1.00  0.00     0.039 A 
ATOM      7  C   UNL A   1      33.239  22.791  26.849  1.00  0.00    -0.029 A 
ATOM      8  C   UNL A   1      33.876  23.968  26.436  1.00  0.00     0.006 A 
ATOM      9  C   UNL A   1      31.836  22.771  26.886  1.00  0.00     0.006 A 
ATOM     10  C   UNL A   1      33.124  25.079  26.038  1.00  0.00     0.014 A 
ATOM     11  C   UNL A   1      31.087  23.888  26.507  1.00  0.00     0.014 A 
BRANCH   7  12
ATOM     12  C   UNL A   1      33.969  21.541  27.270  1.00  0.00     0.151 C 
BRANCH  12  13
ATOM     13  N   UNL A   1      33.224  20.307  27.114  1.00  0.00    -0.349 N 
ATOM     14  C   UNL A   1      33.156  19.449  26.055  1.00  0.00     0.261 C 
ATOM     15  O   UNL A   1      32.517  18.403  26.210  1.00  0.00    -0.271 OA
ATOM     16  H   UNL A   1      32.684  20.048  27.895  1.00  0.00     0.163 HD
BRANCH  14  17
ATOM     17  C   UNL A   1      33.759  19.807  24.682  1.00  0.00     0.258 C 
ATOM     18  C   UNL A   1      34.570  18.606  24.199  1.00  0.00     0.064 C 
BRANCH  17  19
ATOM     19  O   UNL A   1      32.712  20.203  23.796  1.00  0.00    -0.481 OA
BRANCH  19  20
ATOM     20  C   UNL A   1      32.779  21.483  23.330  1.00  0.00     0.120 A 
ATOM     21  C   UNL A   1      31.628  22.249  23.152  1.00  0.00     0.047 A 
ATOM     22  C   UNL A   1      34.036  22.075  23.226  1.00  0.00     0.047 A 
ATOM     23  C   UNL A   1      31.731  23.598  22.808  1.00  0.00     0.018 A 
ATOM     24  C   UNL A   1      34.145  23.429  22.896  1.00  0.00     0.018 A 
ATOM     25  C   UNL A   1      32.990  24.184  22.683  1.00  0.00     0.013 A 
ATOM     26  I   UNL A   1      33.142  26.203  22.219  1.00  0.00    -0.044 I 
ENDBRANCH  19  20
ENDBRANCH  17  19
ENDBRANCH  14  17
ENDBRANCH  12  13
ENDBRANCH   7  12
ENDBRANCH   3   6
ENDBRANCH   1   2
BRANCH   1  27
ATOM     27  C   UNL A   1      32.169  29.452  27.288  1.00  0.00     0.042 C 
BRANCH  27  28
ATOM     28  C   UNL A   1      33.590  29.980  27.109  1.00  0.00     0.118 C 
BRANCH  28  29
ATOM     29  N   UNL A   1      33.693  31.388  27.462  1.00  0.00    -0.352 N 
ATOM     30  C   UNL A   1      34.579  32.025  28.295  1.00  0.00     0.251 C 
ATOM     31  H   UNL A   1      33.024  31.973  27.041  1.00  0.00     0.163 HD
ATOM     32  O   UNL A   1      34.339  33.175  28.651  1.00  0.00    -0.269 OA
BRANCH  30  33
ATOM     33  C   UNL A   1      35.802  31.336  28.770  1.00  0.00     0.039 A 
ATOM     34  C   UNL A   1      37.047  31.797  28.330  1.00  0.00     0.014 A 
ATOM     35  C   UNL A   1      35.730  30.215  29.601  1.00  0.00     0.014 A 
ATOM     36  C   UNL A   1      38.216  31.165  28.760  1.00  0.00     0.010 A 
ATOM     37  C   UNL A   1      36.898  29.631  30.087  1.00  0.00     0.010 A 
ATOM     38  C   UNL A   1      38.153  30.093  29.664  1.00  0.00    -0.014 A 
BRANCH  38  39
ATOM     39  C   UNL A   1      39.388  29.436  30.166  1.00  0.00     0.031 A 
ATOM     40  C   UNL A   1      40.061  29.942  31.413  1.00  0.00     0.074 A 
ATOM     41  C   UNL A   1      39.935  28.425  29.465  1.00  0.00     0.049 A 
ATOM     42  N   UNL A   1      41.172  29.543  31.977  1.00  0.00    -0.248 NA
ATOM     43  C   UNL A   1      39.412  31.070  32.095  1.00  0.00     0.031 C 
ATOM     44  C   UNL A   1      39.393  27.869  28.224  1.00  0.00     0.029 A 
ATOM     45  N   UNL A   1      41.067  27.685  29.693  1.00  0.00    -0.354 N 
ATOM     46  C   UNL A   1      41.366  30.381  33.071  1.00  0.00     0.074 A 
ATOM     47  C   UNL A   1      40.289  31.350  33.046  1.00  0.00     0.031 C 
ATOM     48  C   UNL A   1      40.173  26.855  27.820  1.00  0.00     0.029 A 
ATOM     49  C   UNL A   1      41.293  26.716  28.745  1.00  0.00     0.049 A 
ATOM     50  H   UNL A   1      41.661  27.833  30.464  1.00  0.00     0.167 HD
ATOM     51  C   UNL A   1      42.337  30.335  34.018  1.00  0.00     0.034 A 
ATOM     52  C   UNL A   1      42.294  25.820  28.631  1.00  0.00     0.034 A 
ATOM     53  C   UNL A   1      43.397  29.353  34.027  1.00  0.00     0.049 A 
ATOM     54  C   UNL A   1      43.381  25.807  29.672  1.00  0.00     0.074 A 
ATOM     55  C   UNL A   1      44.393  29.165  34.971  1.00  0.00     0.029 A 
ATOM     56  N   UNL A   1      43.609  28.401  33.036  1.00  0.00    -0.354 N 
ATOM     57  N   UNL A   1      43.521  26.568  30.732  1.00  0.00    -0.248 NA
ATOM     58  C   UNL A   1      44.442  24.806  29.501  1.00  0.00     0.031 C 
ATOM     59  C   UNL A   1      45.246  28.152  34.515  1.00  0.00     0.029 A 
ATOM     60  C   UNL A   1      44.741  27.653  33.325  1.00  0.00     0.049 A 
ATOM     61  H   UNL A   1      43.039  28.277  32.244  1.00  0.00     0.167 HD
ATOM     62  C   UNL A   1      44.671  26.115  31.374  1.00  0.00     0.074 A 
ATOM     63  C   UNL A   1      45.177  25.010  30.584  1.00  0.00     0.031 C 
ATOM     64  C   UNL A   1      45.250  26.566  32.516  1.00  0.00     0.034 A 
BRANCH  51  65
ATOM     65  C   UNL A   1      42.310  31.401  35.090  1.00  0.00     0.023 A 
ATOM     66  C   UNL A   1      41.286  31.458  36.053  1.00  0.00     0.031 A 
ATOM     67  C   UNL A   1      43.287  32.413  35.116  1.00  0.00     0.131 A 
ATOM     68  C   UNL A   1      41.201  32.554  36.925  1.00  0.00     0.055 A 
ATOM     69  C   UNL A   1      43.251  33.451  36.051  1.00  0.00     0.041 A 
ATOM     70  F   UNL A   1      44.281  32.428  34.214  1.00  0.00    -0.206 F 
ATOM     71  C   UNL A   1      42.191  33.538  36.949  1.00  0.00     0.022 A 
BRANCH  68  72
ATOM     72  S   UNL A   1      39.682  32.771  37.893  1.00  0.00     0.124 S 
ATOM     73  O   UNL A   1      38.806  31.764  37.298  1.00  0.00    -0.237 OA
ATOM     74  O   UNL A   1      40.134  32.502  39.253  1.00  0.00    -0.237 OA
ATOM     75  O   UNL A   1      39.298  34.156  37.623  1.00  0.00    -0.744 OA
ENDBRANCH  68  72
ENDBRANCH  51  65
BRANCH  52  76
ATOM     76  C   UNL A   1      42.307  24.853  27.498  1.00  0.00     0.023 A 
ATOM     77  C   UNL A   1      41.551  23.673  27.555  1.00  0.00     0.031 A 
ATOM     78  C   UNL A   1      43.087  25.085  26.351  1.00  0.00     0.131 A 
ATOM     79  C   UNL A   1      41.613  22.750  26.500  1.00  0.00     0.055 A 
ATOM     80  C   UNL A   1      43.112  24.185  25.284  1.00  0.00     0.041 A 
ATOM     81  F   UNL A   1      43.822  26.204  26.243  1.00  0.00    -0.206 F 
ATOM     82  C   UNL A   1      42.378  23.004  25.359  1.00  0.00     0.022 A 
BRANCH  79  83
ATOM     83  S   UNL A   1      40.718  21.182  26.664  1.00  0.00     0.124 S 
ATOM     84  O   UNL A   1      40.785  20.951  28.102  1.00  0.00    -0.237 OA
ATOM     85  O   UNL A   1      39.405  21.524  26.128  1.00  0.00    -0.237 OA
ATOM     86  O   UNL A   1      41.500  20.258  25.845  1.00  0.00    -0.744 OA
ENDBRANCH  79  83
ENDBRANCH  52  76
BRANCH  64  87
ATOM     87  C   UNL A   1      46.478  25.830  32.995  1.00  0.00     0.023 A 
ATOM     88  C   UNL A   1      46.388  24.700  33.826  1.00  0.00     0.031 A 
ATOM     89  C   UNL A   1      47.759  26.282  32.630  1.00  0.00     0.131 A 
ATOM     90  C   UNL A   1      47.557  24.097  34.315  1.00  0.00     0.055 A 
ATOM     91  C   UNL A   1      48.918  25.639  33.068  1.00  0.00     0.041 A 
ATOM     92  F   UNL A   1      47.907  27.358  31.841  1.00  0.00    -0.206 F 
ATOM     93  C   UNL A   1      48.821  24.548  33.927  1.00  0.00     0.022 A 
BRANCH  90  94
ATOM     94  S   UNL A   1      47.404  22.774  35.546  1.00  0.00     0.124 S 
ATOM     95  O   UNL A   1      46.060  22.270  35.287  1.00  0.00    -0.237 OA
ATOM     96  O   UNL A   1      48.501  21.882  35.184  1.00  0.00    -0.237 OA
ATOM     97  O   UNL A   1      47.569  23.471  36.821  1.00  0.00    -0.744 OA
ENDBRANCH  90  94
ENDBRANCH  64  87
ENDBRANCH  38  39
ENDBRANCH  30  33
ENDBRANCH  28  29
ENDBRANCH  27  28
ENDBRANCH   1  27
TORSDOF 18
ENDMDL
