MODEL 1
REMARK VINA RESULT:     -12.0      0.000      0.000
REMARK SMILES CC[C@@H](C)[C@@H](C(=O)NCCCNC(=O)c1ccc(-c2c3nc(c(-c4cc(S(=O)(=O)[O-])ccc4F)c4ccc([nH]4)c(-c4cc(S(=O)(=O)[O-])ccc4F)c4nc(c(-c5cc(S(=O)(=O)[O-])ccc5F)c5ccc2[nH]5)C=C4)C=C3)cc1)N1C(=O)/C(=C/c2ccc(O)cc2)SC1=S
REMARK SMILES IDX 10 1 9 2 8 3 6 4 7 5 5 7 3 8 4 9 2 10 1 11 78 12 79 13 91 14
REMARK SMILES IDX 80 15 81 16 90 17 92 18 82 19 83 20 84 21 89 22 85 23 88 24
REMARK SMILES IDX 86 25 87 26 11 28 12 29 13 30 14 32 15 33 16 34 77 35 17 36
REMARK SMILES IDX 76 37 18 38 19 39 20 40 70 41 21 42 75 43 69 44 71 45 22 46
REMARK SMILES IDX 74 47 68 48 67 49 23 51 55 52 35 53 54 54 36 55 39 56 53 57
REMARK SMILES IDX 72 58 37 59 38 60 52 62 73 63 40 64 24 65 25 66 33 67 26 68
REMARK SMILES IDX 32 69 34 70 31 71 27 72 28 73 29 74 30 75 56 76 57 77 65 78
REMARK SMILES IDX 58 79 64 80 66 81 63 82 59 83 60 84 61 85 62 86 41 87 42 88
REMARK SMILES IDX 50 89 43 90 49 91 51 92 48 93 44 94 45 95 46 96 47 97
REMARK H PARENT 8 6 87 27 12 31 71 50 39 61
REMARK Flexibility Score: inf
ROOT
ATOM      1  C   UNL A   1      32.081  28.272  25.913  1.00  0.00     0.042 C 
ENDROOT
BRANCH   1   2
ATOM      2  C   UNL A   1      32.661  27.019  26.588  1.00  0.00     0.117 C 
BRANCH   2   3
ATOM      3  N   UNL A   1      31.742  25.884  26.537  1.00  0.00    -0.354 N 
ATOM      4  C   UNL A   1      31.616  24.817  25.691  1.00  0.00     0.243 C 
ATOM      5  O   UNL A   1      30.699  24.028  25.947  1.00  0.00    -0.273 OA
ATOM      6  H   UNL A   1      31.076  25.888  27.263  1.00  0.00     0.163 HD
BRANCH   4   7
ATOM      7  C   UNL A   1      32.586  24.563  24.501  1.00  0.00     0.184 C 
BRANCH   7   8
ATOM      8  C   UNL A   1      32.100  24.974  23.070  1.00  0.00     0.018 C 
ATOM      9  C   UNL A   1      33.282  25.447  22.213  1.00  0.00     0.010 C 
BRANCH   8  10
ATOM     10  C   UNL A   1      30.973  26.006  23.054  1.00  0.00     0.002 C 
ATOM     11  C   UNL A   1      31.302  27.336  22.393  1.00  0.00     0.004 C 
ENDBRANCH   8  10
ENDBRANCH   7   8
BRANCH   7  12
ATOM     12  N   UNL A   1      32.996  23.114  24.605  1.00  0.00    -0.280 N 
ATOM     13  C   UNL A   1      32.277  22.189  23.852  1.00  0.00     0.266 C 
ATOM     14  C   UNL A   1      34.120  22.591  25.225  1.00  0.00     0.149 C 
ATOM     15  O   UNL A   1      31.345  22.444  23.094  1.00  0.00    -0.268 OA
ATOM     16  C   UNL A   1      32.778  20.804  24.083  1.00  0.00     0.081 C 
ATOM     17  S   UNL A   1      34.004  20.836  25.280  1.00  0.00    -0.054 SA
ATOM     18  S   UNL A   1      35.471  23.305  25.891  1.00  0.00    -0.052 S 
ATOM     19  C   UNL A   1      32.322  19.704  23.461  1.00  0.00     0.029 C 
BRANCH  19  20
ATOM     20  C   UNL A   1      32.704  18.346  23.877  1.00  0.00    -0.024 A 
ATOM     21  C   UNL A   1      33.629  17.574  23.168  1.00  0.00     0.012 A 
ATOM     22  C   UNL A   1      32.188  17.858  25.088  1.00  0.00     0.012 A 
ATOM     23  C   UNL A   1      34.046  16.338  23.679  1.00  0.00     0.047 A 
ATOM     24  C   UNL A   1      32.611  16.632  25.603  1.00  0.00     0.047 A 
ATOM     25  C   UNL A   1      33.545  15.885  24.895  1.00  0.00     0.115 A 
BRANCH  25  26
ATOM     26  O   UNL A   1      34.008  14.696  25.379  1.00  0.00    -0.508 OA
ATOM     27  H   UNL A   1      34.876  14.637  25.724  1.00  0.00     0.293 HD
ENDBRANCH  25  26
ENDBRANCH  19  20
ENDBRANCH   7  12
ENDBRANCH   4   7
ENDBRANCH   2   3
ENDBRANCH   1   2
BRANCH   1  28
ATOM     28  C   UNL A   1      33.121  29.288  25.453  1.00  0.00     0.118 C 
BRANCH  28  29
ATOM     29  N   UNL A   1      32.753  30.637  25.835  1.00  0.00    -0.352 N 
ATOM     30  C   UNL A   1      33.185  31.403  26.892  1.00  0.00     0.251 C 
ATOM     31  H   UNL A   1      32.093  31.072  25.247  1.00  0.00     0.163 HD
ATOM     32  O   UNL A   1      32.533  32.400  27.197  1.00  0.00    -0.269 OA
BRANCH  30  33
ATOM     33  C   UNL A   1      34.395  31.041  27.678  1.00  0.00     0.039 A 
ATOM     34  C   UNL A   1      34.401  29.830  28.378  1.00  0.00     0.014 A 
ATOM     35  C   UNL A   1      35.495  31.898  27.790  1.00  0.00     0.014 A 
ATOM     36  C   UNL A   1      35.513  29.465  29.146  1.00  0.00     0.010 A 
ATOM     37  C   UNL A   1      36.641  31.490  28.478  1.00  0.00     0.010 A 
ATOM     38  C   UNL A   1      36.659  30.277  29.180  1.00  0.00    -0.014 A 
BRANCH  38  39
ATOM     39  C   UNL A   1      37.863  29.871  29.958  1.00  0.00     0.031 A 
ATOM     40  C   UNL A   1      38.105  30.419  31.341  1.00  0.00     0.074 A 
ATOM     41  C   UNL A   1      38.766  29.036  29.404  1.00  0.00     0.049 A 
ATOM     42  N   UNL A   1      39.105  30.201  32.158  1.00  0.00    -0.248 NA
ATOM     43  C   UNL A   1      37.104  31.361  31.860  1.00  0.00     0.031 C 
ATOM     44  C   UNL A   1      38.676  28.476  28.055  1.00  0.00     0.029 A 
ATOM     45  N   UNL A   1      39.937  28.517  29.900  1.00  0.00    -0.354 N 
ATOM     46  C   UNL A   1      38.862  30.991  33.279  1.00  0.00     0.074 A 
ATOM     47  C   UNL A   1      37.657  31.743  33.001  1.00  0.00     0.031 C 
ATOM     48  C   UNL A   1      39.728  27.670  27.842  1.00  0.00     0.029 A 
ATOM     49  C   UNL A   1      40.594  27.694  29.016  1.00  0.00     0.049 A 
ATOM     50  H   UNL A   1      40.273  28.715  30.804  1.00  0.00     0.167 HD
ATOM     51  C   UNL A   1      39.563  31.064  34.439  1.00  0.00     0.034 A 
ATOM     52  C   UNL A   1      41.768  27.041  29.125  1.00  0.00     0.034 A 
ATOM     53  C   UNL A   1      40.764  30.304  34.697  1.00  0.00     0.049 A 
ATOM     54  C   UNL A   1      42.547  27.151  30.411  1.00  0.00     0.074 A 
ATOM     55  C   UNL A   1      41.514  30.244  35.860  1.00  0.00     0.029 A 
ATOM     56  N   UNL A   1      41.406  29.487  33.774  1.00  0.00    -0.354 N 
ATOM     57  N   UNL A   1      42.264  27.842  31.491  1.00  0.00    -0.248 NA
ATOM     58  C   UNL A   1      43.793  26.382  30.496  1.00  0.00     0.031 C 
ATOM     59  C   UNL A   1      42.652  29.468  35.610  1.00  0.00     0.029 A 
ATOM     60  C   UNL A   1      42.567  28.960  34.324  1.00  0.00     0.049 A 
ATOM     61  H   UNL A   1      41.084  29.307  32.860  1.00  0.00     0.167 HD
ATOM     62  C   UNL A   1      43.292  27.576  32.392  1.00  0.00     0.074 A 
ATOM     63  C   UNL A   1      44.186  26.644  31.734  1.00  0.00     0.031 C 
ATOM     64  C   UNL A   1      43.473  28.054  33.651  1.00  0.00     0.034 A 
BRANCH  51  65
ATOM     65  C   UNL A   1      39.064  32.031  35.492  1.00  0.00     0.023 A 
ATOM     66  C   UNL A   1      39.468  33.379  35.515  1.00  0.00     0.031 A 
ATOM     67  C   UNL A   1      38.213  31.589  36.521  1.00  0.00     0.131 A 
ATOM     68  C   UNL A   1      39.114  34.201  36.597  1.00  0.00     0.055 A 
ATOM     69  C   UNL A   1      37.782  32.441  37.542  1.00  0.00     0.041 A 
ATOM     70  F   UNL A   1      37.804  30.311  36.570  1.00  0.00    -0.206 F 
ATOM     71  C   UNL A   1      38.251  33.749  37.597  1.00  0.00     0.022 A 
BRANCH  68  72
ATOM     72  S   UNL A   1      39.956  35.798  36.779  1.00  0.00     0.124 S 
ATOM     73  O   UNL A   1      41.339  35.380  36.999  1.00  0.00    -0.237 OA
ATOM     74  O   UNL A   1      39.680  36.447  35.503  1.00  0.00    -0.237 OA
ATOM     75  O   UNL A   1      39.305  36.400  37.939  1.00  0.00    -0.744 OA
ENDBRANCH  68  72
ENDBRANCH  51  65
BRANCH  52  76
ATOM     76  C   UNL A   1      42.285  26.245  27.975  1.00  0.00     0.023 A 
ATOM     77  C   UNL A   1      41.900  24.909  27.776  1.00  0.00     0.031 A 
ATOM     78  C   UNL A   1      43.173  26.821  27.049  1.00  0.00     0.131 A 
ATOM     79  C   UNL A   1      42.421  24.187  26.690  1.00  0.00     0.055 A 
ATOM     80  C   UNL A   1      43.648  26.115  25.943  1.00  0.00     0.041 A 
ATOM     81  F   UNL A   1      43.568  28.096  27.190  1.00  0.00    -0.206 F 
ATOM     82  C   UNL A   1      43.278  24.786  25.763  1.00  0.00     0.022 A 
BRANCH  79  83
ATOM     83  S   UNL A   1      42.002  22.430  26.528  1.00  0.00     0.124 S 
ATOM     84  O   UNL A   1      42.697  22.070  25.297  1.00  0.00    -0.237 OA
ATOM     85  O   UNL A   1      42.546  21.872  27.761  1.00  0.00    -0.237 OA
ATOM     86  O   UNL A   1      40.542  22.435  26.442  1.00  0.00    -0.744 OA
ENDBRANCH  79  83
ENDBRANCH  52  76
BRANCH  64  87
ATOM     87  C   UNL A   1      44.680  27.551  34.410  1.00  0.00     0.023 A 
ATOM     88  C   UNL A   1      44.626  26.389  35.201  1.00  0.00     0.031 A 
ATOM     89  C   UNL A   1      45.897  28.253  34.354  1.00  0.00     0.131 A 
ATOM     90  C   UNL A   1      45.747  26.001  35.952  1.00  0.00     0.055 A 
ATOM     91  C   UNL A   1      47.030  27.822  35.046  1.00  0.00     0.041 A 
ATOM     92  F   UNL A   1      46.007  29.373  33.622  1.00  0.00    -0.206 F 
ATOM     93  C   UNL A   1      46.954  26.698  35.863  1.00  0.00     0.022 A 
BRANCH  90  94
ATOM     94  S   UNL A   1      45.573  24.639  37.137  1.00  0.00     0.124 S 
ATOM     95  O   UNL A   1      44.967  23.597  36.313  1.00  0.00    -0.237 OA
ATOM     96  O   UNL A   1      46.953  24.404  37.549  1.00  0.00    -0.237 OA
ATOM     97  O   UNL A   1      44.703  25.194  38.172  1.00  0.00    -0.744 OA
ENDBRANCH  90  94
ENDBRANCH  64  87
ENDBRANCH  38  39
ENDBRANCH  30  33
ENDBRANCH  28  29
ENDBRANCH   1  28
TORSDOF 18
ENDMDL
MODEL 2
REMARK VINA RESULT:     -11.8      2.327      8.014
REMARK SMILES CC[C@@H](C)[C@@H](C(=O)NCCCNC(=O)c1ccc(-c2c3nc(c(-c4cc(S(=O)(=O)[O-])ccc4F)c4ccc([nH]4)c(-c4cc(S(=O)(=O)[O-])ccc4F)c4nc(c(-c5cc(S(=O)(=O)[O-])ccc5F)c5ccc2[nH]5)C=C4)C=C3)cc1)N1C(=O)/C(=C/c2ccc(O)cc2)SC1=S
REMARK SMILES IDX 10 1 9 2 8 3 6 4 7 5 5 7 3 8 4 9 2 10 1 11 78 12 79 13 91 14
REMARK SMILES IDX 80 15 81 16 90 17 92 18 82 19 83 20 84 21 89 22 85 23 88 24
REMARK SMILES IDX 86 25 87 26 11 28 12 29 13 30 14 32 15 33 16 34 77 35 17 36
REMARK SMILES IDX 76 37 18 38 19 39 20 40 70 41 21 42 75 43 69 44 71 45 22 46
REMARK SMILES IDX 74 47 68 48 67 49 23 51 55 52 35 53 54 54 36 55 39 56 53 57
REMARK SMILES IDX 72 58 37 59 38 60 52 62 73 63 40 64 24 65 25 66 33 67 26 68
REMARK SMILES IDX 32 69 34 70 31 71 27 72 28 73 29 74 30 75 56 76 57 77 65 78
REMARK SMILES IDX 58 79 64 80 66 81 63 82 59 83 60 84 61 85 62 86 41 87 42 88
REMARK SMILES IDX 50 89 43 90 49 91 51 92 48 93 44 94 45 95 46 96 47 97
REMARK H PARENT 8 6 87 27 12 31 71 50 39 61
REMARK Flexibility Score: inf
ROOT
ATOM      1  C   UNL A   1      31.456  31.619  26.302  1.00  0.00     0.042 C 
ENDROOT
BRANCH   1   2
ATOM      2  C   UNL A   1      31.492  30.156  25.833  1.00  0.00     0.117 C 
BRANCH   2   3
ATOM      3  N   UNL A   1      32.590  29.895  24.906  1.00  0.00    -0.354 N 
ATOM      4  C   UNL A   1      32.745  29.034  23.854  1.00  0.00     0.243 C 
ATOM      5  O   UNL A   1      33.838  29.074  23.278  1.00  0.00    -0.273 OA
ATOM      6  H   UNL A   1      33.383  30.455  25.072  1.00  0.00     0.163 HD
BRANCH   4   7
ATOM      7  C   UNL A   1      31.612  28.087  23.364  1.00  0.00     0.184 C 
BRANCH   7   8
ATOM      8  C   UNL A   1      30.134  28.513  23.657  1.00  0.00     0.018 C 
ATOM      9  C   UNL A   1      29.190  27.310  23.533  1.00  0.00     0.010 C 
BRANCH   8  10
ATOM     10  C   UNL A   1      29.632  29.685  22.816  1.00  0.00     0.002 C 
ATOM     11  C   UNL A   1      28.135  29.711  22.542  1.00  0.00     0.004 C 
ENDBRANCH   8  10
ENDBRANCH   7   8
BRANCH   7  12
ATOM     12  N   UNL A   1      31.962  26.718  23.893  1.00  0.00    -0.280 N 
ATOM     13  C   UNL A   1      32.619  25.846  23.029  1.00  0.00     0.266 C 
ATOM     14  C   UNL A   1      31.870  26.262  25.199  1.00  0.00     0.149 C 
ATOM     15  O   UNL A   1      32.958  26.092  21.875  1.00  0.00    -0.268 OA
ATOM     16  C   UNL A   1      32.867  24.528  23.683  1.00  0.00     0.081 C 
ATOM     17  S   UNL A   1      32.157  24.526  25.242  1.00  0.00    -0.054 SA
ATOM     18  S   UNL A   1      31.543  27.035  26.639  1.00  0.00    -0.052 S 
ATOM     19  C   UNL A   1      33.527  23.501  23.123  1.00  0.00     0.029 C 
BRANCH  19  20
ATOM     20  C   UNL A   1      33.559  22.161  23.727  1.00  0.00    -0.024 A 
ATOM     21  C   UNL A   1      32.558  21.209  23.503  1.00  0.00     0.012 A 
ATOM     22  C   UNL A   1      34.691  21.801  24.476  1.00  0.00     0.012 A 
ATOM     23  C   UNL A   1      32.704  19.910  24.005  1.00  0.00     0.047 A 
ATOM     24  C   UNL A   1      34.841  20.504  24.967  1.00  0.00     0.047 A 
ATOM     25  C   UNL A   1      33.847  19.565  24.719  1.00  0.00     0.115 A 
BRANCH  25  26
ATOM     26  O   UNL A   1      33.970  18.279  25.156  1.00  0.00    -0.508 OA
ATOM     27  H   UNL A   1      34.731  18.018  25.635  1.00  0.00     0.293 HD
ENDBRANCH  25  26
ENDBRANCH  19  20
ENDBRANCH   7  12
ENDBRANCH   4   7
ENDBRANCH   2   3
ENDBRANCH   1   2
BRANCH   1  28
ATOM     28  C   UNL A   1      32.713  32.088  27.025  1.00  0.00     0.118 C 
BRANCH  28  29
ATOM     29  N   UNL A   1      32.641  33.498  27.359  1.00  0.00    -0.352 N 
ATOM     30  C   UNL A   1      33.281  34.202  28.352  1.00  0.00     0.251 C 
ATOM     31  H   UNL A   1      32.042  34.032  26.788  1.00  0.00     0.163 HD
ATOM     32  O   UNL A   1      32.857  35.319  28.642  1.00  0.00    -0.269 OA
BRANCH  30  33
ATOM     33  C   UNL A   1      34.445  33.639  29.086  1.00  0.00     0.039 A 
ATOM     34  C   UNL A   1      34.220  32.611  30.009  1.00  0.00     0.014 A 
ATOM     35  C   UNL A   1      35.739  34.144  28.933  1.00  0.00     0.014 A 
ATOM     36  C   UNL A   1      35.287  32.070  30.735  1.00  0.00     0.010 A 
ATOM     37  C   UNL A   1      36.816  33.539  29.586  1.00  0.00     0.010 A 
ATOM     38  C   UNL A   1      36.602  32.506  30.510  1.00  0.00    -0.014 A 
BRANCH  38  39
ATOM     39  C   UNL A   1      37.748  31.901  31.247  1.00  0.00     0.031 A 
ATOM     40  C   UNL A   1      38.590  30.827  30.608  1.00  0.00     0.074 A 
ATOM     41  C   UNL A   1      38.008  32.290  32.511  1.00  0.00     0.049 A 
ATOM     42  N   UNL A   1      39.609  30.167  31.102  1.00  0.00    -0.248 NA
ATOM     43  C   UNL A   1      38.216  30.419  29.247  1.00  0.00     0.031 C 
ATOM     44  C   UNL A   1      37.238  33.283  33.262  1.00  0.00     0.029 A 
ATOM     45  N   UNL A   1      38.987  31.897  33.392  1.00  0.00    -0.354 N 
ATOM     46  C   UNL A   1      39.987  29.257  30.118  1.00  0.00     0.074 A 
ATOM     47  C   UNL A   1      39.040  29.405  29.032  1.00  0.00     0.031 C 
ATOM     48  C   UNL A   1      37.788  33.443  34.474  1.00  0.00     0.029 A 
ATOM     49  C   UNL A   1      38.918  32.530  34.611  1.00  0.00     0.049 A 
ATOM     50  H   UNL A   1      39.672  31.227  33.171  1.00  0.00     0.167 HD
ATOM     51  C   UNL A   1      41.036  28.396  30.110  1.00  0.00     0.034 A 
ATOM     52  C   UNL A   1      39.668  32.386  35.722  1.00  0.00     0.034 A 
ATOM     53  C   UNL A   1      41.970  28.264  31.205  1.00  0.00     0.049 A 
ATOM     54  C   UNL A   1      40.816  31.410  35.707  1.00  0.00     0.074 A 
ATOM     55  C   UNL A   1      43.109  27.480  31.276  1.00  0.00     0.029 A 
ATOM     56  N   UNL A   1      41.864  28.915  32.428  1.00  0.00    -0.354 N 
ATOM     57  N   UNL A   1      41.206  30.611  34.740  1.00  0.00    -0.248 NA
ATOM     58  C   UNL A   1      41.629  31.327  36.924  1.00  0.00     0.031 C 
ATOM     59  C   UNL A   1      43.636  27.587  32.569  1.00  0.00     0.029 A 
ATOM     60  C   UNL A   1      42.886  28.513  33.277  1.00  0.00     0.049 A 
ATOM     61  H   UNL A   1      41.165  29.568  32.661  1.00  0.00     0.167 HD
ATOM     62  C   UNL A   1      42.326  29.942  35.229  1.00  0.00     0.074 A 
ATOM     63  C   UNL A   1      42.557  30.450  36.568  1.00  0.00     0.031 C 
ATOM     64  C   UNL A   1      43.094  29.000  34.624  1.00  0.00     0.034 A 
BRANCH  51  65
ATOM     65  C   UNL A   1      41.196  27.507  28.895  1.00  0.00     0.023 A 
ATOM     66  C   UNL A   1      42.233  27.701  27.963  1.00  0.00     0.031 A 
ATOM     67  C   UNL A   1      40.268  26.484  28.632  1.00  0.00     0.131 A 
ATOM     68  C   UNL A   1      42.253  26.963  26.769  1.00  0.00     0.055 A 
ATOM     69  C   UNL A   1      40.352  25.684  27.489  1.00  0.00     0.041 A 
ATOM     70  F   UNL A   1      39.243  26.256  29.470  1.00  0.00    -0.206 F 
ATOM     71  C   UNL A   1      41.335  25.937  26.538  1.00  0.00     0.022 A 
BRANCH  68  72
ATOM     72  S   UNL A   1      43.369  27.499  25.442  1.00  0.00     0.124 S 
ATOM     73  O   UNL A   1      42.424  27.987  24.440  1.00  0.00    -0.237 OA
ATOM     74  O   UNL A   1      44.180  28.514  26.103  1.00  0.00    -0.237 OA
ATOM     75  O   UNL A   1      44.078  26.275  25.075  1.00  0.00    -0.744 OA
ENDBRANCH  68  72
ENDBRANCH  51  65
BRANCH  52  76
ATOM     76  C   UNL A   1      39.340  33.172  36.946  1.00  0.00     0.023 A 
ATOM     77  C   UNL A   1      39.930  34.422  37.196  1.00  0.00     0.031 A 
ATOM     78  C   UNL A   1      38.416  32.679  37.886  1.00  0.00     0.131 A 
ATOM     79  C   UNL A   1      39.607  35.125  38.368  1.00  0.00     0.055 A 
ATOM     80  C   UNL A   1      38.061  33.405  39.024  1.00  0.00     0.041 A 
ATOM     81  F   UNL A   1      37.819  31.493  37.693  1.00  0.00    -0.206 F 
ATOM     82  C   UNL A   1      38.664  34.633  39.274  1.00  0.00     0.022 A 
BRANCH  79  83
ATOM     83  S   UNL A   1      40.476  36.677  38.722  1.00  0.00     0.124 S 
ATOM     84  O   UNL A   1      41.336  36.810  37.551  1.00  0.00    -0.237 OA
ATOM     85  O   UNL A   1      39.374  37.627  38.822  1.00  0.00    -0.237 OA
ATOM     86  O   UNL A   1      41.170  36.399  39.978  1.00  0.00    -0.744 OA
ENDBRANCH  79  83
ENDBRANCH  52  76
BRANCH  64  87
ATOM     87  C   UNL A   1      44.280  28.475  35.402  1.00  0.00     0.023 A 
ATOM     88  C   UNL A   1      44.189  27.325  36.205  1.00  0.00     0.031 A 
ATOM     89  C   UNL A   1      45.515  29.147  35.351  1.00  0.00     0.131 A 
ATOM     90  C   UNL A   1      45.292  26.918  36.973  1.00  0.00     0.055 A 
ATOM     91  C   UNL A   1      46.629  28.695  36.060  1.00  0.00     0.041 A 
ATOM     92  F   UNL A   1      45.660  30.255  34.607  1.00  0.00    -0.206 F 
ATOM     93  C   UNL A   1      46.517  27.584  36.889  1.00  0.00     0.022 A 
BRANCH  90  94
ATOM     94  S   UNL A   1      45.072  25.574  38.171  1.00  0.00     0.124 S 
ATOM     95  O   UNL A   1      44.964  26.306  39.429  1.00  0.00    -0.237 OA
ATOM     96  O   UNL A   1      43.850  24.931  37.700  1.00  0.00    -0.237 OA
ATOM     97  O   UNL A   1      46.289  24.778  38.020  1.00  0.00    -0.744 OA
ENDBRANCH  90  94
ENDBRANCH  64  87
ENDBRANCH  38  39
ENDBRANCH  30  33
ENDBRANCH  28  29
ENDBRANCH   1  28
TORSDOF 18
ENDMDL
MODEL 3
REMARK VINA RESULT:     -11.8      2.279      7.909
REMARK SMILES CC[C@@H](C)[C@@H](C(=O)NCCCNC(=O)c1ccc(-c2c3nc(c(-c4cc(S(=O)(=O)[O-])ccc4F)c4ccc([nH]4)c(-c4cc(S(=O)(=O)[O-])ccc4F)c4nc(c(-c5cc(S(=O)(=O)[O-])ccc5F)c5ccc2[nH]5)C=C4)C=C3)cc1)N1C(=O)/C(=C/c2ccc(O)cc2)SC1=S
REMARK SMILES IDX 10 1 9 2 8 3 6 4 7 5 5 7 3 8 4 9 2 10 1 11 78 12 79 13 91 14
REMARK SMILES IDX 80 15 81 16 90 17 92 18 82 19 83 20 84 21 89 22 85 23 88 24
REMARK SMILES IDX 86 25 87 26 11 28 12 29 13 30 14 32 15 33 16 34 77 35 17 36
REMARK SMILES IDX 76 37 18 38 19 39 20 40 70 41 21 42 75 43 69 44 71 45 22 46
REMARK SMILES IDX 74 47 68 48 67 49 23 51 55 52 35 53 54 54 36 55 39 56 53 57
REMARK SMILES IDX 72 58 37 59 38 60 52 62 73 63 40 64 24 65 25 66 33 67 26 68
REMARK SMILES IDX 32 69 34 70 31 71 27 72 28 73 29 74 30 75 56 76 57 77 65 78
REMARK SMILES IDX 58 79 64 80 66 81 63 82 59 83 60 84 61 85 62 86 41 87 42 88
REMARK SMILES IDX 50 89 43 90 49 91 51 92 48 93 44 94 45 95 46 96 47 97
REMARK H PARENT 8 6 87 27 12 31 71 50 39 61
REMARK Flexibility Score: inf
ROOT
ATOM      1  C   UNL A   1      31.256  31.731  26.118  1.00  0.00     0.042 C 
ENDROOT
BRANCH   1   2
ATOM      2  C   UNL A   1      31.249  30.271  25.637  1.00  0.00     0.117 C 
BRANCH   2   3
ATOM      3  N   UNL A   1      32.413  29.950  24.815  1.00  0.00    -0.354 N 
ATOM      4  C   UNL A   1      32.639  29.034  23.826  1.00  0.00     0.243 C 
ATOM      5  O   UNL A   1      33.774  29.032  23.337  1.00  0.00    -0.273 OA
ATOM      6  H   UNL A   1      33.199  30.511  25.015  1.00  0.00     0.163 HD
BRANCH   4   7
ATOM      7  C   UNL A   1      31.535  28.073  23.297  1.00  0.00     0.184 C 
BRANCH   7   8
ATOM      8  C   UNL A   1      30.043  28.480  23.541  1.00  0.00     0.018 C 
ATOM      9  C   UNL A   1      29.132  27.246  23.501  1.00  0.00     0.010 C 
BRANCH   8  10
ATOM     10  C   UNL A   1      29.520  29.569  22.605  1.00  0.00     0.002 C 
ATOM     11  C   UNL A   1      28.286  30.318  23.085  1.00  0.00     0.004 C 
ENDBRANCH   8  10
ENDBRANCH   7   8
BRANCH   7  12
ATOM     12  N   UNL A   1      31.883  26.707  23.837  1.00  0.00    -0.280 N 
ATOM     13  C   UNL A   1      32.535  25.826  22.978  1.00  0.00     0.266 C 
ATOM     14  C   UNL A   1      31.797  26.263  25.147  1.00  0.00     0.149 C 
ATOM     15  O   UNL A   1      32.869  26.061  21.820  1.00  0.00    -0.268 OA
ATOM     16  C   UNL A   1      32.782  24.514  23.642  1.00  0.00     0.081 C 
ATOM     17  S   UNL A   1      32.080  24.528  25.205  1.00  0.00    -0.054 SA
ATOM     18  S   UNL A   1      31.479  27.051  26.582  1.00  0.00    -0.052 S 
ATOM     19  C   UNL A   1      33.437  23.480  23.088  1.00  0.00     0.029 C 
BRANCH  19  20
ATOM     20  C   UNL A   1      33.469  22.145  23.704  1.00  0.00    -0.024 A 
ATOM     21  C   UNL A   1      32.493  21.175  23.450  1.00  0.00     0.012 A 
ATOM     22  C   UNL A   1      34.577  21.811  24.497  1.00  0.00     0.012 A 
ATOM     23  C   UNL A   1      32.641  19.882  23.969  1.00  0.00     0.047 A 
ATOM     24  C   UNL A   1      34.731  20.520  25.005  1.00  0.00     0.047 A 
ATOM     25  C   UNL A   1      33.762  19.563  24.728  1.00  0.00     0.115 A 
BRANCH  25  26
ATOM     26  O   UNL A   1      33.890  18.282  25.179  1.00  0.00    -0.508 OA
ATOM     27  H   UNL A   1      34.068  18.119  26.084  1.00  0.00     0.293 HD
ENDBRANCH  25  26
ENDBRANCH  19  20
ENDBRANCH   7  12
ENDBRANCH   4   7
ENDBRANCH   2   3
ENDBRANCH   1   2
BRANCH   1  28
ATOM     28  C   UNL A   1      32.508  32.145  26.883  1.00  0.00     0.118 C 
BRANCH  28  29
ATOM     29  N   UNL A   1      32.467  33.547  27.252  1.00  0.00    -0.352 N 
ATOM     30  C   UNL A   1      33.154  34.220  28.235  1.00  0.00     0.251 C 
ATOM     31  H   UNL A   1      31.854  34.102  26.717  1.00  0.00     0.163 HD
ATOM     32  O   UNL A   1      32.756  35.335  28.567  1.00  0.00    -0.269 OA
BRANCH  30  33
ATOM     33  C   UNL A   1      34.337  33.625  28.911  1.00  0.00     0.039 A 
ATOM     34  C   UNL A   1      34.137  32.561  29.797  1.00  0.00     0.014 A 
ATOM     35  C   UNL A   1      35.628  34.133  28.739  1.00  0.00     0.014 A 
ATOM     36  C   UNL A   1      35.223  31.988  30.468  1.00  0.00     0.010 A 
ATOM     37  C   UNL A   1      36.722  33.501  29.335  1.00  0.00     0.010 A 
ATOM     38  C   UNL A   1      36.533  32.431  30.222  1.00  0.00    -0.014 A 
BRANCH  38  39
ATOM     39  C   UNL A   1      37.698  31.795  30.899  1.00  0.00     0.031 A 
ATOM     40  C   UNL A   1      38.526  30.755  30.188  1.00  0.00     0.074 A 
ATOM     41  C   UNL A   1      37.991  32.122  32.174  1.00  0.00     0.049 A 
ATOM     42  N   UNL A   1      39.558  30.075  30.622  1.00  0.00    -0.248 NA
ATOM     43  C   UNL A   1      38.118  30.413  28.819  1.00  0.00     0.031 C 
ATOM     44  C   UNL A   1      37.238  33.075  32.991  1.00  0.00     0.029 A 
ATOM     45  N   UNL A   1      38.992  31.690  33.009  1.00  0.00    -0.354 N 
ATOM     46  C   UNL A   1      39.912  29.215  29.586  1.00  0.00     0.074 A 
ATOM     47  C   UNL A   1      38.938  29.413  28.534  1.00  0.00     0.031 C 
ATOM     48  C   UNL A   1      37.819  33.178  34.196  1.00  0.00     0.029 A 
ATOM     49  C   UNL A   1      38.954  32.263  34.259  1.00  0.00     0.049 A 
ATOM     50  H   UNL A   1      39.673  31.033  32.738  1.00  0.00     0.167 HD
ATOM     51  C   UNL A   1      40.962  28.359  29.510  1.00  0.00     0.034 A 
ATOM     52  C   UNL A   1      39.732  32.068  35.342  1.00  0.00     0.034 A 
ATOM     53  C   UNL A   1      41.924  28.176  30.572  1.00  0.00     0.049 A 
ATOM     54  C   UNL A   1      40.881  31.097  35.249  1.00  0.00     0.074 A 
ATOM     55  C   UNL A   1      43.066  27.393  30.576  1.00  0.00     0.029 A 
ATOM     56  N   UNL A   1      41.849  28.767  31.828  1.00  0.00    -0.354 N 
ATOM     57  N   UNL A   1      41.248  30.347  34.236  1.00  0.00    -0.248 NA
ATOM     58  C   UNL A   1      41.726  30.957  36.440  1.00  0.00     0.031 C 
ATOM     59  C   UNL A   1      43.626  27.439  31.858  1.00  0.00     0.029 A 
ATOM     60  C   UNL A   1      42.893  28.327  32.630  1.00  0.00     0.049 A 
ATOM     61  H   UNL A   1      41.154  29.406  32.110  1.00  0.00     0.167 HD
ATOM     62  C   UNL A   1      42.381  29.658  34.663  1.00  0.00     0.074 A 
ATOM     63  C   UNL A   1      42.646  30.101  36.018  1.00  0.00     0.031 C 
ATOM     64  C   UNL A   1      43.135  28.749  33.993  1.00  0.00     0.034 A 
BRANCH  51  65
ATOM     65  C   UNL A   1      41.093  27.530  28.249  1.00  0.00     0.023 A 
ATOM     66  C   UNL A   1      40.747  26.166  28.216  1.00  0.00     0.031 A 
ATOM     67  C   UNL A   1      41.621  28.096  27.074  1.00  0.00     0.131 A 
ATOM     68  C   UNL A   1      41.034  25.395  27.079  1.00  0.00     0.055 A 
ATOM     69  C   UNL A   1      41.810  27.344  25.911  1.00  0.00     0.041 A 
ATOM     70  F   UNL A   1      41.989  29.387  27.041  1.00  0.00    -0.206 F 
ATOM     71  C   UNL A   1      41.538  25.981  25.916  1.00  0.00     0.022 A 
BRANCH  68  72
ATOM     72  S   UNL A   1      40.925  23.588  27.211  1.00  0.00     0.124 S 
ATOM     73  O   UNL A   1      41.583  23.161  25.978  1.00  0.00    -0.237 OA
ATOM     74  O   UNL A   1      41.648  23.319  28.448  1.00  0.00    -0.237 OA
ATOM     75  O   UNL A   1      39.487  23.334  27.260  1.00  0.00    -0.744 OA
ENDBRANCH  68  72
ENDBRANCH  51  65
BRANCH  52  76
ATOM     76  C   UNL A   1      39.435  32.793  36.611  1.00  0.00     0.023 A 
ATOM     77  C   UNL A   1      38.608  32.234  37.599  1.00  0.00     0.031 A 
ATOM     78  C   UNL A   1      39.987  34.063  36.854  1.00  0.00     0.131 A 
ATOM     79  C   UNL A   1      38.338  32.955  38.773  1.00  0.00     0.055 A 
ATOM     80  C   UNL A   1      39.756  34.754  38.045  1.00  0.00     0.041 A 
ATOM     81  F   UNL A   1      40.788  34.641  35.945  1.00  0.00    -0.206 F 
ATOM     82  C   UNL A   1      38.921  34.202  39.010  1.00  0.00     0.022 A 
BRANCH  79  83
ATOM     83  S   UNL A   1      37.170  32.260  39.974  1.00  0.00     0.124 S 
ATOM     84  O   UNL A   1      38.011  31.305  40.689  1.00  0.00    -0.237 OA
ATOM     85  O   UNL A   1      36.763  33.444  40.723  1.00  0.00    -0.237 OA
ATOM     86  O   UNL A   1      36.129  31.670  39.135  1.00  0.00    -0.744 OA
ENDBRANCH  79  83
ENDBRANCH  52  76
BRANCH  64  87
ATOM     87  C   UNL A   1      44.341  28.191  34.714  1.00  0.00     0.023 A 
ATOM     88  C   UNL A   1      44.282  26.984  35.434  1.00  0.00     0.031 A 
ATOM     89  C   UNL A   1      45.564  28.885  34.693  1.00  0.00     0.131 A 
ATOM     90  C   UNL A   1      45.403  26.543  36.154  1.00  0.00     0.055 A 
ATOM     91  C   UNL A   1      46.696  28.404  35.351  1.00  0.00     0.041 A 
ATOM     92  F   UNL A   1      45.680  30.046  34.028  1.00  0.00    -0.206 F 
ATOM     93  C   UNL A   1      46.616  27.234  36.100  1.00  0.00     0.022 A 
BRANCH  90  94
ATOM     94  S   UNL A   1      45.224  25.114  37.257  1.00  0.00     0.124 S 
ATOM     95  O   UNL A   1      45.944  25.558  38.447  1.00  0.00    -0.237 OA
ATOM     96  O   UNL A   1      43.775  25.002  37.391  1.00  0.00    -0.237 OA
ATOM     97  O   UNL A   1      45.863  24.027  36.516  1.00  0.00    -0.744 OA
ENDBRANCH  90  94
ENDBRANCH  64  87
ENDBRANCH  38  39
ENDBRANCH  30  33
ENDBRANCH  28  29
ENDBRANCH   1  28
TORSDOF 18
ENDMDL
