MODEL 1
REMARK VINA RESULT:     -11.6      0.000      0.000
REMARK SMILES C[C@H]1[C@@H](C(=O)NCCCNC(=O)c2ccc(-c3c4nc(c(-c5cc(S(=O)(=O)[O-])ccc5F)c5ccc([nH]5)c(-c5cc(S(=O)(=O)[O-])ccc5F)c5nc(c(-c6cc(S(=O)(=O)[O-])ccc6F)c6ccc3[nH]6)C=C5)C=C4)cc2)CC[N@@H+]1CC(=O)NNc1ccccn1
REMARK SMILES IDX 7 1 6 2 4 3 5 4 3 6 1 7 2 8 78 9 76 10 77 11 79 13 80 14
REMARK SMILES IDX 81 15 82 16 83 18 84 20 85 21 89 22 86 23 88 24 87 25 8 26
REMARK SMILES IDX 9 27 10 28 11 29 12 31 13 32 14 33 75 34 15 35 74 36 16 37
REMARK SMILES IDX 17 38 18 39 68 40 19 41 73 42 67 43 69 44 20 45 72 46 66 47
REMARK SMILES IDX 65 48 21 50 53 51 33 52 52 53 34 54 37 55 51 56 70 57 35 58
REMARK SMILES IDX 36 59 50 61 71 62 38 63 22 64 23 65 31 66 24 67 30 68 32 69
REMARK SMILES IDX 29 70 25 71 26 72 27 73 28 74 54 75 55 76 63 77 56 78 62 79
REMARK SMILES IDX 64 80 61 81 57 82 58 83 59 84 60 85 39 86 40 87 48 88 41 89
REMARK SMILES IDX 47 90 49 91 46 92 42 93 43 94 44 95 45 96
REMARK H PARENT 6 5 78 12 82 17 83 19 10 30 69 49 37 60
REMARK Flexibility Score: inf
ROOT
ATOM      1  C   UNL A   1      34.629  21.917  24.072  1.00  0.00     0.117 C 
ENDROOT
BRANCH   1   2
ATOM      2  N   UNL A   1      33.913  21.895  25.335  1.00  0.00    -0.356 N 
ATOM      3  C   UNL A   1      33.054  22.791  25.890  1.00  0.00     0.229 C 
ATOM      4  O   UNL A   1      32.758  22.594  27.071  1.00  0.00    -0.275 OA
ATOM      5  H   UNL A   1      34.079  21.095  25.884  1.00  0.00     0.163 HD
BRANCH   3   6
ATOM      6  C   UNL A   1      32.403  23.891  25.055  1.00  0.00     0.142 C 
ATOM      7  C   UNL A   1      34.431  25.491  25.578  1.00  0.00     0.076 C 
ATOM      8  C   UNL A   1      33.167  25.201  24.774  1.00  0.00     0.194 C 
ATOM      9  N   UNL A   1      32.245  26.308  25.077  1.00  0.00    -0.324 N 
ATOM     10  C   UNL A   1      31.067  24.347  25.670  1.00  0.00     0.081 C 
ATOM     11  C   UNL A   1      31.282  25.800  26.046  1.00  0.00     0.263 C 
ATOM     12  H   UNL A   1      32.753  27.086  25.498  1.00  0.00     0.348 HD
BRANCH   9  13
ATOM     13  C   UNL A   1      31.694  27.004  23.905  1.00  0.00     0.365 C 
BRANCH  13  14
ATOM     14  C   UNL A   1      32.244  28.406  23.646  1.00  0.00     0.293 C 
ATOM     15  O   UNL A   1      33.458  28.621  23.560  1.00  0.00    -0.267 OA
ATOM     16  N   UNL A   1      31.384  29.462  23.478  1.00  0.00    -0.264 N 
ATOM     17  H   UNL A   1      31.771  30.345  23.282  1.00  0.00     0.191 HD
BRANCH  16  18
ATOM     18  N   UNL A   1      29.997  29.361  23.569  1.00  0.00    -0.282 N 
ATOM     19  H   UNL A   1      29.544  28.656  24.086  1.00  0.00     0.190 HD
BRANCH  18  20
ATOM     20  C   UNL A   1      29.304  30.356  22.853  1.00  0.00     0.144 A 
ATOM     21  C   UNL A   1      28.828  31.484  23.521  1.00  0.00     0.048 A 
ATOM     22  N   UNL A   1      29.125  30.189  21.527  1.00  0.00    -0.238 NA
ATOM     23  C   UNL A   1      28.138  32.461  22.806  1.00  0.00     0.005 A 
ATOM     24  C   UNL A   1      28.458  31.151  20.853  1.00  0.00     0.113 A 
ATOM     25  C   UNL A   1      27.948  32.294  21.443  1.00  0.00     0.020 A 
ENDBRANCH  18  20
ENDBRANCH  16  18
ENDBRANCH  13  14
ENDBRANCH   9  13
ENDBRANCH   3   6
ENDBRANCH   1   2
BRANCH   1  26
ATOM     26  C   UNL A   1      36.050  22.439  24.275  1.00  0.00     0.042 C 
BRANCH  26  27
ATOM     27  C   UNL A   1      36.540  22.384  25.715  1.00  0.00     0.118 C 
BRANCH  27  28
ATOM     28  N   UNL A   1      37.575  21.389  25.905  1.00  0.00    -0.352 N 
ATOM     29  C   UNL A   1      38.919  21.536  26.161  1.00  0.00     0.251 C 
ATOM     30  H   UNL A   1      37.268  20.456  25.841  1.00  0.00     0.163 HD
ATOM     31  O   UNL A   1      39.643  20.551  26.044  1.00  0.00    -0.269 OA
BRANCH  29  32
ATOM     32  C   UNL A   1      39.509  22.848  26.544  1.00  0.00     0.039 A 
ATOM     33  C   UNL A   1      40.465  22.872  27.566  1.00  0.00     0.014 A 
ATOM     34  C   UNL A   1      39.096  24.056  25.978  1.00  0.00     0.014 A 
ATOM     35  C   UNL A   1      41.022  24.086  27.985  1.00  0.00     0.010 A 
ATOM     36  C   UNL A   1      39.728  25.254  26.320  1.00  0.00     0.010 A 
ATOM     37  C   UNL A   1      40.679  25.289  27.349  1.00  0.00    -0.014 A 
BRANCH  37  38
ATOM     38  C   UNL A   1      41.262  26.588  27.793  1.00  0.00     0.031 A 
ATOM     39  C   UNL A   1      42.699  26.925  27.476  1.00  0.00     0.074 A 
ATOM     40  C   UNL A   1      40.514  27.455  28.504  1.00  0.00     0.049 A 
ATOM     41  N   UNL A   1      43.397  27.984  27.804  1.00  0.00    -0.248 NA
ATOM     42  C   UNL A   1      43.461  25.921  26.717  1.00  0.00     0.031 C 
ATOM     43  C   UNL A   1      39.128  27.230  28.921  1.00  0.00     0.029 A 
ATOM     44  N   UNL A   1      40.810  28.699  29.004  1.00  0.00    -0.354 N 
ATOM     45  C   UNL A   1      44.678  27.765  27.305  1.00  0.00     0.074 A 
ATOM     46  C   UNL A   1      44.677  26.442  26.719  1.00  0.00     0.031 C 
ATOM     47  C   UNL A   1      38.686  28.311  29.584  1.00  0.00     0.029 A 
ATOM     48  C   UNL A   1      39.765  29.289  29.679  1.00  0.00     0.049 A 
ATOM     49  H   UNL A   1      41.689  29.130  28.890  1.00  0.00     0.167 HD
ATOM     50  C   UNL A   1      45.749  28.600  27.304  1.00  0.00     0.034 A 
ATOM     51  C   UNL A   1      39.685  30.479  30.307  1.00  0.00     0.034 A 
ATOM     52  C   UNL A   1      45.733  29.925  27.876  1.00  0.00     0.049 A 
ATOM     53  C   UNL A   1      40.885  31.391  30.296  1.00  0.00     0.074 A 
ATOM     54  C   UNL A   1      46.742  30.873  27.890  1.00  0.00     0.029 A 
ATOM     55  N   UNL A   1      44.651  30.491  28.541  1.00  0.00    -0.354 N 
ATOM     56  N   UNL A   1      42.073  31.189  29.774  1.00  0.00    -0.248 NA
ATOM     57  C   UNL A   1      40.725  32.699  30.943  1.00  0.00     0.031 C 
ATOM     58  C   UNL A   1      46.294  31.983  28.614  1.00  0.00     0.029 A 
ATOM     59  C   UNL A   1      44.978  31.762  28.990  1.00  0.00     0.049 A 
ATOM     60  H   UNL A   1      43.780  30.053  28.674  1.00  0.00     0.167 HD
ATOM     61  C   UNL A   1      42.795  32.355  30.013  1.00  0.00     0.074 A 
ATOM     62  C   UNL A   1      41.900  33.263  30.701  1.00  0.00     0.031 C 
ATOM     63  C   UNL A   1      44.082  32.651  29.693  1.00  0.00     0.034 A 
BRANCH  50  64
ATOM     64  C   UNL A   1      47.027  28.088  26.678  1.00  0.00     0.023 A 
ATOM     65  C   UNL A   1      47.261  28.184  25.294  1.00  0.00     0.031 A 
ATOM     66  C   UNL A   1      48.009  27.460  27.465  1.00  0.00     0.131 A 
ATOM     67  C   UNL A   1      48.399  27.586  24.729  1.00  0.00     0.055 A 
ATOM     68  C   UNL A   1      49.182  26.945  26.908  1.00  0.00     0.041 A 
ATOM     69  F   UNL A   1      47.838  27.320  28.789  1.00  0.00    -0.206 F 
ATOM     70  C   UNL A   1      49.374  26.989  25.531  1.00  0.00     0.022 A 
BRANCH  67  71
ATOM     71  S   UNL A   1      48.505  27.461  22.922  1.00  0.00     0.124 S 
ATOM     72  O   UNL A   1      48.464  26.014  22.725  1.00  0.00    -0.237 OA
ATOM     73  O   UNL A   1      47.327  28.199  22.485  1.00  0.00    -0.237 OA
ATOM     74  O   UNL A   1      49.788  28.088  22.610  1.00  0.00    -0.744 OA
ENDBRANCH  67  71
ENDBRANCH  50  64
BRANCH  51  75
ATOM     75  C   UNL A   1      38.430  30.878  31.007  1.00  0.00     0.023 A 
ATOM     76  C   UNL A   1      37.407  31.564  30.334  1.00  0.00     0.031 A 
ATOM     77  C   UNL A   1      38.249  30.604  32.375  1.00  0.00     0.131 A 
ATOM     78  C   UNL A   1      36.269  31.991  31.038  1.00  0.00     0.055 A 
ATOM     79  C   UNL A   1      37.095  30.985  33.059  1.00  0.00     0.041 A 
ATOM     80  F   UNL A   1      39.194  29.944  33.065  1.00  0.00    -0.206 F 
ATOM     81  C   UNL A   1      36.101  31.695  32.392  1.00  0.00     0.022 A 
BRANCH  78  82
ATOM     82  S   UNL A   1      35.042  33.009  30.172  1.00  0.00     0.124 S 
ATOM     83  O   UNL A   1      34.183  33.440  31.270  1.00  0.00    -0.237 OA
ATOM     84  O   UNL A   1      35.877  34.042  29.567  1.00  0.00    -0.237 OA
ATOM     85  O   UNL A   1      34.430  32.076  29.228  1.00  0.00    -0.744 OA
ENDBRANCH  78  82
ENDBRANCH  51  75
BRANCH  63  86
ATOM     86  C   UNL A   1      44.577  34.028  30.061  1.00  0.00     0.023 A 
ATOM     87  C   UNL A   1      44.470  35.113  29.172  1.00  0.00     0.031 A 
ATOM     88  C   UNL A   1      45.190  34.253  31.306  1.00  0.00     0.131 A 
ATOM     89  C   UNL A   1      45.027  36.355  29.514  1.00  0.00     0.055 A 
ATOM     90  C   UNL A   1      45.685  35.507  31.667  1.00  0.00     0.041 A 
ATOM     91  F   UNL A   1      45.322  33.254  32.194  1.00  0.00    -0.206 F 
ATOM     92  C   UNL A   1      45.621  36.562  30.762  1.00  0.00     0.022 A 
BRANCH  89  93
ATOM     93  S   UNL A   1      45.067  37.665  28.260  1.00  0.00     0.124 S 
ATOM     94  O   UNL A   1      44.820  36.918  27.031  1.00  0.00    -0.237 OA
ATOM     95  O   UNL A   1      43.991  38.547  28.697  1.00  0.00    -0.237 OA
ATOM     96  O   UNL A   1      46.414  38.221  28.387  1.00  0.00    -0.744 OA
ENDBRANCH  89  93
ENDBRANCH  63  86
ENDBRANCH  37  38
ENDBRANCH  29  32
ENDBRANCH  27  28
ENDBRANCH  26  27
ENDBRANCH   1  26
TORSDOF 17
ENDMDL
MODEL 2
REMARK VINA RESULT:     -11.4      2.672      3.152
REMARK SMILES C[C@H]1[C@@H](C(=O)NCCCNC(=O)c2ccc(-c3c4nc(c(-c5cc(S(=O)(=O)[O-])ccc5F)c5ccc([nH]5)c(-c5cc(S(=O)(=O)[O-])ccc5F)c5nc(c(-c6cc(S(=O)(=O)[O-])ccc6F)c6ccc3[nH]6)C=C5)C=C4)cc2)CC[N@@H+]1CC(=O)NNc1ccccn1
REMARK SMILES IDX 7 1 6 2 4 3 5 4 3 6 1 7 2 8 78 9 76 10 77 11 79 13 80 14
REMARK SMILES IDX 81 15 82 16 83 18 84 20 85 21 89 22 86 23 88 24 87 25 8 26
REMARK SMILES IDX 9 27 10 28 11 29 12 31 13 32 14 33 75 34 15 35 74 36 16 37
REMARK SMILES IDX 17 38 18 39 68 40 19 41 73 42 67 43 69 44 20 45 72 46 66 47
REMARK SMILES IDX 65 48 21 50 53 51 33 52 52 53 34 54 37 55 51 56 70 57 35 58
REMARK SMILES IDX 36 59 50 61 71 62 38 63 22 64 23 65 31 66 24 67 30 68 32 69
REMARK SMILES IDX 29 70 25 71 26 72 27 73 28 74 54 75 55 76 63 77 56 78 62 79
REMARK SMILES IDX 64 80 61 81 57 82 58 83 59 84 60 85 39 86 40 87 48 88 41 89
REMARK SMILES IDX 47 90 49 91 46 92 42 93 43 94 44 95 45 96
REMARK H PARENT 6 5 78 12 82 17 83 19 10 30 69 49 37 60
REMARK Flexibility Score: inf
ROOT
ATOM      1  C   UNL A   1      35.348  21.111  24.778  1.00  0.00     0.117 C 
ENDROOT
BRANCH   1   2
ATOM      2  N   UNL A   1      34.723  21.200  26.085  1.00  0.00    -0.356 N 
ATOM      3  C   UNL A   1      33.659  21.927  26.517  1.00  0.00     0.229 C 
ATOM      4  O   UNL A   1      33.481  21.950  27.738  1.00  0.00    -0.275 OA
ATOM      5  H   UNL A   1      35.141  20.638  26.777  1.00  0.00     0.163 HD
BRANCH   3   6
ATOM      6  C   UNL A   1      32.676  22.561  25.536  1.00  0.00     0.142 C 
ATOM      7  C   UNL A   1      33.895  24.882  25.814  1.00  0.00     0.076 C 
ATOM      8  C   UNL A   1      32.887  24.016  25.066  1.00  0.00     0.194 C 
ATOM      9  N   UNL A   1      31.593  24.703  25.211  1.00  0.00    -0.324 N 
ATOM     10  C   UNL A   1      31.238  22.537  26.085  1.00  0.00     0.081 C 
ATOM     11  C   UNL A   1      30.853  23.994  26.247  1.00  0.00     0.263 C 
ATOM     12  H   UNL A   1      31.737  25.667  25.513  1.00  0.00     0.348 HD
BRANCH   9  13
ATOM     13  C   UNL A   1      30.878  24.965  23.953  1.00  0.00     0.365 C 
BRANCH  13  14
ATOM     14  C   UNL A   1      29.980  26.201  23.944  1.00  0.00     0.293 C 
ATOM     15  O   UNL A   1      28.748  26.109  23.993  1.00  0.00    -0.267 OA
ATOM     16  N   UNL A   1      30.536  27.455  23.902  1.00  0.00    -0.264 N 
ATOM     17  H   UNL A   1      29.929  28.229  23.929  1.00  0.00     0.191 HD
BRANCH  16  18
ATOM     18  N   UNL A   1      31.906  27.699  23.825  1.00  0.00    -0.282 N 
ATOM     19  H   UNL A   1      32.417  27.627  22.987  1.00  0.00     0.190 HD
BRANCH  18  20
ATOM     20  C   UNL A   1      32.492  28.055  25.055  1.00  0.00     0.144 A 
ATOM     21  C   UNL A   1      33.780  28.590  25.078  1.00  0.00     0.048 A 
ATOM     22  N   UNL A   1      31.780  27.873  26.185  1.00  0.00    -0.238 NA
ATOM     23  C   UNL A   1      34.355  28.933  26.300  1.00  0.00     0.005 A 
ATOM     24  C   UNL A   1      32.355  28.218  27.358  1.00  0.00     0.113 A 
ATOM     25  C   UNL A   1      33.629  28.746  27.466  1.00  0.00     0.020 A 
ENDBRANCH  18  20
ENDBRANCH  16  18
ENDBRANCH  13  14
ENDBRANCH   9  13
ENDBRANCH   3   6
ENDBRANCH   1   2
BRANCH   1  26
ATOM     26  C   UNL A   1      36.292  22.293  24.558  1.00  0.00     0.042 C 
BRANCH  26  27
ATOM     27  C   UNL A   1      37.071  22.712  25.797  1.00  0.00     0.118 C 
BRANCH  27  28
ATOM     28  N   UNL A   1      38.192  21.835  26.064  1.00  0.00    -0.352 N 
ATOM     29  C   UNL A   1      39.491  22.127  26.407  1.00  0.00     0.251 C 
ATOM     30  H   UNL A   1      37.991  20.875  25.989  1.00  0.00     0.163 HD
ATOM     31  O   UNL A   1      40.324  21.225  26.347  1.00  0.00    -0.269 OA
BRANCH  29  32
ATOM     32  C   UNL A   1      39.911  23.495  26.817  1.00  0.00     0.039 A 
ATOM     33  C   UNL A   1      40.502  23.659  28.075  1.00  0.00     0.014 A 
ATOM     34  C   UNL A   1      39.673  24.625  26.031  1.00  0.00     0.014 A 
ATOM     35  C   UNL A   1      40.879  24.932  28.518  1.00  0.00     0.010 A 
ATOM     36  C   UNL A   1      40.147  25.878  26.426  1.00  0.00     0.010 A 
ATOM     37  C   UNL A   1      40.730  26.054  27.688  1.00  0.00    -0.014 A 
BRANCH  37  38
ATOM     38  C   UNL A   1      41.123  27.415  28.154  1.00  0.00     0.031 A 
ATOM     39  C   UNL A   1      42.576  27.827  28.157  1.00  0.00     0.074 A 
ATOM     40  C   UNL A   1      40.184  28.272  28.600  1.00  0.00     0.049 A 
ATOM     41  N   UNL A   1      43.120  28.949  28.557  1.00  0.00    -0.248 NA
ATOM     42  C   UNL A   1      43.547  26.831  27.678  1.00  0.00     0.031 C 
ATOM     43  C   UNL A   1      38.752  27.981  28.697  1.00  0.00     0.029 A 
ATOM     44  N   UNL A   1      40.289  29.563  29.058  1.00  0.00    -0.354 N 
ATOM     45  C   UNL A   1      44.493  28.787  28.391  1.00  0.00     0.074 A 
ATOM     46  C   UNL A   1      44.699  27.432  27.926  1.00  0.00     0.031 C 
ATOM     47  C   UNL A   1      38.111  29.069  29.152  1.00  0.00     0.029 A 
ATOM     48  C   UNL A   1      39.085  30.123  29.421  1.00  0.00     0.049 A 
ATOM     49  H   UNL A   1      41.147  30.044  29.120  1.00  0.00     0.167 HD
ATOM     50  C   UNL A   1      45.489  29.691  28.576  1.00  0.00     0.034 A 
ATOM     51  C   UNL A   1      38.797  31.342  29.918  1.00  0.00     0.034 A 
ATOM     52  C   UNL A   1      45.271  31.045  29.024  1.00  0.00     0.049 A 
ATOM     53  C   UNL A   1      39.916  32.330  30.118  1.00  0.00     0.074 A 
ATOM     54  C   UNL A   1      46.197  32.059  29.200  1.00  0.00     0.029 A 
ATOM     55  N   UNL A   1      44.034  31.578  29.371  1.00  0.00    -0.354 N 
ATOM     56  N   UNL A   1      41.204  32.176  29.907  1.00  0.00    -0.248 NA
ATOM     57  C   UNL A   1      39.541  33.663  30.607  1.00  0.00     0.031 C 
ATOM     58  C   UNL A   1      45.533  33.179  29.711  1.00  0.00     0.029 A 
ATOM     59  C   UNL A   1      44.179  32.894  29.784  1.00  0.00     0.049 A 
ATOM     60  H   UNL A   1      43.180  31.091  29.330  1.00  0.00     0.167 HD
ATOM     61  C   UNL A   1      41.788  33.401  30.218  1.00  0.00     0.074 A 
ATOM     62  C   UNL A   1      40.709  34.288  30.604  1.00  0.00     0.031 C 
ATOM     63  C   UNL A   1      43.098  33.763  30.187  1.00  0.00     0.034 A 
BRANCH  50  64
ATOM     64  C   UNL A   1      46.905  29.227  28.309  1.00  0.00     0.023 A 
ATOM     65  C   UNL A   1      47.708  28.685  29.329  1.00  0.00     0.031 A 
ATOM     66  C   UNL A   1      47.475  29.364  27.030  1.00  0.00     0.131 A 
ATOM     67  C   UNL A   1      49.056  28.384  29.077  1.00  0.00     0.055 A 
ATOM     68  C   UNL A   1      48.791  28.979  26.764  1.00  0.00     0.041 A 
ATOM     69  F   UNL A   1      46.766  29.891  26.019  1.00  0.00    -0.206 F 
ATOM     70  C   UNL A   1      49.596  28.503  27.794  1.00  0.00     0.022 A 
BRANCH  67  71
ATOM     71  S   UNL A   1      50.131  27.986  30.483  1.00  0.00     0.124 S 
ATOM     72  O   UNL A   1      51.073  29.102  30.458  1.00  0.00    -0.237 OA
ATOM     73  O   UNL A   1      49.196  27.965  31.600  1.00  0.00    -0.237 OA
ATOM     74  O   UNL A   1      50.703  26.690  30.121  1.00  0.00    -0.744 OA
ENDBRANCH  67  71
ENDBRANCH  50  64
BRANCH  51  75
ATOM     75  C   UNL A   1      37.392  31.698  30.271  1.00  0.00     0.023 A 
ATOM     76  C   UNL A   1      36.500  32.188  29.305  1.00  0.00     0.031 A 
ATOM     77  C   UNL A   1      36.931  31.582  31.595  1.00  0.00     0.131 A 
ATOM     78  C   UNL A   1      35.207  32.584  29.683  1.00  0.00     0.055 A 
ATOM     79  C   UNL A   1      35.629  31.930  31.957  1.00  0.00     0.041 A 
ATOM     80  F   UNL A   1      37.741  31.113  32.558  1.00  0.00    -0.206 F 
ATOM     81  C   UNL A   1      34.762  32.446  30.999  1.00  0.00     0.022 A 
BRANCH  78  82
ATOM     82  S   UNL A   1      34.136  33.356  28.439  1.00  0.00     0.124 S 
ATOM     83  O   UNL A   1      33.253  34.169  29.267  1.00  0.00    -0.237 OA
ATOM     84  O   UNL A   1      35.099  34.085  27.619  1.00  0.00    -0.237 OA
ATOM     85  O   UNL A   1      33.501  32.216  27.781  1.00  0.00    -0.744 OA
ENDBRANCH  78  82
ENDBRANCH  51  75
BRANCH  63  86
ATOM     86  C   UNL A   1      43.419  35.191  30.552  1.00  0.00     0.023 A 
ATOM     87  C   UNL A   1      43.381  36.224  29.598  1.00  0.00     0.031 A 
ATOM     88  C   UNL A   1      43.798  35.519  31.866  1.00  0.00     0.131 A 
ATOM     89  C   UNL A   1      43.779  37.521  29.956  1.00  0.00     0.055 A 
ATOM     90  C   UNL A   1      44.132  36.824  32.231  1.00  0.00     0.041 A 
ATOM     91  F   UNL A   1      43.855  34.573  32.817  1.00  0.00    -0.206 F 
ATOM     92  C   UNL A   1      44.139  37.831  31.270  1.00  0.00     0.022 A 
BRANCH  89  93
ATOM     93  S   UNL A   1      43.929  38.775  28.653  1.00  0.00     0.124 S 
ATOM     94  O   UNL A   1      44.596  39.866  29.357  1.00  0.00    -0.237 OA
ATOM     95  O   UNL A   1      44.726  38.084  27.646  1.00  0.00    -0.237 OA
ATOM     96  O   UNL A   1      42.543  39.041  28.271  1.00  0.00    -0.744 OA
ENDBRANCH  89  93
ENDBRANCH  63  86
ENDBRANCH  37  38
ENDBRANCH  29  32
ENDBRANCH  27  28
ENDBRANCH  26  27
ENDBRANCH   1  26
TORSDOF 17
ENDMDL
MODEL 3
REMARK VINA RESULT:     -11.4      3.646      9.212
REMARK SMILES C[C@H]1[C@@H](C(=O)NCCCNC(=O)c2ccc(-c3c4nc(c(-c5cc(S(=O)(=O)[O-])ccc5F)c5ccc([nH]5)c(-c5cc(S(=O)(=O)[O-])ccc5F)c5nc(c(-c6cc(S(=O)(=O)[O-])ccc6F)c6ccc3[nH]6)C=C5)C=C4)cc2)CC[N@@H+]1CC(=O)NNc1ccccn1
REMARK SMILES IDX 7 1 6 2 4 3 5 4 3 6 1 7 2 8 78 9 76 10 77 11 79 13 80 14
REMARK SMILES IDX 81 15 82 16 83 18 84 20 85 21 89 22 86 23 88 24 87 25 8 26
REMARK SMILES IDX 9 27 10 28 11 29 12 31 13 32 14 33 75 34 15 35 74 36 16 37
REMARK SMILES IDX 17 38 18 39 68 40 19 41 73 42 67 43 69 44 20 45 72 46 66 47
REMARK SMILES IDX 65 48 21 50 53 51 33 52 52 53 34 54 37 55 51 56 70 57 35 58
REMARK SMILES IDX 36 59 50 61 71 62 38 63 22 64 23 65 31 66 24 67 30 68 32 69
REMARK SMILES IDX 29 70 25 71 26 72 27 73 28 74 54 75 55 76 63 77 56 78 62 79
REMARK SMILES IDX 64 80 61 81 57 82 58 83 59 84 60 85 39 86 40 87 48 88 41 89
REMARK SMILES IDX 47 90 49 91 46 92 42 93 43 94 44 95 45 96
REMARK H PARENT 6 5 78 12 82 17 83 19 10 30 69 49 37 60
REMARK Flexibility Score: inf
ROOT
ATOM      1  C   UNL A   1      37.506  20.199  25.195  1.00  0.00     0.117 C 
ENDROOT
BRANCH   1   2
ATOM      2  N   UNL A   1      37.638  21.520  25.780  1.00  0.00    -0.356 N 
ATOM      3  C   UNL A   1      36.766  22.561  25.840  1.00  0.00     0.229 C 
ATOM      4  O   UNL A   1      37.233  23.636  26.227  1.00  0.00    -0.275 OA
ATOM      5  H   UNL A   1      38.509  21.693  26.206  1.00  0.00     0.163 HD
BRANCH   3   6
ATOM      6  C   UNL A   1      35.276  22.368  25.568  1.00  0.00     0.142 C 
ATOM      7  C   UNL A   1      35.617  23.210  23.093  1.00  0.00     0.076 C 
ATOM      8  C   UNL A   1      34.722  22.552  24.140  1.00  0.00     0.194 C 
ATOM      9  N   UNL A   1      33.539  23.421  24.249  1.00  0.00    -0.324 N 
ATOM     10  C   UNL A   1      34.419  23.305  26.439  1.00  0.00     0.081 C 
ATOM     11  C   UNL A   1      33.712  24.218  25.457  1.00  0.00     0.263 C 
ATOM     12  H   UNL A   1      33.487  24.049  23.447  1.00  0.00     0.348 HD
BRANCH   9  13
ATOM     13  C   UNL A   1      32.245  22.742  24.088  1.00  0.00     0.365 C 
BRANCH  13  14
ATOM     14  C   UNL A   1      32.169  21.713  22.961  1.00  0.00     0.293 C 
ATOM     15  O   UNL A   1      32.094  22.054  21.775  1.00  0.00    -0.267 OA
ATOM     16  N   UNL A   1      32.206  20.373  23.251  1.00  0.00    -0.264 N 
ATOM     17  H   UNL A   1      32.187  19.738  22.498  1.00  0.00     0.191 HD
BRANCH  16  18
ATOM     18  N   UNL A   1      32.270  19.855  24.542  1.00  0.00    -0.282 N 
ATOM     19  H   UNL A   1      32.045  20.382  25.343  1.00  0.00     0.190 HD
BRANCH  18  20
ATOM     20  C   UNL A   1      32.687  18.511  24.599  1.00  0.00     0.144 A 
ATOM     21  C   UNL A   1      33.449  17.979  23.559  1.00  0.00     0.048 A 
ATOM     22  N   UNL A   1      32.339  17.773  25.672  1.00  0.00    -0.238 NA
ATOM     23  C   UNL A   1      33.852  16.646  23.620  1.00  0.00     0.005 A 
ATOM     24  C   UNL A   1      32.745  16.484  25.712  1.00  0.00     0.113 A 
ATOM     25  C   UNL A   1      33.495  15.881  24.719  1.00  0.00     0.020 A 
ENDBRANCH  18  20
ENDBRANCH  16  18
ENDBRANCH  13  14
ENDBRANCH   9  13
ENDBRANCH   3   6
ENDBRANCH   1   2
BRANCH   1  26
ATOM     26  C   UNL A   1      38.870  19.514  25.112  1.00  0.00     0.042 C 
BRANCH  26  27
ATOM     27  C   UNL A   1      39.878  19.999  26.145  1.00  0.00     0.118 C 
BRANCH  27  28
ATOM     28  N   UNL A   1      41.068  19.173  26.180  1.00  0.00    -0.352 N 
ATOM     29  C   UNL A   1      42.398  19.523  26.176  1.00  0.00     0.251 C 
ATOM     30  H   UNL A   1      40.896  18.205  26.213  1.00  0.00     0.163 HD
ATOM     31  O   UNL A   1      43.229  18.643  25.967  1.00  0.00    -0.269 OA
BRANCH  29  32
ATOM     32  C   UNL A   1      42.844  20.928  26.389  1.00  0.00     0.039 A 
ATOM     33  C   UNL A   1      42.999  21.382  27.703  1.00  0.00     0.014 A 
ATOM     34  C   UNL A   1      43.042  21.825  25.336  1.00  0.00     0.014 A 
ATOM     35  C   UNL A   1      43.383  22.705  27.953  1.00  0.00     0.010 A 
ATOM     36  C   UNL A   1      43.529  23.111  25.581  1.00  0.00     0.010 A 
ATOM     37  C   UNL A   1      43.677  23.578  26.894  1.00  0.00    -0.014 A 
BRANCH  37  38
ATOM     38  C   UNL A   1      44.079  24.991  27.150  1.00  0.00     0.031 A 
ATOM     39  C   UNL A   1      43.080  25.979  27.704  1.00  0.00     0.074 A 
ATOM     40  C   UNL A   1      45.331  25.398  26.861  1.00  0.00     0.049 A 
ATOM     41  N   UNL A   1      43.226  27.255  27.960  1.00  0.00    -0.248 NA
ATOM     42  C   UNL A   1      41.726  25.468  27.973  1.00  0.00     0.031 C 
ATOM     43  C   UNL A   1      46.378  24.560  26.275  1.00  0.00     0.029 A 
ATOM     44  N   UNL A   1      45.938  26.620  27.018  1.00  0.00    -0.354 N 
ATOM     45  C   UNL A   1      41.984  27.699  28.405  1.00  0.00     0.074 A 
ATOM     46  C   UNL A   1      41.081  26.573  28.311  1.00  0.00     0.031 C 
ATOM     47  C   UNL A   1      47.504  25.280  26.152  1.00  0.00     0.029 A 
ATOM     48  C   UNL A   1      47.252  26.644  26.610  1.00  0.00     0.049 A 
ATOM     49  H   UNL A   1      45.476  27.407  27.390  1.00  0.00     0.167 HD
ATOM     50  C   UNL A   1      41.634  28.922  28.879  1.00  0.00     0.034 A 
ATOM     51  C   UNL A   1      48.152  27.648  26.598  1.00  0.00     0.034 A 
ATOM     52  C   UNL A   1      42.548  30.034  28.984  1.00  0.00     0.049 A 
ATOM     53  C   UNL A   1      47.743  28.998  27.127  1.00  0.00     0.074 A 
ATOM     54  C   UNL A   1      42.314  31.300  29.493  1.00  0.00     0.029 A 
ATOM     55  N   UNL A   1      43.875  30.014  28.570  1.00  0.00    -0.354 N 
ATOM     56  N   UNL A   1      46.578  29.386  27.592  1.00  0.00    -0.248 NA
ATOM     57  C   UNL A   1      48.776  30.040  27.146  1.00  0.00     0.031 C 
ATOM     58  C   UNL A   1      43.477  32.062  29.328  1.00  0.00     0.029 A 
ATOM     59  C   UNL A   1      44.462  31.251  28.787  1.00  0.00     0.049 A 
ATOM     60  H   UNL A   1      44.331  29.235  28.178  1.00  0.00     0.167 HD
ATOM     61  C   UNL A   1      46.746  30.713  27.978  1.00  0.00     0.074 A 
ATOM     62  C   UNL A   1      48.132  31.047  27.716  1.00  0.00     0.031 C 
ATOM     63  C   UNL A   1      45.840  31.579  28.503  1.00  0.00     0.034 A 
BRANCH  50  64
ATOM     64  C   UNL A   1      40.193  29.116  29.300  1.00  0.00     0.023 A 
ATOM     65  C   UNL A   1      39.810  29.088  30.654  1.00  0.00     0.031 A 
ATOM     66  C   UNL A   1      39.182  29.291  28.338  1.00  0.00     0.131 A 
ATOM     67  C   UNL A   1      38.451  29.144  31.001  1.00  0.00     0.055 A 
ATOM     68  C   UNL A   1      37.840  29.435  28.696  1.00  0.00     0.041 A 
ATOM     69  F   UNL A   1      39.480  29.308  27.029  1.00  0.00    -0.206 F 
ATOM     70  C   UNL A   1      37.465  29.343  30.033  1.00  0.00     0.022 A 
BRANCH  67  71
ATOM     71  S   UNL A   1      37.982  28.794  32.719  1.00  0.00     0.124 S 
ATOM     72  O   UNL A   1      36.623  29.329  32.767  1.00  0.00    -0.237 OA
ATOM     73  O   UNL A   1      38.100  27.343  32.789  1.00  0.00    -0.237 OA
ATOM     74  O   UNL A   1      38.965  29.540  33.502  1.00  0.00    -0.744 OA
ENDBRANCH  67  71
ENDBRANCH  50  64
BRANCH  51  75
ATOM     75  C   UNL A   1      49.525  27.423  26.061  1.00  0.00     0.023 A 
ATOM     76  C   UNL A   1      49.845  27.726  24.729  1.00  0.00     0.031 A 
ATOM     77  C   UNL A   1      50.533  26.869  26.870  1.00  0.00     0.131 A 
ATOM     78  C   UNL A   1      51.126  27.435  24.232  1.00  0.00     0.055 A 
ATOM     79  C   UNL A   1      51.820  26.628  26.387  1.00  0.00     0.041 A 
ATOM     80  F   UNL A   1      50.283  26.566  28.155  1.00  0.00    -0.206 F 
ATOM     81  C   UNL A   1      52.118  26.900  25.056  1.00  0.00     0.022 A 
BRANCH  78  82
ATOM     82  S   UNL A   1      51.455  27.697  22.467  1.00  0.00     0.124 S 
ATOM     83  O   UNL A   1      50.603  26.685  21.851  1.00  0.00    -0.237 OA
ATOM     84  O   UNL A   1      51.039  29.084  22.283  1.00  0.00    -0.237 OA
ATOM     85  O   UNL A   1      52.892  27.460  22.350  1.00  0.00    -0.744 OA
ENDBRANCH  78  82
ENDBRANCH  51  75
BRANCH  63  86
ATOM     86  C   UNL A   1      46.339  32.959  28.855  1.00  0.00     0.023 A 
ATOM     87  C   UNL A   1      46.212  34.040  27.964  1.00  0.00     0.031 A 
ATOM     88  C   UNL A   1      46.978  33.189  30.086  1.00  0.00     0.131 A 
ATOM     89  C   UNL A   1      46.774  35.283  28.289  1.00  0.00     0.055 A 
ATOM     90  C   UNL A   1      47.478  34.445  30.431  1.00  0.00     0.041 A 
ATOM     91  F   UNL A   1      47.129  32.194  30.975  1.00  0.00    -0.206 F 
ATOM     92  C   UNL A   1      47.393  35.497  29.524  1.00  0.00     0.022 A 
BRANCH  89  93
ATOM     93  S   UNL A   1      46.786  36.589  27.029  1.00  0.00     0.124 S 
ATOM     94  O   UNL A   1      47.488  37.668  27.716  1.00  0.00    -0.237 OA
ATOM     95  O   UNL A   1      47.509  35.955  25.932  1.00  0.00    -0.237 OA
ATOM     96  O   UNL A   1      45.368  36.835  26.777  1.00  0.00    -0.744 OA
ENDBRANCH  89  93
ENDBRANCH  63  86
ENDBRANCH  37  38
ENDBRANCH  29  32
ENDBRANCH  27  28
ENDBRANCH  26  27
ENDBRANCH   1  26
TORSDOF 17
ENDMDL
