MODEL 1
REMARK VINA RESULT:     -12.4      0.000      0.000
REMARK SMILES Cc1ccc(NC(=O)C[NH+]2CCC(C(=O)NCCCNC(=O)c3ccc(-c4c5nc(c(-c6cc(S(=O)(=O)[O-])ccc6F)c6ccc([nH]6)c(-c6cc(S(=O)(=O)[O-])ccc6F)c6nc(c(-c7cc(S(=O)(=O)[O-])ccc7F)c7ccc4[nH]7)C=C6)C=C5)cc3)CC2)cc1Cl
REMARK SMILES IDX 18 1 17 2 16 3 14 4 15 5 13 7 10 8 11 9 87 10 12 12 86 13
REMARK SMILES IDX 9 14 7 15 6 16 8 18 5 19 1 20 2 21 3 22 89 23 4 24 88 25
REMARK SMILES IDX 90 26 19 27 20 28 21 29 22 31 23 32 24 33 85 34 25 35 84 36
REMARK SMILES IDX 26 37 27 38 28 39 78 40 29 41 83 42 77 43 79 44 30 45 82 46
REMARK SMILES IDX 76 47 75 48 31 50 63 51 43 52 62 53 44 54 47 55 61 56 80 57
REMARK SMILES IDX 45 58 46 59 60 61 81 62 48 63 32 64 33 65 41 66 34 67 40 68
REMARK SMILES IDX 42 69 39 70 35 71 36 72 37 73 38 74 64 75 65 76 73 77 66 78
REMARK SMILES IDX 72 79 74 80 71 81 67 82 68 83 69 84 70 85 49 86 50 87 58 88
REMARK SMILES IDX 51 89 57 90 59 91 56 92 52 93 53 94 54 95 55 96
REMARK H PARENT 16 6 10 11 6 17 20 30 79 49 47 60
REMARK Flexibility Score: inf
ROOT
ATOM      1  C   UNL A   1      31.204  32.285  26.526  1.00  0.00     0.042 C 
ENDROOT
BRANCH   1   2
ATOM      2  C   UNL A   1      31.250  30.991  25.734  1.00  0.00     0.117 C 
BRANCH   2   3
ATOM      3  N   UNL A   1      32.580  30.391  25.760  1.00  0.00    -0.356 N 
ATOM      4  C   UNL A   1      32.978  29.099  25.603  1.00  0.00     0.223 C 
ATOM      5  O   UNL A   1      34.180  28.844  25.706  1.00  0.00    -0.275 OA
ATOM      6  H   UNL A   1      33.312  31.028  25.916  1.00  0.00     0.163 HD
BRANCH   4   7
ATOM      7  C   UNL A   1      31.988  28.013  25.230  1.00  0.00     0.089 C 
ATOM      8  N   UNL A   1      31.448  25.154  25.486  1.00  0.00    -0.327 N 
ATOM      9  C   UNL A   1      31.666  25.720  24.157  1.00  0.00     0.263 C 
ATOM     10  C   UNL A   1      30.761  26.102  26.349  1.00  0.00     0.263 C 
ATOM     11  H   UNL A   1      32.372  24.978  25.881  1.00  0.00     0.348 HD
ATOM     12  C   UNL A   1      32.563  26.959  24.275  1.00  0.00     0.075 C 
ATOM     13  C   UNL A   1      31.379  27.468  26.513  1.00  0.00     0.075 C 
BRANCH   8  14
ATOM     14  C   UNL A   1      30.776  23.822  25.466  1.00  0.00     0.363 C 
BRANCH  14  15
ATOM     15  C   UNL A   1      30.982  22.942  26.715  1.00  0.00     0.279 C 
ATOM     16  N   UNL A   1      32.109  22.179  26.933  1.00  0.00    -0.321 N 
ATOM     17  H   UNL A   1      32.072  21.617  27.742  1.00  0.00     0.170 HD
ATOM     18  O   UNL A   1      30.143  22.954  27.626  1.00  0.00    -0.268 OA
BRANCH  16  19
ATOM     19  C   UNL A   1      33.304  22.067  26.197  1.00  0.00     0.042 A 
ATOM     20  C   UNL A   1      37.239  20.843  24.932  1.00  0.00     0.046 C 
ATOM     21  C   UNL A   1      35.857  21.358  25.229  1.00  0.00    -0.032 A 
ATOM     22  C   UNL A   1      34.756  20.515  25.024  1.00  0.00     0.007 A 
ATOM     23  C   UNL A   1      35.632  22.614  25.817  1.00  0.00     0.046 A 
ATOM     24  C   UNL A   1      33.483  20.880  25.476  1.00  0.00     0.026 A 
ATOM     25  C   UNL A   1      34.356  22.976  26.278  1.00  0.00     0.047 A 
ATOM     26  Cl  UNL A   1      36.932  23.710  26.123  1.00  0.00    -0.084 Cl
ENDBRANCH  16  19
ENDBRANCH  14  15
ENDBRANCH   8  14
ENDBRANCH   4   7
ENDBRANCH   2   3
ENDBRANCH   1   2
BRANCH   1  27
ATOM     27  C   UNL A   1      32.573  32.744  26.997  1.00  0.00     0.118 C 
BRANCH  27  28
ATOM     28  N   UNL A   1      32.531  34.044  27.658  1.00  0.00    -0.352 N 
ATOM     29  C   UNL A   1      33.306  34.524  28.685  1.00  0.00     0.251 C 
ATOM     30  H   UNL A   1      31.850  34.667  27.318  1.00  0.00     0.163 HD
ATOM     31  O   UNL A   1      32.993  35.573  29.244  1.00  0.00    -0.269 OA
BRANCH  29  32
ATOM     32  C   UNL A   1      34.484  33.754  29.136  1.00  0.00     0.039 A 
ATOM     33  C   UNL A   1      35.760  34.228  28.829  1.00  0.00     0.014 A 
ATOM     34  C   UNL A   1      34.330  32.594  29.899  1.00  0.00     0.014 A 
ATOM     35  C   UNL A   1      36.878  33.591  29.370  1.00  0.00     0.010 A 
ATOM     36  C   UNL A   1      35.437  32.022  30.516  1.00  0.00     0.010 A 
ATOM     37  C   UNL A   1      36.722  32.520  30.267  1.00  0.00    -0.014 A 
BRANCH  37  38
ATOM     38  C   UNL A   1      37.888  31.936  30.980  1.00  0.00     0.031 A 
ATOM     39  C   UNL A   1      38.663  30.804  30.365  1.00  0.00     0.074 A 
ATOM     40  C   UNL A   1      38.197  32.384  32.216  1.00  0.00     0.049 A 
ATOM     41  N   UNL A   1      39.658  30.118  30.866  1.00  0.00    -0.248 NA
ATOM     42  C   UNL A   1      38.252  30.367  29.021  1.00  0.00     0.031 C 
ATOM     43  C   UNL A   1      37.486  33.446  32.933  1.00  0.00     0.029 A 
ATOM     44  N   UNL A   1      39.181  32.000  33.094  1.00  0.00    -0.354 N 
ATOM     45  C   UNL A   1      39.983  29.164  29.908  1.00  0.00     0.074 A 
ATOM     46  C   UNL A   1      39.047  29.326  28.818  1.00  0.00     0.031 C 
ATOM     47  C   UNL A   1      38.071  33.645  34.125  1.00  0.00     0.029 A 
ATOM     48  C   UNL A   1      39.159  32.688  34.287  1.00  0.00     0.049 A 
ATOM     49  H   UNL A   1      39.840  31.298  32.890  1.00  0.00     0.167 HD
ATOM     50  C   UNL A   1      40.982  28.249  29.933  1.00  0.00     0.034 A 
ATOM     51  C   UNL A   1      39.914  32.548  35.397  1.00  0.00     0.034 A 
ATOM     52  C   UNL A   1      41.918  28.113  31.022  1.00  0.00     0.049 A 
ATOM     53  C   UNL A   1      40.997  31.496  35.404  1.00  0.00     0.074 A 
ATOM     54  C   UNL A   1      43.015  27.273  31.111  1.00  0.00     0.029 A 
ATOM     55  N   UNL A   1      41.861  28.819  32.216  1.00  0.00    -0.354 N 
ATOM     56  N   UNL A   1      41.340  30.656  34.454  1.00  0.00    -0.248 NA
ATOM     57  C   UNL A   1      41.797  31.377  36.629  1.00  0.00     0.031 C 
ATOM     58  C   UNL A   1      43.569  27.410  32.387  1.00  0.00     0.029 A 
ATOM     59  C   UNL A   1      42.873  28.399  33.065  1.00  0.00     0.049 A 
ATOM     60  H   UNL A   1      41.198  29.516  32.429  1.00  0.00     0.167 HD
ATOM     61  C   UNL A   1      42.413  29.930  34.962  1.00  0.00     0.074 A 
ATOM     62  C   UNL A   1      42.678  30.451  36.286  1.00  0.00     0.031 C 
ATOM     63  C   UNL A   1      43.116  28.919  34.389  1.00  0.00     0.034 A 
BRANCH  50  64
ATOM     64  C   UNL A   1      41.106  27.305  28.764  1.00  0.00     0.023 A 
ATOM     65  C   UNL A   1      42.120  27.443  27.800  1.00  0.00     0.031 A 
ATOM     66  C   UNL A   1      40.213  26.225  28.630  1.00  0.00     0.131 A 
ATOM     67  C   UNL A   1      42.191  26.545  26.724  1.00  0.00     0.055 A 
ATOM     68  C   UNL A   1      40.332  25.294  27.599  1.00  0.00     0.041 A 
ATOM     69  F   UNL A   1      39.212  26.056  29.508  1.00  0.00    -0.206 F 
ATOM     70  C   UNL A   1      41.320  25.456  26.633  1.00  0.00     0.022 A 
BRANCH  67  71
ATOM     71  S   UNL A   1      43.373  26.876  25.391  1.00  0.00     0.124 S 
ATOM     72  O   UNL A   1      43.564  25.543  24.825  1.00  0.00    -0.237 OA
ATOM     73  O   UNL A   1      42.649  27.827  24.555  1.00  0.00    -0.237 OA
ATOM     74  O   UNL A   1      44.536  27.420  26.090  1.00  0.00    -0.744 OA
ENDBRANCH  67  71
ENDBRANCH  50  64
BRANCH  51  75
ATOM     75  C   UNL A   1      39.661  33.384  36.608  1.00  0.00     0.023 A 
ATOM     76  C   UNL A   1      38.998  32.854  37.728  1.00  0.00     0.031 A 
ATOM     77  C   UNL A   1      40.001  34.748  36.632  1.00  0.00     0.131 A 
ATOM     78  C   UNL A   1      38.633  33.697  38.789  1.00  0.00     0.055 A 
ATOM     79  C   UNL A   1      39.699  35.567  37.723  1.00  0.00     0.041 A 
ATOM     80  F   UNL A   1      40.634  35.311  35.590  1.00  0.00    -0.206 F 
ATOM     81  C   UNL A   1      38.992  35.046  38.802  1.00  0.00     0.022 A 
BRANCH  78  82
ATOM     82  S   UNL A   1      37.559  33.032  40.092  1.00  0.00     0.124 S 
ATOM     83  O   UNL A   1      36.351  32.707  39.341  1.00  0.00    -0.237 OA
ATOM     84  O   UNL A   1      38.338  31.898  40.577  1.00  0.00    -0.237 OA
ATOM     85  O   UNL A   1      37.432  34.147  41.028  1.00  0.00    -0.744 OA
ENDBRANCH  78  82
ENDBRANCH  51  75
BRANCH  63  86
ATOM     86  C   UNL A   1      44.258  28.340  35.188  1.00  0.00     0.023 A 
ATOM     87  C   UNL A   1      44.050  27.336  36.149  1.00  0.00     0.031 A 
ATOM     88  C   UNL A   1      45.569  28.808  34.993  1.00  0.00     0.131 A 
ATOM     89  C   UNL A   1      45.125  26.874  36.922  1.00  0.00     0.055 A 
ATOM     90  C   UNL A   1      46.648  28.295  35.716  1.00  0.00     0.041 A 
ATOM     91  F   UNL A   1      45.827  29.769  34.091  1.00  0.00    -0.206 F 
ATOM     92  C   UNL A   1      46.426  27.333  36.697  1.00  0.00     0.022 A 
BRANCH  89  93
ATOM     93  S   UNL A   1      44.786  25.738  38.293  1.00  0.00     0.124 S 
ATOM     94  O   UNL A   1      43.592  26.328  38.887  1.00  0.00    -0.237 OA
ATOM     95  O   UNL A   1      44.593  24.465  37.604  1.00  0.00    -0.237 OA
ATOM     96  O   UNL A   1      45.993  25.820  39.113  1.00  0.00    -0.744 OA
ENDBRANCH  89  93
ENDBRANCH  63  86
ENDBRANCH  37  38
ENDBRANCH  29  32
ENDBRANCH  27  28
ENDBRANCH   1  27
TORSDOF 16
ENDMDL
MODEL 2
REMARK VINA RESULT:     -12.4      2.264      7.733
REMARK SMILES Cc1ccc(NC(=O)C[NH+]2CCC(C(=O)NCCCNC(=O)c3ccc(-c4c5nc(c(-c6cc(S(=O)(=O)[O-])ccc6F)c6ccc([nH]6)c(-c6cc(S(=O)(=O)[O-])ccc6F)c6nc(c(-c7cc(S(=O)(=O)[O-])ccc7F)c7ccc4[nH]7)C=C6)C=C5)cc3)CC2)cc1Cl
REMARK SMILES IDX 18 1 17 2 16 3 14 4 15 5 13 7 10 8 11 9 87 10 12 12 86 13
REMARK SMILES IDX 9 14 7 15 6 16 8 18 5 19 1 20 2 21 3 22 89 23 4 24 88 25
REMARK SMILES IDX 90 26 19 27 20 28 21 29 22 31 23 32 24 33 85 34 25 35 84 36
REMARK SMILES IDX 26 37 27 38 28 39 78 40 29 41 83 42 77 43 79 44 30 45 82 46
REMARK SMILES IDX 76 47 75 48 31 50 63 51 43 52 62 53 44 54 47 55 61 56 80 57
REMARK SMILES IDX 45 58 46 59 60 61 81 62 48 63 32 64 33 65 41 66 34 67 40 68
REMARK SMILES IDX 42 69 39 70 35 71 36 72 37 73 38 74 64 75 65 76 73 77 66 78
REMARK SMILES IDX 72 79 74 80 71 81 67 82 68 83 69 84 70 85 49 86 50 87 58 88
REMARK SMILES IDX 51 89 57 90 59 91 56 92 52 93 53 94 54 95 55 96
REMARK H PARENT 16 6 10 11 6 17 20 30 79 49 47 60
REMARK Flexibility Score: inf
ROOT
ATOM      1  C   UNL A   1      32.453  30.222  25.579  1.00  0.00     0.042 C 
ENDROOT
BRANCH   1   2
ATOM      2  C   UNL A   1      31.443  29.244  25.006  1.00  0.00     0.117 C 
BRANCH   2   3
ATOM      3  N   UNL A   1      30.927  29.696  23.718  1.00  0.00    -0.356 N 
ATOM      4  C   UNL A   1      30.500  28.995  22.633  1.00  0.00     0.223 C 
ATOM      5  O   UNL A   1      30.139  29.626  21.637  1.00  0.00    -0.275 OA
ATOM      6  H   UNL A   1      30.879  30.673  23.618  1.00  0.00     0.163 HD
BRANCH   4   7
ATOM      7  C   UNL A   1      30.390  27.482  22.670  1.00  0.00     0.089 C 
ATOM      8  N   UNL A   1      30.791  25.153  24.386  1.00  0.00    -0.327 N 
ATOM      9  C   UNL A   1      31.588  25.286  23.168  1.00  0.00     0.263 C 
ATOM     10  C   UNL A   1      29.454  25.690  24.192  1.00  0.00     0.263 C 
ATOM     11  H   UNL A   1      31.257  25.713  25.100  1.00  0.00     0.348 HD
ATOM     12  C   UNL A   1      31.741  26.772  22.822  1.00  0.00     0.075 C 
ATOM     13  C   UNL A   1      29.338  27.112  23.705  1.00  0.00     0.075 C 
BRANCH   8  14
ATOM     14  C   UNL A   1      30.768  23.767  24.937  1.00  0.00     0.363 C 
BRANCH  14  15
ATOM     15  C   UNL A   1      31.012  23.638  26.453  1.00  0.00     0.279 C 
ATOM     16  N   UNL A   1      32.246  23.370  27.007  1.00  0.00    -0.321 N 
ATOM     17  H   UNL A   1      32.238  23.251  27.985  1.00  0.00     0.170 HD
ATOM     18  O   UNL A   1      30.089  23.853  27.250  1.00  0.00    -0.268 OA
BRANCH  16  19
ATOM     19  C   UNL A   1      33.515  23.239  26.413  1.00  0.00     0.042 A 
ATOM     20  C   UNL A   1      36.653  22.955  23.470  1.00  0.00     0.046 C 
ATOM     21  C   UNL A   1      35.681  23.054  24.614  1.00  0.00    -0.032 A 
ATOM     22  C   UNL A   1      35.109  24.297  24.917  1.00  0.00     0.007 A 
ATOM     23  C   UNL A   1      35.230  21.926  25.319  1.00  0.00     0.046 A 
ATOM     24  C   UNL A   1      34.055  24.394  25.833  1.00  0.00     0.026 A 
ATOM     25  C   UNL A   1      34.168  22.022  26.232  1.00  0.00     0.047 A 
ATOM     26  Cl  UNL A   1      35.866  20.351  24.999  1.00  0.00    -0.084 Cl
ENDBRANCH  16  19
ENDBRANCH  14  15
ENDBRANCH   8  14
ENDBRANCH   4   7
ENDBRANCH   2   3
ENDBRANCH   1   2
BRANCH   1  27
ATOM     27  C   UNL A   1      32.035  30.792  26.923  1.00  0.00     0.118 C 
BRANCH  27  28
ATOM     28  N   UNL A   1      32.203  32.239  26.995  1.00  0.00    -0.352 N 
ATOM     29  C   UNL A   1      33.226  32.971  27.547  1.00  0.00     0.251 C 
ATOM     30  H   UNL A   1      31.479  32.767  26.588  1.00  0.00     0.163 HD
ATOM     31  O   UNL A   1      33.097  34.185  27.688  1.00  0.00    -0.269 OA
BRANCH  29  32
ATOM     32  C   UNL A   1      34.453  32.286  28.003  1.00  0.00     0.039 A 
ATOM     33  C   UNL A   1      35.629  33.025  28.139  1.00  0.00     0.014 A 
ATOM     34  C   UNL A   1      34.431  30.931  28.341  1.00  0.00     0.014 A 
ATOM     35  C   UNL A   1      36.755  32.424  28.705  1.00  0.00     0.010 A 
ATOM     36  C   UNL A   1      35.520  30.365  28.994  1.00  0.00     0.010 A 
ATOM     37  C   UNL A   1      36.691  31.108  29.193  1.00  0.00    -0.014 A 
BRANCH  37  38
ATOM     38  C   UNL A   1      37.823  30.509  29.945  1.00  0.00     0.031 A 
ATOM     39  C   UNL A   1      38.085  30.915  31.370  1.00  0.00     0.074 A 
ATOM     40  C   UNL A   1      38.655  29.653  29.315  1.00  0.00     0.049 A 
ATOM     41  N   UNL A   1      39.065  30.559  32.162  1.00  0.00    -0.248 NA
ATOM     42  C   UNL A   1      37.139  31.863  31.978  1.00  0.00     0.031 C 
ATOM     43  C   UNL A   1      38.527  29.222  27.920  1.00  0.00     0.029 A 
ATOM     44  N   UNL A   1      39.778  28.996  29.757  1.00  0.00    -0.354 N 
ATOM     45  C   UNL A   1      38.860  31.248  33.352  1.00  0.00     0.074 A 
ATOM     46  C   UNL A   1      37.692  32.080  33.162  1.00  0.00     0.031 C 
ATOM     47  C   UNL A   1      39.513  28.358  27.630  1.00  0.00     0.029 A 
ATOM     48  C   UNL A   1      40.380  28.216  28.795  1.00  0.00     0.049 A 
ATOM     49  H   UNL A   1      40.121  29.077  30.676  1.00  0.00     0.167 HD
ATOM     50  C   UNL A   1      39.573  31.176  34.502  1.00  0.00     0.034 A 
ATOM     51  C   UNL A   1      41.515  27.488  28.836  1.00  0.00     0.034 A 
ATOM     52  C   UNL A   1      40.725  30.327  34.679  1.00  0.00     0.049 A 
ATOM     53  C   UNL A   1      42.305  27.456  30.122  1.00  0.00     0.074 A 
ATOM     54  C   UNL A   1      41.470  30.120  35.827  1.00  0.00     0.029 A 
ATOM     55  N   UNL A   1      41.310  29.558  33.682  1.00  0.00    -0.354 N 
ATOM     56  N   UNL A   1      42.049  28.053  31.265  1.00  0.00    -0.248 NA
ATOM     57  C   UNL A   1      43.532  26.651  30.128  1.00  0.00     0.031 C 
ATOM     58  C   UNL A   1      42.552  29.296  35.504  1.00  0.00     0.029 A 
ATOM     59  C   UNL A   1      42.435  28.915  34.177  1.00  0.00     0.049 A 
ATOM     60  H   UNL A   1      40.977  29.481  32.759  1.00  0.00     0.167 HD
ATOM     61  C   UNL A   1      43.070  27.669  32.128  1.00  0.00     0.074 A 
ATOM     62  C   UNL A   1      43.927  26.769  31.385  1.00  0.00     0.031 C 
ATOM     63  C   UNL A   1      43.287  28.030  33.419  1.00  0.00     0.034 A 
BRANCH  50  64
ATOM     64  C   UNL A   1      39.150  32.053  35.654  1.00  0.00     0.023 A 
ATOM     65  C   UNL A   1      39.609  33.374  35.791  1.00  0.00     0.031 A 
ATOM     66  C   UNL A   1      38.242  31.568  36.613  1.00  0.00     0.131 A 
ATOM     67  C   UNL A   1      39.194  34.150  36.885  1.00  0.00     0.055 A 
ATOM     68  C   UNL A   1      37.778  32.366  37.658  1.00  0.00     0.041 A 
ATOM     69  F   UNL A   1      37.787  30.307  36.545  1.00  0.00    -0.206 F 
ATOM     70  C   UNL A   1      38.260  33.663  37.803  1.00  0.00     0.022 A 
BRANCH  67  71
ATOM     71  S   UNL A   1      39.967  35.768  37.147  1.00  0.00     0.124 S 
ATOM     72  O   UNL A   1      39.653  36.453  35.896  1.00  0.00    -0.237 OA
ATOM     73  O   UNL A   1      39.278  36.260  38.335  1.00  0.00    -0.237 OA
ATOM     74  O   UNL A   1      41.381  35.447  37.335  1.00  0.00    -0.744 OA
ENDBRANCH  67  71
ENDBRANCH  50  64
BRANCH  51  75
ATOM     75  C   UNL A   1      42.005  26.760  27.628  1.00  0.00     0.023 A 
ATOM     76  C   UNL A   1      41.731  25.395  27.444  1.00  0.00     0.031 A 
ATOM     77  C   UNL A   1      42.826  27.397  26.680  1.00  0.00     0.131 A 
ATOM     78  C   UNL A   1      42.331  24.697  26.384  1.00  0.00     0.055 A 
ATOM     79  C   UNL A   1      43.362  26.714  25.587  1.00  0.00     0.041 A 
ATOM     80  F   UNL A   1      43.123  28.701  26.804  1.00  0.00    -0.206 F 
ATOM     81  C   UNL A   1      43.131  25.349  25.445  1.00  0.00     0.022 A 
BRANCH  78  82
ATOM     82  S   UNL A   1      42.160  22.891  26.332  1.00  0.00     0.124 S 
ATOM     83  O   UNL A   1      43.013  22.480  27.442  1.00  0.00    -0.237 OA
ATOM     84  O   UNL A   1      40.725  22.717  26.527  1.00  0.00    -0.237 OA
ATOM     85  O   UNL A   1      42.654  22.542  25.001  1.00  0.00    -0.744 OA
ENDBRANCH  78  82
ENDBRANCH  51  75
BRANCH  63  86
ATOM     86  C   UNL A   1      44.482  27.420  34.110  1.00  0.00     0.023 A 
ATOM     87  C   UNL A   1      44.394  26.191  34.785  1.00  0.00     0.031 A 
ATOM     88  C   UNL A   1      45.721  28.084  34.102  1.00  0.00     0.131 A 
ATOM     89  C   UNL A   1      45.507  25.692  35.477  1.00  0.00     0.055 A 
ATOM     90  C   UNL A   1      46.845  27.548  34.734  1.00  0.00     0.041 A 
ATOM     91  F   UNL A   1      45.863  29.264  33.477  1.00  0.00    -0.206 F 
ATOM     92  C   UNL A   1      46.737  26.353  35.438  1.00  0.00     0.022 A 
BRANCH  89  93
ATOM     93  S   UNL A   1      45.300  24.216  36.509  1.00  0.00     0.124 S 
ATOM     94  O   UNL A   1      44.520  23.344  35.638  1.00  0.00    -0.237 OA
ATOM     95  O   UNL A   1      46.680  23.806  36.751  1.00  0.00    -0.237 OA
ATOM     96  O   UNL A   1      44.589  24.717  37.684  1.00  0.00    -0.744 OA
ENDBRANCH  89  93
ENDBRANCH  63  86
ENDBRANCH  37  38
ENDBRANCH  29  32
ENDBRANCH  27  28
ENDBRANCH   1  27
TORSDOF 16
ENDMDL
MODEL 3
REMARK VINA RESULT:     -12.3      1.658      1.944
REMARK SMILES Cc1ccc(NC(=O)C[NH+]2CCC(C(=O)NCCCNC(=O)c3ccc(-c4c5nc(c(-c6cc(S(=O)(=O)[O-])ccc6F)c6ccc([nH]6)c(-c6cc(S(=O)(=O)[O-])ccc6F)c6nc(c(-c7cc(S(=O)(=O)[O-])ccc7F)c7ccc4[nH]7)C=C6)C=C5)cc3)CC2)cc1Cl
REMARK SMILES IDX 18 1 17 2 16 3 14 4 15 5 13 7 10 8 11 9 87 10 12 12 86 13
REMARK SMILES IDX 9 14 7 15 6 16 8 18 5 19 1 20 2 21 3 22 89 23 4 24 88 25
REMARK SMILES IDX 90 26 19 27 20 28 21 29 22 31 23 32 24 33 85 34 25 35 84 36
REMARK SMILES IDX 26 37 27 38 28 39 78 40 29 41 83 42 77 43 79 44 30 45 82 46
REMARK SMILES IDX 76 47 75 48 31 50 63 51 43 52 62 53 44 54 47 55 61 56 80 57
REMARK SMILES IDX 45 58 46 59 60 61 81 62 48 63 32 64 33 65 41 66 34 67 40 68
REMARK SMILES IDX 42 69 39 70 35 71 36 72 37 73 38 74 64 75 65 76 73 77 66 78
REMARK SMILES IDX 72 79 74 80 71 81 67 82 68 83 69 84 70 85 49 86 50 87 58 88
REMARK SMILES IDX 51 89 57 90 59 91 56 92 52 93 53 94 54 95 55 96
REMARK H PARENT 16 6 10 11 6 17 20 30 79 49 47 60
REMARK Flexibility Score: inf
ROOT
ATOM      1  C   UNL A   1      31.925  31.622  26.780  1.00  0.00     0.042 C 
ENDROOT
BRANCH   1   2
ATOM      2  C   UNL A   1      32.358  30.240  26.324  1.00  0.00     0.117 C 
BRANCH   2   3
ATOM      3  N   UNL A   1      32.049  30.017  24.916  1.00  0.00    -0.356 N 
ATOM      4  C   UNL A   1      31.615  28.904  24.264  1.00  0.00     0.223 C 
ATOM      5  O   UNL A   1      31.461  28.968  23.042  1.00  0.00    -0.275 OA
ATOM      6  H   UNL A   1      32.176  30.804  24.340  1.00  0.00     0.163 HD
BRANCH   4   7
ATOM      7  C   UNL A   1      31.249  27.643  25.023  1.00  0.00     0.089 C 
ATOM      8  N   UNL A   1      31.146  24.732  24.808  1.00  0.00    -0.327 N 
ATOM      9  C   UNL A   1      29.903  25.476  25.003  1.00  0.00     0.263 C 
ATOM     10  C   UNL A   1      32.248  25.369  25.510  1.00  0.00     0.263 C 
ATOM     11  H   UNL A   1      31.348  24.762  23.808  1.00  0.00     0.348 HD
ATOM     12  C   UNL A   1      30.060  26.886  24.420  1.00  0.00     0.075 C 
ATOM     13  C   UNL A   1      32.516  26.823  25.214  1.00  0.00     0.075 C 
BRANCH   8  14
ATOM     14  C   UNL A   1      31.032  23.281  25.135  1.00  0.00     0.363 C 
BRANCH  14  15
ATOM     15  C   UNL A   1      31.394  22.884  26.580  1.00  0.00     0.279 C 
ATOM     16  N   UNL A   1      32.609  22.339  26.940  1.00  0.00    -0.321 N 
ATOM     17  H   UNL A   1      32.673  22.075  27.887  1.00  0.00     0.170 HD
ATOM     18  O   UNL A   1      30.604  23.120  27.504  1.00  0.00    -0.268 OA
BRANCH  16  19
ATOM     19  C   UNL A   1      33.771  22.098  26.185  1.00  0.00     0.042 A 
ATOM     20  C   UNL A   1      37.560  20.500  24.890  1.00  0.00     0.046 C 
ATOM     21  C   UNL A   1      36.232  21.140  25.194  1.00  0.00    -0.032 A 
ATOM     22  C   UNL A   1      35.061  20.385  25.048  1.00  0.00     0.007 A 
ATOM     23  C   UNL A   1      36.126  22.433  25.733  1.00  0.00     0.046 A 
ATOM     24  C   UNL A   1      33.834  20.872  25.511  1.00  0.00     0.026 A 
ATOM     25  C   UNL A   1      34.897  22.918  26.205  1.00  0.00     0.047 A 
ATOM     26  Cl  UNL A   1      37.520  23.428  25.966  1.00  0.00    -0.084 Cl
ENDBRANCH  16  19
ENDBRANCH  14  15
ENDBRANCH   8  14
ENDBRANCH   4   7
ENDBRANCH   2   3
ENDBRANCH   1   2
BRANCH   1  27
ATOM     27  C   UNL A   1      33.048  32.416  27.424  1.00  0.00     0.118 C 
BRANCH  27  28
ATOM     28  N   UNL A   1      32.691  33.812  27.648  1.00  0.00    -0.352 N 
ATOM     29  C   UNL A   1      33.189  34.703  28.568  1.00  0.00     0.251 C 
ATOM     30  H   UNL A   1      31.994  34.168  27.052  1.00  0.00     0.163 HD
ATOM     31  O   UNL A   1      32.624  35.781  28.737  1.00  0.00    -0.269 OA
BRANCH  29  32
ATOM     32  C   UNL A   1      34.373  34.338  29.373  1.00  0.00     0.039 A 
ATOM     33  C   UNL A   1      34.185  33.726  30.613  1.00  0.00     0.014 A 
ATOM     34  C   UNL A   1      35.663  34.557  28.885  1.00  0.00     0.014 A 
ATOM     35  C   UNL A   1      35.292  33.247  31.316  1.00  0.00     0.010 A 
ATOM     36  C   UNL A   1      36.753  33.992  29.538  1.00  0.00     0.010 A 
ATOM     37  C   UNL A   1      36.578  33.322  30.757  1.00  0.00    -0.014 A 
BRANCH  37  38
ATOM     38  C   UNL A   1      37.743  32.672  31.412  1.00  0.00     0.031 A 
ATOM     39  C   UNL A   1      38.423  31.500  30.758  1.00  0.00     0.074 A 
ATOM     40  C   UNL A   1      38.137  33.098  32.630  1.00  0.00     0.049 A 
ATOM     41  N   UNL A   1      39.402  30.759  31.209  1.00  0.00    -0.248 NA
ATOM     42  C   UNL A   1      37.922  31.091  29.436  1.00  0.00     0.031 C 
ATOM     43  C   UNL A   1      37.522  34.196  33.382  1.00  0.00     0.029 A 
ATOM     44  N   UNL A   1      39.141  32.657  33.459  1.00  0.00    -0.354 N 
ATOM     45  C   UNL A   1      39.625  29.791  30.236  1.00  0.00     0.074 A 
ATOM     46  C   UNL A   1      38.647  30.009  29.193  1.00  0.00     0.031 C 
ATOM     47  C   UNL A   1      38.175  34.358  34.545  1.00  0.00     0.029 A 
ATOM     48  C   UNL A   1      39.216  33.341  34.652  1.00  0.00     0.049 A 
ATOM     49  H   UNL A   1      39.749  31.921  33.222  1.00  0.00     0.167 HD
ATOM     50  C   UNL A   1      40.572  28.822  30.211  1.00  0.00     0.034 A 
ATOM     51  C   UNL A   1      40.015  33.156  35.723  1.00  0.00     0.034 A 
ATOM     52  C   UNL A   1      41.552  28.631  31.252  1.00  0.00     0.049 A 
ATOM     53  C   UNL A   1      41.037  32.046  35.676  1.00  0.00     0.074 A 
ATOM     54  C   UNL A   1      42.604  27.732  31.286  1.00  0.00     0.029 A 
ATOM     55  N   UNL A   1      41.593  29.336  32.448  1.00  0.00    -0.354 N 
ATOM     56  N   UNL A   1      41.286  31.191  34.710  1.00  0.00    -0.248 NA
ATOM     57  C   UNL A   1      41.890  31.878  36.860  1.00  0.00     0.031 C 
ATOM     58  C   UNL A   1      43.227  27.834  32.534  1.00  0.00     0.029 A 
ATOM     59  C   UNL A   1      42.621  28.857  33.245  1.00  0.00     0.049 A 
ATOM     60  H   UNL A   1      40.982  30.067  32.693  1.00  0.00     0.167 HD
ATOM     61  C   UNL A   1      42.341  30.405  35.163  1.00  0.00     0.074 A 
ATOM     62  C   UNL A   1      42.700  30.906  36.473  1.00  0.00     0.031 C 
ATOM     63  C   UNL A   1      42.958  29.359  34.556  1.00  0.00     0.034 A 
BRANCH  50  64
ATOM     64  C   UNL A   1      40.587  27.876  29.036  1.00  0.00     0.023 A 
ATOM     65  C   UNL A   1      41.515  28.004  27.989  1.00  0.00     0.031 A 
ATOM     66  C   UNL A   1      39.675  26.806  28.981  1.00  0.00     0.131 A 
ATOM     67  C   UNL A   1      41.484  27.105  26.912  1.00  0.00     0.055 A 
ATOM     68  C   UNL A   1      39.695  25.874  27.944  1.00  0.00     0.041 A 
ATOM     69  F   UNL A   1      38.751  26.647  29.942  1.00  0.00    -0.206 F 
ATOM     70  C   UNL A   1      40.598  26.025  26.897  1.00  0.00     0.022 A 
BRANCH  67  71
ATOM     71  S   UNL A   1      42.550  27.424  25.481  1.00  0.00     0.124 S 
ATOM     72  O   UNL A   1      42.364  26.208  24.695  1.00  0.00    -0.237 OA
ATOM     73  O   UNL A   1      41.973  28.641  24.921  1.00  0.00    -0.237 OA
ATOM     74  O   UNL A   1      43.879  27.579  26.071  1.00  0.00    -0.744 OA
ENDBRANCH  67  71
ENDBRANCH  50  64
BRANCH  51  75
ATOM     75  C   UNL A   1      39.869  34.001  36.946  1.00  0.00     0.023 A 
ATOM     76  C   UNL A   1      40.762  35.052  37.210  1.00  0.00     0.031 A 
ATOM     77  C   UNL A   1      38.887  33.716  37.911  1.00  0.00     0.131 A 
ATOM     78  C   UNL A   1      40.701  35.731  38.437  1.00  0.00     0.055 A 
ATOM     79  C   UNL A   1      38.785  34.443  39.100  1.00  0.00     0.041 A 
ATOM     80  F   UNL A   1      38.006  32.722  37.714  1.00  0.00    -0.206 F 
ATOM     81  C   UNL A   1      39.710  35.445  39.377  1.00  0.00     0.022 A 
BRANCH  78  82
ATOM     82  S   UNL A   1      42.026  36.902  38.845  1.00  0.00     0.124 S 
ATOM     83  O   UNL A   1      42.867  36.101  39.728  1.00  0.00    -0.237 OA
ATOM     84  O   UNL A   1      42.580  37.201  37.529  1.00  0.00    -0.237 OA
ATOM     85  O   UNL A   1      41.317  38.006  39.488  1.00  0.00    -0.744 OA
ENDBRANCH  78  82
ENDBRANCH  51  75
BRANCH  63  86
ATOM     86  C   UNL A   1      44.104  28.715  35.297  1.00  0.00     0.023 A 
ATOM     87  C   UNL A   1      43.889  27.718  36.263  1.00  0.00     0.031 A 
ATOM     88  C   UNL A   1      45.428  29.113  35.041  1.00  0.00     0.131 A 
ATOM     89  C   UNL A   1      44.973  27.195  36.983  1.00  0.00     0.055 A 
ATOM     90  C   UNL A   1      46.510  28.539  35.710  1.00  0.00     0.041 A 
ATOM     91  F   UNL A   1      45.693  30.064  34.131  1.00  0.00    -0.206 F 
ATOM     92  C   UNL A   1      46.284  27.585  36.697  1.00  0.00     0.022 A 
BRANCH  89  93
ATOM     93  S   UNL A   1      44.640  26.069  38.364  1.00  0.00     0.124 S 
ATOM     94  O   UNL A   1      44.952  24.770  37.778  1.00  0.00    -0.237 OA
ATOM     95  O   UNL A   1      45.566  26.545  39.387  1.00  0.00    -0.237 OA
ATOM     96  O   UNL A   1      43.226  26.295  38.657  1.00  0.00    -0.744 OA
ENDBRANCH  89  93
ENDBRANCH  63  86
ENDBRANCH  37  38
ENDBRANCH  29  32
ENDBRANCH  27  28
ENDBRANCH   1  27
TORSDOF 16
ENDMDL
