MODEL 1
REMARK VINA RESULT:     -13.0      0.000      0.000
REMARK SMILES Cc1ccc(S(=O)(=O)n2cc(C(=O)C(=O)NCC(=O)NCCCNC(=O)c3ccc(-c4c5nc(c(-c6cc(S(=O)(=O)[O-])ccc6F)c6ccc([nH]6)c(-c6cc(S(=O)(=O)[O-])ccc6F)c6nc(c(-c7cc(S(=O)(=O)[O-])ccc7F)c7ccc4[nH]7)C=C6)C=C5)cc3)c3ccccc32)cc1
REMARK SMILES IDX 21 1 20 2 18 3 19 4 17 6 16 7 14 8 15 9 12 11 13 12 11 13
REMARK SMILES IDX 9 14 10 15 95 16 90 17 94 18 91 19 93 20 92 21 6 22 7 23
REMARK SMILES IDX 8 24 5 25 1 26 2 27 3 28 97 29 4 30 96 31 22 32 23 33 24 34
REMARK SMILES IDX 25 35 26 37 27 38 28 39 89 40 29 41 88 42 30 43 31 44 32 45
REMARK SMILES IDX 82 46 33 47 87 48 81 49 83 50 34 51 86 52 80 53 79 54 35 56
REMARK SMILES IDX 67 57 47 58 66 59 48 60 51 61 65 62 84 63 49 64 50 65 64 67
REMARK SMILES IDX 85 68 52 69 36 70 37 71 45 72 38 73 44 74 46 75 43 76 39 77
REMARK SMILES IDX 40 78 41 79 42 80 68 81 69 82 77 83 70 84 76 85 78 86 75 87
REMARK SMILES IDX 71 88 72 89 73 90 74 91 53 92 54 93 62 94 55 95 61 96 63 97
REMARK SMILES IDX 60 98 56 99 57 100 58 101 59 102
REMARK H PARENT 20 5 16 10 24 36 83 55 51 66
REMARK Flexibility Score: inf
ROOT
ATOM      1  C   UNL A   1      33.044  34.713  28.979  1.00  0.00     0.117 C 
ENDROOT
BRANCH   1   2
ATOM      2  N   UNL A   1      34.291  34.427  28.292  1.00  0.00    -0.355 N 
ATOM      3  C   UNL A   1      34.822  33.207  27.976  1.00  0.00     0.239 C 
ATOM      4  O   UNL A   1      35.933  33.119  27.452  1.00  0.00    -0.273 OA
ATOM      5  H   UNL A   1      34.821  35.210  28.019  1.00  0.00     0.163 HD
BRANCH   3   6
ATOM      6  C   UNL A   1      33.992  31.952  28.263  1.00  0.00     0.216 C 
BRANCH   6   7
ATOM      7  N   UNL A   1      32.911  31.748  27.304  1.00  0.00    -0.340 N 
ATOM      8  C   UNL A   1      32.534  30.621  26.606  1.00  0.00     0.292 C 
ATOM      9  O   UNL A   1      31.565  30.687  25.854  1.00  0.00    -0.265 OA
ATOM     10  H   UNL A   1      32.362  32.545  27.127  1.00  0.00     0.164 HD
BRANCH   8  11
ATOM     11  C   UNL A   1      33.304  29.286  26.761  1.00  0.00     0.252 C 
ATOM     12  O   UNL A   1      34.239  29.244  27.557  1.00  0.00    -0.283 OA
BRANCH  11  13
ATOM     13  C   UNL A   1      32.901  28.068  26.033  1.00  0.00     0.054 A 
ATOM     14  N   UNL A   1      32.201  25.997  25.571  1.00  0.00    -0.240 N 
ATOM     15  C   UNL A   1      32.295  26.941  26.561  1.00  0.00     0.117 A 
ATOM     16  C   UNL A   1      32.693  26.474  24.375  1.00  0.00     0.065 A 
ATOM     17  C   UNL A   1      33.128  27.782  24.637  1.00  0.00     0.012 A 
ATOM     18  C   UNL A   1      32.835  25.881  23.106  1.00  0.00     0.028 A 
ATOM     19  C   UNL A   1      33.687  28.523  23.572  1.00  0.00     0.011 A 
ATOM     20  C   UNL A   1      33.422  26.631  22.085  1.00  0.00     0.002 A 
ATOM     21  C   UNL A   1      33.832  27.939  22.309  1.00  0.00     0.001 A 
BRANCH  14  22
ATOM     22  S   UNL A   1      31.707  24.390  25.847  1.00  0.00     0.268 S 
ATOM     23  O   UNL A   1      30.690  24.113  24.856  1.00  0.00    -0.201 OA
ATOM     24  O   UNL A   1      31.440  24.290  27.274  1.00  0.00    -0.201 OA
BRANCH  22  25
ATOM     25  C   UNL A   1      33.081  23.316  25.509  1.00  0.00     0.088 A 
ATOM     26  C   UNL A   1      36.430  20.646  25.089  1.00  0.00     0.044 C 
ATOM     27  C   UNL A   1      35.270  21.588  25.217  1.00  0.00    -0.051 A 
ATOM     28  C   UNL A   1      35.273  22.567  26.217  1.00  0.00     0.005 A 
ATOM     29  C   UNL A   1      34.175  21.505  24.346  1.00  0.00     0.005 A 
ATOM     30  C   UNL A   1      34.182  23.424  26.367  1.00  0.00     0.022 A 
ATOM     31  C   UNL A   1      33.086  22.373  24.482  1.00  0.00     0.022 A 
ENDBRANCH  22  25
ENDBRANCH  14  22
ENDBRANCH  11  13
ENDBRANCH   8  11
ENDBRANCH   6   7
ENDBRANCH   3   6
ENDBRANCH   1   2
BRANCH   1  32
ATOM     32  C   UNL A   1      33.101  36.041  29.716  1.00  0.00     0.042 C 
BRANCH  32  33
ATOM     33  C   UNL A   1      33.620  35.909  31.140  1.00  0.00     0.118 C 
BRANCH  33  34
ATOM     34  N   UNL A   1      33.368  34.593  31.733  1.00  0.00    -0.352 N 
ATOM     35  C   UNL A   1      34.251  33.586  32.090  1.00  0.00     0.251 C 
ATOM     36  H   UNL A   1      32.420  34.392  31.905  1.00  0.00     0.163 HD
ATOM     37  O   UNL A   1      33.854  32.487  32.463  1.00  0.00    -0.269 OA
BRANCH  35  38
ATOM     38  C   UNL A   1      35.689  33.911  32.239  1.00  0.00     0.039 A 
ATOM     39  C   UNL A   1      36.390  34.092  31.036  1.00  0.00     0.014 A 
ATOM     40  C   UNL A   1      36.357  33.578  33.406  1.00  0.00     0.014 A 
ATOM     41  C   UNL A   1      37.674  33.587  30.930  1.00  0.00     0.010 A 
ATOM     42  C   UNL A   1      37.550  32.922  33.268  1.00  0.00     0.010 A 
ATOM     43  C   UNL A   1      38.160  32.870  32.011  1.00  0.00    -0.014 A 
BRANCH  43  44
ATOM     44  C   UNL A   1      39.367  32.083  31.985  1.00  0.00     0.031 A 
ATOM     45  C   UNL A   1      39.248  30.741  31.414  1.00  0.00     0.074 A 
ATOM     46  C   UNL A   1      40.537  32.674  32.309  1.00  0.00     0.049 A 
ATOM     47  N   UNL A   1      40.109  29.811  31.588  1.00  0.00    -0.248 NA
ATOM     48  C   UNL A   1      38.075  30.304  30.651  1.00  0.00     0.031 C 
ATOM     49  C   UNL A   1      41.893  32.215  32.041  1.00  0.00     0.029 A 
ATOM     50  N   UNL A   1      40.706  33.748  33.183  1.00  0.00    -0.354 N 
ATOM     51  C   UNL A   1      39.812  28.828  30.676  1.00  0.00     0.074 A 
ATOM     52  C   UNL A   1      38.454  29.079  30.280  1.00  0.00     0.031 C 
ATOM     53  C   UNL A   1      42.729  32.794  32.923  1.00  0.00     0.029 A 
ATOM     54  C   UNL A   1      41.905  33.500  33.889  1.00  0.00     0.049 A 
ATOM     55  H   UNL A   1      40.110  34.524  33.289  1.00  0.00     0.167 HD
ATOM     56  C   UNL A   1      40.834  28.046  30.242  1.00  0.00     0.034 A 
ATOM     57  C   UNL A   1      41.848  33.226  35.230  1.00  0.00     0.034 A 
ATOM     58  C   UNL A   1      42.033  28.296  31.049  1.00  0.00     0.049 A 
ATOM     59  C   UNL A   1      42.264  31.798  35.558  1.00  0.00     0.074 A 
ATOM     60  C   UNL A   1      43.219  28.979  30.854  1.00  0.00     0.029 A 
ATOM     61  N   UNL A   1      41.941  28.082  32.411  1.00  0.00    -0.354 N 
ATOM     62  N   UNL A   1      42.453  30.864  34.663  1.00  0.00    -0.248 NA
ATOM     63  C   UNL A   1      42.469  31.299  36.915  1.00  0.00     0.031 C 
ATOM     64  C   UNL A   1      43.798  29.223  32.142  1.00  0.00     0.029 A 
ATOM     65  C   UNL A   1      42.988  28.643  33.103  1.00  0.00     0.049 A 
ATOM     66  H   UNL A   1      41.208  27.583  32.837  1.00  0.00     0.167 HD
ATOM     67  C   UNL A   1      42.762  29.674  35.271  1.00  0.00     0.074 A 
ATOM     68  C   UNL A   1      42.733  29.997  36.690  1.00  0.00     0.031 C 
ATOM     69  C   UNL A   1      42.991  28.525  34.558  1.00  0.00     0.034 A 
BRANCH  56  70
ATOM     70  C   UNL A   1      40.848  27.200  28.993  1.00  0.00     0.023 A 
ATOM     71  C   UNL A   1      41.830  27.494  28.027  1.00  0.00     0.031 A 
ATOM     72  C   UNL A   1      39.923  26.201  28.622  1.00  0.00     0.131 A 
ATOM     73  C   UNL A   1      41.852  26.851  26.778  1.00  0.00     0.055 A 
ATOM     74  C   UNL A   1      39.969  25.531  27.393  1.00  0.00     0.041 A 
ATOM     75  F   UNL A   1      38.895  25.835  29.394  1.00  0.00    -0.206 F 
ATOM     76  C   UNL A   1      40.932  25.861  26.457  1.00  0.00     0.022 A 
BRANCH  73  77
ATOM     77  S   UNL A   1      43.078  27.378  25.555  1.00  0.00     0.124 S 
ATOM     78  O   UNL A   1      44.043  28.096  26.381  1.00  0.00    -0.237 OA
ATOM     79  O   UNL A   1      43.520  26.107  24.995  1.00  0.00    -0.237 OA
ATOM     80  O   UNL A   1      42.302  28.219  24.643  1.00  0.00    -0.744 OA
ENDBRANCH  73  77
ENDBRANCH  56  70
BRANCH  57  81
ATOM     81  C   UNL A   1      40.760  34.027  35.896  1.00  0.00     0.023 A 
ATOM     82  C   UNL A   1      39.568  33.325  36.201  1.00  0.00     0.031 A 
ATOM     83  C   UNL A   1      41.059  35.162  36.663  1.00  0.00     0.131 A 
ATOM     84  C   UNL A   1      38.877  33.599  37.393  1.00  0.00     0.055 A 
ATOM     85  C   UNL A   1      40.291  35.498  37.788  1.00  0.00     0.041 A 
ATOM     86  F   UNL A   1      42.176  35.867  36.436  1.00  0.00    -0.206 F 
ATOM     87  C   UNL A   1      39.238  34.678  38.197  1.00  0.00     0.022 A 
BRANCH  84  88
ATOM     88  S   UNL A   1      37.756  32.319  38.037  1.00  0.00     0.124 S 
ATOM     89  O   UNL A   1      38.268  32.101  39.384  1.00  0.00    -0.237 OA
ATOM     90  O   UNL A   1      36.449  32.973  37.942  1.00  0.00    -0.237 OA
ATOM     91  O   UNL A   1      37.919  31.198  37.113  1.00  0.00    -0.744 OA
ENDBRANCH  84  88
ENDBRANCH  57  81
BRANCH  69  92
ATOM     92  C   UNL A   1      43.214  27.156  35.172  1.00  0.00     0.023 A 
ATOM     93  C   UNL A   1      44.315  26.361  34.839  1.00  0.00     0.031 A 
ATOM     94  C   UNL A   1      42.294  26.573  36.083  1.00  0.00     0.131 A 
ATOM     95  C   UNL A   1      44.519  25.116  35.463  1.00  0.00     0.055 A 
ATOM     96  C   UNL A   1      42.445  25.293  36.619  1.00  0.00     0.041 A 
ATOM     97  F   UNL A   1      41.223  27.229  36.548  1.00  0.00    -0.206 F 
ATOM     98  C   UNL A   1      43.579  24.562  36.328  1.00  0.00     0.022 A 
BRANCH  95  99
ATOM     99  S   UNL A   1      46.096  24.274  35.190  1.00  0.00     0.124 S 
ATOM    100  O   UNL A   1      46.658  24.209  36.535  1.00  0.00    -0.237 OA
ATOM    101  O   UNL A   1      45.655  23.002  34.625  1.00  0.00    -0.237 OA
ATOM    102  O   UNL A   1      46.801  25.153  34.260  1.00  0.00    -0.744 OA
ENDBRANCH  95  99
ENDBRANCH  69  92
ENDBRANCH  43  44
ENDBRANCH  35  38
ENDBRANCH  33  34
ENDBRANCH  32  33
ENDBRANCH   1  32
TORSDOF 18
ENDMDL
MODEL 2
REMARK VINA RESULT:     -12.3      4.397     10.087
REMARK SMILES Cc1ccc(S(=O)(=O)n2cc(C(=O)C(=O)NCC(=O)NCCCNC(=O)c3ccc(-c4c5nc(c(-c6cc(S(=O)(=O)[O-])ccc6F)c6ccc([nH]6)c(-c6cc(S(=O)(=O)[O-])ccc6F)c6nc(c(-c7cc(S(=O)(=O)[O-])ccc7F)c7ccc4[nH]7)C=C6)C=C5)cc3)c3ccccc32)cc1
REMARK SMILES IDX 21 1 20 2 18 3 19 4 17 6 16 7 14 8 15 9 12 11 13 12 11 13
REMARK SMILES IDX 9 14 10 15 95 16 90 17 94 18 91 19 93 20 92 21 6 22 7 23
REMARK SMILES IDX 8 24 5 25 1 26 2 27 3 28 97 29 4 30 96 31 22 32 23 33 24 34
REMARK SMILES IDX 25 35 26 37 27 38 28 39 89 40 29 41 88 42 30 43 31 44 32 45
REMARK SMILES IDX 82 46 33 47 87 48 81 49 83 50 34 51 86 52 80 53 79 54 35 56
REMARK SMILES IDX 67 57 47 58 66 59 48 60 51 61 65 62 84 63 49 64 50 65 64 67
REMARK SMILES IDX 85 68 52 69 36 70 37 71 45 72 38 73 44 74 46 75 43 76 39 77
REMARK SMILES IDX 40 78 41 79 42 80 68 81 69 82 77 83 70 84 76 85 78 86 75 87
REMARK SMILES IDX 71 88 72 89 73 90 74 91 53 92 54 93 62 94 55 95 61 96 63 97
REMARK SMILES IDX 60 98 56 99 57 100 58 101 59 102
REMARK H PARENT 20 5 16 10 24 36 83 55 51 66
REMARK Flexibility Score: inf
ROOT
ATOM      1  C   UNL A   1      45.765  26.127  29.763  1.00  0.00     0.117 C 
ENDROOT
BRANCH   1   2
ATOM      2  N   UNL A   1      45.024  24.879  29.718  1.00  0.00    -0.355 N 
ATOM      3  C   UNL A   1      45.048  23.916  28.749  1.00  0.00     0.239 C 
ATOM      4  O   UNL A   1      44.303  22.936  28.813  1.00  0.00    -0.273 OA
ATOM      5  H   UNL A   1      44.430  24.704  30.483  1.00  0.00     0.163 HD
BRANCH   3   6
ATOM      6  C   UNL A   1      46.040  24.067  27.592  1.00  0.00     0.216 C 
BRANCH   6   7
ATOM      7  N   UNL A   1      45.632  25.071  26.614  1.00  0.00    -0.340 N 
ATOM      8  C   UNL A   1      45.156  24.928  25.329  1.00  0.00     0.292 C 
ATOM      9  O   UNL A   1      44.857  25.935  24.692  1.00  0.00    -0.265 OA
ATOM     10  H   UNL A   1      45.709  26.002  26.924  1.00  0.00     0.164 HD
BRANCH   8  11
ATOM     11  C   UNL A   1      44.988  23.528  24.686  1.00  0.00     0.252 C 
ATOM     12  O   UNL A   1      45.788  23.188  23.819  1.00  0.00    -0.283 OA
BRANCH  11  13
ATOM     13  C   UNL A   1      43.945  22.588  25.135  1.00  0.00     0.054 A 
ATOM     14  N   UNL A   1      42.074  21.748  26.024  1.00  0.00    -0.240 N 
ATOM     15  C   UNL A   1      42.679  22.902  25.598  1.00  0.00     0.117 A 
ATOM     16  C   UNL A   1      42.886  20.653  25.822  1.00  0.00     0.065 A 
ATOM     17  C   UNL A   1      44.067  21.154  25.250  1.00  0.00     0.012 A 
ATOM     18  C   UNL A   1      42.723  19.286  26.115  1.00  0.00     0.028 A 
ATOM     19  C   UNL A   1      45.093  20.237  24.932  1.00  0.00     0.011 A 
ATOM     20  C   UNL A   1      43.771  18.413  25.818  1.00  0.00     0.002 A 
ATOM     21  C   UNL A   1      44.937  18.878  25.224  1.00  0.00     0.001 A 
BRANCH  14  22
ATOM     22  S   UNL A   1      40.588  21.715  26.857  1.00  0.00     0.268 S 
ATOM     23  O   UNL A   1      40.844  21.017  28.096  1.00  0.00    -0.201 OA
ATOM     24  O   UNL A   1      39.600  21.246  25.896  1.00  0.00    -0.201 OA
BRANCH  22  25
ATOM     25  C   UNL A   1      40.142  23.385  27.272  1.00  0.00     0.088 A 
ATOM     26  C   UNL A   1      39.444  27.531  28.189  1.00  0.00     0.044 C 
ATOM     27  C   UNL A   1      39.672  26.080  27.885  1.00  0.00    -0.051 A 
ATOM     28  C   UNL A   1      40.825  25.441  28.354  1.00  0.00     0.005 A 
ATOM     29  C   UNL A   1      38.743  25.347  27.133  1.00  0.00     0.005 A 
ATOM     30  C   UNL A   1      41.064  24.101  28.046  1.00  0.00     0.022 A 
ATOM     31  C   UNL A   1      38.969  23.999  26.835  1.00  0.00     0.022 A 
ENDBRANCH  22  25
ENDBRANCH  14  22
ENDBRANCH  11  13
ENDBRANCH   8  11
ENDBRANCH   6   7
ENDBRANCH   3   6
ENDBRANCH   1   2
BRANCH   1  32
ATOM     32  C   UNL A   1      44.858  27.327  29.544  1.00  0.00     0.042 C 
BRANCH  32  33
ATOM     33  C   UNL A   1      45.566  28.655  29.770  1.00  0.00     0.118 C 
BRANCH  33  34
ATOM     34  N   UNL A   1      46.235  29.171  28.573  1.00  0.00    -0.352 N 
ATOM     35  C   UNL A   1      45.751  29.964  27.546  1.00  0.00     0.251 C 
ATOM     36  H   UNL A   1      47.181  28.913  28.486  1.00  0.00     0.163 HD
ATOM     37  O   UNL A   1      46.423  30.202  26.546  1.00  0.00    -0.269 OA
BRANCH  35  38
ATOM     38  C   UNL A   1      44.493  30.719  27.753  1.00  0.00     0.039 A 
ATOM     39  C   UNL A   1      44.524  31.664  28.790  1.00  0.00     0.014 A 
ATOM     40  C   UNL A   1      43.290  30.196  27.306  1.00  0.00     0.014 A 
ATOM     41  C   UNL A   1      43.414  31.797  29.605  1.00  0.00     0.010 A 
ATOM     42  C   UNL A   1      42.252  30.185  28.198  1.00  0.00     0.010 A 
ATOM     43  C   UNL A   1      42.358  30.930  29.377  1.00  0.00    -0.014 A 
BRANCH  43  44
ATOM     44  C   UNL A   1      41.234  30.770  30.265  1.00  0.00     0.031 A 
ATOM     45  C   UNL A   1      40.303  31.897  30.334  1.00  0.00     0.074 A 
ATOM     46  C   UNL A   1      41.014  29.562  30.826  1.00  0.00     0.049 A 
ATOM     47  N   UNL A   1      39.449  32.062  31.272  1.00  0.00    -0.248 NA
ATOM     48  C   UNL A   1      40.319  33.001  29.370  1.00  0.00     0.031 C 
ATOM     49  C   UNL A   1      39.802  29.061  31.461  1.00  0.00     0.029 A 
ATOM     50  N   UNL A   1      41.980  28.602  31.127  1.00  0.00    -0.354 N 
ATOM     51  C   UNL A   1      38.579  33.035  30.841  1.00  0.00     0.074 A 
ATOM     52  C   UNL A   1      39.270  33.715  29.781  1.00  0.00     0.031 C 
ATOM     53  C   UNL A   1      40.133  28.059  32.296  1.00  0.00     0.029 A 
ATOM     54  C   UNL A   1      41.584  28.012  32.349  1.00  0.00     0.049 A 
ATOM     55  H   UNL A   1      42.778  28.379  30.596  1.00  0.00     0.167 HD
ATOM     56  C   UNL A   1      37.311  33.001  31.325  1.00  0.00     0.034 A 
ATOM     57  C   UNL A   1      42.342  28.223  33.470  1.00  0.00     0.034 A 
ATOM     58  C   UNL A   1      37.218  32.023  32.415  1.00  0.00     0.049 A 
ATOM     59  C   UNL A   1      41.618  29.051  34.524  1.00  0.00     0.074 A 
ATOM     60  C   UNL A   1      36.699  30.748  32.544  1.00  0.00     0.029 A 
ATOM     61  N   UNL A   1      38.038  32.209  33.511  1.00  0.00    -0.354 N 
ATOM     62  N   UNL A   1      40.488  29.676  34.318  1.00  0.00    -0.248 NA
ATOM     63  C   UNL A   1      42.120  29.268  35.878  1.00  0.00     0.031 C 
ATOM     64  C   UNL A   1      37.286  30.156  33.710  1.00  0.00     0.029 A 
ATOM     65  C   UNL A   1      38.112  31.092  34.309  1.00  0.00     0.049 A 
ATOM     66  H   UNL A   1      38.517  33.048  33.699  1.00  0.00     0.167 HD
ATOM     67  C   UNL A   1      40.121  30.380  35.436  1.00  0.00     0.074 A 
ATOM     68  C   UNL A   1      41.196  30.110  36.380  1.00  0.00     0.031 C 
ATOM     69  C   UNL A   1      38.980  31.141  35.481  1.00  0.00     0.034 A 
BRANCH  56  70
ATOM     70  C   UNL A   1      36.104  33.678  30.726  1.00  0.00     0.023 A 
ATOM     71  C   UNL A   1      35.342  34.505  31.575  1.00  0.00     0.031 A 
ATOM     72  C   UNL A   1      35.579  33.506  29.427  1.00  0.00     0.131 A 
ATOM     73  C   UNL A   1      34.132  35.081  31.152  1.00  0.00     0.055 A 
ATOM     74  C   UNL A   1      34.394  34.114  28.992  1.00  0.00     0.041 A 
ATOM     75  F   UNL A   1      36.143  32.713  28.511  1.00  0.00    -0.206 F 
ATOM     76  C   UNL A   1      33.657  34.899  29.859  1.00  0.00     0.022 A 
BRANCH  73  77
ATOM     77  S   UNL A   1      33.161  36.030  32.347  1.00  0.00     0.124 S 
ATOM     78  O   UNL A   1      34.067  36.100  33.489  1.00  0.00    -0.237 OA
ATOM     79  O   UNL A   1      32.923  37.277  31.630  1.00  0.00    -0.237 OA
ATOM     80  O   UNL A   1      31.975  35.199  32.553  1.00  0.00    -0.744 OA
ENDBRANCH  73  77
ENDBRANCH  56  70
BRANCH  57  81
ATOM     81  C   UNL A   1      43.807  28.277  33.126  1.00  0.00     0.023 A 
ATOM     82  C   UNL A   1      44.426  29.546  33.241  1.00  0.00     0.031 A 
ATOM     83  C   UNL A   1      44.624  27.144  33.241  1.00  0.00     0.131 A 
ATOM     84  C   UNL A   1      45.741  29.645  33.725  1.00  0.00     0.055 A 
ATOM     85  C   UNL A   1      45.972  27.259  33.613  1.00  0.00     0.041 A 
ATOM     86  F   UNL A   1      44.103  25.912  33.154  1.00  0.00    -0.206 F 
ATOM     87  C   UNL A   1      46.518  28.506  33.923  1.00  0.00     0.022 A 
BRANCH  84  88
ATOM     88  S   UNL A   1      46.271  31.240  34.423  1.00  0.00     0.124 S 
ATOM     89  O   UNL A   1      46.307  32.101  33.248  1.00  0.00    -0.237 OA
ATOM     90  O   UNL A   1      45.213  31.522  35.395  1.00  0.00    -0.237 OA
ATOM     91  O   UNL A   1      47.568  30.954  35.034  1.00  0.00    -0.744 OA
ENDBRANCH  84  88
ENDBRANCH  57  81
BRANCH  69  92
ATOM     92  C   UNL A   1      38.584  32.038  36.638  1.00  0.00     0.023 A 
ATOM     93  C   UNL A   1      37.723  31.608  37.652  1.00  0.00     0.031 A 
ATOM     94  C   UNL A   1      39.017  33.387  36.736  1.00  0.00     0.131 A 
ATOM     95  C   UNL A   1      37.412  32.449  38.737  1.00  0.00     0.055 A 
ATOM     96  C   UNL A   1      38.623  34.251  37.759  1.00  0.00     0.041 A 
ATOM     97  F   UNL A   1      39.892  33.930  35.880  1.00  0.00    -0.206 F 
ATOM     98  C   UNL A   1      37.831  33.776  38.785  1.00  0.00     0.022 A 
BRANCH  95  99
ATOM     99  S   UNL A   1      36.523  31.736  40.140  1.00  0.00     0.124 S 
ATOM    100  O   UNL A   1      37.290  30.527  40.421  1.00  0.00    -0.237 OA
ATOM    101  O   UNL A   1      36.634  32.803  41.132  1.00  0.00    -0.237 OA
ATOM    102  O   UNL A   1      35.176  31.514  39.619  1.00  0.00    -0.744 OA
ENDBRANCH  95  99
ENDBRANCH  69  92
ENDBRANCH  43  44
ENDBRANCH  35  38
ENDBRANCH  33  34
ENDBRANCH  32  33
ENDBRANCH   1  32
TORSDOF 18
ENDMDL
MODEL 3
REMARK VINA RESULT:     -12.2      5.588      9.481
REMARK SMILES Cc1ccc(S(=O)(=O)n2cc(C(=O)C(=O)NCC(=O)NCCCNC(=O)c3ccc(-c4c5nc(c(-c6cc(S(=O)(=O)[O-])ccc6F)c6ccc([nH]6)c(-c6cc(S(=O)(=O)[O-])ccc6F)c6nc(c(-c7cc(S(=O)(=O)[O-])ccc7F)c7ccc4[nH]7)C=C6)C=C5)cc3)c3ccccc32)cc1
REMARK SMILES IDX 21 1 20 2 18 3 19 4 17 6 16 7 14 8 15 9 12 11 13 12 11 13
REMARK SMILES IDX 9 14 10 15 95 16 90 17 94 18 91 19 93 20 92 21 6 22 7 23
REMARK SMILES IDX 8 24 5 25 1 26 2 27 3 28 97 29 4 30 96 31 22 32 23 33 24 34
REMARK SMILES IDX 25 35 26 37 27 38 28 39 89 40 29 41 88 42 30 43 31 44 32 45
REMARK SMILES IDX 82 46 33 47 87 48 81 49 83 50 34 51 86 52 80 53 79 54 35 56
REMARK SMILES IDX 67 57 47 58 66 59 48 60 51 61 65 62 84 63 49 64 50 65 64 67
REMARK SMILES IDX 85 68 52 69 36 70 37 71 45 72 38 73 44 74 46 75 43 76 39 77
REMARK SMILES IDX 40 78 41 79 42 80 68 81 69 82 77 83 70 84 76 85 78 86 75 87
REMARK SMILES IDX 71 88 72 89 73 90 74 91 53 92 54 93 62 94 55 95 61 96 63 97
REMARK SMILES IDX 60 98 56 99 57 100 58 101 59 102
REMARK H PARENT 20 5 16 10 24 36 83 55 51 66
REMARK Flexibility Score: inf
ROOT
ATOM      1  C   UNL A   1      35.428  30.981  27.988  1.00  0.00     0.117 C 
ENDROOT
BRANCH   1   2
ATOM      2  N   UNL A   1      33.981  30.998  27.867  1.00  0.00    -0.355 N 
ATOM      3  C   UNL A   1      33.191  30.230  27.058  1.00  0.00     0.239 C 
ATOM      4  O   UNL A   1      31.973  30.409  27.010  1.00  0.00    -0.273 OA
ATOM      5  H   UNL A   1      33.509  31.645  28.439  1.00  0.00     0.163 HD
BRANCH   3   6
ATOM      6  C   UNL A   1      33.850  29.121  26.231  1.00  0.00     0.216 C 
BRANCH   6   7
ATOM      7  N   UNL A   1      33.727  29.330  24.792  1.00  0.00    -0.340 N 
ATOM      8  C   UNL A   1      32.802  28.845  23.893  1.00  0.00     0.292 C 
ATOM      9  O   UNL A   1      32.893  29.176  22.713  1.00  0.00    -0.265 OA
ATOM     10  H   UNL A   1      34.417  29.912  24.399  1.00  0.00     0.164 HD
BRANCH   8  11
ATOM     11  C   UNL A   1      31.659  27.903  24.347  1.00  0.00     0.252 C 
ATOM     12  O   UNL A   1      30.588  28.406  24.675  1.00  0.00    -0.283 OA
BRANCH  11  13
ATOM     13  C   UNL A   1      31.809  26.436  24.331  1.00  0.00     0.054 A 
ATOM     14  N   UNL A   1      32.013  24.309  24.985  1.00  0.00    -0.240 N 
ATOM     15  C   UNL A   1      31.675  25.570  25.402  1.00  0.00     0.117 A 
ATOM     16  C   UNL A   1      32.332  24.294  23.644  1.00  0.00     0.065 A 
ATOM     17  C   UNL A   1      32.198  25.620  23.205  1.00  0.00     0.012 A 
ATOM     18  C   UNL A   1      32.759  23.264  22.784  1.00  0.00     0.028 A 
ATOM     19  C   UNL A   1      32.467  25.903  21.847  1.00  0.00     0.011 A 
ATOM     20  C   UNL A   1      33.048  23.585  21.456  1.00  0.00     0.002 A 
ATOM     21  C   UNL A   1      32.894  24.884  20.989  1.00  0.00     0.001 A 
BRANCH  14  22
ATOM     22  S   UNL A   1      32.185  22.982  26.039  1.00  0.00     0.268 S 
ATOM     23  O   UNL A   1      31.224  21.996  25.595  1.00  0.00    -0.201 OA
ATOM     24  O   UNL A   1      32.158  23.533  27.386  1.00  0.00    -0.201 OA
BRANCH  22  25
ATOM     25  C   UNL A   1      33.803  22.287  25.805  1.00  0.00     0.088 A 
ATOM     26  C   UNL A   1      37.583  20.443  24.893  1.00  0.00     0.044 C 
ATOM     27  C   UNL A   1      36.271  21.083  25.234  1.00  0.00    -0.051 A 
ATOM     28  C   UNL A   1      35.083  20.357  25.096  1.00  0.00     0.005 A 
ATOM     29  C   UNL A   1      36.212  22.407  25.690  1.00  0.00     0.005 A 
ATOM     30  C   UNL A   1      33.853  20.955  25.375  1.00  0.00     0.022 A 
ATOM     31  C   UNL A   1      34.983  23.008  25.987  1.00  0.00     0.022 A 
ENDBRANCH  22  25
ENDBRANCH  14  22
ENDBRANCH  11  13
ENDBRANCH   8  11
ENDBRANCH   6   7
ENDBRANCH   3   6
ENDBRANCH   1   2
BRANCH   1  32
ATOM     32  C   UNL A   1      35.925  29.687  28.609  1.00  0.00     0.042 C 
BRANCH  32  33
ATOM     33  C   UNL A   1      37.050  29.903  29.612  1.00  0.00     0.118 C 
BRANCH  33  34
ATOM     34  N   UNL A   1      37.701  28.662  30.036  1.00  0.00    -0.352 N 
ATOM     35  C   UNL A   1      38.903  28.098  29.638  1.00  0.00     0.251 C 
ATOM     36  H   UNL A   1      37.206  28.145  30.711  1.00  0.00     0.163 HD
ATOM     37  O   UNL A   1      39.240  26.978  30.008  1.00  0.00    -0.269 OA
BRANCH  35  38
ATOM     38  C   UNL A   1      39.897  28.945  28.938  1.00  0.00     0.039 A 
ATOM     39  C   UNL A   1      40.474  28.372  27.794  1.00  0.00     0.014 A 
ATOM     40  C   UNL A   1      40.538  29.967  29.620  1.00  0.00     0.014 A 
ATOM     41  C   UNL A   1      41.825  28.562  27.562  1.00  0.00     0.010 A 
ATOM     42  C   UNL A   1      41.901  30.025  29.507  1.00  0.00     0.010 A 
ATOM     43  C   UNL A   1      42.537  29.261  28.524  1.00  0.00    -0.014 A 
BRANCH  43  44
ATOM     44  C   UNL A   1      43.975  29.349  28.562  1.00  0.00     0.031 A 
ATOM     45  C   UNL A   1      44.579  30.382  27.720  1.00  0.00     0.074 A 
ATOM     46  C   UNL A   1      44.647  28.621  29.479  1.00  0.00     0.049 A 
ATOM     47  N   UNL A   1      45.815  30.403  27.391  1.00  0.00    -0.248 NA
ATOM     48  C   UNL A   1      43.800  31.455  27.096  1.00  0.00     0.031 C 
ATOM     49  C   UNL A   1      46.020  28.782  29.940  1.00  0.00     0.029 A 
ATOM     50  N   UNL A   1      44.246  27.400  30.021  1.00  0.00    -0.354 N 
ATOM     51  C   UNL A   1      46.058  31.649  26.866  1.00  0.00     0.074 A 
ATOM     52  C   UNL A   1      44.766  32.170  26.517  1.00  0.00     0.031 C 
ATOM     53  C   UNL A   1      46.447  27.611  30.449  1.00  0.00     0.029 A 
ATOM     54  C   UNL A   1      45.419  26.625  30.165  1.00  0.00     0.049 A 
ATOM     55  H   UNL A   1      43.329  27.131  30.257  1.00  0.00     0.167 HD
ATOM     56  C   UNL A   1      47.319  32.142  26.978  1.00  0.00     0.034 A 
ATOM     57  C   UNL A   1      45.585  25.512  29.383  1.00  0.00     0.034 A 
ATOM     58  C   UNL A   1      48.225  31.092  27.457  1.00  0.00     0.049 A 
ATOM     59  C   UNL A   1      46.728  25.657  28.386  1.00  0.00     0.074 A 
ATOM     60  C   UNL A   1      48.837  30.801  28.662  1.00  0.00     0.029 A 
ATOM     61  N   UNL A   1      48.331  29.944  26.695  1.00  0.00    -0.354 N 
ATOM     62  N   UNL A   1      47.352  26.779  28.142  1.00  0.00    -0.248 NA
ATOM     63  C   UNL A   1      47.237  24.563  27.564  1.00  0.00     0.031 C 
ATOM     64  C   UNL A   1      49.250  29.430  28.621  1.00  0.00     0.029 A 
ATOM     65  C   UNL A   1      48.935  28.914  27.376  1.00  0.00     0.049 A 
ATOM     66  H   UNL A   1      48.010  29.873  25.767  1.00  0.00     0.167 HD
ATOM     67  C   UNL A   1      48.288  26.602  27.156  1.00  0.00     0.074 A 
ATOM     68  C   UNL A   1      48.157  25.194  26.809  1.00  0.00     0.031 C 
ATOM     69  C   UNL A   1      49.072  27.630  26.697  1.00  0.00     0.034 A 
BRANCH  56  70
ATOM     70  C   UNL A   1      47.732  33.587  26.855  1.00  0.00     0.023 A 
ATOM     71  C   UNL A   1      48.826  33.876  26.016  1.00  0.00     0.031 A 
ATOM     72  C   UNL A   1      47.212  34.692  27.564  1.00  0.00     0.131 A 
ATOM     73  C   UNL A   1      49.368  35.169  25.929  1.00  0.00     0.055 A 
ATOM     74  C   UNL A   1      47.726  35.990  27.446  1.00  0.00     0.041 A 
ATOM     75  F   UNL A   1      46.210  34.589  28.442  1.00  0.00    -0.206 F 
ATOM     76  C   UNL A   1      48.818  36.234  26.633  1.00  0.00     0.022 A 
BRANCH  73  77
ATOM     77  S   UNL A   1      50.848  35.421  24.919  1.00  0.00     0.124 S 
ATOM     78  O   UNL A   1      50.392  36.416  23.954  1.00  0.00    -0.237 OA
ATOM     79  O   UNL A   1      51.822  35.870  25.906  1.00  0.00    -0.237 OA
ATOM     80  O   UNL A   1      51.102  34.094  24.359  1.00  0.00    -0.744 OA
ENDBRANCH  73  77
ENDBRANCH  56  70
BRANCH  57  81
ATOM     81  C   UNL A   1      44.271  24.813  29.157  1.00  0.00     0.023 A 
ATOM     82  C   UNL A   1      43.785  24.816  27.827  1.00  0.00     0.031 A 
ATOM     83  C   UNL A   1      43.842  23.780  30.001  1.00  0.00     0.131 A 
ATOM     84  C   UNL A   1      43.133  23.682  27.314  1.00  0.00     0.055 A 
ATOM     85  C   UNL A   1      43.088  22.705  29.505  1.00  0.00     0.041 A 
ATOM     86  F   UNL A   1      44.270  23.708  31.269  1.00  0.00    -0.206 F 
ATOM     87  C   UNL A   1      42.790  22.618  28.144  1.00  0.00     0.022 A 
BRANCH  84  88
ATOM     88  S   UNL A   1      43.078  23.480  25.506  1.00  0.00     0.124 S 
ATOM     89  O   UNL A   1      44.488  23.352  25.160  1.00  0.00    -0.237 OA
ATOM     90  O   UNL A   1      42.264  22.272  25.352  1.00  0.00    -0.237 OA
ATOM     91  O   UNL A   1      42.421  24.695  25.027  1.00  0.00    -0.744 OA
ENDBRANCH  84  88
ENDBRANCH  57  81
BRANCH  69  92
ATOM     92  C   UNL A   1      50.035  27.527  25.529  1.00  0.00     0.023 A 
ATOM     93  C   UNL A   1      49.594  27.420  24.207  1.00  0.00     0.031 A 
ATOM     94  C   UNL A   1      51.443  27.481  25.708  1.00  0.00     0.131 A 
ATOM     95  C   UNL A   1      50.513  27.375  23.142  1.00  0.00     0.055 A 
ATOM     96  C   UNL A   1      52.350  27.330  24.657  1.00  0.00     0.041 A 
ATOM     97  F   UNL A   1      52.026  27.634  26.904  1.00  0.00    -0.206 F 
ATOM     98  C   UNL A   1      51.887  27.299  23.357  1.00  0.00     0.022 A 
BRANCH  95  99
ATOM     99  S   UNL A   1      49.873  27.514  21.457  1.00  0.00     0.124 S 
ATOM    100  O   UNL A   1      49.696  28.954  21.303  1.00  0.00    -0.237 OA
ATOM    101  O   UNL A   1      50.958  26.921  20.681  1.00  0.00    -0.237 OA
ATOM    102  O   UNL A   1      48.638  26.733  21.491  1.00  0.00    -0.744 OA
ENDBRANCH  95  99
ENDBRANCH  69  92
ENDBRANCH  43  44
ENDBRANCH  35  38
ENDBRANCH  33  34
ENDBRANCH  32  33
ENDBRANCH   1  32
TORSDOF 18
ENDMDL
