MODEL 1
REMARK VINA RESULT:     -12.6      0.000      0.000
REMARK SMILES Cc1cc2c(c(C)c1Cl)C=C(C(=O)NCCCNC(=O)c1ccc(-c3c4nc(c(-c5cc(S(=O)(=O)[O-])ccc5F)c5ccc([nH]5)c(-c5cc(S(=O)(=O)[O-])ccc5F)c5nc(c(-c6cc(S(=O)(=O)[O-])ccc6F)c6ccc3[nH]6)C=C5)C=C4)cc1)[C@@H](C(F)(F)F)O2
REMARK SMILES IDX 17 1 16 2 15 3 14 4 12 5 13 6 11 8 1 9 2 10 3 11 8 12 4 13
REMARK SMILES IDX 6 14 9 15 5 16 89 17 7 18 10 19 84 20 85 21 86 22 87 23
REMARK SMILES IDX 88 24 18 25 19 26 20 28 21 29 22 30 83 31 23 32 82 33 24 34
REMARK SMILES IDX 25 35 26 36 76 37 27 38 81 39 75 40 77 41 28 42 80 43 74 44
REMARK SMILES IDX 73 45 29 47 61 48 41 49 60 50 42 51 45 52 59 53 78 54 43 55
REMARK SMILES IDX 44 56 58 58 79 59 46 60 30 61 31 62 39 63 32 64 38 65 40 66
REMARK SMILES IDX 37 67 33 68 34 69 35 70 36 71 62 72 63 73 71 74 64 75 70 76
REMARK SMILES IDX 72 77 69 78 65 79 66 80 67 81 68 82 47 83 48 84 56 85 49 86
REMARK SMILES IDX 55 87 57 88 54 89 50 90 51 91 52 92 53 93
REMARK H PARENT 14 7 18 27 77 46 45 57
REMARK Flexibility Score: inf
ROOT
ATOM      1  C   UNL A   1      33.562  29.247  24.981  1.00  0.00     0.118 C 
ENDROOT
BRANCH   1   2
ATOM      2  C   UNL A   1      32.885  28.840  23.679  1.00  0.00     0.042 C 
BRANCH   2   3
ATOM      3  C   UNL A   1      32.135  27.523  23.810  1.00  0.00     0.118 C 
BRANCH   3   4
ATOM      4  N   UNL A   1      31.686  27.286  25.174  1.00  0.00    -0.352 N 
ATOM      5  C   UNL A   1      31.540  26.228  26.003  1.00  0.00     0.251 C 
ATOM      6  O   UNL A   1      31.113  26.496  27.132  1.00  0.00    -0.270 OA
ATOM      7  H   UNL A   1      31.412  28.125  25.612  1.00  0.00     0.163 HD
BRANCH   5   8
ATOM      8  C   UNL A   1      31.862  24.813  25.653  1.00  0.00     0.067 C 
ATOM      9  C   UNL A   1      34.424  18.950  24.496  1.00  0.00     0.046 C 
ATOM     10  C   UNL A   1      34.158  20.386  24.858  1.00  0.00    -0.028 A 
ATOM     11  C   UNL A   1      32.833  20.828  24.887  1.00  0.00     0.052 A 
ATOM     12  C   UNL A   1      35.187  21.293  25.183  1.00  0.00     0.047 A 
ATOM     13  C   UNL A   1      32.539  22.148  25.203  1.00  0.00     0.128 A 
ATOM     14  C   UNL A   1      34.898  22.639  25.523  1.00  0.00    -0.021 A 
ATOM     15  Cl  UNL A   1      36.826  20.717  25.165  1.00  0.00    -0.084 Cl
ATOM     16  C   UNL A   1      33.547  23.063  25.525  1.00  0.00     0.022 A 
ATOM     17  O   UNL A   1      31.210  22.459  25.215  1.00  0.00    -0.475 OA
ATOM     18  C   UNL A   1      35.986  23.626  25.877  1.00  0.00     0.047 C 
ATOM     19  C   UNL A   1      33.129  24.423  25.882  1.00  0.00     0.026 C 
ATOM     20  C   UNL A   1      30.879  23.860  25.048  1.00  0.00     0.314 C 
BRANCH  20  21
ATOM     21  C   UNL A   1      30.612  24.146  23.557  1.00  0.00     0.429 C 
ATOM     22  F   UNL A   1      30.165  23.029  22.931  1.00  0.00    -0.167 F 
ATOM     23  F   UNL A   1      29.667  25.096  23.367  1.00  0.00    -0.167 F 
ATOM     24  F   UNL A   1      31.718  24.562  22.899  1.00  0.00    -0.167 F 
ENDBRANCH  20  21
ENDBRANCH   5   8
ENDBRANCH   3   4
ENDBRANCH   2   3
ENDBRANCH   1   2
BRANCH   1  25
ATOM     25  N   UNL A   1      32.953  30.445  25.554  1.00  0.00    -0.352 N 
ATOM     26  C   UNL A   1      33.203  31.076  26.746  1.00  0.00     0.251 C 
ATOM     27  H   UNL A   1      32.256  30.863  24.999  1.00  0.00     0.163 HD
ATOM     28  O   UNL A   1      32.382  31.878  27.189  1.00  0.00    -0.269 OA
BRANCH  26  29
ATOM     29  C   UNL A   1      34.445  30.788  27.486  1.00  0.00     0.039 A 
ATOM     30  C   UNL A   1      35.391  31.800  27.669  1.00  0.00     0.014 A 
ATOM     31  C   UNL A   1      34.684  29.504  27.981  1.00  0.00     0.014 A 
ATOM     32  C   UNL A   1      36.545  31.534  28.407  1.00  0.00     0.010 A 
ATOM     33  C   UNL A   1      35.778  29.271  28.801  1.00  0.00     0.010 A 
ATOM     34  C   UNL A   1      36.729  30.278  29.009  1.00  0.00    -0.014 A 
BRANCH  34  35
ATOM     35  C   UNL A   1      37.929  29.978  29.825  1.00  0.00     0.031 A 
ATOM     36  C   UNL A   1      39.003  29.085  29.266  1.00  0.00     0.074 A 
ATOM     37  C   UNL A   1      38.021  30.461  31.078  1.00  0.00     0.049 A 
ATOM     38  N   UNL A   1      40.085  28.636  29.844  1.00  0.00    -0.248 NA
ATOM     39  C   UNL A   1      38.818  28.609  27.886  1.00  0.00     0.031 C 
ATOM     40  C   UNL A   1      37.022  31.311  31.732  1.00  0.00     0.029 A 
ATOM     41  N   UNL A   1      39.000  30.312  32.026  1.00  0.00    -0.354 N 
ATOM     42  C   UNL A   1      40.704  27.821  28.904  1.00  0.00     0.074 A 
ATOM     43  C   UNL A   1      39.839  27.779  27.745  1.00  0.00     0.031 C 
ATOM     44  C   UNL A   1      37.465  31.647  32.954  1.00  0.00     0.029 A 
ATOM     45  C   UNL A   1      38.751  30.998  33.190  1.00  0.00     0.049 A 
ATOM     46  H   UNL A   1      39.807  29.766  31.885  1.00  0.00     0.167 HD
ATOM     47  C   UNL A   1      41.901  27.193  28.985  1.00  0.00     0.034 A 
ATOM     48  C   UNL A   1      39.475  31.090  34.323  1.00  0.00     0.034 A 
ATOM     49  C   UNL A   1      42.761  27.267  30.138  1.00  0.00     0.049 A 
ATOM     50  C   UNL A   1      40.784  30.353  34.407  1.00  0.00     0.074 A 
ATOM     51  C   UNL A   1      44.014  26.707  30.312  1.00  0.00     0.029 A 
ATOM     52  N   UNL A   1      42.458  27.944  31.311  1.00  0.00    -0.354 N 
ATOM     53  N   UNL A   1      41.364  29.598  33.503  1.00  0.00    -0.248 NA
ATOM     54  C   UNL A   1      41.536  30.479  35.662  1.00  0.00     0.031 C 
ATOM     55  C   UNL A   1      44.441  26.994  31.613  1.00  0.00     0.029 A 
ATOM     56  C   UNL A   1      43.486  27.790  32.226  1.00  0.00     0.049 A 
ATOM     57  H   UNL A   1      41.633  28.458  31.470  1.00  0.00     0.167 HD
ATOM     58  C   UNL A   1      42.557  29.171  34.074  1.00  0.00     0.074 A 
ATOM     59  C   UNL A   1      42.619  29.759  35.397  1.00  0.00     0.031 C 
ATOM     60  C   UNL A   1      43.518  28.369  33.548  1.00  0.00     0.034 A 
BRANCH  47  61
ATOM     61  C   UNL A   1      42.337  26.370  27.800  1.00  0.00     0.023 A 
ATOM     62  C   UNL A   1      41.904  25.043  27.630  1.00  0.00     0.031 A 
ATOM     63  C   UNL A   1      43.200  26.913  26.832  1.00  0.00     0.131 A 
ATOM     64  C   UNL A   1      42.383  24.284  26.553  1.00  0.00     0.055 A 
ATOM     65  C   UNL A   1      43.616  26.175  25.723  1.00  0.00     0.041 A 
ATOM     66  F   UNL A   1      43.661  28.167  26.955  1.00  0.00    -0.206 F 
ATOM     67  C   UNL A   1      43.216  24.848  25.584  1.00  0.00     0.022 A 
BRANCH  64  68
ATOM     68  S   UNL A   1      41.988  22.515  26.495  1.00  0.00     0.124 S 
ATOM     69  O   UNL A   1      40.532  22.545  26.372  1.00  0.00    -0.237 OA
ATOM     70  O   UNL A   1      42.719  22.065  25.318  1.00  0.00    -0.237 OA
ATOM     71  O   UNL A   1      42.489  22.011  27.772  1.00  0.00    -0.744 OA
ENDBRANCH  64  68
ENDBRANCH  47  61
BRANCH  48  72
ATOM     72  C   UNL A   1      38.979  31.922  35.453  1.00  0.00     0.023 A 
ATOM     73  C   UNL A   1      38.312  31.334  36.538  1.00  0.00     0.031 A 
ATOM     74  C   UNL A   1      39.194  33.311  35.479  1.00  0.00     0.131 A 
ATOM     75  C   UNL A   1      37.870  32.135  37.603  1.00  0.00     0.055 A 
ATOM     76  C   UNL A   1      38.784  34.098  36.557  1.00  0.00     0.041 A 
ATOM     77  F   UNL A   1      39.840  33.917  34.471  1.00  0.00    -0.206 F 
ATOM     78  C   UNL A   1      38.115  33.511  37.625  1.00  0.00     0.022 A 
BRANCH  75  79
ATOM     79  S   UNL A   1      36.961  31.353  38.963  1.00  0.00     0.124 S 
ATOM     80  O   UNL A   1      37.914  31.465  40.061  1.00  0.00    -0.237 OA
ATOM     81  O   UNL A   1      35.769  32.190  39.057  1.00  0.00    -0.237 OA
ATOM     82  O   UNL A   1      36.725  29.995  38.475  1.00  0.00    -0.744 OA
ENDBRANCH  75  79
ENDBRANCH  48  72
BRANCH  60  83
ATOM     83  C   UNL A   1      44.728  28.090  34.398  1.00  0.00     0.023 A 
ATOM     84  C   UNL A   1      44.788  26.966  35.237  1.00  0.00     0.031 A 
ATOM     85  C   UNL A   1      45.856  28.928  34.323  1.00  0.00     0.131 A 
ATOM     86  C   UNL A   1      45.944  26.721  35.992  1.00  0.00     0.055 A 
ATOM     87  C   UNL A   1      47.021  28.652  35.037  1.00  0.00     0.041 A 
ATOM     88  F   UNL A   1      45.849  30.012  33.532  1.00  0.00    -0.206 F 
ATOM     89  C   UNL A   1      47.068  27.545  35.881  1.00  0.00     0.022 A 
BRANCH  86  90
ATOM     90  S   UNL A   1      45.950  25.326  37.149  1.00  0.00     0.124 S 
ATOM     91  O   UNL A   1      45.934  24.183  36.242  1.00  0.00    -0.237 OA
ATOM     92  O   UNL A   1      47.191  25.535  37.889  1.00  0.00    -0.237 OA
ATOM     93  O   UNL A   1      44.727  25.520  37.925  1.00  0.00    -0.744 OA
ENDBRANCH  86  90
ENDBRANCH  60  83
ENDBRANCH  34  35
ENDBRANCH  26  29
ENDBRANCH   1  25
TORSDOF 14
ENDMDL
MODEL 2
REMARK VINA RESULT:     -12.6      2.583      3.534
REMARK SMILES Cc1cc2c(c(C)c1Cl)C=C(C(=O)NCCCNC(=O)c1ccc(-c3c4nc(c(-c5cc(S(=O)(=O)[O-])ccc5F)c5ccc([nH]5)c(-c5cc(S(=O)(=O)[O-])ccc5F)c5nc(c(-c6cc(S(=O)(=O)[O-])ccc6F)c6ccc3[nH]6)C=C5)C=C4)cc1)[C@@H](C(F)(F)F)O2
REMARK SMILES IDX 17 1 16 2 15 3 14 4 12 5 13 6 11 8 1 9 2 10 3 11 8 12 4 13
REMARK SMILES IDX 6 14 9 15 5 16 89 17 7 18 10 19 84 20 85 21 86 22 87 23
REMARK SMILES IDX 88 24 18 25 19 26 20 28 21 29 22 30 83 31 23 32 82 33 24 34
REMARK SMILES IDX 25 35 26 36 76 37 27 38 81 39 75 40 77 41 28 42 80 43 74 44
REMARK SMILES IDX 73 45 29 47 61 48 41 49 60 50 42 51 45 52 59 53 78 54 43 55
REMARK SMILES IDX 44 56 58 58 79 59 46 60 30 61 31 62 39 63 32 64 38 65 40 66
REMARK SMILES IDX 37 67 33 68 34 69 35 70 36 71 62 72 63 73 71 74 64 75 70 76
REMARK SMILES IDX 72 77 69 78 65 79 66 80 67 81 68 82 47 83 48 84 56 85 49 86
REMARK SMILES IDX 55 87 57 88 54 89 50 90 51 91 52 92 53 93
REMARK H PARENT 14 7 18 27 77 46 45 57
REMARK Flexibility Score: inf
ROOT
ATOM      1  C   UNL A   1      32.866  32.172  27.167  1.00  0.00     0.118 C 
ENDROOT
BRANCH   1   2
ATOM      2  C   UNL A   1      31.543  31.560  26.726  1.00  0.00     0.042 C 
BRANCH   2   3
ATOM      3  C   UNL A   1      31.741  30.395  25.769  1.00  0.00     0.118 C 
BRANCH   3   4
ATOM      4  N   UNL A   1      30.791  30.429  24.667  1.00  0.00    -0.352 N 
ATOM      5  C   UNL A   1      30.380  29.597  23.682  1.00  0.00     0.251 C 
ATOM      6  O   UNL A   1      29.506  30.053  22.937  1.00  0.00    -0.270 OA
ATOM      7  H   UNL A   1      30.320  31.293  24.625  1.00  0.00     0.163 HD
BRANCH   5   8
ATOM      8  C   UNL A   1      30.892  28.213  23.460  1.00  0.00     0.067 C 
ATOM      9  C   UNL A   1      32.375  21.882  23.449  1.00  0.00     0.046 C 
ATOM     10  C   UNL A   1      31.831  23.258  23.722  1.00  0.00    -0.028 A 
ATOM     11  C   UNL A   1      32.108  24.275  22.806  1.00  0.00     0.052 A 
ATOM     12  C   UNL A   1      31.045  23.555  24.855  1.00  0.00     0.047 A 
ATOM     13  C   UNL A   1      31.639  25.564  23.023  1.00  0.00     0.128 A 
ATOM     14  C   UNL A   1      30.547  24.864  25.080  1.00  0.00    -0.021 A 
ATOM     15  Cl  UNL A   1      30.693  22.270  25.971  1.00  0.00    -0.084 Cl
ATOM     16  C   UNL A   1      30.860  25.878  24.142  1.00  0.00     0.022 A 
ATOM     17  O   UNL A   1      31.957  26.469  22.052  1.00  0.00    -0.475 OA
ATOM     18  C   UNL A   1      29.701  25.202  26.285  1.00  0.00     0.047 C 
ATOM     19  C   UNL A   1      30.381  27.260  24.260  1.00  0.00     0.026 C 
ATOM     20  C   UNL A   1      31.936  27.863  22.444  1.00  0.00     0.314 C 
BRANCH  20  21
ATOM     21  C   UNL A   1      33.352  28.295  22.873  1.00  0.00     0.429 C 
ATOM     22  F   UNL A   1      34.265  27.922  21.942  1.00  0.00    -0.167 F 
ATOM     23  F   UNL A   1      33.471  29.636  23.011  1.00  0.00    -0.167 F 
ATOM     24  F   UNL A   1      33.730  27.748  24.051  1.00  0.00    -0.167 F 
ENDBRANCH  20  21
ENDBRANCH   5   8
ENDBRANCH   3   4
ENDBRANCH   2   3
ENDBRANCH   1   2
BRANCH   1  25
ATOM     25  N   UNL A   1      32.731  33.597  27.457  1.00  0.00    -0.352 N 
ATOM     26  C   UNL A   1      33.263  34.342  28.478  1.00  0.00     0.251 C 
ATOM     27  H   UNL A   1      32.171  34.099  26.822  1.00  0.00     0.163 HD
ATOM     28  O   UNL A   1      32.788  35.448  28.730  1.00  0.00    -0.269 OA
BRANCH  26  29
ATOM     29  C   UNL A   1      34.393  33.813  29.265  1.00  0.00     0.039 A 
ATOM     30  C   UNL A   1      34.152  32.890  30.286  1.00  0.00     0.014 A 
ATOM     31  C   UNL A   1      35.693  34.252  29.006  1.00  0.00     0.014 A 
ATOM     32  C   UNL A   1      35.227  32.360  30.999  1.00  0.00     0.010 A 
ATOM     33  C   UNL A   1      36.767  33.648  29.644  1.00  0.00     0.010 A 
ATOM     34  C   UNL A   1      36.545  32.709  30.659  1.00  0.00    -0.014 A 
BRANCH  34  35
ATOM     35  C   UNL A   1      37.708  32.138  31.377  1.00  0.00     0.031 A 
ATOM     36  C   UNL A   1      38.509  31.037  30.737  1.00  0.00     0.074 A 
ATOM     37  C   UNL A   1      38.005  32.570  32.617  1.00  0.00     0.049 A 
ATOM     38  N   UNL A   1      39.506  30.350  31.227  1.00  0.00    -0.248 NA
ATOM     39  C   UNL A   1      38.113  30.633  29.378  1.00  0.00     0.031 C 
ATOM     40  C   UNL A   1      37.277  33.612  33.346  1.00  0.00     0.029 A 
ATOM     41  N   UNL A   1      38.999  32.193  33.482  1.00  0.00    -0.354 N 
ATOM     42  C   UNL A   1      39.851  29.431  30.243  1.00  0.00     0.074 A 
ATOM     43  C   UNL A   1      38.909  29.598  29.158  1.00  0.00     0.031 C 
ATOM     44  C   UNL A   1      37.878  33.823  34.527  1.00  0.00     0.029 A 
ATOM     45  C   UNL A   1      39.002  32.901  34.661  1.00  0.00     0.049 A 
ATOM     46  H   UNL A   1      39.650  31.484  33.279  1.00  0.00     0.167 HD
ATOM     47  C   UNL A   1      40.880  28.551  30.230  1.00  0.00     0.034 A 
ATOM     48  C   UNL A   1      39.816  32.814  35.731  1.00  0.00     0.034 A 
ATOM     49  C   UNL A   1      41.824  28.416  31.309  1.00  0.00     0.049 A 
ATOM     50  C   UNL A   1      40.931  31.803  35.712  1.00  0.00     0.074 A 
ATOM     51  C   UNL A   1      42.931  27.589  31.384  1.00  0.00     0.029 A 
ATOM     52  N   UNL A   1      41.774  29.127  32.500  1.00  0.00    -0.354 N 
ATOM     53  N   UNL A   1      41.254  30.951  34.767  1.00  0.00    -0.248 NA
ATOM     54  C   UNL A   1      41.789  31.741  36.902  1.00  0.00     0.031 C 
ATOM     55  C   UNL A   1      43.513  27.755  32.644  1.00  0.00     0.029 A 
ATOM     56  C   UNL A   1      42.812  28.735  33.330  1.00  0.00     0.049 A 
ATOM     57  H   UNL A   1      41.100  29.809  32.723  1.00  0.00     0.167 HD
ATOM     58  C   UNL A   1      42.364  30.261  35.241  1.00  0.00     0.074 A 
ATOM     59  C   UNL A   1      42.660  30.802  36.553  1.00  0.00     0.031 C 
ATOM     60  C   UNL A   1      43.077  29.273  34.643  1.00  0.00     0.034 A 
BRANCH  47  61
ATOM     61  C   UNL A   1      41.026  27.669  29.016  1.00  0.00     0.023 A 
ATOM     62  C   UNL A   1      42.014  27.916  28.046  1.00  0.00     0.031 A 
ATOM     63  C   UNL A   1      40.168  26.574  28.822  1.00  0.00     0.131 A 
ATOM     64  C   UNL A   1      42.078  27.117  26.895  1.00  0.00     0.055 A 
ATOM     65  C   UNL A   1      40.284  25.738  27.710  1.00  0.00     0.041 A 
ATOM     66  F   UNL A   1      39.194  26.304  29.705  1.00  0.00    -0.206 F 
ATOM     67  C   UNL A   1      41.237  26.014  26.732  1.00  0.00     0.022 A 
BRANCH  64  68
ATOM     68  S   UNL A   1      43.207  27.606  25.563  1.00  0.00     0.124 S 
ATOM     69  O   UNL A   1      43.784  26.319  25.181  1.00  0.00    -0.237 OA
ATOM     70  O   UNL A   1      42.308  28.216  24.592  1.00  0.00    -0.237 OA
ATOM     71  O   UNL A   1      44.133  28.527  26.220  1.00  0.00    -0.744 OA
ENDBRANCH  64  68
ENDBRANCH  47  61
BRANCH  48  72
ATOM     72  C   UNL A   1      39.609  33.719  36.894  1.00  0.00     0.023 A 
ATOM     73  C   UNL A   1      38.952  33.267  38.047  1.00  0.00     0.031 A 
ATOM     74  C   UNL A   1      40.096  35.038  36.881  1.00  0.00     0.131 A 
ATOM     75  C   UNL A   1      38.786  34.132  39.141  1.00  0.00     0.055 A 
ATOM     76  C   UNL A   1      39.959  35.883  37.984  1.00  0.00     0.041 A 
ATOM     77  F   UNL A   1      40.744  35.512  35.806  1.00  0.00    -0.206 F 
ATOM     78  C   UNL A   1      39.298  35.432  39.121  1.00  0.00     0.022 A 
BRANCH  75  79
ATOM     79  S   UNL A   1      37.881  33.534  40.594  1.00  0.00     0.124 S 
ATOM     80  O   UNL A   1      37.718  34.760  41.367  1.00  0.00    -0.237 OA
ATOM     81  O   UNL A   1      36.669  32.983  39.997  1.00  0.00    -0.237 OA
ATOM     82  O   UNL A   1      38.788  32.545  41.175  1.00  0.00    -0.744 OA
ENDBRANCH  75  79
ENDBRANCH  48  72
BRANCH  60  83
ATOM     83  C   UNL A   1      44.258  28.720  35.393  1.00  0.00     0.023 A 
ATOM     84  C   UNL A   1      44.107  27.693  36.338  1.00  0.00     0.031 A 
ATOM     85  C   UNL A   1      45.556  29.188  35.117  1.00  0.00     0.131 A 
ATOM     86  C   UNL A   1      45.235  27.181  36.996  1.00  0.00     0.055 A 
ATOM     87  C   UNL A   1      46.678  28.640  35.737  1.00  0.00     0.041 A 
ATOM     88  F   UNL A   1      45.752  30.166  34.218  1.00  0.00    -0.206 F 
ATOM     89  C   UNL A   1      46.521  27.633  36.686  1.00  0.00     0.022 A 
BRANCH  86  90
ATOM     90  S   UNL A   1      44.997  25.934  38.290  1.00  0.00     0.124 S 
ATOM     91  O   UNL A   1      43.812  26.435  38.977  1.00  0.00    -0.237 OA
ATOM     92  O   UNL A   1      44.816  24.708  37.518  1.00  0.00    -0.237 OA
ATOM     93  O   UNL A   1      46.237  26.000  39.061  1.00  0.00    -0.744 OA
ENDBRANCH  86  90
ENDBRANCH  60  83
ENDBRANCH  34  35
ENDBRANCH  26  29
ENDBRANCH   1  25
TORSDOF 14
ENDMDL
MODEL 3
REMARK VINA RESULT:     -12.5      5.857     10.656
REMARK SMILES Cc1cc2c(c(C)c1Cl)C=C(C(=O)NCCCNC(=O)c1ccc(-c3c4nc(c(-c5cc(S(=O)(=O)[O-])ccc5F)c5ccc([nH]5)c(-c5cc(S(=O)(=O)[O-])ccc5F)c5nc(c(-c6cc(S(=O)(=O)[O-])ccc6F)c6ccc3[nH]6)C=C5)C=C4)cc1)[C@@H](C(F)(F)F)O2
REMARK SMILES IDX 17 1 16 2 15 3 14 4 12 5 13 6 11 8 1 9 2 10 3 11 8 12 4 13
REMARK SMILES IDX 6 14 9 15 5 16 89 17 7 18 10 19 84 20 85 21 86 22 87 23
REMARK SMILES IDX 88 24 18 25 19 26 20 28 21 29 22 30 83 31 23 32 82 33 24 34
REMARK SMILES IDX 25 35 26 36 76 37 27 38 81 39 75 40 77 41 28 42 80 43 74 44
REMARK SMILES IDX 73 45 29 47 61 48 41 49 60 50 42 51 45 52 59 53 78 54 43 55
REMARK SMILES IDX 44 56 58 58 79 59 46 60 30 61 31 62 39 63 32 64 38 65 40 66
REMARK SMILES IDX 37 67 33 68 34 69 35 70 36 71 62 72 63 73 71 74 64 75 70 76
REMARK SMILES IDX 72 77 69 78 65 79 66 80 67 81 68 82 47 83 48 84 56 85 49 86
REMARK SMILES IDX 55 87 57 88 54 89 50 90 51 91 52 92 53 93
REMARK H PARENT 14 7 18 27 77 46 45 57
REMARK Flexibility Score: inf
ROOT
ATOM      1  C   UNL A   1      39.034  20.408  25.792  1.00  0.00     0.118 C 
ENDROOT
BRANCH   1   2
ATOM      2  C   UNL A   1      37.964  19.948  24.812  1.00  0.00     0.042 C 
BRANCH   2   3
ATOM      3  C   UNL A   1      36.619  20.604  25.082  1.00  0.00     0.118 C 
BRANCH   3   4
ATOM      4  N   UNL A   1      35.515  19.669  24.922  1.00  0.00    -0.352 N 
ATOM      5  C   UNL A   1      34.165  19.726  24.854  1.00  0.00     0.251 C 
ATOM      6  O   UNL A   1      33.598  18.639  24.699  1.00  0.00    -0.270 OA
ATOM      7  H   UNL A   1      35.839  18.742  24.843  1.00  0.00     0.163 HD
BRANCH   5   8
ATOM      8  C   UNL A   1      33.354  20.975  24.941  1.00  0.00     0.067 C 
ATOM      9  C   UNL A   1      30.106  26.547  24.109  1.00  0.00     0.046 C 
ATOM     10  C   UNL A   1      30.940  25.302  23.965  1.00  0.00    -0.028 A 
ATOM     11  C   UNL A   1      30.953  24.388  25.020  1.00  0.00     0.052 A 
ATOM     12  C   UNL A   1      31.692  25.019  22.807  1.00  0.00     0.047 A 
ATOM     13  C   UNL A   1      31.718  23.231  24.939  1.00  0.00     0.128 A 
ATOM     14  C   UNL A   1      32.465  23.834  22.705  1.00  0.00    -0.021 A 
ATOM     15  Cl  UNL A   1      31.643  26.159  21.496  1.00  0.00    -0.084 Cl
ATOM     16  C   UNL A   1      32.473  22.934  23.799  1.00  0.00     0.022 A 
ATOM     17  O   UNL A   1      31.639  22.406  26.023  1.00  0.00    -0.475 OA
ATOM     18  C   UNL A   1      33.275  23.511  21.472  1.00  0.00     0.047 C 
ATOM     19  C   UNL A   1      33.215  21.669  23.797  1.00  0.00     0.026 C 
ATOM     20  C   UNL A   1      32.742  21.485  26.209  1.00  0.00     0.314 C 
BRANCH  20  21
ATOM     21  C   UNL A   1      33.778  22.117  27.159  1.00  0.00     0.429 C 
ATOM     22  F   UNL A   1      33.166  22.916  28.068  1.00  0.00    -0.167 F 
ATOM     23  F   UNL A   1      34.473  21.194  27.865  1.00  0.00    -0.167 F 
ATOM     24  F   UNL A   1      34.691  22.873  26.507  1.00  0.00    -0.167 F 
ENDBRANCH  20  21
ENDBRANCH   5   8
ENDBRANCH   3   4
ENDBRANCH   2   3
ENDBRANCH   1   2
BRANCH   1  25
ATOM     25  N   UNL A   1      40.051  19.381  26.001  1.00  0.00    -0.352 N 
ATOM     26  C   UNL A   1      41.415  19.498  26.094  1.00  0.00     0.251 C 
ATOM     27  H   UNL A   1      39.704  18.464  26.088  1.00  0.00     0.163 HD
ATOM     28  O   UNL A   1      42.118  18.497  25.958  1.00  0.00    -0.269 OA
BRANCH  26  29
ATOM     29  C   UNL A   1      42.026  20.814  26.351  1.00  0.00     0.039 A 
ATOM     30  C   UNL A   1      42.343  21.650  25.278  1.00  0.00     0.014 A 
ATOM     31  C   UNL A   1      42.307  21.213  27.660  1.00  0.00     0.014 A 
ATOM     32  C   UNL A   1      42.882  22.913  25.528  1.00  0.00     0.010 A 
ATOM     33  C   UNL A   1      42.744  22.505  27.911  1.00  0.00     0.010 A 
ATOM     34  C   UNL A   1      43.052  23.363  26.848  1.00  0.00    -0.014 A 
BRANCH  34  35
ATOM     35  C   UNL A   1      43.591  24.711  27.144  1.00  0.00     0.031 A 
ATOM     36  C   UNL A   1      42.673  25.777  27.676  1.00  0.00     0.074 A 
ATOM     37  C   UNL A   1      44.883  24.985  26.883  1.00  0.00     0.049 A 
ATOM     38  N   UNL A   1      42.926  27.036  27.921  1.00  0.00    -0.248 NA
ATOM     39  C   UNL A   1      41.279  25.383  27.934  1.00  0.00     0.031 C 
ATOM     40  C   UNL A   1      45.856  24.034  26.337  1.00  0.00     0.029 A 
ATOM     41  N   UNL A   1      45.604  26.139  27.046  1.00  0.00    -0.354 N 
ATOM     42  C   UNL A   1      41.724  27.583  28.354  1.00  0.00     0.074 A 
ATOM     43  C   UNL A   1      40.727  26.540  28.267  1.00  0.00     0.031 C 
ATOM     44  C   UNL A   1      47.055  24.631  26.257  1.00  0.00     0.029 A 
ATOM     45  C   UNL A   1      46.928  26.017  26.697  1.00  0.00     0.049 A 
ATOM     46  H   UNL A   1      45.211  26.977  27.382  1.00  0.00     0.167 HD
ATOM     47  C   UNL A   1      41.481  28.833  28.815  1.00  0.00     0.034 A 
ATOM     48  C   UNL A   1      47.927  26.922  26.724  1.00  0.00     0.034 A 
ATOM     49  C   UNL A   1      42.493  29.853  28.919  1.00  0.00     0.049 A 
ATOM     50  C   UNL A   1      47.627  28.316  27.204  1.00  0.00     0.074 A 
ATOM     51  C   UNL A   1      42.369  31.139  29.413  1.00  0.00     0.029 A 
ATOM     52  N   UNL A   1      43.815  29.701  28.524  1.00  0.00    -0.354 N 
ATOM     53  N   UNL A   1      46.488  28.816  27.625  1.00  0.00    -0.248 NA
ATOM     54  C   UNL A   1      48.745  29.269  27.212  1.00  0.00     0.031 C 
ATOM     55  C   UNL A   1      43.600  31.784  29.259  1.00  0.00     0.029 A 
ATOM     56  C   UNL A   1      44.511  30.880  28.733  1.00  0.00     0.049 A 
ATOM     57  H   UNL A   1      44.202  28.877  28.149  1.00  0.00     0.167 HD
ATOM     58  C   UNL A   1      46.755  30.137  27.964  1.00  0.00     0.074 A 
ATOM     59  C   UNL A   1      48.165  30.356  27.706  1.00  0.00     0.031 C 
ATOM     60  C   UNL A   1      45.912  31.083  28.450  1.00  0.00     0.034 A 
BRANCH  47  61
ATOM     61  C   UNL A   1      40.070  29.160  29.231  1.00  0.00     0.023 A 
ATOM     62  C   UNL A   1      39.694  29.194  30.585  1.00  0.00     0.031 A 
ATOM     63  C   UNL A   1      39.086  29.434  28.265  1.00  0.00     0.131 A 
ATOM     64  C   UNL A   1      38.357  29.434  30.935  1.00  0.00     0.055 A 
ATOM     65  C   UNL A   1      37.773  29.744  28.622  1.00  0.00     0.041 A 
ATOM     66  F   UNL A   1      39.384  29.394  26.957  1.00  0.00    -0.206 F 
ATOM     67  C   UNL A   1      37.399  29.734  29.964  1.00  0.00     0.022 A 
BRANCH  64  68
ATOM     68  S   UNL A   1      37.867  29.242  32.670  1.00  0.00     0.124 S 
ATOM     69  O   UNL A   1      37.759  27.789  32.785  1.00  0.00    -0.237 OA
ATOM     70  O   UNL A   1      38.979  29.858  33.383  1.00  0.00    -0.237 OA
ATOM     71  O   UNL A   1      36.598  29.964  32.748  1.00  0.00    -0.744 OA
ENDBRANCH  64  68
ENDBRANCH  47  61
BRANCH  48  72
ATOM     72  C   UNL A   1      49.296  26.525  26.298  1.00  0.00     0.023 A 
ATOM     73  C   UNL A   1      49.827  26.976  25.080  1.00  0.00     0.031 A 
ATOM     74  C   UNL A   1      50.105  25.719  27.117  1.00  0.00     0.131 A 
ATOM     75  C   UNL A   1      51.129  26.606  24.707  1.00  0.00     0.055 A 
ATOM     76  C   UNL A   1      51.412  25.383  26.758  1.00  0.00     0.041 A 
ATOM     77  F   UNL A   1      49.647  25.275  28.298  1.00  0.00    -0.206 F 
ATOM     78  C   UNL A   1      51.929  25.825  25.545  1.00  0.00     0.022 A 
BRANCH  75  79
ATOM     79  S   UNL A   1      51.764  27.157  23.100  1.00  0.00     0.124 S 
ATOM     80  O   UNL A   1      52.048  28.564  23.360  1.00  0.00    -0.237 OA
ATOM     81  O   UNL A   1      52.923  26.290  22.915  1.00  0.00    -0.237 OA
ATOM     82  O   UNL A   1      50.650  26.902  22.189  1.00  0.00    -0.744 OA
ENDBRANCH  75  79
ENDBRANCH  48  72
BRANCH  60  83
ATOM     83  C   UNL A   1      46.490  32.439  28.750  1.00  0.00     0.023 A 
ATOM     84  C   UNL A   1      46.467  33.470  27.797  1.00  0.00     0.031 A 
ATOM     85  C   UNL A   1      47.020  32.718  30.022  1.00  0.00     0.131 A 
ATOM     86  C   UNL A   1      46.988  34.731  28.122  1.00  0.00     0.055 A 
ATOM     87  C   UNL A   1      47.491  33.987  30.357  1.00  0.00     0.041 A 
ATOM     88  F   UNL A   1      47.061  31.766  30.968  1.00  0.00    -0.206 F 
ATOM     89  C   UNL A   1      47.481  35.001  29.402  1.00  0.00     0.022 A 
BRANCH  86  90
ATOM     90  S   UNL A   1      47.045  36.008  26.837  1.00  0.00     0.124 S 
ATOM     91  O   UNL A   1      46.849  35.223  25.623  1.00  0.00    -0.237 OA
ATOM     92  O   UNL A   1      45.940  36.885  27.214  1.00  0.00    -0.237 OA
ATOM     93  O   UNL A   1      48.376  36.590  26.992  1.00  0.00    -0.744 OA
ENDBRANCH  86  90
ENDBRANCH  60  83
ENDBRANCH  34  35
ENDBRANCH  26  29
ENDBRANCH   1  25
TORSDOF 14
ENDMDL
