MODEL 1
REMARK VINA RESULT:     -11.9      0.000      0.000
REMARK SMILES Cc1cc(C(=O)NC[C@@H]2CC[C@H](C(=O)NCCCNC(=O)c3ccc(-c4c5nc(c(-c6cc(S(=O)(=O)[O-])ccc6F)c6ccc([nH]6)c(-c6cc(S(=O)(=O)[O-])ccc6F)c6nc(c(-c7cc(S(=O)(=O)[O-])ccc7F)c7ccc4[nH]7)C=C6)C=C5)cc3)O2)on1
REMARK SMILES IDX 17 1 16 2 15 3 13 4 14 5 12 7 9 8 10 9 85 10 11 11 8 12 7 13
REMARK SMILES IDX 5 14 6 15 4 17 1 18 2 19 3 20 87 21 86 22 18 23 19 24 20 25
REMARK SMILES IDX 21 27 22 28 23 29 84 30 24 31 83 32 25 33 26 34 27 35 77 36
REMARK SMILES IDX 28 37 82 38 76 39 78 40 29 41 81 42 75 43 74 44 30 46 62 47
REMARK SMILES IDX 42 48 61 49 43 50 46 51 60 52 79 53 44 54 45 55 59 57 80 58
REMARK SMILES IDX 47 59 31 60 32 61 40 62 33 63 39 64 41 65 38 66 34 67 35 68
REMARK SMILES IDX 36 69 37 70 63 71 64 72 72 73 65 74 71 75 73 76 70 77 66 78
REMARK SMILES IDX 67 79 68 80 69 81 48 82 49 83 57 84 50 85 56 86 58 87 55 88
REMARK SMILES IDX 51 89 52 90 53 91 54 92
REMARK H PARENT 15 6 7 16 19 26 78 45 46 56
REMARK Flexibility Score: inf
ROOT
ATOM      1  C   UNL A   1      31.682  31.582  26.811  1.00  0.00     0.042 C 
ENDROOT
BRANCH   1   2
ATOM      2  C   UNL A   1      31.947  30.350  25.960  1.00  0.00     0.117 C 
BRANCH   2   3
ATOM      3  N   UNL A   1      31.654  29.113  26.642  1.00  0.00    -0.354 N 
ATOM      4  C   UNL A   1      31.558  27.846  26.142  1.00  0.00     0.249 C 
ATOM      5  O   UNL A   1      31.363  26.932  26.950  1.00  0.00    -0.272 OA
ATOM      6  H   UNL A   1      31.501  29.193  27.611  1.00  0.00     0.163 HD
BRANCH   4   7
ATOM      7  C   UNL A   1      31.659  27.547  24.626  1.00  0.00     0.207 C 
ATOM      8  C   UNL A   1      31.296  25.613  23.337  1.00  0.00     0.138 C 
ATOM      9  C   UNL A   1      32.794  25.677  23.609  1.00  0.00     0.037 C 
ATOM     10  O   UNL A   1      30.674  26.636  24.133  1.00  0.00    -0.363 OA
ATOM     11  C   UNL A   1      33.027  27.057  24.180  1.00  0.00     0.045 C 
BRANCH   8  12
ATOM     12  C   UNL A   1      30.648  24.266  23.712  1.00  0.00     0.148 C 
BRANCH  12  13
ATOM     13  N   UNL A   1      30.429  24.133  25.137  1.00  0.00    -0.347 N 
ATOM     14  C   UNL A   1      31.045  23.349  26.083  1.00  0.00     0.289 C 
ATOM     15  O   UNL A   1      30.802  23.647  27.254  1.00  0.00    -0.266 OA
ATOM     16  H   UNL A   1      29.710  24.705  25.492  1.00  0.00     0.164 HD
BRANCH  14  17
ATOM     17  C   UNL A   1      31.911  22.250  25.718  1.00  0.00     0.224 A 
ATOM     18  C   UNL A   1      34.638  19.939  24.884  1.00  0.00     0.070 C 
ATOM     19  C   UNL A   1      33.398  20.697  25.169  1.00  0.00     0.081 A 
ATOM     20  C   UNL A   1      33.265  22.047  25.563  1.00  0.00     0.083 A 
ATOM     21  N   UNL A   1      32.204  20.112  25.048  1.00  0.00    -0.084 NA
ATOM     22  O   UNL A   1      31.278  21.081  25.385  1.00  0.00    -0.351 OA
ENDBRANCH  14  17
ENDBRANCH  12  13
ENDBRANCH   8  12
ENDBRANCH   4   7
ENDBRANCH   2   3
ENDBRANCH   1   2
BRANCH   1  23
ATOM     23  C   UNL A   1      32.958  32.303  27.217  1.00  0.00     0.118 C 
BRANCH  23  24
ATOM     24  N   UNL A   1      32.707  33.692  27.589  1.00  0.00    -0.352 N 
ATOM     25  C   UNL A   1      33.257  34.460  28.585  1.00  0.00     0.251 C 
ATOM     26  H   UNL A   1      32.035  34.152  27.035  1.00  0.00     0.163 HD
ATOM     27  O   UNL A   1      32.749  35.548  28.847  1.00  0.00    -0.269 OA
BRANCH  25  28
ATOM     28  C   UNL A   1      34.426  33.978  29.353  1.00  0.00     0.039 A 
ATOM     29  C   UNL A   1      34.219  33.117  30.434  1.00  0.00     0.014 A 
ATOM     30  C   UNL A   1      35.723  34.380  29.024  1.00  0.00     0.014 A 
ATOM     31  C   UNL A   1      35.315  32.606  31.136  1.00  0.00     0.010 A 
ATOM     32  C   UNL A   1      36.814  33.796  29.659  1.00  0.00     0.010 A 
ATOM     33  C   UNL A   1      36.623  32.909  30.728  1.00  0.00    -0.014 A 
BRANCH  33  34
ATOM     34  C   UNL A   1      37.809  32.328  31.409  1.00  0.00     0.031 A 
ATOM     35  C   UNL A   1      38.585  31.221  30.743  1.00  0.00     0.074 A 
ATOM     36  C   UNL A   1      38.131  32.733  32.654  1.00  0.00     0.049 A 
ATOM     37  N   UNL A   1      39.569  30.500  31.215  1.00  0.00    -0.248 NA
ATOM     38  C   UNL A   1      38.174  30.849  29.379  1.00  0.00     0.031 C 
ATOM     39  C   UNL A   1      37.422  33.764  33.419  1.00  0.00     0.029 A 
ATOM     40  N   UNL A   1      39.125  32.319  33.506  1.00  0.00    -0.354 N 
ATOM     41  C   UNL A   1      39.871  29.572  30.223  1.00  0.00     0.074 A 
ATOM     42  C   UNL A   1      38.935  29.791  29.143  1.00  0.00     0.031 C 
ATOM     43  C   UNL A   1      38.016  33.914  34.614  1.00  0.00     0.029 A 
ATOM     44  C   UNL A   1      39.113  32.960  34.726  1.00  0.00     0.049 A 
ATOM     45  H   UNL A   1      39.784  31.630  33.268  1.00  0.00     0.167 HD
ATOM     46  C   UNL A   1      40.850  28.636  30.211  1.00  0.00     0.034 A 
ATOM     47  C   UNL A   1      39.890  32.784  35.814  1.00  0.00     0.034 A 
ATOM     48  C   UNL A   1      41.807  28.466  31.276  1.00  0.00     0.049 A 
ATOM     49  C   UNL A   1      40.985  31.746  35.762  1.00  0.00     0.074 A 
ATOM     50  C   UNL A   1      42.898  27.616  31.324  1.00  0.00     0.029 A 
ATOM     51  N   UNL A   1      41.786  29.157  32.480  1.00  0.00    -0.354 N 
ATOM     52  N   UNL A   1      41.301  30.928  34.784  1.00  0.00    -0.248 NA
ATOM     53  C   UNL A   1      41.833  31.615  36.953  1.00  0.00     0.031 C 
ATOM     54  C   UNL A   1      43.497  27.744  32.580  1.00  0.00     0.029 A 
ATOM     55  C   UNL A   1      42.826  28.728  33.289  1.00  0.00     0.049 A 
ATOM     56  H   UNL A   1      41.129  29.849  32.723  1.00  0.00     0.167 HD
ATOM     57  C   UNL A   1      42.411  30.217  35.231  1.00  0.00     0.074 A 
ATOM     58  C   UNL A   1      42.718  30.713  36.556  1.00  0.00     0.031 C 
ATOM     59  C   UNL A   1      43.118  29.242  34.605  1.00  0.00     0.034 A 
BRANCH  46  60
ATOM     60  C   UNL A   1      40.930  27.711  29.021  1.00  0.00     0.023 A 
ATOM     61  C   UNL A   1      41.911  27.859  28.027  1.00  0.00     0.031 A 
ATOM     62  C   UNL A   1      40.015  26.650  28.893  1.00  0.00     0.131 A 
ATOM     63  C   UNL A   1      41.922  26.995  26.921  1.00  0.00     0.055 A 
ATOM     64  C   UNL A   1      40.076  25.750  27.828  1.00  0.00     0.041 A 
ATOM     65  F   UNL A   1      39.043  26.472  29.802  1.00  0.00    -0.206 F 
ATOM     66  C   UNL A   1      41.029  25.925  26.829  1.00  0.00     0.022 A 
BRANCH  63  67
ATOM     67  S   UNL A   1      43.058  27.349  25.554  1.00  0.00     0.124 S 
ATOM     68  O   UNL A   1      42.228  28.188  24.692  1.00  0.00    -0.237 OA
ATOM     69  O   UNL A   1      44.163  28.023  26.225  1.00  0.00    -0.237 OA
ATOM     70  O   UNL A   1      43.369  26.027  25.015  1.00  0.00    -0.744 OA
ENDBRANCH  63  67
ENDBRANCH  46  60
BRANCH  47  71
ATOM     71  C   UNL A   1      39.665  33.584  37.055  1.00  0.00     0.023 A 
ATOM     72  C   UNL A   1      38.960  33.044  38.142  1.00  0.00     0.031 A 
ATOM     73  C   UNL A   1      40.079  34.925  37.143  1.00  0.00     0.131 A 
ATOM     74  C   UNL A   1      38.625  33.859  39.235  1.00  0.00     0.055 A 
ATOM     75  C   UNL A   1      39.800  35.713  38.261  1.00  0.00     0.041 A 
ATOM     76  F   UNL A   1      40.764  35.492  36.136  1.00  0.00    -0.206 F 
ATOM     77  C   UNL A   1      39.051  35.186  39.308  1.00  0.00     0.022 A 
BRANCH  74  78
ATOM     78  S   UNL A   1      37.511  33.192  40.503  1.00  0.00     0.124 S 
ATOM     79  O   UNL A   1      36.350  32.811  39.706  1.00  0.00    -0.237 OA
ATOM     80  O   UNL A   1      38.303  32.095  41.050  1.00  0.00    -0.237 OA
ATOM     81  O   UNL A   1      37.308  34.323  41.404  1.00  0.00    -0.744 OA
ENDBRANCH  74  78
ENDBRANCH  47  71
BRANCH  59  82
ATOM     82  C   UNL A   1      44.323  28.697  35.328  1.00  0.00     0.023 A 
ATOM     83  C   UNL A   1      44.210  27.682  36.295  1.00  0.00     0.031 A 
ATOM     84  C   UNL A   1      45.603  29.210  35.051  1.00  0.00     0.131 A 
ATOM     85  C   UNL A   1      45.350  27.254  36.991  1.00  0.00     0.055 A 
ATOM     86  C   UNL A   1      46.742  28.736  35.702  1.00  0.00     0.041 A 
ATOM     87  F   UNL A   1      45.766  30.180  34.137  1.00  0.00    -0.206 F 
ATOM     88  C   UNL A   1      46.617  27.761  36.689  1.00  0.00     0.022 A 
BRANCH  85  89
ATOM     89  S   UNL A   1      45.142  26.086  38.363  1.00  0.00     0.124 S 
ATOM     90  O   UNL A   1      45.162  24.801  37.672  1.00  0.00    -0.237 OA
ATOM     91  O   UNL A   1      46.302  26.377  39.200  1.00  0.00    -0.237 OA
ATOM     92  O   UNL A   1      43.852  26.461  38.939  1.00  0.00    -0.744 OA
ENDBRANCH  85  89
ENDBRANCH  59  82
ENDBRANCH  33  34
ENDBRANCH  25  28
ENDBRANCH  23  24
ENDBRANCH   1  23
TORSDOF 16
ENDMDL
MODEL 2
REMARK VINA RESULT:     -11.6      5.656      9.106
REMARK SMILES Cc1cc(C(=O)NC[C@@H]2CC[C@H](C(=O)NCCCNC(=O)c3ccc(-c4c5nc(c(-c6cc(S(=O)(=O)[O-])ccc6F)c6ccc([nH]6)c(-c6cc(S(=O)(=O)[O-])ccc6F)c6nc(c(-c7cc(S(=O)(=O)[O-])ccc7F)c7ccc4[nH]7)C=C6)C=C5)cc3)O2)on1
REMARK SMILES IDX 17 1 16 2 15 3 13 4 14 5 12 7 9 8 10 9 85 10 11 11 8 12 7 13
REMARK SMILES IDX 5 14 6 15 4 17 1 18 2 19 3 20 87 21 86 22 18 23 19 24 20 25
REMARK SMILES IDX 21 27 22 28 23 29 84 30 24 31 83 32 25 33 26 34 27 35 77 36
REMARK SMILES IDX 28 37 82 38 76 39 78 40 29 41 81 42 75 43 74 44 30 46 62 47
REMARK SMILES IDX 42 48 61 49 43 50 46 51 60 52 79 53 44 54 45 55 59 57 80 58
REMARK SMILES IDX 47 59 31 60 32 61 40 62 33 63 39 64 41 65 38 66 34 67 35 68
REMARK SMILES IDX 36 69 37 70 63 71 64 72 72 73 65 74 71 75 73 76 70 77 66 78
REMARK SMILES IDX 67 79 68 80 69 81 48 82 49 83 57 84 50 85 56 86 58 87 55 88
REMARK SMILES IDX 51 89 52 90 53 91 54 92
REMARK H PARENT 15 6 7 16 19 26 78 45 46 56
REMARK Flexibility Score: inf
ROOT
ATOM      1  C   UNL A   1      35.549  20.895  25.265  1.00  0.00     0.042 C 
ENDROOT
BRANCH   1   2
ATOM      2  C   UNL A   1      34.483  21.422  24.318  1.00  0.00     0.117 C 
BRANCH   2   3
ATOM      3  N   UNL A   1      33.549  22.320  24.955  1.00  0.00    -0.354 N 
ATOM      4  C   UNL A   1      33.156  23.574  24.582  1.00  0.00     0.249 C 
ATOM      5  O   UNL A   1      32.281  24.118  25.262  1.00  0.00    -0.272 OA
ATOM      6  H   UNL A   1      33.133  21.978  25.779  1.00  0.00     0.163 HD
BRANCH   4   7
ATOM      7  C   UNL A   1      33.788  24.313  23.376  1.00  0.00     0.207 C 
ATOM      8  C   UNL A   1      33.367  26.391  22.359  1.00  0.00     0.138 C 
ATOM      9  C   UNL A   1      32.600  25.350  21.552  1.00  0.00     0.037 C 
ATOM     10  O   UNL A   1      33.878  25.730  23.529  1.00  0.00    -0.363 OA
ATOM     11  C   UNL A   1      33.115  24.018  22.046  1.00  0.00     0.045 C 
BRANCH   8  12
ATOM     12  C   UNL A   1      32.505  27.579  22.829  1.00  0.00     0.148 C 
BRANCH  12  13
ATOM     13  N   UNL A   1      31.348  27.161  23.590  1.00  0.00    -0.347 N 
ATOM     14  C   UNL A   1      30.059  27.638  23.625  1.00  0.00     0.289 C 
ATOM     15  O   UNL A   1      29.242  26.908  24.188  1.00  0.00    -0.266 OA
ATOM     16  H   UNL A   1      31.512  26.398  24.190  1.00  0.00     0.164 HD
BRANCH  14  17
ATOM     17  C   UNL A   1      29.702  28.913  23.043  1.00  0.00     0.224 A 
ATOM     18  C   UNL A   1      28.724  32.360  22.249  1.00  0.00     0.070 C 
ATOM     19  C   UNL A   1      29.119  30.936  22.342  1.00  0.00     0.081 A 
ATOM     20  C   UNL A   1      29.335  30.159  23.502  1.00  0.00     0.083 A 
ATOM     21  N   UNL A   1      29.300  30.210  21.237  1.00  0.00    -0.084 NA
ATOM     22  O   UNL A   1      29.658  28.949  21.674  1.00  0.00    -0.351 OA
ENDBRANCH  14  17
ENDBRANCH  12  13
ENDBRANCH   8  12
ENDBRANCH   4   7
ENDBRANCH   2   3
ENDBRANCH   1   2
BRANCH   1  23
ATOM     23  C   UNL A   1      36.955  21.309  24.860  1.00  0.00     0.118 C 
BRANCH  23  24
ATOM     24  N   UNL A   1      37.949  20.309  25.234  1.00  0.00    -0.352 N 
ATOM     25  C   UNL A   1      39.224  20.461  25.722  1.00  0.00     0.251 C 
ATOM     26  H   UNL A   1      37.659  19.375  25.120  1.00  0.00     0.163 HD
ATOM     27  O   UNL A   1      39.961  19.479  25.777  1.00  0.00    -0.269 OA
BRANCH  25  28
ATOM     28  C   UNL A   1      39.717  21.789  26.148  1.00  0.00     0.039 A 
ATOM     29  C   UNL A   1      41.019  21.901  26.646  1.00  0.00     0.014 A 
ATOM     30  C   UNL A   1      38.902  22.921  26.076  1.00  0.00     0.014 A 
ATOM     31  C   UNL A   1      41.522  23.157  27.001  1.00  0.00     0.010 A 
ATOM     32  C   UNL A   1      39.434  24.179  26.337  1.00  0.00     0.010 A 
ATOM     33  C   UNL A   1      40.747  24.312  26.810  1.00  0.00    -0.014 A 
BRANCH  33  34
ATOM     34  C   UNL A   1      41.277  25.667  27.113  1.00  0.00     0.031 A 
ATOM     35  C   UNL A   1      42.632  26.072  26.593  1.00  0.00     0.074 A 
ATOM     36  C   UNL A   1      40.581  26.491  27.921  1.00  0.00     0.049 A 
ATOM     37  N   UNL A   1      43.324  27.154  26.842  1.00  0.00    -0.248 NA
ATOM     38  C   UNL A   1      43.317  25.116  25.707  1.00  0.00     0.031 C 
ATOM     39  C   UNL A   1      39.279  26.188  28.523  1.00  0.00     0.029 A 
ATOM     40  N   UNL A   1      40.874  27.748  28.392  1.00  0.00    -0.354 N 
ATOM     41  C   UNL A   1      44.533  26.994  26.173  1.00  0.00     0.074 A 
ATOM     42  C   UNL A   1      44.499  25.691  25.547  1.00  0.00     0.031 C 
ATOM     43  C   UNL A   1      38.879  27.235  29.263  1.00  0.00     0.029 A 
ATOM     44  C   UNL A   1      39.913  28.263  29.234  1.00  0.00     0.049 A 
ATOM     45  H   UNL A   1      41.694  28.235  28.149  1.00  0.00     0.167 HD
ATOM     46  C   UNL A   1      45.568  27.863  26.078  1.00  0.00     0.034 A 
ATOM     47  C   UNL A   1      39.880  29.426  29.917  1.00  0.00     0.034 A 
ATOM     48  C   UNL A   1      45.563  29.179  26.667  1.00  0.00     0.049 A 
ATOM     49  C   UNL A   1      41.040  30.381  29.775  1.00  0.00     0.074 A 
ATOM     50  C   UNL A   1      46.516  30.176  26.552  1.00  0.00     0.029 A 
ATOM     51  N   UNL A   1      44.558  29.681  27.484  1.00  0.00    -0.354 N 
ATOM     52  N   UNL A   1      42.144  30.242  29.076  1.00  0.00    -0.248 NA
ATOM     53  C   UNL A   1      40.946  31.654  30.502  1.00  0.00     0.031 C 
ATOM     54  C   UNL A   1      46.121  31.254  27.350  1.00  0.00     0.029 A 
ATOM     55  C   UNL A   1      44.885  30.959  27.904  1.00  0.00     0.049 A 
ATOM     56  H   UNL A   1      43.736  29.198  27.728  1.00  0.00     0.167 HD
ATOM     57  C   UNL A   1      42.853  31.428  29.250  1.00  0.00     0.074 A 
ATOM     58  C   UNL A   1      42.046  32.274  30.103  1.00  0.00     0.031 C 
ATOM     59  C   UNL A   1      44.062  31.789  28.750  1.00  0.00     0.034 A 
BRANCH  46  60
ATOM     60  C   UNL A   1      46.799  27.418  25.328  1.00  0.00     0.023 A 
ATOM     61  C   UNL A   1      47.050  27.819  24.005  1.00  0.00     0.031 A 
ATOM     62  C   UNL A   1      47.747  26.591  25.957  1.00  0.00     0.131 A 
ATOM     63  C   UNL A   1      48.192  27.350  23.336  1.00  0.00     0.055 A 
ATOM     64  C   UNL A   1      48.916  26.187  25.312  1.00  0.00     0.041 A 
ATOM     65  F   UNL A   1      47.549  26.160  27.213  1.00  0.00    -0.206 F 
ATOM     66  C   UNL A   1      49.140  26.560  23.990  1.00  0.00     0.022 A 
BRANCH  63  67
ATOM     67  S   UNL A   1      48.371  27.707  21.569  1.00  0.00     0.124 S 
ATOM     68  O   UNL A   1      49.373  28.770  21.584  1.00  0.00    -0.237 OA
ATOM     69  O   UNL A   1      48.809  26.426  21.029  1.00  0.00    -0.237 OA
ATOM     70  O   UNL A   1      47.030  28.128  21.166  1.00  0.00    -0.744 OA
ENDBRANCH  63  67
ENDBRANCH  46  60
BRANCH  47  71
ATOM     71  C   UNL A   1      38.731  29.760  30.809  1.00  0.00     0.023 A 
ATOM     72  C   UNL A   1      37.677  30.568  30.353  1.00  0.00     0.031 A 
ATOM     73  C   UNL A   1      38.706  29.346  32.153  1.00  0.00     0.131 A 
ATOM     74  C   UNL A   1      36.685  30.998  31.249  1.00  0.00     0.055 A 
ATOM     75  C   UNL A   1      37.682  29.724  33.024  1.00  0.00     0.041 A 
ATOM     76  F   UNL A   1      39.684  28.566  32.642  1.00  0.00    -0.206 F 
ATOM     77  C   UNL A   1      36.673  30.571  32.578  1.00  0.00     0.022 A 
BRANCH  74  78
ATOM     78  S   UNL A   1      35.481  32.231  30.680  1.00  0.00     0.124 S 
ATOM     79  O   UNL A   1      36.297  33.438  30.624  1.00  0.00    -0.237 OA
ATOM     80  O   UNL A   1      35.067  31.675  29.396  1.00  0.00    -0.237 OA
ATOM     81  O   UNL A   1      34.461  32.214  31.724  1.00  0.00    -0.744 OA
ENDBRANCH  74  78
ENDBRANCH  47  71
BRANCH  59  82
ATOM     82  C   UNL A   1      44.547  33.180  29.068  1.00  0.00     0.023 A 
ATOM     83  C   UNL A   1      44.276  34.270  28.222  1.00  0.00     0.031 A 
ATOM     84  C   UNL A   1      45.301  33.415  30.231  1.00  0.00     0.131 A 
ATOM     85  C   UNL A   1      44.806  35.534  28.523  1.00  0.00     0.055 A 
ATOM     86  C   UNL A   1      45.772  34.687  30.558  1.00  0.00     0.041 A 
ATOM     87  F   UNL A   1      45.588  32.409  31.073  1.00  0.00    -0.206 F 
ATOM     88  C   UNL A   1      45.536  35.753  29.693  1.00  0.00     0.022 A 
BRANCH  85  89
ATOM     89  S   UNL A   1      44.602  36.870  27.315  1.00  0.00     0.124 S 
ATOM     90  O   UNL A   1      43.332  36.520  26.687  1.00  0.00    -0.237 OA
ATOM     91  O   UNL A   1      44.586  38.058  28.163  1.00  0.00    -0.237 OA
ATOM     92  O   UNL A   1      45.776  36.738  26.455  1.00  0.00    -0.744 OA
ENDBRANCH  85  89
ENDBRANCH  59  82
ENDBRANCH  33  34
ENDBRANCH  25  28
ENDBRANCH  23  24
ENDBRANCH   1  23
TORSDOF 16
ENDMDL
MODEL 3
REMARK VINA RESULT:     -11.6      5.747     11.806
REMARK SMILES Cc1cc(C(=O)NC[C@@H]2CC[C@H](C(=O)NCCCNC(=O)c3ccc(-c4c5nc(c(-c6cc(S(=O)(=O)[O-])ccc6F)c6ccc([nH]6)c(-c6cc(S(=O)(=O)[O-])ccc6F)c6nc(c(-c7cc(S(=O)(=O)[O-])ccc7F)c7ccc4[nH]7)C=C6)C=C5)cc3)O2)on1
REMARK SMILES IDX 17 1 16 2 15 3 13 4 14 5 12 7 9 8 10 9 85 10 11 11 8 12 7 13
REMARK SMILES IDX 5 14 6 15 4 17 1 18 2 19 3 20 87 21 86 22 18 23 19 24 20 25
REMARK SMILES IDX 21 27 22 28 23 29 84 30 24 31 83 32 25 33 26 34 27 35 77 36
REMARK SMILES IDX 28 37 82 38 76 39 78 40 29 41 81 42 75 43 74 44 30 46 62 47
REMARK SMILES IDX 42 48 61 49 43 50 46 51 60 52 79 53 44 54 45 55 59 57 80 58
REMARK SMILES IDX 47 59 31 60 32 61 40 62 33 63 39 64 41 65 38 66 34 67 35 68
REMARK SMILES IDX 36 69 37 70 63 71 64 72 72 73 65 74 71 75 73 76 70 77 66 78
REMARK SMILES IDX 67 79 68 80 69 81 48 82 49 83 57 84 50 85 56 86 58 87 55 88
REMARK SMILES IDX 51 89 52 90 53 91 54 92
REMARK H PARENT 15 6 7 16 19 26 78 45 46 56
REMARK Flexibility Score: inf
ROOT
ATOM      1  C   UNL A   1      38.111  20.072  24.749  1.00  0.00     0.042 C 
ENDROOT
BRANCH   1   2
ATOM      2  C   UNL A   1      36.751  20.700  25.009  1.00  0.00     0.117 C 
BRANCH   2   3
ATOM      3  N   UNL A   1      36.517  21.896  24.235  1.00  0.00    -0.354 N 
ATOM      4  C   UNL A   1      35.338  22.487  23.883  1.00  0.00     0.249 C 
ATOM      5  O   UNL A   1      35.402  23.556  23.268  1.00  0.00    -0.272 OA
ATOM      6  H   UNL A   1      37.327  22.353  23.913  1.00  0.00     0.163 HD
BRANCH   4   7
ATOM      7  C   UNL A   1      33.964  21.848  24.207  1.00  0.00     0.207 C 
ATOM      8  C   UNL A   1      31.749  22.619  24.042  1.00  0.00     0.138 C 
ATOM      9  C   UNL A   1      32.184  22.855  25.483  1.00  0.00     0.037 C 
ATOM     10  O   UNL A   1      32.915  22.208  23.308  1.00  0.00    -0.363 OA
ATOM     11  C   UNL A   1      33.483  22.098  25.627  1.00  0.00     0.045 C 
BRANCH   8  12
ATOM     12  C   UNL A   1      31.172  23.869  23.349  1.00  0.00     0.148 C 
BRANCH  12  13
ATOM     13  N   UNL A   1      31.986  24.312  22.236  1.00  0.00    -0.347 N 
ATOM     14  C   UNL A   1      32.374  25.568  21.836  1.00  0.00     0.289 C 
ATOM     15  O   UNL A   1      33.274  25.598  20.994  1.00  0.00    -0.266 OA
ATOM     16  H   UNL A   1      32.320  23.585  21.663  1.00  0.00     0.164 HD
BRANCH  14  17
ATOM     17  C   UNL A   1      31.759  26.763  22.369  1.00  0.00     0.224 A 
ATOM     18  C   UNL A   1      30.673  29.720  24.253  1.00  0.00     0.070 C 
ATOM     19  C   UNL A   1      30.939  28.577  23.350  1.00  0.00     0.081 A 
ATOM     20  C   UNL A   1      31.919  27.568  23.476  1.00  0.00     0.083 A 
ATOM     21  N   UNL A   1      30.194  28.389  22.258  1.00  0.00    -0.084 NA
ATOM     22  O   UNL A   1      30.701  27.257  21.651  1.00  0.00    -0.351 OA
ENDBRANCH  14  17
ENDBRANCH  12  13
ENDBRANCH   8  12
ENDBRANCH   4   7
ENDBRANCH   2   3
ENDBRANCH   1   2
BRANCH   1  23
ATOM     23  C   UNL A   1      39.142  20.442  25.804  1.00  0.00     0.118 C 
BRANCH  23  24
ATOM     24  N   UNL A   1      40.172  19.418  25.944  1.00  0.00    -0.352 N 
ATOM     25  C   UNL A   1      41.529  19.538  26.118  1.00  0.00     0.251 C 
ATOM     26  H   UNL A   1      39.841  18.491  25.908  1.00  0.00     0.163 HD
ATOM     27  O   UNL A   1      42.234  18.538  26.008  1.00  0.00    -0.269 OA
BRANCH  25  28
ATOM     28  C   UNL A   1      42.140  20.854  26.407  1.00  0.00     0.039 A 
ATOM     29  C   UNL A   1      42.516  21.676  25.339  1.00  0.00     0.014 A 
ATOM     30  C   UNL A   1      42.359  21.278  27.719  1.00  0.00     0.014 A 
ATOM     31  C   UNL A   1      43.042  22.946  25.592  1.00  0.00     0.010 A 
ATOM     32  C   UNL A   1      42.790  22.577  27.968  1.00  0.00     0.010 A 
ATOM     33  C   UNL A   1      43.145  23.423  26.908  1.00  0.00    -0.014 A 
BRANCH  33  34
ATOM     34  C   UNL A   1      43.636  24.794  27.207  1.00  0.00     0.031 A 
ATOM     35  C   UNL A   1      42.683  25.824  27.758  1.00  0.00     0.074 A 
ATOM     36  C   UNL A   1      44.905  25.131  26.901  1.00  0.00     0.049 A 
ATOM     37  N   UNL A   1      42.878  27.100  27.972  1.00  0.00    -0.248 NA
ATOM     38  C   UNL A   1      41.321  25.366  28.076  1.00  0.00     0.031 C 
ATOM     39  C   UNL A   1      45.904  24.230  26.318  1.00  0.00     0.029 A 
ATOM     40  N   UNL A   1      45.572  26.326  27.022  1.00  0.00    -0.354 N 
ATOM     41  C   UNL A   1      41.658  27.601  28.414  1.00  0.00     0.074 A 
ATOM     42  C   UNL A   1      40.718  26.502  28.394  1.00  0.00     0.031 C 
ATOM     43  C   UNL A   1      47.057  24.899  26.152  1.00  0.00     0.029 A 
ATOM     44  C   UNL A   1      46.871  26.284  26.566  1.00  0.00     0.049 A 
ATOM     45  H   UNL A   1      45.160  27.135  27.399  1.00  0.00     0.167 HD
ATOM     46  C   UNL A   1      41.357  28.860  28.816  1.00  0.00     0.034 A 
ATOM     47  C   UNL A   1      47.799  27.259  26.478  1.00  0.00     0.034 A 
ATOM     48  C   UNL A   1      42.320  29.930  28.879  1.00  0.00     0.049 A 
ATOM     49  C   UNL A   1      47.439  28.646  26.952  1.00  0.00     0.074 A 
ATOM     50  C   UNL A   1      42.147  31.216  29.361  1.00  0.00     0.029 A 
ATOM     51  N   UNL A   1      43.636  29.843  28.442  1.00  0.00    -0.354 N 
ATOM     52  N   UNL A   1      46.299  29.083  27.438  1.00  0.00    -0.248 NA
ATOM     53  C   UNL A   1      48.491  29.668  26.877  1.00  0.00     0.031 C 
ATOM     54  C   UNL A   1      43.335  31.924  29.157  1.00  0.00     0.029 A 
ATOM     55  C   UNL A   1      44.273  31.060  28.616  1.00  0.00     0.049 A 
ATOM     56  H   UNL A   1      44.053  29.034  28.065  1.00  0.00     0.167 HD
ATOM     57  C   UNL A   1      46.514  30.419  27.763  1.00  0.00     0.074 A 
ATOM     58  C   UNL A   1      47.894  30.710  27.435  1.00  0.00     0.031 C 
ATOM     59  C   UNL A   1      45.653  31.327  28.287  1.00  0.00     0.034 A 
BRANCH  46  60
ATOM     60  C   UNL A   1      39.929  29.156  29.203  1.00  0.00     0.023 A 
ATOM     61  C   UNL A   1      39.520  29.223  30.545  1.00  0.00     0.031 A 
ATOM     62  C   UNL A   1      38.965  29.395  28.207  1.00  0.00     0.131 A 
ATOM     63  C   UNL A   1      38.173  29.467  30.855  1.00  0.00     0.055 A 
ATOM     64  C   UNL A   1      37.642  29.709  28.522  1.00  0.00     0.041 A 
ATOM     65  F   UNL A   1      39.294  29.324  26.907  1.00  0.00    -0.206 F 
ATOM     66  C   UNL A   1      37.237  29.737  29.854  1.00  0.00     0.022 A 
BRANCH  63  67
ATOM     67  S   UNL A   1      37.640  29.328  32.581  1.00  0.00     0.124 S 
ATOM     68  O   UNL A   1      36.273  29.839  32.508  1.00  0.00    -0.237 OA
ATOM     69  O   UNL A   1      37.772  27.899  32.841  1.00  0.00    -0.237 OA
ATOM     70  O   UNL A   1      38.581  30.183  33.301  1.00  0.00    -0.744 OA
ENDBRANCH  63  67
ENDBRANCH  46  60
BRANCH  47  71
ATOM     71  C   UNL A   1      49.152  26.982  25.909  1.00  0.00     0.023 A 
ATOM     72  C   UNL A   1      49.501  27.440  24.629  1.00  0.00     0.031 A 
ATOM     73  C   UNL A   1      50.085  26.187  26.599  1.00  0.00     0.131 A 
ATOM     74  C   UNL A   1      50.716  27.041  24.049  1.00  0.00     0.055 A 
ATOM     75  C   UNL A   1      51.320  25.847  26.044  1.00  0.00     0.041 A 
ATOM     76  F   UNL A   1      49.807  25.727  27.830  1.00  0.00    -0.206 F 
ATOM     77  C   UNL A   1      51.633  26.258  24.752  1.00  0.00     0.022 A 
BRANCH  74  78
ATOM     78  S   UNL A   1      51.022  27.455  22.309  1.00  0.00     0.124 S 
ATOM     79  O   UNL A   1      50.925  28.910  22.329  1.00  0.00    -0.237 OA
ATOM     80  O   UNL A   1      52.355  26.902  22.099  1.00  0.00    -0.237 OA
ATOM     81  O   UNL A   1      49.944  26.767  21.603  1.00  0.00    -0.744 OA
ENDBRANCH  74  78
ENDBRANCH  47  71
BRANCH  59  82
ATOM     82  C   UNL A   1      46.202  32.698  28.591  1.00  0.00     0.023 A 
ATOM     83  C   UNL A   1      46.175  33.733  27.640  1.00  0.00     0.031 A 
ATOM     84  C   UNL A   1      46.770  32.967  29.849  1.00  0.00     0.131 A 
ATOM     85  C   UNL A   1      46.759  34.972  27.942  1.00  0.00     0.055 A 
ATOM     86  C   UNL A   1      47.293  34.221  30.166  1.00  0.00     0.041 A 
ATOM     87  F   UNL A   1      46.820  32.014  30.793  1.00  0.00    -0.206 F 
ATOM     88  C   UNL A   1      47.301  35.229  29.204  1.00  0.00     0.022 A 
BRANCH  85  89
ATOM     89  S   UNL A   1      46.880  36.217  26.630  1.00  0.00     0.124 S 
ATOM     90  O   UNL A   1      47.949  37.077  27.127  1.00  0.00    -0.237 OA
ATOM     91  O   UNL A   1      47.207  35.409  25.460  1.00  0.00    -0.237 OA
ATOM     92  O   UNL A   1      45.552  36.826  26.611  1.00  0.00    -0.744 OA
ENDBRANCH  85  89
ENDBRANCH  59  82
ENDBRANCH  33  34
ENDBRANCH  25  28
ENDBRANCH  23  24
ENDBRANCH   1  23
TORSDOF 16
ENDMDL
