MODEL 1
REMARK VINA RESULT:     -12.8      0.000      0.000
REMARK SMILES COc1ccc(NC(=O)[C@H]2[C@@H]3CC[C@@H](C3)[C@@H]2C(=O)NCCCNC(=O)c2ccc(-c3c4nc(c(-c5cc(S(=O)(=O)[O-])ccc5F)c5ccc([nH]5)c(-c5cc(S(=O)(=O)[O-])ccc5F)c5nc(c(-c6cc(S(=O)(=O)[O-])ccc6F)c6ccc3[nH]6)C=C5)C=C4)cc2)c(C)c1
REMARK SMILES IDX 21 1 20 2 19 3 17 4 18 5 16 7 10 8 11 9 12 10 15 11 14 12
REMARK SMILES IDX 13 13 8 14 7 15 9 17 6 18 3 19 4 20 91 21 5 22 89 23 90 24
REMARK SMILES IDX 2 25 1 26 22 27 23 28 24 29 25 31 26 32 27 33 88 34 28 35
REMARK SMILES IDX 87 36 29 37 30 38 31 39 81 40 32 41 86 42 80 43 82 44 33 45
REMARK SMILES IDX 85 46 79 47 78 48 34 50 66 51 46 52 65 53 47 54 50 55 64 56
REMARK SMILES IDX 83 57 48 58 49 59 63 61 84 62 51 63 35 64 36 65 44 66 37 67
REMARK SMILES IDX 43 68 45 69 42 70 38 71 39 72 40 73 41 74 67 75 68 76 76 77
REMARK SMILES IDX 69 78 75 79 77 80 74 81 70 82 71 83 72 84 73 85 52 86 53 87
REMARK SMILES IDX 61 88 54 89 60 90 62 91 59 92 55 93 56 94 57 95 58 96
REMARK H PARENT 19 6 7 16 23 30 82 49 50 60
REMARK Flexibility Score: inf
ROOT
ATOM      1  C   UNL A   1      37.904  21.284  25.147  1.00  0.00     0.042 C 
ENDROOT
BRANCH   1   2
ATOM      2  C   UNL A   1      36.434  20.912  25.338  1.00  0.00     0.117 C 
BRANCH   2   3
ATOM      3  N   UNL A   1      35.755  21.786  26.281  1.00  0.00    -0.356 N 
ATOM      4  C   UNL A   1      34.619  22.525  26.142  1.00  0.00     0.224 C 
ATOM      5  O   UNL A   1      34.136  23.015  27.165  1.00  0.00    -0.275 OA
ATOM      6  H   UNL A   1      36.186  21.855  27.164  1.00  0.00     0.163 HD
BRANCH   4   7
ATOM      7  C   UNL A   1      33.948  22.695  24.772  1.00  0.00     0.094 C 
ATOM      8  C   UNL A   1      33.183  24.025  24.569  1.00  0.00     0.094 C 
ATOM      9  C   UNL A   1      31.815  23.557  23.988  1.00  0.00     0.002 C 
ATOM     10  C   UNL A   1      30.941  23.058  25.142  1.00  0.00     0.005 C 
ATOM     11  C   UNL A   1      32.158  22.241  23.283  1.00  0.00     0.009 C 
ATOM     12  C   UNL A   1      32.817  21.648  24.525  1.00  0.00     0.002 C 
ATOM     13  C   UNL A   1      31.650  21.761  25.543  1.00  0.00     0.005 C 
BRANCH   8  14
ATOM     14  C   UNL A   1      33.795  25.000  23.560  1.00  0.00     0.228 C 
ATOM     15  N   UNL A   1      33.737  26.361  23.758  1.00  0.00    -0.326 N 
ATOM     16  H   UNL A   1      34.161  26.904  23.054  1.00  0.00     0.169 HD
ATOM     17  O   UNL A   1      34.364  24.594  22.542  1.00  0.00    -0.274 OA
BRANCH  15  18
ATOM     18  C   UNL A   1      33.164  27.095  24.815  1.00  0.00     0.044 A 
ATOM     19  C   UNL A   1      32.429  29.168  26.513  1.00  0.00     0.119 A 
ATOM     20  C   UNL A   1      33.553  28.419  26.808  1.00  0.00     0.048 A 
ATOM     21  C   UNL A   1      31.531  28.707  25.553  1.00  0.00     0.052 A 
ATOM     22  C   UNL A   1      33.891  27.358  25.979  1.00  0.00     0.030 A 
ATOM     23  C   UNL A   1      31.883  27.657  24.681  1.00  0.00    -0.024 A 
ATOM     24  C   UNL A   1      30.921  27.337  23.568  1.00  0.00     0.047 C 
BRANCH  19  25
ATOM     25  O   UNL A   1      32.178  30.359  27.138  1.00  0.00    -0.497 OA
ATOM     26  C   UNL A   1      33.411  31.005  27.507  1.00  0.00     0.278 C 
ENDBRANCH  19  25
ENDBRANCH  15  18
ENDBRANCH   8  14
ENDBRANCH   4   7
ENDBRANCH   2   3
ENDBRANCH   1   2
BRANCH   1  27
ATOM     27  C   UNL A   1      38.336  22.637  25.727  1.00  0.00     0.118 C 
BRANCH  27  28
ATOM     28  N   UNL A   1      39.729  22.596  26.201  1.00  0.00    -0.352 N 
ATOM     29  C   UNL A   1      40.501  23.534  26.857  1.00  0.00     0.251 C 
ATOM     30  H   UNL A   1      40.192  21.747  26.017  1.00  0.00     0.163 HD
ATOM     31  O   UNL A   1      41.665  23.336  27.170  1.00  0.00    -0.269 OA
BRANCH  29  32
ATOM     32  C   UNL A   1      39.854  24.791  27.272  1.00  0.00     0.039 A 
ATOM     33  C   UNL A   1      40.119  25.938  26.523  1.00  0.00     0.014 A 
ATOM     34  C   UNL A   1      39.218  24.873  28.503  1.00  0.00     0.014 A 
ATOM     35  C   UNL A   1      40.016  27.182  27.141  1.00  0.00     0.010 A 
ATOM     36  C   UNL A   1      39.087  26.111  29.108  1.00  0.00     0.010 A 
ATOM     37  C   UNL A   1      39.630  27.238  28.484  1.00  0.00    -0.014 A 
BRANCH  37  38
ATOM     38  C   UNL A   1      40.187  28.254  29.383  1.00  0.00     0.031 A 
ATOM     39  C   UNL A   1      39.431  29.403  29.908  1.00  0.00     0.074 A 
ATOM     40  C   UNL A   1      41.479  28.112  29.769  1.00  0.00     0.049 A 
ATOM     41  N   UNL A   1      39.997  30.512  30.257  1.00  0.00    -0.248 NA
ATOM     42  C   UNL A   1      37.981  29.434  30.037  1.00  0.00     0.031 C 
ATOM     43  C   UNL A   1      42.198  28.855  30.798  1.00  0.00     0.029 A 
ATOM     44  N   UNL A   1      42.476  27.397  29.104  1.00  0.00    -0.354 N 
ATOM     45  C   UNL A   1      39.077  31.242  30.966  1.00  0.00     0.074 A 
ATOM     46  C   UNL A   1      37.814  30.621  30.637  1.00  0.00     0.031 C 
ATOM     47  C   UNL A   1      43.512  28.789  30.537  1.00  0.00     0.029 A 
ATOM     48  C   UNL A   1      43.687  28.086  29.279  1.00  0.00     0.049 A 
ATOM     49  H   UNL A   1      42.352  26.559  28.600  1.00  0.00     0.167 HD
ATOM     50  C   UNL A   1      39.513  32.177  31.861  1.00  0.00     0.034 A 
ATOM     51  C   UNL A   1      44.378  28.545  28.198  1.00  0.00     0.034 A 
ATOM     52  C   UNL A   1      40.947  32.480  31.703  1.00  0.00     0.049 A 
ATOM     53  C   UNL A   1      44.440  30.060  28.105  1.00  0.00     0.074 A 
ATOM     54  C   UNL A   1      42.070  32.397  32.510  1.00  0.00     0.029 A 
ATOM     55  N   UNL A   1      41.423  32.836  30.447  1.00  0.00    -0.354 N 
ATOM     56  N   UNL A   1      44.026  30.894  29.022  1.00  0.00    -0.248 NA
ATOM     57  C   UNL A   1      44.877  30.746  26.888  1.00  0.00     0.031 C 
ATOM     58  C   UNL A   1      43.222  32.664  31.704  1.00  0.00     0.029 A 
ATOM     59  C   UNL A   1      42.800  32.944  30.417  1.00  0.00     0.049 A 
ATOM     60  H   UNL A   1      40.844  32.994  29.666  1.00  0.00     0.167 HD
ATOM     61  C   UNL A   1      44.002  32.164  28.495  1.00  0.00     0.074 A 
ATOM     62  C   UNL A   1      44.563  32.019  27.163  1.00  0.00     0.031 C 
ATOM     63  C   UNL A   1      43.452  33.236  29.145  1.00  0.00     0.034 A 
BRANCH  50  64
ATOM     64  C   UNL A   1      38.683  32.746  33.008  1.00  0.00     0.023 A 
ATOM     65  C   UNL A   1      38.833  32.201  34.306  1.00  0.00     0.031 A 
ATOM     66  C   UNL A   1      37.660  33.715  32.892  1.00  0.00     0.131 A 
ATOM     67  C   UNL A   1      38.010  32.608  35.379  1.00  0.00     0.055 A 
ATOM     68  C   UNL A   1      36.898  34.173  33.974  1.00  0.00     0.041 A 
ATOM     69  F   UNL A   1      37.276  34.223  31.717  1.00  0.00    -0.206 F 
ATOM     70  C   UNL A   1      37.064  33.616  35.227  1.00  0.00     0.022 A 
BRANCH  67  71
ATOM     71  S   UNL A   1      38.114  31.737  36.969  1.00  0.00     0.124 S 
ATOM     72  O   UNL A   1      39.473  32.048  37.399  1.00  0.00    -0.237 OA
ATOM     73  O   UNL A   1      37.033  32.350  37.732  1.00  0.00    -0.237 OA
ATOM     74  O   UNL A   1      37.893  30.337  36.603  1.00  0.00    -0.744 OA
ENDBRANCH  67  71
ENDBRANCH  50  64
BRANCH  51  75
ATOM     75  C   UNL A   1      44.344  27.615  27.033  1.00  0.00     0.023 A 
ATOM     76  C   UNL A   1      45.082  26.415  27.116  1.00  0.00     0.031 A 
ATOM     77  C   UNL A   1      43.400  27.730  26.003  1.00  0.00     0.131 A 
ATOM     78  C   UNL A   1      44.804  25.346  26.250  1.00  0.00     0.055 A 
ATOM     79  C   UNL A   1      43.153  26.674  25.117  1.00  0.00     0.041 A 
ATOM     80  F   UNL A   1      42.630  28.822  25.898  1.00  0.00    -0.206 F 
ATOM     81  C   UNL A   1      43.827  25.463  25.262  1.00  0.00     0.022 A 
BRANCH  78  82
ATOM     82  S   UNL A   1      45.605  23.732  26.496  1.00  0.00     0.124 S 
ATOM     83  O   UNL A   1      47.020  24.077  26.445  1.00  0.00    -0.237 OA
ATOM     84  O   UNL A   1      45.099  23.307  27.798  1.00  0.00    -0.237 OA
ATOM     85  O   UNL A   1      45.104  22.940  25.371  1.00  0.00    -0.744 OA
ENDBRANCH  78  82
ENDBRANCH  51  75
BRANCH  63  86
ATOM     86  C   UNL A   1      43.430  34.634  28.556  1.00  0.00     0.023 A 
ATOM     87  C   UNL A   1      44.608  35.331  28.233  1.00  0.00     0.031 A 
ATOM     88  C   UNL A   1      42.224  35.338  28.339  1.00  0.00     0.131 A 
ATOM     89  C   UNL A   1      44.562  36.597  27.619  1.00  0.00     0.055 A 
ATOM     90  C   UNL A   1      42.184  36.634  27.811  1.00  0.00     0.041 A 
ATOM     91  F   UNL A   1      41.028  34.788  28.594  1.00  0.00    -0.206 F 
ATOM     92  C   UNL A   1      43.356  37.264  27.426  1.00  0.00     0.022 A 
BRANCH  89  93
ATOM     93  S   UNL A   1      46.104  37.321  27.000  1.00  0.00     0.124 S 
ATOM     94  O   UNL A   1      45.655  38.579  26.414  1.00  0.00    -0.237 OA
ATOM     95  O   UNL A   1      46.888  37.437  28.227  1.00  0.00    -0.237 OA
ATOM     96  O   UNL A   1      46.592  36.329  26.044  1.00  0.00    -0.744 OA
ENDBRANCH  89  93
ENDBRANCH  63  86
ENDBRANCH  37  38
ENDBRANCH  29  32
ENDBRANCH  27  28
ENDBRANCH   1  27
TORSDOF 16
ENDMDL
MODEL 2
REMARK VINA RESULT:     -12.8      4.003     10.305
REMARK SMILES COc1ccc(NC(=O)[C@H]2[C@@H]3CC[C@@H](C3)[C@@H]2C(=O)NCCCNC(=O)c2ccc(-c3c4nc(c(-c5cc(S(=O)(=O)[O-])ccc5F)c5ccc([nH]5)c(-c5cc(S(=O)(=O)[O-])ccc5F)c5nc(c(-c6cc(S(=O)(=O)[O-])ccc6F)c6ccc3[nH]6)C=C5)C=C4)cc2)c(C)c1
REMARK SMILES IDX 21 1 20 2 19 3 17 4 18 5 16 7 10 8 11 9 12 10 15 11 14 12
REMARK SMILES IDX 13 13 8 14 7 15 9 17 6 18 3 19 4 20 91 21 5 22 89 23 90 24
REMARK SMILES IDX 2 25 1 26 22 27 23 28 24 29 25 31 26 32 27 33 88 34 28 35
REMARK SMILES IDX 87 36 29 37 30 38 31 39 81 40 32 41 86 42 80 43 82 44 33 45
REMARK SMILES IDX 85 46 79 47 78 48 34 50 66 51 46 52 65 53 47 54 50 55 64 56
REMARK SMILES IDX 83 57 48 58 49 59 63 61 84 62 51 63 35 64 36 65 44 66 37 67
REMARK SMILES IDX 43 68 45 69 42 70 38 71 39 72 40 73 41 74 67 75 68 76 76 77
REMARK SMILES IDX 69 78 75 79 77 80 74 81 70 82 71 83 72 84 73 85 52 86 53 87
REMARK SMILES IDX 61 88 54 89 60 90 62 91 59 92 55 93 56 94 57 95 58 96
REMARK H PARENT 19 6 7 16 23 30 82 49 50 60
REMARK Flexibility Score: inf
ROOT
ATOM      1  C   UNL A   1      33.493  31.174  27.568  1.00  0.00     0.042 C 
ENDROOT
BRANCH   1   2
ATOM      2  C   UNL A   1      32.747  30.485  26.425  1.00  0.00     0.117 C 
BRANCH   2   3
ATOM      3  N   UNL A   1      33.632  29.710  25.570  1.00  0.00    -0.356 N 
ATOM      4  C   UNL A   1      33.406  28.561  24.874  1.00  0.00     0.224 C 
ATOM      5  O   UNL A   1      34.260  28.222  24.052  1.00  0.00    -0.275 OA
ATOM      6  H   UNL A   1      34.542  30.075  25.479  1.00  0.00     0.163 HD
BRANCH   4   7
ATOM      7  C   UNL A   1      32.117  27.754  25.075  1.00  0.00     0.094 C 
ATOM      8  C   UNL A   1      32.233  26.236  24.795  1.00  0.00     0.094 C 
ATOM      9  C   UNL A   1      31.001  25.952  23.884  1.00  0.00     0.002 C 
ATOM     10  C   UNL A   1      31.339  26.393  22.457  1.00  0.00     0.005 C 
ATOM     11  C   UNL A   1      29.995  27.030  24.299  1.00  0.00     0.009 C 
ATOM     12  C   UNL A   1      30.990  28.165  24.077  1.00  0.00     0.002 C 
ATOM     13  C   UNL A   1      31.372  27.918  22.593  1.00  0.00     0.005 C 
BRANCH   8  14
ATOM     14  C   UNL A   1      32.115  25.321  26.017  1.00  0.00     0.228 C 
ATOM     15  N   UNL A   1      32.980  24.265  26.203  1.00  0.00    -0.326 N 
ATOM     16  H   UNL A   1      32.825  23.737  27.019  1.00  0.00     0.169 HD
ATOM     17  O   UNL A   1      31.245  25.505  26.873  1.00  0.00    -0.274 OA
BRANCH  15  18
ATOM     18  C   UNL A   1      34.055  23.828  25.404  1.00  0.00     0.044 A 
ATOM     19  C   UNL A   1      36.313  22.486  24.498  1.00  0.00     0.119 A 
ATOM     20  C   UNL A   1      36.460  23.706  25.132  1.00  0.00     0.048 A 
ATOM     21  C   UNL A   1      35.050  22.086  24.068  1.00  0.00     0.052 A 
ATOM     22  C   UNL A   1      35.326  24.391  25.545  1.00  0.00     0.030 A 
ATOM     23  C   UNL A   1      33.891  22.752  24.515  1.00  0.00    -0.024 A 
ATOM     24  C   UNL A   1      32.564  22.151  24.136  1.00  0.00     0.047 C 
BRANCH  19  25
ATOM     25  O   UNL A   1      37.379  21.656  24.285  1.00  0.00    -0.497 OA
ATOM     26  C   UNL A   1      37.205  20.418  24.999  1.00  0.00     0.278 C 
ENDBRANCH  19  25
ENDBRANCH  15  18
ENDBRANCH   8  14
ENDBRANCH   4   7
ENDBRANCH   2   3
ENDBRANCH   1   2
BRANCH   1  27
ATOM     27  C   UNL A   1      34.571  30.338  28.269  1.00  0.00     0.118 C 
BRANCH  27  28
ATOM     28  N   UNL A   1      35.577  31.195  28.916  1.00  0.00    -0.352 N 
ATOM     29  C   UNL A   1      36.867  30.937  29.335  1.00  0.00     0.251 C 
ATOM     30  H   UNL A   1      35.276  32.119  29.078  1.00  0.00     0.163 HD
ATOM     31  O   UNL A   1      37.572  31.777  29.874  1.00  0.00    -0.269 OA
BRANCH  29  32
ATOM     32  C   UNL A   1      37.440  29.615  29.030  1.00  0.00     0.039 A 
ATOM     33  C   UNL A   1      37.657  28.737  30.092  1.00  0.00     0.014 A 
ATOM     34  C   UNL A   1      37.973  29.360  27.773  1.00  0.00     0.014 A 
ATOM     35  C   UNL A   1      38.650  27.769  29.972  1.00  0.00     0.010 A 
ATOM     36  C   UNL A   1      38.941  28.379  27.643  1.00  0.00     0.010 A 
ATOM     37  C   UNL A   1      39.381  27.696  28.782  1.00  0.00    -0.014 A 
BRANCH  37  38
ATOM     38  C   UNL A   1      40.801  27.333  28.794  1.00  0.00     0.031 A 
ATOM     39  C   UNL A   1      41.335  26.048  28.313  1.00  0.00     0.074 A 
ATOM     40  C   UNL A   1      41.681  28.252  29.264  1.00  0.00     0.049 A 
ATOM     41  N   UNL A   1      42.436  25.537  28.758  1.00  0.00    -0.248 NA
ATOM     42  C   UNL A   1      40.662  25.200  27.338  1.00  0.00     0.031 C 
ATOM     43  C   UNL A   1      43.138  28.220  29.195  1.00  0.00     0.029 A 
ATOM     44  N   UNL A   1      41.402  29.309  30.131  1.00  0.00    -0.354 N 
ATOM     45  C   UNL A   1      42.793  24.519  27.910  1.00  0.00     0.074 A 
ATOM     46  C   UNL A   1      41.580  24.237  27.176  1.00  0.00     0.031 C 
ATOM     47  C   UNL A   1      43.631  28.998  30.170  1.00  0.00     0.029 A 
ATOM     48  C   UNL A   1      42.518  29.483  30.966  1.00  0.00     0.049 A 
ATOM     49  H   UNL A   1      40.571  29.837  30.156  1.00  0.00     0.167 HD
ATOM     50  C   UNL A   1      44.105  24.150  27.826  1.00  0.00     0.034 A 
ATOM     51  C   UNL A   1      42.391  29.362  32.317  1.00  0.00     0.034 A 
ATOM     52  C   UNL A   1      44.920  24.717  28.917  1.00  0.00     0.049 A 
ATOM     53  C   UNL A   1      43.129  28.169  32.901  1.00  0.00     0.074 A 
ATOM     54  C   UNL A   1      46.023  25.550  28.997  1.00  0.00     0.029 A 
ATOM     55  N   UNL A   1      44.506  24.528  30.230  1.00  0.00    -0.354 N 
ATOM     56  N   UNL A   1      43.951  27.392  32.247  1.00  0.00    -0.248 NA
ATOM     57  C   UNL A   1      42.889  27.700  34.266  1.00  0.00     0.031 C 
ATOM     58  C   UNL A   1      46.231  25.889  30.371  1.00  0.00     0.029 A 
ATOM     59  C   UNL A   1      45.277  25.236  31.131  1.00  0.00     0.049 A 
ATOM     60  H   UNL A   1      43.748  23.954  30.489  1.00  0.00     0.167 HD
ATOM     61  C   UNL A   1      44.226  26.284  33.013  1.00  0.00     0.074 A 
ATOM     62  C   UNL A   1      43.553  26.536  34.276  1.00  0.00     0.031 C 
ATOM     63  C   UNL A   1      44.915  25.198  32.543  1.00  0.00     0.034 A 
BRANCH  50  64
ATOM     64  C   UNL A   1      44.725  23.377  26.666  1.00  0.00     0.023 A 
ATOM     65  C   UNL A   1      44.244  22.080  26.365  1.00  0.00     0.031 A 
ATOM     66  C   UNL A   1      45.846  23.780  25.904  1.00  0.00     0.131 A 
ATOM     67  C   UNL A   1      44.857  21.274  25.379  1.00  0.00     0.055 A 
ATOM     68  C   UNL A   1      46.402  23.011  24.874  1.00  0.00     0.041 A 
ATOM     69  F   UNL A   1      46.524  24.904  26.155  1.00  0.00    -0.206 F 
ATOM     70  C   UNL A   1      45.914  21.746  24.609  1.00  0.00     0.022 A 
BRANCH  67  71
ATOM     71  S   UNL A   1      44.324  19.551  25.172  1.00  0.00     0.124 S 
ATOM     72  O   UNL A   1      44.154  19.455  23.726  1.00  0.00    -0.237 OA
ATOM     73  O   UNL A   1      45.439  18.808  25.748  1.00  0.00    -0.237 OA
ATOM     74  O   UNL A   1      43.079  19.487  25.940  1.00  0.00    -0.744 OA
ENDBRANCH  67  71
ENDBRANCH  50  64
BRANCH  51  75
ATOM     75  C   UNL A   1      41.113  29.922  32.845  1.00  0.00     0.023 A 
ATOM     76  C   UNL A   1      40.957  31.325  32.864  1.00  0.00     0.031 A 
ATOM     77  C   UNL A   1      39.969  29.136  33.044  1.00  0.00     0.131 A 
ATOM     78  C   UNL A   1      39.682  31.898  32.983  1.00  0.00     0.055 A 
ATOM     79  C   UNL A   1      38.703  29.713  33.200  1.00  0.00     0.041 A 
ATOM     80  F   UNL A   1      40.040  27.798  32.988  1.00  0.00    -0.206 F 
ATOM     81  C   UNL A   1      38.549  31.097  33.130  1.00  0.00     0.022 A 
BRANCH  78  82
ATOM     82  S   UNL A   1      39.459  33.692  32.792  1.00  0.00     0.124 S 
ATOM     83  O   UNL A   1      39.963  33.924  31.444  1.00  0.00    -0.237 OA
ATOM     84  O   UNL A   1      38.021  33.868  32.974  1.00  0.00    -0.237 OA
ATOM     85  O   UNL A   1      40.272  34.244  33.877  1.00  0.00    -0.744 OA
ENDBRANCH  78  82
ENDBRANCH  51  75
BRANCH  63  86
ATOM     86  C   UNL A   1      45.214  23.981  33.397  1.00  0.00     0.023 A 
ATOM     87  C   UNL A   1      46.468  23.777  34.002  1.00  0.00     0.031 A 
ATOM     88  C   UNL A   1      44.265  22.953  33.598  1.00  0.00     0.131 A 
ATOM     89  C   UNL A   1      46.699  22.678  34.850  1.00  0.00     0.055 A 
ATOM     90  C   UNL A   1      44.527  21.815  34.370  1.00  0.00     0.041 A 
ATOM     91  F   UNL A   1      43.027  23.024  33.088  1.00  0.00    -0.206 F 
ATOM     92  C   UNL A   1      45.743  21.682  35.020  1.00  0.00     0.022 A 
BRANCH  89  93
ATOM     93  S   UNL A   1      48.247  22.617  35.793  1.00  0.00     0.124 S 
ATOM     94  O   UNL A   1      49.257  22.522  34.745  1.00  0.00    -0.237 OA
ATOM     95  O   UNL A   1      48.201  23.883  36.517  1.00  0.00    -0.237 OA
ATOM     96  O   UNL A   1      48.098  21.422  36.622  1.00  0.00    -0.744 OA
ENDBRANCH  89  93
ENDBRANCH  63  86
ENDBRANCH  37  38
ENDBRANCH  29  32
ENDBRANCH  27  28
ENDBRANCH   1  27
TORSDOF 16
ENDMDL
MODEL 3
REMARK VINA RESULT:     -12.8      3.990     10.323
REMARK SMILES COc1ccc(NC(=O)[C@H]2[C@@H]3CC[C@@H](C3)[C@@H]2C(=O)NCCCNC(=O)c2ccc(-c3c4nc(c(-c5cc(S(=O)(=O)[O-])ccc5F)c5ccc([nH]5)c(-c5cc(S(=O)(=O)[O-])ccc5F)c5nc(c(-c6cc(S(=O)(=O)[O-])ccc6F)c6ccc3[nH]6)C=C5)C=C4)cc2)c(C)c1
REMARK SMILES IDX 21 1 20 2 19 3 17 4 18 5 16 7 10 8 11 9 12 10 15 11 14 12
REMARK SMILES IDX 13 13 8 14 7 15 9 17 6 18 3 19 4 20 91 21 5 22 89 23 90 24
REMARK SMILES IDX 2 25 1 26 22 27 23 28 24 29 25 31 26 32 27 33 88 34 28 35
REMARK SMILES IDX 87 36 29 37 30 38 31 39 81 40 32 41 86 42 80 43 82 44 33 45
REMARK SMILES IDX 85 46 79 47 78 48 34 50 66 51 46 52 65 53 47 54 50 55 64 56
REMARK SMILES IDX 83 57 48 58 49 59 63 61 84 62 51 63 35 64 36 65 44 66 37 67
REMARK SMILES IDX 43 68 45 69 42 70 38 71 39 72 40 73 41 74 67 75 68 76 76 77
REMARK SMILES IDX 69 78 75 79 77 80 74 81 70 82 71 83 72 84 73 85 52 86 53 87
REMARK SMILES IDX 61 88 54 89 60 90 62 91 59 92 55 93 56 94 57 95 58 96
REMARK H PARENT 19 6 7 16 23 30 82 49 50 60
REMARK Flexibility Score: inf
ROOT
ATOM      1  C   UNL A   1      33.532  31.402  27.585  1.00  0.00     0.042 C 
ENDROOT
BRANCH   1   2
ATOM      2  C   UNL A   1      32.394  30.662  26.882  1.00  0.00     0.117 C 
BRANCH   2   3
ATOM      3  N   UNL A   1      32.141  29.352  27.459  1.00  0.00    -0.356 N 
ATOM      4  C   UNL A   1      31.814  28.171  26.864  1.00  0.00     0.224 C 
ATOM      5  O   UNL A   1      31.863  27.156  27.561  1.00  0.00    -0.275 OA
ATOM      6  H   UNL A   1      32.219  29.312  28.440  1.00  0.00     0.163 HD
BRANCH   4   7
ATOM      7  C   UNL A   1      31.447  28.110  25.375  1.00  0.00     0.094 C 
ATOM      8  C   UNL A   1      31.454  26.696  24.747  1.00  0.00     0.094 C 
ATOM      9  C   UNL A   1      32.276  26.896  23.439  1.00  0.00     0.002 C 
ATOM     10  C   UNL A   1      33.765  26.907  23.797  1.00  0.00     0.005 C 
ATOM     11  C   UNL A   1      32.042  28.370  23.093  1.00  0.00     0.009 C 
ATOM     12  C   UNL A   1      32.482  28.852  24.473  1.00  0.00     0.002 C 
ATOM     13  C   UNL A   1      33.905  28.236  24.545  1.00  0.00     0.005 C 
BRANCH   8  14
ATOM     14  C   UNL A   1      30.086  26.138  24.343  1.00  0.00     0.228 C 
ATOM     15  N   UNL A   1      29.902  24.791  24.124  1.00  0.00    -0.326 N 
ATOM     16  H   UNL A   1      28.987  24.530  23.870  1.00  0.00     0.169 HD
ATOM     17  O   UNL A   1      29.108  26.879  24.208  1.00  0.00    -0.274 OA
BRANCH  15  18
ATOM     18  C   UNL A   1      30.824  23.729  24.208  1.00  0.00     0.044 A 
ATOM     19  C   UNL A   1      33.172  22.272  24.496  1.00  0.00     0.119 A 
ATOM     20  C   UNL A   1      32.755  22.639  23.230  1.00  0.00     0.048 A 
ATOM     21  C   UNL A   1      32.288  22.379  25.566  1.00  0.00     0.052 A 
ATOM     22  C   UNL A   1      31.560  23.331  23.089  1.00  0.00     0.030 A 
ATOM     23  C   UNL A   1      31.091  23.113  25.443  1.00  0.00    -0.024 A 
ATOM     24  C   UNL A   1      30.278  23.318  26.694  1.00  0.00     0.047 C 
BRANCH  19  25
ATOM     25  O   UNL A   1      34.439  21.810  24.726  1.00  0.00    -0.497 OA
ATOM     26  C   UNL A   1      34.419  20.397  25.003  1.00  0.00     0.278 C 
ENDBRANCH  19  25
ENDBRANCH  15  18
ENDBRANCH   8  14
ENDBRANCH   4   7
ENDBRANCH   2   3
ENDBRANCH   1   2
BRANCH   1  27
ATOM     27  C   UNL A   1      34.703  30.535  28.066  1.00  0.00     0.118 C 
BRANCH  27  28
ATOM     28  N   UNL A   1      35.639  31.312  28.894  1.00  0.00    -0.352 N 
ATOM     29  C   UNL A   1      36.860  30.983  29.449  1.00  0.00     0.251 C 
ATOM     30  H   UNL A   1      35.341  32.230  29.086  1.00  0.00     0.163 HD
ATOM     31  O   UNL A   1      37.510  31.759  30.133  1.00  0.00    -0.269 OA
BRANCH  29  32
ATOM     32  C   UNL A   1      37.436  29.668  29.120  1.00  0.00     0.039 A 
ATOM     33  C   UNL A   1      37.651  28.770  30.165  1.00  0.00     0.014 A 
ATOM     34  C   UNL A   1      37.973  29.439  27.860  1.00  0.00     0.014 A 
ATOM     35  C   UNL A   1      38.647  27.806  30.029  1.00  0.00     0.010 A 
ATOM     36  C   UNL A   1      38.943  28.462  27.713  1.00  0.00     0.010 A 
ATOM     37  C   UNL A   1      39.381  27.758  28.840  1.00  0.00    -0.014 A 
BRANCH  37  38
ATOM     38  C   UNL A   1      40.802  27.397  28.848  1.00  0.00     0.031 A 
ATOM     39  C   UNL A   1      41.338  26.120  28.349  1.00  0.00     0.074 A 
ATOM     40  C   UNL A   1      41.679  28.310  29.333  1.00  0.00     0.049 A 
ATOM     41  N   UNL A   1      42.440  25.605  28.788  1.00  0.00    -0.248 NA
ATOM     42  C   UNL A   1      40.669  25.286  27.361  1.00  0.00     0.031 C 
ATOM     43  C   UNL A   1      43.137  28.282  29.266  1.00  0.00     0.029 A 
ATOM     44  N   UNL A   1      41.397  29.354  30.216  1.00  0.00    -0.354 N 
ATOM     45  C   UNL A   1      42.799  24.600  27.926  1.00  0.00     0.074 A 
ATOM     46  C   UNL A   1      41.588  24.327  27.186  1.00  0.00     0.031 C 
ATOM     47  C   UNL A   1      43.627  29.047  30.253  1.00  0.00     0.029 A 
ATOM     48  C   UNL A   1      42.512  29.518  31.054  1.00  0.00     0.049 A 
ATOM     49  H   UNL A   1      40.565  29.880  30.247  1.00  0.00     0.167 HD
ATOM     50  C   UNL A   1      44.112  24.234  27.838  1.00  0.00     0.034 A 
ATOM     51  C   UNL A   1      42.383  29.376  32.403  1.00  0.00     0.034 A 
ATOM     52  C   UNL A   1      44.925  24.786  28.938  1.00  0.00     0.049 A 
ATOM     53  C   UNL A   1      43.123  28.177  32.970  1.00  0.00     0.074 A 
ATOM     54  C   UNL A   1      46.026  25.621  29.032  1.00  0.00     0.029 A 
ATOM     55  N   UNL A   1      44.509  24.577  30.248  1.00  0.00    -0.354 N 
ATOM     56  N   UNL A   1      43.946  27.410  32.306  1.00  0.00    -0.248 NA
ATOM     57  C   UNL A   1      42.881  27.686  34.329  1.00  0.00     0.031 C 
ATOM     58  C   UNL A   1      46.232  25.940  30.412  1.00  0.00     0.029 A 
ATOM     59  C   UNL A   1      45.278  25.273  31.161  1.00  0.00     0.049 A 
ATOM     60  H   UNL A   1      43.752  23.998  30.497  1.00  0.00     0.167 HD
ATOM     61  C   UNL A   1      44.222  26.292  33.057  1.00  0.00     0.074 A 
ATOM     62  C   UNL A   1      43.547  26.523  34.322  1.00  0.00     0.031 C 
ATOM     63  C   UNL A   1      44.914  25.214  32.572  1.00  0.00     0.034 A 
BRANCH  50  64
ATOM     64  C   UNL A   1      44.735  23.479  26.668  1.00  0.00     0.023 A 
ATOM     65  C   UNL A   1      44.279  22.174  26.366  1.00  0.00     0.031 A 
ATOM     66  C   UNL A   1      45.839  23.910  25.895  1.00  0.00     0.131 A 
ATOM     67  C   UNL A   1      44.897  21.386  25.370  1.00  0.00     0.055 A 
ATOM     68  C   UNL A   1      46.400  23.157  24.856  1.00  0.00     0.041 A 
ATOM     69  F   UNL A   1      46.496  25.047  26.144  1.00  0.00    -0.206 F 
ATOM     70  C   UNL A   1      45.936  21.883  24.590  1.00  0.00     0.022 A 
BRANCH  67  71
ATOM     71  S   UNL A   1      44.398  19.653  25.161  1.00  0.00     0.124 S 
ATOM     72  O   UNL A   1      43.226  19.566  26.026  1.00  0.00    -0.237 OA
ATOM     73  O   UNL A   1      44.154  19.568  23.726  1.00  0.00    -0.237 OA
ATOM     74  O   UNL A   1      45.564  18.905  25.634  1.00  0.00    -0.744 OA
ENDBRANCH  67  71
ENDBRANCH  50  64
BRANCH  51  75
ATOM     75  C   UNL A   1      41.103  29.926  32.938  1.00  0.00     0.023 A 
ATOM     76  C   UNL A   1      40.960  31.328  33.012  1.00  0.00     0.031 A 
ATOM     77  C   UNL A   1      39.950  29.144  33.089  1.00  0.00     0.131 A 
ATOM     78  C   UNL A   1      39.688  31.908  33.138  1.00  0.00     0.055 A 
ATOM     79  C   UNL A   1      38.688  29.726  33.253  1.00  0.00     0.041 A 
ATOM     80  F   UNL A   1      40.009  27.809  32.979  1.00  0.00    -0.206 F 
ATOM     81  C   UNL A   1      38.547  31.113  33.238  1.00  0.00     0.022 A 
BRANCH  78  82
ATOM     82  S   UNL A   1      39.484  33.711  33.019  1.00  0.00     0.124 S 
ATOM     83  O   UNL A   1      40.302  34.189  34.126  1.00  0.00    -0.237 OA
ATOM     84  O   UNL A   1      39.985  34.012  31.680  1.00  0.00    -0.237 OA
ATOM     85  O   UNL A   1      38.040  33.892  33.173  1.00  0.00    -0.744 OA
ENDBRANCH  78  82
ENDBRANCH  51  75
BRANCH  63  86
ATOM     86  C   UNL A   1      45.214  23.985  33.408  1.00  0.00     0.023 A 
ATOM     87  C   UNL A   1      46.469  23.771  34.006  1.00  0.00     0.031 A 
ATOM     88  C   UNL A   1      44.264  22.955  33.597  1.00  0.00     0.131 A 
ATOM     89  C   UNL A   1      46.701  22.660  34.839  1.00  0.00     0.055 A 
ATOM     90  C   UNL A   1      44.527  21.806  34.352  1.00  0.00     0.041 A 
ATOM     91  F   UNL A   1      43.025  23.034  33.090  1.00  0.00    -0.206 F 
ATOM     92  C   UNL A   1      45.745  21.663  34.997  1.00  0.00     0.022 A 
BRANCH  89  93
ATOM     93  S   UNL A   1      48.251  22.585  35.777  1.00  0.00     0.124 S 
ATOM     94  O   UNL A   1      47.935  21.638  36.841  1.00  0.00    -0.237 OA
ATOM     95  O   UNL A   1      49.187  22.109  34.763  1.00  0.00    -0.237 OA
ATOM     96  O   UNL A   1      48.457  23.964  36.214  1.00  0.00    -0.744 OA
ENDBRANCH  89  93
ENDBRANCH  63  86
ENDBRANCH  37  38
ENDBRANCH  29  32
ENDBRANCH  27  28
ENDBRANCH   1  27
TORSDOF 16
ENDMDL
