MODEL 1
REMARK VINA RESULT:     -11.3      0.000      0.000
REMARK SMILES O=C(CC[NH+]1CC[NH+](Cc2ccccc2C2CC2)CC1)NCCCNC(=O)c1ccc(-c2c3nc(c(-c4cc(S(=O)(=O)[O-])ccc4F)c4ccc([nH]4)c(-c4cc(S(=O)(=O)[O-])ccc4F)c4nc(c(-c5cc(S(=O)(=O)[O-])ccc5F)c5ccc2[nH]5)C=C4)C=C3)cc1
REMARK SMILES IDX 22 1 21 2 1 3 2 4 3 6 4 7 5 8 6 9 20 10 7 12 19 13 8 14 9 16
REMARK SMILES IDX 10 17 11 18 15 19 12 20 14 21 13 22 16 23 17 24 18 25 23 26
REMARK SMILES IDX 24 27 25 28 26 29 27 31 28 32 29 33 90 34 30 35 89 36 31 37
REMARK SMILES IDX 32 38 33 39 83 40 34 41 88 42 82 43 84 44 35 45 87 46 81 47
REMARK SMILES IDX 80 48 36 50 68 51 48 52 67 53 49 54 52 55 66 56 85 57 50 58
REMARK SMILES IDX 51 59 65 61 86 62 53 63 37 64 38 65 46 66 39 67 45 68 47 69
REMARK SMILES IDX 44 70 40 71 41 72 42 73 43 74 69 75 70 76 78 77 71 78 77 79
REMARK SMILES IDX 79 80 76 81 72 82 73 83 74 84 75 85 54 86 55 87 63 88 56 89
REMARK SMILES IDX 62 90 64 91 61 92 57 93 58 94 59 95 60 96
REMARK H PARENT 21 5 5 11 8 15 25 30 84 49 52 60
REMARK Flexibility Score: inf
ROOT
ATOM      1  C   UNL A   1      31.746  29.358  24.480  1.00  0.00     0.117 C 
ENDROOT
BRANCH   1   2
ATOM      2  N   UNL A   1      30.910  28.179  24.663  1.00  0.00    -0.356 N 
ATOM      3  O   UNL A   1      29.865  28.356  22.641  1.00  0.00    -0.275 OA
ATOM      4  C   UNL A   1      30.059  27.725  23.681  1.00  0.00     0.225 C 
ATOM      5  H   UNL A   1      30.955  27.692  25.518  1.00  0.00     0.163 HD
BRANCH   4   6
ATOM      6  C   UNL A   1      29.256  26.452  23.950  1.00  0.00     0.161 C 
BRANCH   6   7
ATOM      7  C   UNL A   1      29.614  25.563  25.150  1.00  0.00     0.272 C 
BRANCH   7   8
ATOM      8  N   UNL A   1      30.335  24.328  24.848  1.00  0.00    -0.325 N 
ATOM      9  C   UNL A   1      30.563  24.079  23.423  1.00  0.00     0.324 C 
ATOM     10  C   UNL A   1      31.601  24.176  25.610  1.00  0.00     0.324 C 
ATOM     11  H   UNL A   1      29.687  23.608  25.168  1.00  0.00     0.348 HD
ATOM     12  C   UNL A   1      31.812  24.700  22.798  1.00  0.00     0.324 C 
ATOM     13  C   UNL A   1      32.929  24.603  24.910  1.00  0.00     0.324 C 
ATOM     14  N   UNL A   1      33.046  24.322  23.475  1.00  0.00    -0.322 N 
ATOM     15  H   UNL A   1      33.801  24.919  23.139  1.00  0.00     0.348 HD
BRANCH  14  16
ATOM     16  C   UNL A   1      33.598  23.011  23.082  1.00  0.00     0.299 C 
BRANCH  16  17
ATOM     17  C   UNL A   1      34.812  22.441  23.798  1.00  0.00     0.010 A 
ATOM     18  C   UNL A   1      36.019  23.165  23.611  1.00  0.00     0.010 A 
ATOM     19  C   UNL A   1      34.827  21.273  24.607  1.00  0.00    -0.036 A 
ATOM     20  C   UNL A   1      37.200  22.824  24.263  1.00  0.00     0.001 A 
ATOM     21  C   UNL A   1      36.052  20.970  25.260  1.00  0.00     0.004 A 
ATOM     22  C   UNL A   1      37.211  21.732  25.109  1.00  0.00     0.000 A 
BRANCH  19  23
ATOM     23  C   UNL A   1      33.659  20.374  24.998  1.00  0.00     0.020 C 
ATOM     24  C   UNL A   1      32.492  19.945  24.156  1.00  0.00     0.009 C 
ATOM     25  C   UNL A   1      33.562  18.958  24.493  1.00  0.00     0.009 C 
ENDBRANCH  19  23
ENDBRANCH  16  17
ENDBRANCH  14  16
ENDBRANCH   7   8
ENDBRANCH   6   7
ENDBRANCH   4   6
ENDBRANCH   1   2
BRANCH   1  26
ATOM     26  C   UNL A   1      33.260  29.147  24.633  1.00  0.00     0.042 C 
BRANCH  26  27
ATOM     27  C   UNL A   1      33.871  29.260  26.037  1.00  0.00     0.118 C 
BRANCH  27  28
ATOM     28  N   UNL A   1      33.667  30.539  26.699  1.00  0.00    -0.352 N 
ATOM     29  C   UNL A   1      34.367  31.163  27.705  1.00  0.00     0.251 C 
ATOM     30  H   UNL A   1      32.891  31.048  26.368  1.00  0.00     0.163 HD
ATOM     31  O   UNL A   1      33.921  32.219  28.154  1.00  0.00    -0.269 OA
BRANCH  29  32
ATOM     32  C   UNL A   1      35.631  30.616  28.256  1.00  0.00     0.039 A 
ATOM     33  C   UNL A   1      36.842  30.973  27.652  1.00  0.00     0.014 A 
ATOM     34  C   UNL A   1      35.640  29.675  29.285  1.00  0.00     0.014 A 
ATOM     35  C   UNL A   1      38.049  30.423  28.105  1.00  0.00     0.010 A 
ATOM     36  C   UNL A   1      36.849  29.151  29.764  1.00  0.00     0.010 A 
ATOM     37  C   UNL A   1      38.070  29.518  29.181  1.00  0.00    -0.014 A 
BRANCH  37  38
ATOM     38  C   UNL A   1      39.363  28.983  29.701  1.00  0.00     0.031 A 
ATOM     39  C   UNL A   1      40.056  29.615  30.881  1.00  0.00     0.074 A 
ATOM     40  C   UNL A   1      39.937  27.929  29.085  1.00  0.00     0.049 A 
ATOM     41  N   UNL A   1      41.169  29.260  31.476  1.00  0.00    -0.248 NA
ATOM     42  C   UNL A   1      39.428  30.814  31.451  1.00  0.00     0.031 C 
ATOM     43  C   UNL A   1      39.404  27.255  27.899  1.00  0.00     0.029 A 
ATOM     44  N   UNL A   1      41.090  27.236  29.367  1.00  0.00    -0.354 N 
ATOM     45  C   UNL A   1      41.376  30.190  32.492  1.00  0.00     0.074 A 
ATOM     46  C   UNL A   1      40.303  31.159  32.386  1.00  0.00     0.031 C 
ATOM     47  C   UNL A   1      40.210  26.230  27.576  1.00  0.00     0.029 A 
ATOM     48  C   UNL A   1      41.333  26.190  28.507  1.00  0.00     0.049 A 
ATOM     49  H   UNL A   1      41.687  27.468  30.115  1.00  0.00     0.167 HD
ATOM     50  C   UNL A   1      42.352  30.222  33.437  1.00  0.00     0.034 A 
ATOM     51  C   UNL A   1      42.341  25.295  28.469  1.00  0.00     0.034 A 
ATOM     52  C   UNL A   1      43.420  29.250  33.533  1.00  0.00     0.049 A 
ATOM     53  C   UNL A   1      43.415  25.349  29.527  1.00  0.00     0.074 A 
ATOM     54  C   UNL A   1      44.429  29.168  34.479  1.00  0.00     0.029 A 
ATOM     55  N   UNL A   1      43.626  28.198  32.651  1.00  0.00    -0.354 N 
ATOM     56  N   UNL A   1      43.556  26.196  30.520  1.00  0.00    -0.248 NA
ATOM     57  C   UNL A   1      44.449  24.309  29.471  1.00  0.00     0.031 C 
ATOM     58  C   UNL A   1      45.279  28.112  34.131  1.00  0.00     0.029 A 
ATOM     59  C   UNL A   1      44.758  27.479  33.015  1.00  0.00     0.049 A 
ATOM     60  H   UNL A   1      43.053  27.991  31.876  1.00  0.00     0.167 HD
ATOM     61  C   UNL A   1      44.674  25.762  31.230  1.00  0.00     0.074 A 
ATOM     62  C   UNL A   1      45.156  24.574  30.559  1.00  0.00     0.031 C 
ATOM     63  C   UNL A   1      45.243  26.297  32.341  1.00  0.00     0.034 A 
BRANCH  50  64
ATOM     64  C   UNL A   1      42.321  31.360  34.432  1.00  0.00     0.023 A 
ATOM     65  C   UNL A   1      41.381  31.399  35.478  1.00  0.00     0.031 A 
ATOM     66  C   UNL A   1      43.229  32.429  34.330  1.00  0.00     0.131 A 
ATOM     67  C   UNL A   1      41.320  32.515  36.327  1.00  0.00     0.055 A 
ATOM     68  C   UNL A   1      43.217  33.497  35.229  1.00  0.00     0.041 A 
ATOM     69  F   UNL A   1      44.140  32.461  33.344  1.00  0.00    -0.206 F 
ATOM     70  C   UNL A   1      42.247  33.553  36.226  1.00  0.00     0.022 A 
BRANCH  67  71
ATOM     71  S   UNL A   1      39.917  32.662  37.468  1.00  0.00     0.124 S 
ATOM     72  O   UNL A   1      39.119  31.491  37.107  1.00  0.00    -0.237 OA
ATOM     73  O   UNL A   1      40.569  32.610  38.776  1.00  0.00    -0.237 OA
ATOM     74  O   UNL A   1      39.322  33.945  37.119  1.00  0.00    -0.744 OA
ENDBRANCH  67  71
ENDBRANCH  50  64
BRANCH  51  75
ATOM     75  C   UNL A   1      42.386  24.256  27.399  1.00  0.00     0.023 A 
ATOM     76  C   UNL A   1      41.775  23.004  27.578  1.00  0.00     0.031 A 
ATOM     77  C   UNL A   1      43.083  24.485  26.200  1.00  0.00     0.131 A 
ATOM     78  C   UNL A   1      41.919  22.009  26.599  1.00  0.00     0.055 A 
ATOM     79  C   UNL A   1      43.176  23.511  25.204  1.00  0.00     0.041 A 
ATOM     80  F   UNL A   1      43.679  25.667  25.976  1.00  0.00    -0.206 F 
ATOM     81  C   UNL A   1      42.603  22.259  25.407  1.00  0.00     0.022 A 
BRANCH  78  82
ATOM     82  S   UNL A   1      41.271  20.351  26.944  1.00  0.00     0.124 S 
ATOM     83  O   UNL A   1      42.438  19.516  26.687  1.00  0.00    -0.237 OA
ATOM     84  O   UNL A   1      40.861  20.470  28.339  1.00  0.00    -0.237 OA
ATOM     85  O   UNL A   1      40.176  20.208  25.985  1.00  0.00    -0.744 OA
ENDBRANCH  78  82
ENDBRANCH  51  75
BRANCH  63  86
ATOM     86  C   UNL A   1      46.421  25.558  32.934  1.00  0.00     0.023 A 
ATOM     87  C   UNL A   1      46.260  24.545  33.897  1.00  0.00     0.031 A 
ATOM     88  C   UNL A   1      47.731  25.900  32.552  1.00  0.00     0.131 A 
ATOM     89  C   UNL A   1      47.389  23.961  34.495  1.00  0.00     0.055 A 
ATOM     90  C   UNL A   1      48.848  25.270  33.103  1.00  0.00     0.041 A 
ATOM     91  F   UNL A   1      47.948  26.860  31.639  1.00  0.00    -0.206 F 
ATOM     92  C   UNL A   1      48.681  24.307  34.094  1.00  0.00     0.022 A 
BRANCH  89  93
ATOM     93  S   UNL A   1      47.149  22.831  35.894  1.00  0.00     0.124 S 
ATOM     94  O   UNL A   1      48.192  23.262  36.819  1.00  0.00    -0.237 OA
ATOM     95  O   UNL A   1      45.778  23.125  36.299  1.00  0.00    -0.237 OA
ATOM     96  O   UNL A   1      47.350  21.508  35.305  1.00  0.00    -0.744 OA
ENDBRANCH  89  93
ENDBRANCH  63  86
ENDBRANCH  37  38
ENDBRANCH  29  32
ENDBRANCH  27  28
ENDBRANCH  26  27
ENDBRANCH   1  26
TORSDOF 18
ENDMDL
MODEL 2
REMARK VINA RESULT:     -11.2      2.284      3.351
REMARK SMILES O=C(CC[NH+]1CC[NH+](Cc2ccccc2C2CC2)CC1)NCCCNC(=O)c1ccc(-c2c3nc(c(-c4cc(S(=O)(=O)[O-])ccc4F)c4ccc([nH]4)c(-c4cc(S(=O)(=O)[O-])ccc4F)c4nc(c(-c5cc(S(=O)(=O)[O-])ccc5F)c5ccc2[nH]5)C=C4)C=C3)cc1
REMARK SMILES IDX 22 1 21 2 1 3 2 4 3 6 4 7 5 8 6 9 20 10 7 12 19 13 8 14 9 16
REMARK SMILES IDX 10 17 11 18 15 19 12 20 14 21 13 22 16 23 17 24 18 25 23 26
REMARK SMILES IDX 24 27 25 28 26 29 27 31 28 32 29 33 90 34 30 35 89 36 31 37
REMARK SMILES IDX 32 38 33 39 83 40 34 41 88 42 82 43 84 44 35 45 87 46 81 47
REMARK SMILES IDX 80 48 36 50 68 51 48 52 67 53 49 54 52 55 66 56 85 57 50 58
REMARK SMILES IDX 51 59 65 61 86 62 53 63 37 64 38 65 46 66 39 67 45 68 47 69
REMARK SMILES IDX 44 70 40 71 41 72 42 73 43 74 69 75 70 76 78 77 71 78 77 79
REMARK SMILES IDX 79 80 76 81 72 82 73 83 74 84 75 85 54 86 55 87 63 88 56 89
REMARK SMILES IDX 62 90 64 91 61 92 57 93 58 94 59 95 60 96
REMARK H PARENT 21 5 5 11 8 15 25 30 84 49 52 60
REMARK Flexibility Score: inf
ROOT
ATOM      1  C   UNL A   1      30.674  31.700  25.417  1.00  0.00     0.117 C 
ENDROOT
BRANCH   1   2
ATOM      2  N   UNL A   1      30.825  30.433  24.713  1.00  0.00    -0.356 N 
ATOM      3  O   UNL A   1      28.901  30.643  23.503  1.00  0.00    -0.275 OA
ATOM      4  C   UNL A   1      29.938  30.023  23.744  1.00  0.00     0.225 C 
ATOM      5  H   UNL A   1      31.587  29.851  24.939  1.00  0.00     0.163 HD
BRANCH   4   6
ATOM      6  C   UNL A   1      30.207  28.698  23.029  1.00  0.00     0.161 C 
BRANCH   6   7
ATOM      7  C   UNL A   1      31.653  28.228  22.812  1.00  0.00     0.272 C 
BRANCH   7   8
ATOM      8  N   UNL A   1      31.821  26.927  22.169  1.00  0.00    -0.325 N 
ATOM      9  C   UNL A   1      33.194  26.417  22.158  1.00  0.00     0.324 C 
ATOM     10  C   UNL A   1      30.886  25.888  22.672  1.00  0.00     0.324 C 
ATOM     11  H   UNL A   1      31.578  27.126  21.198  1.00  0.00     0.348 HD
ATOM     12  C   UNL A   1      33.654  25.624  23.380  1.00  0.00     0.324 C 
ATOM     13  C   UNL A   1      31.404  24.915  23.777  1.00  0.00     0.324 C 
ATOM     14  N   UNL A   1      32.802  24.480  23.681  1.00  0.00    -0.322 N 
ATOM     15  H   UNL A   1      33.043  24.125  24.605  1.00  0.00     0.348 HD
BRANCH  14  16
ATOM     16  C   UNL A   1      33.083  23.267  22.888  1.00  0.00     0.299 C 
BRANCH  16  17
ATOM     17  C   UNL A   1      33.384  21.948  23.581  1.00  0.00     0.010 A 
ATOM     18  C   UNL A   1      32.378  20.954  23.452  1.00  0.00     0.010 A 
ATOM     19  C   UNL A   1      34.555  21.650  24.328  1.00  0.00    -0.036 A 
ATOM     20  C   UNL A   1      32.535  19.667  23.956  1.00  0.00     0.001 A 
ATOM     21  C   UNL A   1      34.675  20.321  24.815  1.00  0.00     0.004 A 
ATOM     22  C   UNL A   1      33.700  19.342  24.623  1.00  0.00     0.000 A 
BRANCH  19  23
ATOM     23  C   UNL A   1      35.784  22.523  24.555  1.00  0.00     0.020 C 
ATOM     24  C   UNL A   1      37.232  22.126  24.499  1.00  0.00     0.009 C 
ATOM     25  C   UNL A   1      36.653  22.961  23.404  1.00  0.00     0.009 C 
ENDBRANCH  19  23
ENDBRANCH  16  17
ENDBRANCH  14  16
ENDBRANCH   7   8
ENDBRANCH   6   7
ENDBRANCH   4   6
ENDBRANCH   1   2
BRANCH   1  26
ATOM     26  C   UNL A   1      31.325  31.786  26.807  1.00  0.00     0.042 C 
BRANCH  26  27
ATOM     27  C   UNL A   1      32.641  32.564  26.944  1.00  0.00     0.118 C 
BRANCH  27  28
ATOM     28  N   UNL A   1      32.538  33.835  27.644  1.00  0.00    -0.352 N 
ATOM     29  C   UNL A   1      33.288  34.375  28.662  1.00  0.00     0.251 C 
ATOM     30  H   UNL A   1      31.800  34.410  27.334  1.00  0.00     0.163 HD
ATOM     31  O   UNL A   1      32.925  35.448  29.145  1.00  0.00    -0.269 OA
BRANCH  29  32
ATOM     32  C   UNL A   1      34.511  33.719  29.187  1.00  0.00     0.039 A 
ATOM     33  C   UNL A   1      34.374  32.651  30.081  1.00  0.00     0.014 A 
ATOM     34  C   UNL A   1      35.787  34.203  28.902  1.00  0.00     0.014 A 
ATOM     35  C   UNL A   1      35.508  32.051  30.647  1.00  0.00     0.010 A 
ATOM     36  C   UNL A   1      36.923  33.582  29.437  1.00  0.00     0.010 A 
ATOM     37  C   UNL A   1      36.800  32.498  30.317  1.00  0.00    -0.014 A 
BRANCH  37  38
ATOM     38  C   UNL A   1      38.005  31.816  30.874  1.00  0.00     0.031 A 
ATOM     39  C   UNL A   1      38.554  32.176  32.231  1.00  0.00     0.074 A 
ATOM     40  C   UNL A   1      38.632  30.876  30.137  1.00  0.00     0.049 A 
ATOM     41  N   UNL A   1      39.575  31.664  32.875  1.00  0.00    -0.248 NA
ATOM     42  C   UNL A   1      37.883  33.270  32.946  1.00  0.00     0.031 C 
ATOM     43  C   UNL A   1      38.242  30.468  28.785  1.00  0.00     0.029 A 
ATOM     44  N   UNL A   1      39.726  30.091  30.414  1.00  0.00    -0.354 N 
ATOM     45  C   UNL A   1      39.669  32.370  34.071  1.00  0.00     0.074 A 
ATOM     46  C   UNL A   1      38.638  33.388  34.029  1.00  0.00     0.031 C 
ATOM     47  C   UNL A   1      39.061  29.490  28.366  1.00  0.00     0.029 A 
ATOM     48  C   UNL A   1      40.056  29.221  29.400  1.00  0.00     0.049 A 
ATOM     49  H   UNL A   1      40.226  30.147  31.260  1.00  0.00     0.167 HD
ATOM     50  C   UNL A   1      40.517  32.175  35.115  1.00  0.00     0.034 A 
ATOM     51  C   UNL A   1      41.042  28.307  29.310  1.00  0.00     0.034 A 
ATOM     52  C   UNL A   1      41.544  31.157  35.147  1.00  0.00     0.049 A 
ATOM     53  C   UNL A   1      41.973  28.107  30.479  1.00  0.00     0.074 A 
ATOM     54  C   UNL A   1      42.423  30.849  36.173  1.00  0.00     0.029 A 
ATOM     55  N   UNL A   1      41.840  30.287  34.106  1.00  0.00    -0.354 N 
ATOM     56  N   UNL A   1      42.003  28.739  31.630  1.00  0.00    -0.248 NA
ATOM     57  C   UNL A   1      42.986  27.053  30.346  1.00  0.00     0.031 C 
ATOM     58  C   UNL A   1      43.289  29.844  35.729  1.00  0.00     0.029 A 
ATOM     59  C   UNL A   1      42.902  29.462  34.456  1.00  0.00     0.049 A 
ATOM     60  H   UNL A   1      41.367  30.259  33.242  1.00  0.00     0.167 HD
ATOM     61  C   UNL A   1      43.013  28.127  32.370  1.00  0.00     0.074 A 
ATOM     62  C   UNL A   1      43.553  27.071  31.542  1.00  0.00     0.031 C 
ATOM     63  C   UNL A   1      43.445  28.412  33.626  1.00  0.00     0.034 A 
BRANCH  50  64
ATOM     64  C   UNL A   1      40.381  33.100  36.304  1.00  0.00     0.023 A 
ATOM     65  C   UNL A   1      39.617  32.745  37.431  1.00  0.00     0.031 A 
ATOM     66  C   UNL A   1      41.009  34.359  36.310  1.00  0.00     0.131 A 
ATOM     67  C   UNL A   1      39.436  33.665  38.476  1.00  0.00     0.055 A 
ATOM     68  C   UNL A   1      40.894  35.236  37.391  1.00  0.00     0.041 A 
ATOM     69  F   UNL A   1      41.739  34.764  35.259  1.00  0.00    -0.206 F 
ATOM     70  C   UNL A   1      40.090  34.898  38.476  1.00  0.00     0.022 A 
BRANCH  67  71
ATOM     71  S   UNL A   1      38.215  33.287  39.763  1.00  0.00     0.124 S 
ATOM     72  O   UNL A   1      38.791  32.091  40.374  1.00  0.00    -0.237 OA
ATOM     73  O   UNL A   1      38.240  34.497  40.584  1.00  0.00    -0.237 OA
ATOM     74  O   UNL A   1      36.984  33.066  39.016  1.00  0.00    -0.744 OA
ENDBRANCH  67  71
ENDBRANCH  50  64
BRANCH  51  75
ATOM     75  C   UNL A   1      41.203  27.493  28.070  1.00  0.00     0.023 A 
ATOM     76  C   UNL A   1      40.872  26.128  28.050  1.00  0.00     0.031 A 
ATOM     77  C   UNL A   1      41.736  28.059  26.899  1.00  0.00     0.131 A 
ATOM     78  C   UNL A   1      41.128  25.362  26.902  1.00  0.00     0.055 A 
ATOM     79  C   UNL A   1      41.936  27.306  25.740  1.00  0.00     0.041 A 
ATOM     80  F   UNL A   1      42.062  29.361  26.861  1.00  0.00    -0.206 F 
ATOM     81  C   UNL A   1      41.644  25.945  25.743  1.00  0.00     0.022 A 
BRANCH  78  82
ATOM     82  S   UNL A   1      40.855  23.571  26.975  1.00  0.00     0.124 S 
ATOM     83  O   UNL A   1      41.698  23.098  25.883  1.00  0.00    -0.237 OA
ATOM     84  O   UNL A   1      41.311  23.249  28.323  1.00  0.00    -0.237 OA
ATOM     85  O   UNL A   1      39.416  23.437  26.757  1.00  0.00    -0.744 OA
ENDBRANCH  78  82
ENDBRANCH  51  75
BRANCH  63  86
ATOM     86  C   UNL A   1      44.523  27.520  34.200  1.00  0.00     0.023 A 
ATOM     87  C   UNL A   1      44.226  26.303  34.838  1.00  0.00     0.031 A 
ATOM     88  C   UNL A   1      45.872  27.917  34.137  1.00  0.00     0.131 A 
ATOM     89  C   UNL A   1      45.251  25.562  35.448  1.00  0.00     0.055 A 
ATOM     90  C   UNL A   1      46.895  27.143  34.688  1.00  0.00     0.041 A 
ATOM     91  F   UNL A   1      46.218  29.070  33.543  1.00  0.00    -0.206 F 
ATOM     92  C   UNL A   1      46.585  25.966  35.364  1.00  0.00     0.022 A 
BRANCH  89  93
ATOM     93  S   UNL A   1      44.804  24.122  36.458  1.00  0.00     0.124 S 
ATOM     94  O   UNL A   1      46.069  23.806  37.116  1.00  0.00    -0.237 OA
ATOM     95  O   UNL A   1      43.756  24.661  37.319  1.00  0.00    -0.237 OA
ATOM     96  O   UNL A   1      44.354  23.138  35.475  1.00  0.00    -0.744 OA
ENDBRANCH  89  93
ENDBRANCH  63  86
ENDBRANCH  37  38
ENDBRANCH  29  32
ENDBRANCH  27  28
ENDBRANCH  26  27
ENDBRANCH   1  26
TORSDOF 18
ENDMDL
MODEL 3
REMARK VINA RESULT:     -11.2      5.543      8.889
REMARK SMILES O=C(CC[NH+]1CC[NH+](Cc2ccccc2C2CC2)CC1)NCCCNC(=O)c1ccc(-c2c3nc(c(-c4cc(S(=O)(=O)[O-])ccc4F)c4ccc([nH]4)c(-c4cc(S(=O)(=O)[O-])ccc4F)c4nc(c(-c5cc(S(=O)(=O)[O-])ccc5F)c5ccc2[nH]5)C=C4)C=C3)cc1
REMARK SMILES IDX 22 1 21 2 1 3 2 4 3 6 4 7 5 8 6 9 20 10 7 12 19 13 8 14 9 16
REMARK SMILES IDX 10 17 11 18 15 19 12 20 14 21 13 22 16 23 17 24 18 25 23 26
REMARK SMILES IDX 24 27 25 28 26 29 27 31 28 32 29 33 90 34 30 35 89 36 31 37
REMARK SMILES IDX 32 38 33 39 83 40 34 41 88 42 82 43 84 44 35 45 87 46 81 47
REMARK SMILES IDX 80 48 36 50 68 51 48 52 67 53 49 54 52 55 66 56 85 57 50 58
REMARK SMILES IDX 51 59 65 61 86 62 53 63 37 64 38 65 46 66 39 67 45 68 47 69
REMARK SMILES IDX 44 70 40 71 41 72 42 73 43 74 69 75 70 76 78 77 71 78 77 79
REMARK SMILES IDX 79 80 76 81 72 82 73 83 74 84 75 85 54 86 55 87 63 88 56 89
REMARK SMILES IDX 62 90 64 91 61 92 57 93 58 94 59 95 60 96
REMARK H PARENT 21 5 5 11 8 15 25 30 84 49 52 60
REMARK Flexibility Score: inf
ROOT
ATOM      1  C   UNL A   1      38.167  22.317  25.676  1.00  0.00     0.117 C 
ENDROOT
BRANCH   1   2
ATOM      2  N   UNL A   1      36.937  22.326  26.457  1.00  0.00    -0.356 N 
ATOM      3  O   UNL A   1      35.659  21.354  24.834  1.00  0.00    -0.275 OA
ATOM      4  C   UNL A   1      35.766  21.776  25.987  1.00  0.00     0.225 C 
ATOM      5  H   UNL A   1      36.943  22.740  27.351  1.00  0.00     0.163 HD
BRANCH   4   6
ATOM      6  C   UNL A   1      34.539  21.794  26.899  1.00  0.00     0.161 C 
BRANCH   6   7
ATOM      7  C   UNL A   1      33.160  21.431  26.329  1.00  0.00     0.272 C 
BRANCH   7   8
ATOM      8  N   UNL A   1      32.082  22.384  26.587  1.00  0.00    -0.325 N 
ATOM      9  C   UNL A   1      32.512  23.776  26.740  1.00  0.00     0.324 C 
ATOM     10  C   UNL A   1      30.960  22.291  25.619  1.00  0.00     0.324 C 
ATOM     11  H   UNL A   1      31.736  22.086  27.500  1.00  0.00     0.348 HD
ATOM     12  C   UNL A   1      32.643  24.608  25.465  1.00  0.00     0.324 C 
ATOM     13  C   UNL A   1      30.952  23.283  24.414  1.00  0.00     0.324 C 
ATOM     14  N   UNL A   1      31.420  24.649  24.673  1.00  0.00    -0.322 N 
ATOM     15  H   UNL A   1      31.635  25.044  23.758  1.00  0.00     0.348 HD
BRANCH  14  16
ATOM     16  C   UNL A   1      30.419  25.637  25.120  1.00  0.00     0.299 C 
BRANCH  16  17
ATOM     17  C   UNL A   1      30.417  27.045  24.545  1.00  0.00     0.010 A 
ATOM     18  C   UNL A   1      29.589  27.231  23.406  1.00  0.00     0.010 A 
ATOM     19  C   UNL A   1      31.163  28.147  25.042  1.00  0.00    -0.036 A 
ATOM     20  C   UNL A   1      29.413  28.476  22.812  1.00  0.00     0.001 A 
ATOM     21  C   UNL A   1      30.943  29.399  24.409  1.00  0.00     0.004 A 
ATOM     22  C   UNL A   1      30.077  29.571  23.329  1.00  0.00     0.000 A 
BRANCH  19  23
ATOM     23  C   UNL A   1      32.064  28.206  26.271  1.00  0.00     0.020 C 
ATOM     24  C   UNL A   1      32.247  29.341  27.238  1.00  0.00     0.009 C 
ATOM     25  C   UNL A   1      31.492  28.124  27.663  1.00  0.00     0.009 C 
ENDBRANCH  19  23
ENDBRANCH  16  17
ENDBRANCH  14  16
ENDBRANCH   7   8
ENDBRANCH   6   7
ENDBRANCH   4   6
ENDBRANCH   1   2
BRANCH   1  26
ATOM     26  C   UNL A   1      39.271  21.364  26.160  1.00  0.00     0.042 C 
BRANCH  26  27
ATOM     27  C   UNL A   1      39.443  20.024  25.431  1.00  0.00     0.118 C 
BRANCH  27  28
ATOM     28  N   UNL A   1      40.507  19.174  25.942  1.00  0.00    -0.352 N 
ATOM     29  C   UNL A   1      41.765  19.475  26.409  1.00  0.00     0.251 C 
ATOM     30  H   UNL A   1      40.288  18.214  25.957  1.00  0.00     0.163 HD
ATOM     31  O   UNL A   1      42.515  18.544  26.701  1.00  0.00    -0.269 OA
BRANCH  29  32
ATOM     32  C   UNL A   1      42.242  20.871  26.577  1.00  0.00     0.039 A 
ATOM     33  C   UNL A   1      42.248  21.433  27.858  1.00  0.00     0.014 A 
ATOM     34  C   UNL A   1      42.580  21.670  25.485  1.00  0.00     0.014 A 
ATOM     35  C   UNL A   1      42.629  22.770  28.042  1.00  0.00     0.010 A 
ATOM     36  C   UNL A   1      42.997  22.995  25.671  1.00  0.00     0.010 A 
ATOM     37  C   UNL A   1      43.027  23.563  26.952  1.00  0.00    -0.014 A 
BRANCH  37  38
ATOM     38  C   UNL A   1      43.491  24.966  27.162  1.00  0.00     0.031 A 
ATOM     39  C   UNL A   1      42.564  26.029  27.695  1.00  0.00     0.074 A 
ATOM     40  C   UNL A   1      44.760  25.297  26.844  1.00  0.00     0.049 A 
ATOM     41  N   UNL A   1      42.813  27.288  27.962  1.00  0.00    -0.248 NA
ATOM     42  C   UNL A   1      41.171  25.629  27.936  1.00  0.00     0.031 C 
ATOM     43  C   UNL A   1      45.749  24.383  26.268  1.00  0.00     0.029 A 
ATOM     44  N   UNL A   1      45.439  26.486  26.959  1.00  0.00    -0.354 N 
ATOM     45  C   UNL A   1      41.610  27.833  28.404  1.00  0.00     0.074 A 
ATOM     46  C   UNL A   1      40.621  26.777  28.307  1.00  0.00     0.031 C 
ATOM     47  C   UNL A   1      46.912  25.034  26.110  1.00  0.00     0.029 A 
ATOM     48  C   UNL A   1      46.749  26.420  26.540  1.00  0.00     0.049 A 
ATOM     49  H   UNL A   1      45.027  27.309  27.308  1.00  0.00     0.167 HD
ATOM     50  C   UNL A   1      41.357  29.084  28.869  1.00  0.00     0.034 A 
ATOM     51  C   UNL A   1      47.713  27.361  26.508  1.00  0.00     0.034 A 
ATOM     52  C   UNL A   1      42.350  30.132  28.961  1.00  0.00     0.049 A 
ATOM     53  C   UNL A   1      47.411  28.744  27.028  1.00  0.00     0.074 A 
ATOM     54  C   UNL A   1      42.206  31.417  29.459  1.00  0.00     0.029 A 
ATOM     55  N   UNL A   1      43.669  30.023  28.539  1.00  0.00    -0.354 N 
ATOM     56  N   UNL A   1      46.284  29.221  27.506  1.00  0.00    -0.248 NA
ATOM     57  C   UNL A   1      48.519  29.707  27.027  1.00  0.00     0.031 C 
ATOM     58  C   UNL A   1      43.413  32.102  29.276  1.00  0.00     0.029 A 
ATOM     59  C   UNL A   1      44.339  31.222  28.741  1.00  0.00     0.049 A 
ATOM     60  H   UNL A   1      44.071  29.212  28.150  1.00  0.00     0.167 HD
ATOM     61  C   UNL A   1      46.565  30.528  27.900  1.00  0.00     0.074 A 
ATOM     62  C   UNL A   1      47.965  30.756  27.617  1.00  0.00     0.031 C 
ATOM     63  C   UNL A   1      45.736  31.451  28.453  1.00  0.00     0.034 A 
BRANCH  50  64
ATOM     64  C   UNL A   1      39.939  29.395  29.295  1.00  0.00     0.023 A 
ATOM     65  C   UNL A   1      39.571  29.444  30.652  1.00  0.00     0.031 A 
ATOM     66  C   UNL A   1      38.937  29.632  28.338  1.00  0.00     0.131 A 
ATOM     67  C   UNL A   1      38.229  29.644  31.010  1.00  0.00     0.055 A 
ATOM     68  C   UNL A   1      37.618  29.913  28.702  1.00  0.00     0.041 A 
ATOM     69  F   UNL A   1      39.218  29.583  27.026  1.00  0.00    -0.206 F 
ATOM     70  C   UNL A   1      37.253  29.903  30.046  1.00  0.00     0.022 A 
BRANCH  67  71
ATOM     71  S   UNL A   1      37.748  29.409  32.744  1.00  0.00     0.124 S 
ATOM     72  O   UNL A   1      38.863  30.041  33.447  1.00  0.00    -0.237 OA
ATOM     73  O   UNL A   1      36.469  30.114  32.813  1.00  0.00    -0.237 OA
ATOM     74  O   UNL A   1      37.670  27.961  32.886  1.00  0.00    -0.744 OA
ENDBRANCH  67  71
ENDBRANCH  50  64
BRANCH  51  75
ATOM     75  C   UNL A   1      49.068  27.034  25.975  1.00  0.00     0.023 A 
ATOM     76  C   UNL A   1      49.466  27.458  24.697  1.00  0.00     0.031 A 
ATOM     77  C   UNL A   1      49.967  26.253  26.721  1.00  0.00     0.131 A 
ATOM     78  C   UNL A   1      50.705  27.052  24.179  1.00  0.00     0.055 A 
ATOM     79  C   UNL A   1      51.223  25.899  26.225  1.00  0.00     0.041 A 
ATOM     80  F   UNL A   1      49.640  25.829  27.952  1.00  0.00    -0.206 F 
ATOM     81  C   UNL A   1      51.593  26.287  24.940  1.00  0.00     0.022 A 
BRANCH  78  82
ATOM     82  S   UNL A   1      51.107  27.467  22.460  1.00  0.00     0.124 S 
ATOM     83  O   UNL A   1      50.841  28.900  22.431  1.00  0.00    -0.237 OA
ATOM     84  O   UNL A   1      52.508  27.072  22.372  1.00  0.00    -0.237 OA
ATOM     85  O   UNL A   1      50.179  26.643  21.686  1.00  0.00    -0.744 OA
ENDBRANCH  78  82
ENDBRANCH  51  75
BRANCH  63  86
ATOM     86  C   UNL A   1      46.349  32.777  28.843  1.00  0.00     0.023 A 
ATOM     87  C   UNL A   1      46.363  33.880  27.971  1.00  0.00     0.031 A 
ATOM     88  C   UNL A   1      46.962  32.926  30.101  1.00  0.00     0.131 A 
ATOM     89  C   UNL A   1      47.037  35.056  28.338  1.00  0.00     0.055 A 
ATOM     90  C   UNL A   1      47.574  34.121  30.486  1.00  0.00     0.041 A 
ATOM     91  F   UNL A   1      46.982  31.908  30.976  1.00  0.00    -0.206 F 
ATOM     92  C   UNL A   1      47.629  35.189  29.596  1.00  0.00     0.022 A 
BRANCH  89  93
ATOM     93  S   UNL A   1      47.235  36.370  27.102  1.00  0.00     0.124 S 
ATOM     94  O   UNL A   1      48.542  36.922  27.449  1.00  0.00    -0.237 OA
ATOM     95  O   UNL A   1      47.171  35.628  25.847  1.00  0.00    -0.237 OA
ATOM     96  O   UNL A   1      46.100  37.256  27.357  1.00  0.00    -0.744 OA
ENDBRANCH  89  93
ENDBRANCH  63  86
ENDBRANCH  37  38
ENDBRANCH  29  32
ENDBRANCH  27  28
ENDBRANCH  26  27
ENDBRANCH   1  26
TORSDOF 18
ENDMDL
