MODEL 1
REMARK VINA RESULT:     -12.1      0.000      0.000
REMARK SMILES Cc1cscc1C(=O)N1CC[C@H](C(=O)NCCCNC(=O)c2ccc(-c3c4nc(c(-c5cc(S(=O)(=O)[O-])ccc5F)c5ccc([nH]5)c(-c5cc(S(=O)(=O)[O-])ccc5F)c5nc(c(-c6cc(S(=O)(=O)[O-])ccc6F)c6ccc3[nH]6)C=C5)C=C4)cc2)[C@H]1C
REMARK SMILES IDX 17 1 16 2 15 3 13 4 14 5 12 7 9 8 10 9 85 10 11 11 86 12
REMARK SMILES IDX 7 13 8 14 6 15 1 16 2 17 3 18 4 19 5 20 18 21 19 22 20 23
REMARK SMILES IDX 21 25 22 26 23 27 84 28 24 29 83 30 25 31 26 32 27 33 77 34
REMARK SMILES IDX 28 35 82 36 76 37 78 38 29 39 81 40 75 41 74 42 30 44 62 45
REMARK SMILES IDX 42 46 61 47 43 48 46 49 60 50 79 51 44 52 45 53 59 55 80 56
REMARK SMILES IDX 47 57 31 58 32 59 40 60 33 61 39 62 41 63 38 64 34 65 35 66
REMARK SMILES IDX 36 67 37 68 63 69 64 70 72 71 65 72 71 73 73 74 70 75 66 76
REMARK SMILES IDX 67 77 68 78 69 79 48 80 49 81 57 82 50 83 56 84 58 85 55 86
REMARK SMILES IDX 51 87 52 88 53 89 54 90
REMARK H PARENT 15 6 19 24 78 43 46 54
REMARK Flexibility Score: inf
ROOT
ATOM      1  C   UNL A   1      31.504  32.064  26.523  1.00  0.00     0.042 C 
ENDROOT
BRANCH   1   2
ATOM      2  C   UNL A   1      31.653  30.638  26.024  1.00  0.00     0.117 C 
BRANCH   2   3
ATOM      3  N   UNL A   1      31.644  29.666  27.102  1.00  0.00    -0.356 N 
ATOM      4  C   UNL A   1      31.609  28.304  27.053  1.00  0.00     0.225 C 
ATOM      5  O   UNL A   1      31.547  27.695  28.119  1.00  0.00    -0.275 OA
ATOM      6  H   UNL A   1      31.668  30.048  28.009  1.00  0.00     0.163 HD
BRANCH   4   7
ATOM      7  C   UNL A   1      31.600  27.616  25.697  1.00  0.00     0.102 C 
ATOM      8  N   UNL A   1      31.813  25.216  25.662  1.00  0.00    -0.335 N 
ATOM      9  C   UNL A   1      33.128  25.794  25.819  1.00  0.00     0.121 C 
ATOM     10  C   UNL A   1      30.803  26.288  25.718  1.00  0.00     0.094 C 
ATOM     11  C   UNL A   1      33.000  27.184  25.250  1.00  0.00     0.037 C 
ATOM     12  C   UNL A   1      29.826  26.235  24.544  1.00  0.00     0.032 C 
BRANCH   8  13
ATOM     13  C   UNL A   1      31.586  24.049  26.382  1.00  0.00     0.255 C 
ATOM     14  O   UNL A   1      30.924  24.046  27.418  1.00  0.00    -0.269 OA
BRANCH  13  15
ATOM     15  C   UNL A   1      32.225  22.827  25.877  1.00  0.00     0.053 A 
ATOM     16  C   UNL A   1      33.978  22.243  27.754  1.00  0.00     0.046 C 
ATOM     17  C   UNL A   1      33.287  22.015  26.450  1.00  0.00    -0.028 A 
ATOM     18  C   UNL A   1      33.575  20.929  25.640  1.00  0.00     0.069 A 
ATOM     19  S   UNL A   1      32.580  20.832  24.261  1.00  0.00    -0.151 S 
ATOM     20  C   UNL A   1      31.751  22.249  24.708  1.00  0.00     0.079 A 
ENDBRANCH  13  15
ENDBRANCH   8  13
ENDBRANCH   4   7
ENDBRANCH   2   3
ENDBRANCH   1   2
BRANCH   1  21
ATOM     21  C   UNL A   1      32.754  32.630  27.180  1.00  0.00     0.118 C 
BRANCH  21  22
ATOM     22  N   UNL A   1      32.542  33.944  27.772  1.00  0.00    -0.352 N 
ATOM     23  C   UNL A   1      33.214  34.562  28.802  1.00  0.00     0.251 C 
ATOM     24  H   UNL A   1      31.809  34.468  27.375  1.00  0.00     0.163 HD
ATOM     25  O   UNL A   1      32.778  35.601  29.277  1.00  0.00    -0.269 OA
BRANCH  23  26
ATOM     26  C   UNL A   1      34.440  33.939  29.345  1.00  0.00     0.039 A 
ATOM     27  C   UNL A   1      35.688  34.412  28.932  1.00  0.00     0.014 A 
ATOM     28  C   UNL A   1      34.353  32.911  30.286  1.00  0.00     0.014 A 
ATOM     29  C   UNL A   1      36.848  33.913  29.532  1.00  0.00     0.010 A 
ATOM     30  C   UNL A   1      35.498  32.486  30.946  1.00  0.00     0.010 A 
ATOM     31  C   UNL A   1      36.759  32.981  30.576  1.00  0.00    -0.014 A 
BRANCH  31  32
ATOM     32  C   UNL A   1      37.957  32.467  31.291  1.00  0.00     0.031 A 
ATOM     33  C   UNL A   1      38.744  31.337  30.682  1.00  0.00     0.074 A 
ATOM     34  C   UNL A   1      38.269  32.929  32.518  1.00  0.00     0.049 A 
ATOM     35  N   UNL A   1      39.675  30.591  31.213  1.00  0.00    -0.248 NA
ATOM     36  C   UNL A   1      38.395  30.974  29.299  1.00  0.00     0.031 C 
ATOM     37  C   UNL A   1      37.571  34.005  33.224  1.00  0.00     0.029 A 
ATOM     38  N   UNL A   1      39.244  32.534  33.400  1.00  0.00    -0.354 N 
ATOM     39  C   UNL A   1      39.996  29.644  30.245  1.00  0.00     0.074 A 
ATOM     40  C   UNL A   1      39.120  29.880  29.119  1.00  0.00     0.031 C 
ATOM     41  C   UNL A   1      38.146  34.191  34.422  1.00  0.00     0.029 A 
ATOM     42  C   UNL A   1      39.216  33.214  34.596  1.00  0.00     0.049 A 
ATOM     43  H   UNL A   1      39.902  31.831  33.197  1.00  0.00     0.167 HD
ATOM     44  C   UNL A   1      40.949  28.681  30.287  1.00  0.00     0.034 A 
ATOM     45  C   UNL A   1      39.951  33.049  35.715  1.00  0.00     0.034 A 
ATOM     46  C   UNL A   1      41.837  28.484  31.405  1.00  0.00     0.049 A 
ATOM     47  C   UNL A   1      41.002  31.966  35.743  1.00  0.00     0.074 A 
ATOM     48  C   UNL A   1      42.870  27.574  31.538  1.00  0.00     0.029 A 
ATOM     49  N   UNL A   1      41.801  29.220  32.583  1.00  0.00    -0.354 N 
ATOM     50  N   UNL A   1      41.305  31.087  34.816  1.00  0.00    -0.248 NA
ATOM     51  C   UNL A   1      41.811  31.855  36.963  1.00  0.00     0.031 C 
ATOM     52  C   UNL A   1      43.424  27.722  32.814  1.00  0.00     0.029 A 
ATOM     53  C   UNL A   1      42.781  28.772  33.452  1.00  0.00     0.049 A 
ATOM     54  H   UNL A   1      41.170  29.950  32.773  1.00  0.00     0.167 HD
ATOM     55  C   UNL A   1      42.368  30.348  35.326  1.00  0.00     0.074 A 
ATOM     56  C   UNL A   1      42.651  30.881  36.643  1.00  0.00     0.031 C 
ATOM     57  C   UNL A   1      43.056  29.328  34.755  1.00  0.00     0.034 A 
BRANCH  44  58
ATOM     58  C   UNL A   1      41.055  27.760  29.095  1.00  0.00     0.023 A 
ATOM     59  C   UNL A   1      42.049  27.932  28.117  1.00  0.00     0.031 A 
ATOM     60  C   UNL A   1      40.123  26.722  28.911  1.00  0.00     0.131 A 
ATOM     61  C   UNL A   1      42.037  27.141  26.958  1.00  0.00     0.055 A 
ATOM     62  C   UNL A   1      40.170  25.880  27.798  1.00  0.00     0.041 A 
ATOM     63  F   UNL A   1      39.138  26.521  29.800  1.00  0.00    -0.206 F 
ATOM     64  C   UNL A   1      41.120  26.099  26.804  1.00  0.00     0.022 A 
BRANCH  61  65
ATOM     65  S   UNL A   1      43.136  27.599  25.591  1.00  0.00     0.124 S 
ATOM     66  O   UNL A   1      44.060  28.518  26.252  1.00  0.00    -0.237 OA
ATOM     67  O   UNL A   1      43.693  26.313  25.189  1.00  0.00    -0.237 OA
ATOM     68  O   UNL A   1      42.236  28.221  24.621  1.00  0.00    -0.744 OA
ENDBRANCH  61  65
ENDBRANCH  44  58
BRANCH  45  69
ATOM     69  C   UNL A   1      39.720  33.913  36.907  1.00  0.00     0.023 A 
ATOM     70  C   UNL A   1      39.114  33.395  38.063  1.00  0.00     0.031 A 
ATOM     71  C   UNL A   1      40.063  35.277  36.897  1.00  0.00     0.131 A 
ATOM     72  C   UNL A   1      38.826  34.244  39.143  1.00  0.00     0.055 A 
ATOM     73  C   UNL A   1      39.820  36.106  37.993  1.00  0.00     0.041 A 
ATOM     74  F   UNL A   1      40.652  35.820  35.820  1.00  0.00    -0.206 F 
ATOM     75  C   UNL A   1      39.185  35.594  39.121  1.00  0.00     0.022 A 
BRANCH  72  76
ATOM     76  S   UNL A   1      37.897  33.575  40.549  1.00  0.00     0.124 S 
ATOM     77  O   UNL A   1      38.870  32.664  41.141  1.00  0.00    -0.237 OA
ATOM     78  O   UNL A   1      37.596  34.780  41.314  1.00  0.00    -0.237 OA
ATOM     79  O   UNL A   1      36.744  32.934  39.920  1.00  0.00    -0.744 OA
ENDBRANCH  72  76
ENDBRANCH  45  69
BRANCH  57  80
ATOM     80  C   UNL A   1      44.230  28.774  35.519  1.00  0.00     0.023 A 
ATOM     81  C   UNL A   1      44.083  27.763  36.482  1.00  0.00     0.031 A 
ATOM     82  C   UNL A   1      45.524  29.257  35.250  1.00  0.00     0.131 A 
ATOM     83  C   UNL A   1      45.211  27.288  37.168  1.00  0.00     0.055 A 
ATOM     84  C   UNL A   1      46.646  28.747  35.901  1.00  0.00     0.041 A 
ATOM     85  F   UNL A   1      45.716  30.222  34.337  1.00  0.00    -0.206 F 
ATOM     86  C   UNL A   1      46.493  27.762  36.872  1.00  0.00     0.022 A 
BRANCH  83  87
ATOM     87  S   UNL A   1      44.979  26.068  38.490  1.00  0.00     0.124 S 
ATOM     88  O   UNL A   1      46.259  26.131  39.189  1.00  0.00    -0.237 OA
ATOM     89  O   UNL A   1      43.832  26.605  39.216  1.00  0.00    -0.237 OA
ATOM     90  O   UNL A   1      44.726  24.823  37.769  1.00  0.00    -0.744 OA
ENDBRANCH  83  87
ENDBRANCH  57  80
ENDBRANCH  31  32
ENDBRANCH  23  26
ENDBRANCH  21  22
ENDBRANCH   1  21
TORSDOF 15
ENDMDL
MODEL 2
REMARK VINA RESULT:     -12.0      5.859     11.000
REMARK SMILES Cc1cscc1C(=O)N1CC[C@H](C(=O)NCCCNC(=O)c2ccc(-c3c4nc(c(-c5cc(S(=O)(=O)[O-])ccc5F)c5ccc([nH]5)c(-c5cc(S(=O)(=O)[O-])ccc5F)c5nc(c(-c6cc(S(=O)(=O)[O-])ccc6F)c6ccc3[nH]6)C=C5)C=C4)cc2)[C@H]1C
REMARK SMILES IDX 17 1 16 2 15 3 13 4 14 5 12 7 9 8 10 9 85 10 11 11 86 12
REMARK SMILES IDX 7 13 8 14 6 15 1 16 2 17 3 18 4 19 5 20 18 21 19 22 20 23
REMARK SMILES IDX 21 25 22 26 23 27 84 28 24 29 83 30 25 31 26 32 27 33 77 34
REMARK SMILES IDX 28 35 82 36 76 37 78 38 29 39 81 40 75 41 74 42 30 44 62 45
REMARK SMILES IDX 42 46 61 47 43 48 46 49 60 50 79 51 44 52 45 53 59 55 80 56
REMARK SMILES IDX 47 57 31 58 32 59 40 60 33 61 39 62 41 63 38 64 34 65 35 66
REMARK SMILES IDX 36 67 37 68 63 69 64 70 72 71 65 72 71 73 73 74 70 75 66 76
REMARK SMILES IDX 67 77 68 78 69 79 48 80 49 81 57 82 50 83 56 84 58 85 55 86
REMARK SMILES IDX 51 87 52 88 53 89 54 90
REMARK H PARENT 15 6 19 24 78 43 46 54
REMARK Flexibility Score: inf
ROOT
ATOM      1  C   UNL A   1      34.871  21.757  26.522  1.00  0.00     0.042 C 
ENDROOT
BRANCH   1   2
ATOM      2  C   UNL A   1      34.068  20.715  25.764  1.00  0.00     0.117 C 
BRANCH   2   3
ATOM      3  N   UNL A   1      32.635  20.898  25.911  1.00  0.00    -0.356 N 
ATOM      4  C   UNL A   1      31.817  21.853  25.387  1.00  0.00     0.225 C 
ATOM      5  O   UNL A   1      30.631  21.831  25.711  1.00  0.00    -0.275 OA
ATOM      6  H   UNL A   1      32.186  20.230  26.477  1.00  0.00     0.163 HD
BRANCH   4   7
ATOM      7  C   UNL A   1      32.413  22.914  24.475  1.00  0.00     0.102 C 
ATOM      8  N   UNL A   1      31.280  25.038  24.343  1.00  0.00    -0.335 N 
ATOM      9  C   UNL A   1      30.597  24.096  23.486  1.00  0.00     0.121 C 
ATOM     10  C   UNL A   1      32.335  24.332  25.094  1.00  0.00     0.094 C 
ATOM     11  C   UNL A   1      31.640  23.057  23.159  1.00  0.00     0.037 C 
ATOM     12  C   UNL A   1      33.690  25.030  24.996  1.00  0.00     0.032 C 
BRANCH   8  13
ATOM     13  C   UNL A   1      30.458  25.926  25.026  1.00  0.00     0.255 C 
ATOM     14  O   UNL A   1      29.872  25.602  26.058  1.00  0.00    -0.269 OA
BRANCH  13  15
ATOM     15  C   UNL A   1      30.275  27.252  24.424  1.00  0.00     0.053 A 
ATOM     16  C   UNL A   1      32.297  28.637  25.386  1.00  0.00     0.046 C 
ATOM     17  C   UNL A   1      31.058  28.468  24.571  1.00  0.00    -0.028 A 
ATOM     18  C   UNL A   1      30.534  29.494  23.801  1.00  0.00     0.069 A 
ATOM     19  S   UNL A   1      29.181  29.024  22.880  1.00  0.00    -0.151 S 
ATOM     20  C   UNL A   1      29.256  27.441  23.502  1.00  0.00     0.079 A 
ENDBRANCH  13  15
ENDBRANCH   8  13
ENDBRANCH   4   7
ENDBRANCH   2   3
ENDBRANCH   1   2
BRANCH   1  21
ATOM     21  C   UNL A   1      36.140  22.206  25.813  1.00  0.00     0.118 C 
BRANCH  21  22
ATOM     22  N   UNL A   1      37.096  21.124  25.617  1.00  0.00    -0.352 N 
ATOM     23  C   UNL A   1      38.466  21.127  25.754  1.00  0.00     0.251 C 
ATOM     24  H   UNL A   1      36.704  20.262  25.348  1.00  0.00     0.163 HD
ATOM     25  O   UNL A   1      39.118  20.164  25.377  1.00  0.00    -0.269 OA
BRANCH  23  26
ATOM     26  C   UNL A   1      39.135  22.316  26.326  1.00  0.00     0.039 A 
ATOM     27  C   UNL A   1      40.237  22.142  27.168  1.00  0.00     0.014 A 
ATOM     28  C   UNL A   1      38.692  23.599  26.003  1.00  0.00     0.014 A 
ATOM     29  C   UNL A   1      40.949  23.260  27.612  1.00  0.00     0.010 A 
ATOM     30  C   UNL A   1      39.455  24.701  26.368  1.00  0.00     0.010 A 
ATOM     31  C   UNL A   1      40.592  24.545  27.177  1.00  0.00    -0.014 A 
BRANCH  31  32
ATOM     32  C   UNL A   1      41.354  25.759  27.568  1.00  0.00     0.031 A 
ATOM     33  C   UNL A   1      40.675  26.812  28.403  1.00  0.00     0.074 A 
ATOM     34  C   UNL A   1      42.596  25.968  27.089  1.00  0.00     0.049 A 
ATOM     35  N   UNL A   1      41.056  28.032  28.676  1.00  0.00    -0.248 NA
ATOM     36  C   UNL A   1      39.364  26.450  28.966  1.00  0.00     0.031 C 
ATOM     37  C   UNL A   1      43.352  25.034  26.252  1.00  0.00     0.029 A 
ATOM     38  N   UNL A   1      43.435  27.047  27.219  1.00  0.00    -0.354 N 
ATOM     39  C   UNL A   1      40.017  28.596  29.408  1.00  0.00     0.074 A 
ATOM     40  C   UNL A   1      38.969  27.601  29.486  1.00  0.00     0.031 C 
ATOM     41  C   UNL A   1      44.544  25.575  25.955  1.00  0.00     0.029 A 
ATOM     42  C   UNL A   1      44.618  26.915  26.530  1.00  0.00     0.049 A 
ATOM     43  H   UNL A   1      43.211  27.841  27.756  1.00  0.00     0.167 HD
ATOM     44  C   UNL A   1      39.953  29.824  29.979  1.00  0.00     0.034 A 
ATOM     45  C   UNL A   1      45.634  27.785  26.358  1.00  0.00     0.034 A 
ATOM     46  C   UNL A   1      41.023  30.788  29.920  1.00  0.00     0.049 A 
ATOM     47  C   UNL A   1      45.539  29.149  26.996  1.00  0.00     0.074 A 
ATOM     48  C   UNL A   1      41.088  32.042  30.500  1.00  0.00     0.029 A 
ATOM     49  N   UNL A   1      42.221  30.600  29.243  1.00  0.00    -0.354 N 
ATOM     50  N   UNL A   1      44.557  29.665  27.698  1.00  0.00    -0.248 NA
ATOM     51  C   UNL A   1      46.690  30.046  26.824  1.00  0.00     0.031 C 
ATOM     52  C   UNL A   1      42.302  32.633  30.133  1.00  0.00     0.029 A 
ATOM     53  C   UNL A   1      43.023  31.720  29.379  1.00  0.00     0.049 A 
ATOM     54  H   UNL A   1      42.463  29.790  28.739  1.00  0.00     0.167 HD
ATOM     55  C   UNL A   1      44.991  30.929  28.085  1.00  0.00     0.074 A 
ATOM     56  C   UNL A   1      46.320  31.100  27.536  1.00  0.00     0.031 C 
ATOM     57  C   UNL A   1      44.352  31.863  28.835  1.00  0.00     0.034 A 
BRANCH  44  58
ATOM     58  C   UNL A   1      38.674  30.190  30.693  1.00  0.00     0.023 A 
ATOM     59  C   UNL A   1      37.634  30.873  30.038  1.00  0.00     0.031 A 
ATOM     60  C   UNL A   1      38.509  29.893  32.057  1.00  0.00     0.131 A 
ATOM     61  C   UNL A   1      36.518  31.312  30.765  1.00  0.00     0.055 A 
ATOM     62  C   UNL A   1      37.354  30.255  32.755  1.00  0.00     0.041 A 
ATOM     63  F   UNL A   1      39.475  29.260  32.742  1.00  0.00    -0.206 F 
ATOM     64  C   UNL A   1      36.358  30.985  32.113  1.00  0.00     0.022 A 
BRANCH  61  65
ATOM     65  S   UNL A   1      35.358  32.449  29.959  1.00  0.00     0.124 S 
ATOM     66  O   UNL A   1      34.879  31.637  28.843  1.00  0.00    -0.237 OA
ATOM     67  O   UNL A   1      34.391  32.716  31.017  1.00  0.00    -0.237 OA
ATOM     68  O   UNL A   1      36.198  33.584  29.579  1.00  0.00    -0.744 OA
ENDBRANCH  61  65
ENDBRANCH  44  58
BRANCH  45  69
ATOM     69  C   UNL A   1      46.822  27.410  25.540  1.00  0.00     0.023 A 
ATOM     70  C   UNL A   1      46.964  27.874  24.223  1.00  0.00     0.031 A 
ATOM     71  C   UNL A   1      47.814  26.551  26.047  1.00  0.00     0.131 A 
ATOM     72  C   UNL A   1      48.046  27.440  23.440  1.00  0.00     0.055 A 
ATOM     73  C   UNL A   1      48.915  26.163  25.282  1.00  0.00     0.041 A 
ATOM     74  F   UNL A   1      47.731  26.086  27.304  1.00  0.00    -0.206 F 
ATOM     75  C   UNL A   1      49.028  26.597  23.964  1.00  0.00     0.022 A 
BRANCH  72  76
ATOM     76  S   UNL A   1      48.105  27.930  21.695  1.00  0.00     0.124 S 
ATOM     77  O   UNL A   1      48.279  26.643  21.032  1.00  0.00    -0.237 OA
ATOM     78  O   UNL A   1      46.809  28.575  21.519  1.00  0.00    -0.237 OA
ATOM     79  O   UNL A   1      49.258  28.826  21.633  1.00  0.00    -0.744 OA
ENDBRANCH  72  76
ENDBRANCH  45  69
BRANCH  57  80
ATOM     80  C   UNL A   1      45.115  33.117  29.171  1.00  0.00     0.023 A 
ATOM     81  C   UNL A   1      45.078  34.254  28.348  1.00  0.00     0.031 A 
ATOM     82  C   UNL A   1      45.870  33.176  30.357  1.00  0.00     0.131 A 
ATOM     83  C   UNL A   1      45.812  35.395  28.707  1.00  0.00     0.055 A 
ATOM     84  C   UNL A   1      46.559  34.329  30.731  1.00  0.00     0.041 A 
ATOM     85  F   UNL A   1      45.935  32.114  31.177  1.00  0.00    -0.206 F 
ATOM     86  C   UNL A   1      46.539  35.445  29.901  1.00  0.00     0.022 A 
BRANCH  83  87
ATOM     87  S   UNL A   1      45.844  36.807  27.568  1.00  0.00     0.124 S 
ATOM     88  O   UNL A   1      44.520  37.386  27.766  1.00  0.00    -0.237 OA
ATOM     89  O   UNL A   1      46.965  37.593  28.074  1.00  0.00    -0.237 OA
ATOM     90  O   UNL A   1      46.063  36.190  26.262  1.00  0.00    -0.744 OA
ENDBRANCH  83  87
ENDBRANCH  57  80
ENDBRANCH  31  32
ENDBRANCH  23  26
ENDBRANCH  21  22
ENDBRANCH   1  21
TORSDOF 15
ENDMDL
MODEL 3
REMARK VINA RESULT:     -11.9      2.501      3.287
REMARK SMILES Cc1cscc1C(=O)N1CC[C@H](C(=O)NCCCNC(=O)c2ccc(-c3c4nc(c(-c5cc(S(=O)(=O)[O-])ccc5F)c5ccc([nH]5)c(-c5cc(S(=O)(=O)[O-])ccc5F)c5nc(c(-c6cc(S(=O)(=O)[O-])ccc6F)c6ccc3[nH]6)C=C5)C=C4)cc2)[C@H]1C
REMARK SMILES IDX 17 1 16 2 15 3 13 4 14 5 12 7 9 8 10 9 85 10 11 11 86 12
REMARK SMILES IDX 7 13 8 14 6 15 1 16 2 17 3 18 4 19 5 20 18 21 19 22 20 23
REMARK SMILES IDX 21 25 22 26 23 27 84 28 24 29 83 30 25 31 26 32 27 33 77 34
REMARK SMILES IDX 28 35 82 36 76 37 78 38 29 39 81 40 75 41 74 42 30 44 62 45
REMARK SMILES IDX 42 46 61 47 43 48 46 49 60 50 79 51 44 52 45 53 59 55 80 56
REMARK SMILES IDX 47 57 31 58 32 59 40 60 33 61 39 62 41 63 38 64 34 65 35 66
REMARK SMILES IDX 36 67 37 68 63 69 64 70 72 71 65 72 71 73 73 74 70 75 66 76
REMARK SMILES IDX 67 77 68 78 69 79 48 80 49 81 57 82 50 83 56 84 58 85 55 86
REMARK SMILES IDX 51 87 52 88 53 89 54 90
REMARK H PARENT 15 6 19 24 78 43 46 54
REMARK Flexibility Score: inf
ROOT
ATOM      1  C   UNL A   1      32.943  29.237  24.123  1.00  0.00     0.042 C 
ENDROOT
BRANCH   1   2
ATOM      2  C   UNL A   1      31.507  29.028  23.678  1.00  0.00     0.117 C 
BRANCH   2   3
ATOM      3  N   UNL A   1      31.404  28.158  22.519  1.00  0.00    -0.356 N 
ATOM      4  C   UNL A   1      31.426  26.798  22.442  1.00  0.00     0.225 C 
ATOM      5  O   UNL A   1      31.382  26.288  21.324  1.00  0.00    -0.275 OA
ATOM      6  H   UNL A   1      31.301  28.622  21.657  1.00  0.00     0.163 HD
BRANCH   4   7
ATOM      7  C   UNL A   1      31.551  25.988  23.723  1.00  0.00     0.102 C 
ATOM      8  N   UNL A   1      32.859  23.966  23.644  1.00  0.00    -0.335 N 
ATOM      9  C   UNL A   1      31.545  23.687  23.109  1.00  0.00     0.121 C 
ATOM     10  C   UNL A   1      32.975  25.410  23.916  1.00  0.00     0.094 C 
ATOM     11  C   UNL A   1      30.658  24.743  23.719  1.00  0.00     0.037 C 
ATOM     12  C   UNL A   1      33.481  25.701  25.328  1.00  0.00     0.032 C 
BRANCH   8  13
ATOM     13  C   UNL A   1      33.911  23.323  23.001  1.00  0.00     0.255 C 
ATOM     14  O   UNL A   1      34.019  23.324  21.776  1.00  0.00    -0.269 OA
BRANCH  13  15
ATOM     15  C   UNL A   1      34.856  22.591  23.854  1.00  0.00     0.053 A 
ATOM     16  C   UNL A   1      33.439  20.543  24.709  1.00  0.00     0.046 C 
ATOM     17  C   UNL A   1      34.677  21.373  24.627  1.00  0.00    -0.028 A 
ATOM     18  C   UNL A   1      35.848  21.021  25.278  1.00  0.00     0.069 A 
ATOM     19  S   UNL A   1      37.149  22.068  24.944  1.00  0.00    -0.151 S 
ATOM     20  C   UNL A   1      36.172  23.026  23.932  1.00  0.00     0.079 A 
ENDBRANCH  13  15
ENDBRANCH   8  13
ENDBRANCH   4   7
ENDBRANCH   2   3
ENDBRANCH   1   2
BRANCH   1  21
ATOM     21  C   UNL A   1      33.111  29.426  25.623  1.00  0.00     0.118 C 
BRANCH  21  22
ATOM     22  N   UNL A   1      32.646  30.726  26.090  1.00  0.00    -0.352 N 
ATOM     23  C   UNL A   1      33.176  31.554  27.053  1.00  0.00     0.251 C 
ATOM     24  H   UNL A   1      31.832  31.061  25.649  1.00  0.00     0.163 HD
ATOM     25  O   UNL A   1      32.545  32.531  27.430  1.00  0.00    -0.269 OA
BRANCH  23  26
ATOM     26  C   UNL A   1      34.491  31.229  27.646  1.00  0.00     0.039 A 
ATOM     27  C   UNL A   1      35.455  32.234  27.762  1.00  0.00     0.014 A 
ATOM     28  C   UNL A   1      34.756  29.941  28.114  1.00  0.00     0.014 A 
ATOM     29  C   UNL A   1      36.653  31.966  28.432  1.00  0.00     0.010 A 
ATOM     30  C   UNL A   1      35.903  29.704  28.859  1.00  0.00     0.010 A 
ATOM     31  C   UNL A   1      36.866  30.713  29.026  1.00  0.00    -0.014 A 
BRANCH  31  32
ATOM     32  C   UNL A   1      38.093  30.398  29.804  1.00  0.00     0.031 A 
ATOM     33  C   UNL A   1      39.091  29.426  29.233  1.00  0.00     0.074 A 
ATOM     34  C   UNL A   1      38.255  30.887  31.049  1.00  0.00     0.049 A 
ATOM     35  N   UNL A   1      40.105  28.839  29.812  1.00  0.00    -0.248 NA
ATOM     36  C   UNL A   1      38.885  29.030  27.831  1.00  0.00     0.031 C 
ATOM     37  C   UNL A   1      37.347  31.819  31.721  1.00  0.00     0.029 A 
ATOM     38  N   UNL A   1      39.233  30.649  31.983  1.00  0.00    -0.354 N 
ATOM     39  C   UNL A   1      40.634  27.975  28.858  1.00  0.00     0.074 A 
ATOM     40  C   UNL A   1      39.793  28.078  27.686  1.00  0.00     0.031 C 
ATOM     41  C   UNL A   1      37.816  32.080  32.951  1.00  0.00     0.029 A 
ATOM     42  C   UNL A   1      39.026  31.295  33.179  1.00  0.00     0.049 A 
ATOM     43  H   UNL A   1      40.011  30.070  31.813  1.00  0.00     0.167 HD
ATOM     44  C   UNL A   1      41.732  27.186  28.947  1.00  0.00     0.034 A 
ATOM     45  C   UNL A   1      39.716  31.240  34.336  1.00  0.00     0.034 A 
ATOM     46  C   UNL A   1      42.579  27.125  30.112  1.00  0.00     0.049 A 
ATOM     47  C   UNL A   1      40.931  30.349  34.417  1.00  0.00     0.074 A 
ATOM     48  C   UNL A   1      43.742  26.399  30.298  1.00  0.00     0.029 A 
ATOM     49  N   UNL A   1      42.354  27.826  31.291  1.00  0.00    -0.354 N 
ATOM     50  N   UNL A   1      41.429  29.548  33.503  1.00  0.00    -0.248 NA
ATOM     51  C   UNL A   1      41.680  30.357  35.680  1.00  0.00     0.031 C 
ATOM     52  C   UNL A   1      44.192  26.620  31.605  1.00  0.00     0.029 A 
ATOM     53  C   UNL A   1      43.348  27.536  32.211  1.00  0.00     0.049 A 
ATOM     54  H   UNL A   1      41.599  28.436  31.449  1.00  0.00     0.167 HD
ATOM     55  C   UNL A   1      42.572  28.991  34.068  1.00  0.00     0.074 A 
ATOM     56  C   UNL A   1      42.688  29.544  35.402  1.00  0.00     0.031 C 
ATOM     57  C   UNL A   1      43.453  28.110  33.531  1.00  0.00     0.034 A 
BRANCH  44  58
ATOM     58  C   UNL A   1      42.057  26.314  27.758  1.00  0.00     0.023 A 
ATOM     59  C   UNL A   1      41.589  24.992  27.664  1.00  0.00     0.031 A 
ATOM     60  C   UNL A   1      42.883  26.795  26.726  1.00  0.00     0.131 A 
ATOM     61  C   UNL A   1      42.019  24.171  26.611  1.00  0.00     0.055 A 
ATOM     62  C   UNL A   1      43.235  25.999  25.634  1.00  0.00     0.041 A 
ATOM     63  F   UNL A   1      43.378  28.043  26.770  1.00  0.00    -0.206 F 
ATOM     64  C   UNL A   1      42.817  24.673  25.581  1.00  0.00     0.022 A 
BRANCH  61  65
ATOM     65  S   UNL A   1      41.645  22.398  26.695  1.00  0.00     0.124 S 
ATOM     66  O   UNL A   1      42.467  21.979  27.827  1.00  0.00    -0.237 OA
ATOM     67  O   UNL A   1      40.203  22.389  26.914  1.00  0.00    -0.237 OA
ATOM     68  O   UNL A   1      42.083  21.894  25.394  1.00  0.00    -0.744 OA
ENDBRANCH  61  65
ENDBRANCH  44  58
BRANCH  45  69
ATOM     69  C   UNL A   1      39.277  32.033  35.519  1.00  0.00     0.023 A 
ATOM     70  C   UNL A   1      38.554  31.431  36.561  1.00  0.00     0.031 A 
ATOM     71  C   UNL A   1      39.537  33.413  35.608  1.00  0.00     0.131 A 
ATOM     72  C   UNL A   1      38.075  32.213  37.625  1.00  0.00     0.055 A 
ATOM     73  C   UNL A   1      39.102  34.177  36.693  1.00  0.00     0.041 A 
ATOM     74  F   UNL A   1      40.231  34.036  34.643  1.00  0.00    -0.206 F 
ATOM     75  C   UNL A   1      38.354  33.579  37.703  1.00  0.00     0.022 A 
BRANCH  72  76
ATOM     76  S   UNL A   1      37.009  31.430  38.865  1.00  0.00     0.124 S 
ATOM     77  O   UNL A   1      35.851  32.317  38.861  1.00  0.00    -0.237 OA
ATOM     78  O   UNL A   1      36.805  30.104  38.293  1.00  0.00    -0.237 OA
ATOM     79  O   UNL A   1      37.819  31.465  40.080  1.00  0.00    -0.744 OA
ENDBRANCH  72  76
ENDBRANCH  45  69
BRANCH  57  80
ATOM     80  C   UNL A   1      44.660  27.751  34.356  1.00  0.00     0.023 A 
ATOM     81  C   UNL A   1      44.667  26.649  35.226  1.00  0.00     0.031 A 
ATOM     82  C   UNL A   1      45.834  28.518  34.242  1.00  0.00     0.131 A 
ATOM     83  C   UNL A   1      45.818  26.363  35.976  1.00  0.00     0.055 A 
ATOM     84  C   UNL A   1      46.989  28.201  34.954  1.00  0.00     0.041 A 
ATOM     85  F   UNL A   1      45.877  29.581  33.423  1.00  0.00    -0.206 F 
ATOM     86  C   UNL A   1      46.984  27.122  35.833  1.00  0.00     0.022 A 
BRANCH  83  87
ATOM     87  S   UNL A   1      45.762  25.007  37.179  1.00  0.00     0.124 S 
ATOM     88  O   UNL A   1      44.806  24.093  36.562  1.00  0.00    -0.237 OA
ATOM     89  O   UNL A   1      47.149  24.553  37.206  1.00  0.00    -0.237 OA
ATOM     90  O   UNL A   1      45.300  25.654  38.405  1.00  0.00    -0.744 OA
ENDBRANCH  83  87
ENDBRANCH  57  80
ENDBRANCH  31  32
ENDBRANCH  23  26
ENDBRANCH  21  22
ENDBRANCH   1  21
TORSDOF 15
ENDMDL
