MODEL 1
REMARK VINA RESULT:     -12.4      0.000      0.000
REMARK SMILES O=C(NCCCNC(=O)[C@H]1CC2(CCN(C(=O)c3cc4ccccc4[nH]3)CC2)CN1C(=O)C1CC1)c1ccc(-c2c3nc(c(-c4cc(S(=O)(=O)[O-])ccc4F)c4ccc([nH]4)c(-c4cc(S(=O)(=O)[O-])ccc4F)c4nc(c(-c5cc(S(=O)(=O)[O-])ccc5F)c5ccc2[nH]5)C=C4)C=C3)cc1
REMARK SMILES IDX 4 1 3 2 1 3 2 4 36 6 37 7 98 8 38 9 97 10 39 11 40 12 41 13
REMARK SMILES IDX 91 14 42 15 96 16 90 17 92 18 43 19 95 20 89 21 88 22 44 24
REMARK SMILES IDX 76 25 56 26 75 27 57 28 60 29 74 30 93 31 58 32 59 33 73 35
REMARK SMILES IDX 94 36 61 37 45 38 46 39 54 40 47 41 53 42 55 43 52 44 48 45
REMARK SMILES IDX 49 46 50 47 51 48 77 49 78 50 86 51 79 52 85 53 87 54 84 55
REMARK SMILES IDX 80 56 81 57 82 58 83 59 62 60 63 61 71 62 64 63 70 64 72 65
REMARK SMILES IDX 69 66 65 67 66 68 67 69 68 70 5 71 6 72 7 73 8 74 9 76 10 77
REMARK SMILES IDX 11 78 30 79 12 80 29 81 13 82 28 83 14 84 27 85 15 86 16 87
REMARK SMILES IDX 17 88 31 89 32 90 33 91 34 92 35 93 18 94 19 95 26 96 20 97
REMARK SMILES IDX 25 98 21 100 24 101 22 102 23 103
REMARK H PARENT 3 5 92 23 60 34 7 75 26 99
REMARK Flexibility Score: inf
ROOT
ATOM      1  C   UNL A   1      47.443  37.460  27.195  1.00  0.00     0.118 C 
ENDROOT
BRANCH   1   2
ATOM      2  N   UNL A   1      47.211  37.721  28.608  1.00  0.00    -0.352 N 
ATOM      3  O   UNL A   1      46.208  37.632  30.603  1.00  0.00    -0.269 OA
ATOM      4  C   UNL A   1      46.439  37.069  29.535  1.00  0.00     0.251 C 
ATOM      5  H   UNL A   1      47.691  38.504  28.960  1.00  0.00     0.163 HD
BRANCH   4   6
ATOM      6  C   UNL A   1      45.885  35.720  29.278  1.00  0.00     0.039 A 
ATOM      7  C   UNL A   1      46.209  34.627  30.085  1.00  0.00     0.014 A 
ATOM      8  C   UNL A   1      44.939  35.570  28.258  1.00  0.00     0.014 A 
ATOM      9  C   UNL A   1      45.682  33.369  29.804  1.00  0.00     0.010 A 
ATOM     10  C   UNL A   1      44.355  34.323  28.022  1.00  0.00     0.010 A 
ATOM     11  C   UNL A   1      44.739  33.206  28.779  1.00  0.00    -0.014 A 
BRANCH  11  12
ATOM     12  C   UNL A   1      44.124  31.877  28.536  1.00  0.00     0.031 A 
ATOM     13  C   UNL A   1      42.802  31.522  29.154  1.00  0.00     0.074 A 
ATOM     14  C   UNL A   1      44.775  30.982  27.769  1.00  0.00     0.049 A 
ATOM     15  N   UNL A   1      42.144  30.392  29.109  1.00  0.00    -0.248 NA
ATOM     16  C   UNL A   1      42.144  32.573  29.941  1.00  0.00     0.031 C 
ATOM     17  C   UNL A   1      46.074  31.206  27.129  1.00  0.00     0.029 A 
ATOM     18  N   UNL A   1      44.439  29.704  27.402  1.00  0.00    -0.354 N 
ATOM     19  C   UNL A   1      41.001  30.587  29.877  1.00  0.00     0.074 A 
ATOM     20  C   UNL A   1      41.077  31.936  30.401  1.00  0.00     0.031 C 
ATOM     21  C   UNL A   1      46.421  30.106  26.443  1.00  0.00     0.029 A 
ATOM     22  C   UNL A   1      45.396  29.086  26.633  1.00  0.00     0.049 A 
ATOM     23  H   UNL A   1      43.595  29.272  27.664  1.00  0.00     0.167 HD
ATOM     24  C   UNL A   1      39.983  29.722  30.116  1.00  0.00     0.034 A 
ATOM     25  C   UNL A   1      45.458  27.828  26.157  1.00  0.00     0.034 A 
ATOM     26  C   UNL A   1      39.920  28.384  29.582  1.00  0.00     0.049 A 
ATOM     27  C   UNL A   1      44.332  26.880  26.449  1.00  0.00     0.074 A 
ATOM     28  C   UNL A   1      38.916  27.440  29.725  1.00  0.00     0.029 A 
ATOM     29  N   UNL A   1      40.911  27.791  28.810  1.00  0.00    -0.354 N 
ATOM     30  N   UNL A   1      43.251  27.083  27.165  1.00  0.00    -0.248 NA
ATOM     31  C   UNL A   1      44.433  25.535  25.870  1.00  0.00     0.031 C 
ATOM     32  C   UNL A   1      39.321  26.264  29.079  1.00  0.00     0.029 A 
ATOM     33  C   UNL A   1      40.555  26.489  28.490  1.00  0.00     0.049 A 
ATOM     34  H   UNL A   1      41.746  28.231  28.531  1.00  0.00     0.167 HD
ATOM     35  C   UNL A   1      42.537  25.892  27.115  1.00  0.00     0.074 A 
ATOM     36  C   UNL A   1      43.306  24.978  26.294  1.00  0.00     0.031 C 
ATOM     37  C   UNL A   1      41.346  25.586  27.690  1.00  0.00     0.034 A 
BRANCH  24  38
ATOM     38  C   UNL A   1      38.883  30.199  31.032  1.00  0.00     0.023 A 
ATOM     39  C   UNL A   1      37.724  30.819  30.532  1.00  0.00     0.031 A 
ATOM     40  C   UNL A   1      39.021  30.087  32.426  1.00  0.00     0.131 A 
ATOM     41  C   UNL A   1      36.789  31.375  31.419  1.00  0.00     0.055 A 
ATOM     42  C   UNL A   1      38.051  30.576  33.303  1.00  0.00     0.041 A 
ATOM     43  F   UNL A   1      40.116  29.522  32.961  1.00  0.00    -0.206 F 
ATOM     44  C   UNL A   1      36.936  31.241  32.802  1.00  0.00     0.022 A 
BRANCH  41  45
ATOM     45  S   UNL A   1      35.468  32.418  30.740  1.00  0.00     0.124 S 
ATOM     46  O   UNL A   1      34.436  32.300  31.768  1.00  0.00    -0.237 OA
ATOM     47  O   UNL A   1      36.118  33.718  30.634  1.00  0.00    -0.237 OA
ATOM     48  O   UNL A   1      35.144  31.774  29.468  1.00  0.00    -0.744 OA
ENDBRANCH  41  45
ENDBRANCH  24  38
BRANCH  25  49
ATOM     49  C   UNL A   1      46.660  27.393  25.400  1.00  0.00     0.023 A 
ATOM     50  C   UNL A   1      46.859  27.777  24.067  1.00  0.00     0.031 A 
ATOM     51  C   UNL A   1      47.645  26.608  26.025  1.00  0.00     0.131 A 
ATOM     52  C   UNL A   1      48.018  27.362  23.393  1.00  0.00     0.055 A 
ATOM     53  C   UNL A   1      48.809  26.224  25.360  1.00  0.00     0.041 A 
ATOM     54  F   UNL A   1      47.501  26.234  27.306  1.00  0.00    -0.206 F 
ATOM     55  C   UNL A   1      48.998  26.597  24.033  1.00  0.00     0.022 A 
BRANCH  52  56
ATOM     56  S   UNL A   1      48.230  27.834  21.656  1.00  0.00     0.124 S 
ATOM     57  O   UNL A   1      49.291  28.831  21.744  1.00  0.00    -0.237 OA
ATOM     58  O   UNL A   1      48.593  26.564  21.036  1.00  0.00    -0.237 OA
ATOM     59  O   UNL A   1      46.915  28.352  21.280  1.00  0.00    -0.744 OA
ENDBRANCH  52  56
ENDBRANCH  25  49
BRANCH  37  60
ATOM     60  C   UNL A   1      40.800  24.213  27.416  1.00  0.00     0.023 A 
ATOM     61  C   UNL A   1      39.677  24.021  26.593  1.00  0.00     0.031 A 
ATOM     62  C   UNL A   1      41.405  23.086  27.996  1.00  0.00     0.131 A 
ATOM     63  C   UNL A   1      39.171  22.727  26.400  1.00  0.00     0.055 A 
ATOM     64  C   UNL A   1      40.921  21.798  27.770  1.00  0.00     0.041 A 
ATOM     65  F   UNL A   1      42.478  23.222  28.791  1.00  0.00    -0.206 F 
ATOM     66  C   UNL A   1      39.793  21.614  26.974  1.00  0.00     0.022 A 
BRANCH  63  67
ATOM     67  S   UNL A   1      37.660  22.515  25.419  1.00  0.00     0.124 S 
ATOM     68  O   UNL A   1      36.635  22.444  26.455  1.00  0.00    -0.237 OA
ATOM     69  O   UNL A   1      37.650  23.717  24.592  1.00  0.00    -0.237 OA
ATOM     70  O   UNL A   1      37.895  21.268  24.693  1.00  0.00    -0.744 OA
ENDBRANCH  63  67
ENDBRANCH  37  60
ENDBRANCH  11  12
ENDBRANCH   4   6
ENDBRANCH   1   2
BRANCH   1  71
ATOM     71  C   UNL A   1      46.706  38.443  26.292  1.00  0.00     0.042 C 
BRANCH  71  72
ATOM     72  C   UNL A   1      46.044  39.595  27.034  1.00  0.00     0.117 C 
BRANCH  72  73
ATOM     73  N   UNL A   1      44.718  39.920  26.525  1.00  0.00    -0.354 N 
ATOM     74  C   UNL A   1      44.321  40.986  25.757  1.00  0.00     0.242 C 
ATOM     75  H   UNL A   1      44.006  39.286  26.768  1.00  0.00     0.163 HD
ATOM     76  O   UNL A   1      43.172  40.999  25.317  1.00  0.00    -0.273 OA
BRANCH  74  77
ATOM     77  C   UNL A   1      45.373  42.052  25.411  1.00  0.00     0.175 C 
ATOM     78  C   UNL A   1      44.960  42.604  24.041  1.00  0.00     0.044 C 
ATOM     79  N   UNL A   1      45.489  43.270  26.209  1.00  0.00    -0.330 N 
ATOM     80  C   UNL A   1      45.638  43.976  23.915  1.00  0.00    -0.006 C 
ATOM     81  C   UNL A   1      45.787  44.425  25.378  1.00  0.00     0.127 C 
ATOM     82  C   UNL A   1      44.744  44.948  23.128  1.00  0.00     0.030 C 
ATOM     83  C   UNL A   1      47.001  43.877  23.195  1.00  0.00     0.030 C 
ATOM     84  C   UNL A   1      44.579  44.489  21.686  1.00  0.00     0.120 C 
ATOM     85  C   UNL A   1      46.876  43.559  21.697  1.00  0.00     0.120 C 
ATOM     86  N   UNL A   1      45.877  44.387  21.020  1.00  0.00    -0.337 N 
ATOM     87  C   UNL A   1      46.069  44.662  19.659  1.00  0.00     0.270 C 
ATOM     88  O   UNL A   1      47.018  44.194  19.032  1.00  0.00    -0.267 OA
BRANCH  79  89
ATOM     89  C   UNL A   1      45.661  43.381  27.575  1.00  0.00     0.226 C 
ATOM     90  O   UNL A   1      44.787  43.836  28.312  1.00  0.00    -0.275 OA
BRANCH  89  91
ATOM     91  C   UNL A   1      46.888  42.819  28.193  1.00  0.00     0.079 C 
ATOM     92  C   UNL A   1      48.261  42.887  27.576  1.00  0.00     0.014 C 
ATOM     93  C   UNL A   1      47.933  43.771  28.739  1.00  0.00     0.014 C 
ENDBRANCH  89  91
ENDBRANCH  79  89
BRANCH  87  94
ATOM     94  C   UNL A   1      45.097  45.517  19.014  1.00  0.00     0.105 A 
ATOM     95  C   UNL A   1      44.963  46.891  19.097  1.00  0.00     0.042 A 
ATOM     96  N   UNL A   1      44.060  45.072  18.225  1.00  0.00    -0.351 N 
ATOM     97  C   UNL A   1      43.928  47.290  18.206  1.00  0.00     0.000 A 
ATOM     98  C   UNL A   1      43.394  46.129  17.654  1.00  0.00     0.046 A 
ATOM     99  H   UNL A   1      43.827  44.124  18.090  1.00  0.00     0.167 HD
ATOM    100  C   UNL A   1      43.406  48.534  17.804  1.00  0.00     0.010 A 
ATOM    101  C   UNL A   1      42.368  46.143  16.703  1.00  0.00     0.026 A 
ATOM    102  C   UNL A   1      42.383  48.569  16.849  1.00  0.00     0.001 A 
ATOM    103  C   UNL A   1      41.877  47.390  16.305  1.00  0.00     0.002 A 
ENDBRANCH  87  94
ENDBRANCH  74  77
ENDBRANCH  72  73
ENDBRANCH  71  72
ENDBRANCH   1  71
TORSDOF 16
ENDMDL
MODEL 2
REMARK VINA RESULT:     -12.3     10.453     19.653
REMARK SMILES O=C(NCCCNC(=O)[C@H]1CC2(CCN(C(=O)c3cc4ccccc4[nH]3)CC2)CN1C(=O)C1CC1)c1ccc(-c2c3nc(c(-c4cc(S(=O)(=O)[O-])ccc4F)c4ccc([nH]4)c(-c4cc(S(=O)(=O)[O-])ccc4F)c4nc(c(-c5cc(S(=O)(=O)[O-])ccc5F)c5ccc2[nH]5)C=C4)C=C3)cc1
REMARK SMILES IDX 4 1 3 2 1 3 2 4 36 6 37 7 98 8 38 9 97 10 39 11 40 12 41 13
REMARK SMILES IDX 91 14 42 15 96 16 90 17 92 18 43 19 95 20 89 21 88 22 44 24
REMARK SMILES IDX 76 25 56 26 75 27 57 28 60 29 74 30 93 31 58 32 59 33 73 35
REMARK SMILES IDX 94 36 61 37 45 38 46 39 54 40 47 41 53 42 55 43 52 44 48 45
REMARK SMILES IDX 49 46 50 47 51 48 77 49 78 50 86 51 79 52 85 53 87 54 84 55
REMARK SMILES IDX 80 56 81 57 82 58 83 59 62 60 63 61 71 62 64 63 70 64 72 65
REMARK SMILES IDX 69 66 65 67 66 68 67 69 68 70 5 71 6 72 7 73 8 74 9 76 10 77
REMARK SMILES IDX 11 78 30 79 12 80 29 81 13 82 28 83 14 84 27 85 15 86 16 87
REMARK SMILES IDX 17 88 31 89 32 90 33 91 34 92 35 93 18 94 19 95 26 96 20 97
REMARK SMILES IDX 25 98 21 100 24 101 22 102 23 103
REMARK H PARENT 3 5 92 23 60 34 7 75 26 99
REMARK Flexibility Score: inf
ROOT
ATOM      1  C   UNL A   1      48.073  24.179  35.227  1.00  0.00     0.118 C 
ENDROOT
BRANCH   1   2
ATOM      2  N   UNL A   1      47.949  24.878  36.497  1.00  0.00    -0.352 N 
ATOM      3  O   UNL A   1      47.458  26.524  37.927  1.00  0.00    -0.269 OA
ATOM      4  C   UNL A   1      47.199  25.966  36.864  1.00  0.00     0.251 C 
ATOM      5  H   UNL A   1      48.500  24.504  37.221  1.00  0.00     0.163 HD
BRANCH   4   6
ATOM      6  C   UNL A   1      46.099  26.476  36.013  1.00  0.00     0.039 A 
ATOM      7  C   UNL A   1      44.820  25.915  36.050  1.00  0.00     0.014 A 
ATOM      8  C   UNL A   1      46.333  27.611  35.228  1.00  0.00     0.014 A 
ATOM      9  C   UNL A   1      43.814  26.410  35.224  1.00  0.00     0.010 A 
ATOM     10  C   UNL A   1      45.303  28.152  34.454  1.00  0.00     0.010 A 
ATOM     11  C   UNL A   1      44.040  27.542  34.428  1.00  0.00    -0.014 A 
BRANCH  11  12
ATOM     12  C   UNL A   1      42.940  28.109  33.609  1.00  0.00     0.031 A 
ATOM     13  C   UNL A   1      41.948  29.060  34.216  1.00  0.00     0.074 A 
ATOM     14  C   UNL A   1      42.828  27.747  32.317  1.00  0.00     0.049 A 
ATOM     15  N   UNL A   1      40.887  29.604  33.678  1.00  0.00    -0.248 NA
ATOM     16  C   UNL A   1      42.171  29.432  35.620  1.00  0.00     0.031 C 
ATOM     17  C   UNL A   1      43.721  26.817  31.622  1.00  0.00     0.029 A 
ATOM     18  N   UNL A   1      41.915  28.110  31.361  1.00  0.00    -0.354 N 
ATOM     19  C   UNL A   1      40.302  30.370  34.681  1.00  0.00     0.074 A 
ATOM     20  C   UNL A   1      41.114  30.190  35.867  1.00  0.00     0.031 C 
ATOM     21  C   UNL A   1      43.315  26.689  30.349  1.00  0.00     0.029 A 
ATOM     22  C   UNL A   1      42.111  27.487  30.152  1.00  0.00     0.049 A 
ATOM     23  H   UNL A   1      41.189  28.754  31.525  1.00  0.00     0.167 HD
ATOM     24  C   UNL A   1      39.196  31.153  34.613  1.00  0.00     0.034 A 
ATOM     25  C   UNL A   1      41.385  27.527  29.019  1.00  0.00     0.034 A 
ATOM     26  C   UNL A   1      38.402  31.326  33.421  1.00  0.00     0.049 A 
ATOM     27  C   UNL A   1      40.154  28.383  28.970  1.00  0.00     0.074 A 
ATOM     28  C   UNL A   1      37.289  32.128  33.229  1.00  0.00     0.029 A 
ATOM     29  N   UNL A   1      38.630  30.673  32.216  1.00  0.00    -0.354 N 
ATOM     30  N   UNL A   1      39.621  29.112  29.921  1.00  0.00    -0.248 NA
ATOM     31  C   UNL A   1      39.427  28.422  27.695  1.00  0.00     0.031 C 
ATOM     32  C   UNL A   1      36.819  31.925  31.924  1.00  0.00     0.029 A 
ATOM     33  C   UNL A   1      37.667  31.035  31.285  1.00  0.00     0.049 A 
ATOM     34  H   UNL A   1      39.369  30.045  32.046  1.00  0.00     0.167 HD
ATOM     35  C   UNL A   1      38.499  29.706  29.357  1.00  0.00     0.074 A 
ATOM     36  C   UNL A   1      38.434  29.255  27.981  1.00  0.00     0.031 C 
ATOM     37  C   UNL A   1      37.606  30.556  29.926  1.00  0.00     0.034 A 
BRANCH  24  38
ATOM     38  C   UNL A   1      38.768  31.842  35.886  1.00  0.00     0.023 A 
ATOM     39  C   UNL A   1      38.136  31.140  36.927  1.00  0.00     0.031 A 
ATOM     40  C   UNL A   1      38.940  33.229  36.035  1.00  0.00     0.131 A 
ATOM     41  C   UNL A   1      37.626  31.837  38.033  1.00  0.00     0.055 A 
ATOM     42  C   UNL A   1      38.497  33.906  37.172  1.00  0.00     0.041 A 
ATOM     43  F   UNL A   1      39.519  33.954  35.064  1.00  0.00    -0.206 F 
ATOM     44  C   UNL A   1      37.819  33.213  38.171  1.00  0.00     0.022 A 
BRANCH  41  45
ATOM     45  S   UNL A   1      36.565  30.944  39.203  1.00  0.00     0.124 S 
ATOM     46  O   UNL A   1      35.436  31.861  39.343  1.00  0.00    -0.237 OA
ATOM     47  O   UNL A   1      36.293  29.700  38.494  1.00  0.00    -0.237 OA
ATOM     48  O   UNL A   1      37.402  30.816  40.395  1.00  0.00    -0.744 OA
ENDBRANCH  41  45
ENDBRANCH  24  38
BRANCH  25  49
ATOM     49  C   UNL A   1      41.790  26.686  27.863  1.00  0.00     0.023 A 
ATOM     50  C   UNL A   1      41.454  25.327  27.798  1.00  0.00     0.031 A 
ATOM     51  C   UNL A   1      42.495  27.254  26.787  1.00  0.00     0.131 A 
ATOM     52  C   UNL A   1      41.837  24.572  26.679  1.00  0.00     0.055 A 
ATOM     53  C   UNL A   1      42.848  26.506  25.664  1.00  0.00     0.041 A 
ATOM     54  F   UNL A   1      42.821  28.555  26.802  1.00  0.00    -0.206 F 
ATOM     55  C   UNL A   1      42.522  25.154  25.608  1.00  0.00     0.022 A 
BRANCH  52  56
ATOM     56  S   UNL A   1      41.430  22.805  26.641  1.00  0.00     0.124 S 
ATOM     57  O   UNL A   1      41.945  22.352  27.928  1.00  0.00    -0.237 OA
ATOM     58  O   UNL A   1      39.978  22.829  26.503  1.00  0.00    -0.237 OA
ATOM     59  O   UNL A   1      42.154  22.314  25.470  1.00  0.00    -0.744 OA
ENDBRANCH  52  56
ENDBRANCH  25  49
BRANCH  37  60
ATOM     60  C   UNL A   1      36.506  31.070  29.039  1.00  0.00     0.023 A 
ATOM     61  C   UNL A   1      35.530  30.209  28.508  1.00  0.00     0.031 A 
ATOM     62  C   UNL A   1      36.443  32.435  28.715  1.00  0.00     0.131 A 
ATOM     63  C   UNL A   1      34.547  30.722  27.648  1.00  0.00     0.055 A 
ATOM     64  C   UNL A   1      35.442  32.945  27.890  1.00  0.00     0.041 A 
ATOM     65  F   UNL A   1      37.357  33.292  29.197  1.00  0.00    -0.206 F 
ATOM     66  C   UNL A   1      34.491  32.086  27.345  1.00  0.00     0.022 A 
BRANCH  63  67
ATOM     67  S   UNL A   1      33.362  29.576  26.892  1.00  0.00     0.124 S 
ATOM     68  O   UNL A   1      33.039  28.696  28.009  1.00  0.00    -0.237 OA
ATOM     69  O   UNL A   1      32.295  30.470  26.453  1.00  0.00    -0.237 OA
ATOM     70  O   UNL A   1      34.128  28.953  25.813  1.00  0.00    -0.744 OA
ENDBRANCH  63  67
ENDBRANCH  37  60
ENDBRANCH  11  12
ENDBRANCH   4   6
ENDBRANCH   1   2
BRANCH   1  71
ATOM     71  C   UNL A   1      46.930  23.198  34.987  1.00  0.00     0.042 C 
BRANCH  71  72
ATOM     72  C   UNL A   1      46.624  22.296  36.175  1.00  0.00     0.117 C 
BRANCH  72  73
ATOM     73  N   UNL A   1      46.151  20.974  35.786  1.00  0.00    -0.354 N 
ATOM     74  C   UNL A   1      46.115  19.815  36.520  1.00  0.00     0.242 C 
ATOM     75  H   UNL A   1      45.810  20.902  34.866  1.00  0.00     0.163 HD
ATOM     76  O   UNL A   1      45.545  18.834  36.045  1.00  0.00    -0.273 OA
BRANCH  74  77
ATOM     77  C   UNL A   1      46.706  19.846  37.939  1.00  0.00     0.175 C 
ATOM     78  C   UNL A   1      45.902  18.814  38.739  1.00  0.00     0.044 C 
ATOM     79  N   UNL A   1      48.081  19.418  38.183  1.00  0.00    -0.330 N 
ATOM     80  C   UNL A   1      46.772  18.445  39.950  1.00  0.00    -0.006 C 
ATOM     81  C   UNL A   1      48.201  18.700  39.441  1.00  0.00     0.127 C 
ATOM     82  C   UNL A   1      46.575  16.967  40.324  1.00  0.00     0.030 C 
ATOM     83  C   UNL A   1      46.432  19.309  41.184  1.00  0.00     0.030 C 
ATOM     84  C   UNL A   1      45.154  16.713  40.806  1.00  0.00     0.120 C 
ATOM     85  C   UNL A   1      45.062  18.984  41.796  1.00  0.00     0.120 C 
ATOM     86  N   UNL A   1      44.841  17.546  41.967  1.00  0.00    -0.337 N 
ATOM     87  C   UNL A   1      43.998  17.133  43.008  1.00  0.00     0.270 C 
ATOM     88  O   UNL A   1      43.423  17.942  43.734  1.00  0.00    -0.267 OA
BRANCH  79  89
ATOM     89  C   UNL A   1      49.235  19.868  37.570  1.00  0.00     0.226 C 
ATOM     90  O   UNL A   1      49.526  19.564  36.414  1.00  0.00    -0.275 OA
BRANCH  89  91
ATOM     91  C   UNL A   1      50.091  20.849  38.282  1.00  0.00     0.079 C 
ATOM     92  C   UNL A   1      51.275  21.551  37.667  1.00  0.00     0.014 C 
ATOM     93  C   UNL A   1      50.005  22.311  37.893  1.00  0.00     0.014 C 
ENDBRANCH  89  91
ENDBRANCH  79  89
BRANCH  87  94
ATOM     94  C   UNL A   1      43.824  15.709  43.191  1.00  0.00     0.105 A 
ATOM     95  C   UNL A   1      44.613  14.825  43.905  1.00  0.00     0.042 A 
ATOM     96  N   UNL A   1      42.830  14.958  42.604  1.00  0.00    -0.351 N 
ATOM     97  C   UNL A   1      43.983  13.550  43.881  1.00  0.00     0.000 A 
ATOM     98  C   UNL A   1      42.852  13.667  43.076  1.00  0.00     0.046 A 
ATOM     99  H   UNL A   1      42.191  15.299  41.937  1.00  0.00     0.167 HD
ATOM    100  C   UNL A   1      44.260  12.308  44.483  1.00  0.00     0.010 A 
ATOM    101  C   UNL A   1      41.968  12.607  42.851  1.00  0.00     0.026 A 
ATOM    102  C   UNL A   1      43.383  11.237  44.274  1.00  0.00     0.001 A 
ATOM    103  C   UNL A   1      42.253  11.388  43.473  1.00  0.00     0.002 A 
ENDBRANCH  87  94
ENDBRANCH  74  77
ENDBRANCH  72  73
ENDBRANCH  71  72
ENDBRANCH   1  71
TORSDOF 16
ENDMDL
MODEL 3
REMARK VINA RESULT:     -12.2      7.267     16.693
REMARK SMILES O=C(NCCCNC(=O)[C@H]1CC2(CCN(C(=O)c3cc4ccccc4[nH]3)CC2)CN1C(=O)C1CC1)c1ccc(-c2c3nc(c(-c4cc(S(=O)(=O)[O-])ccc4F)c4ccc([nH]4)c(-c4cc(S(=O)(=O)[O-])ccc4F)c4nc(c(-c5cc(S(=O)(=O)[O-])ccc5F)c5ccc2[nH]5)C=C4)C=C3)cc1
REMARK SMILES IDX 4 1 3 2 1 3 2 4 36 6 37 7 98 8 38 9 97 10 39 11 40 12 41 13
REMARK SMILES IDX 91 14 42 15 96 16 90 17 92 18 43 19 95 20 89 21 88 22 44 24
REMARK SMILES IDX 76 25 56 26 75 27 57 28 60 29 74 30 93 31 58 32 59 33 73 35
REMARK SMILES IDX 94 36 61 37 45 38 46 39 54 40 47 41 53 42 55 43 52 44 48 45
REMARK SMILES IDX 49 46 50 47 51 48 77 49 78 50 86 51 79 52 85 53 87 54 84 55
REMARK SMILES IDX 80 56 81 57 82 58 83 59 62 60 63 61 71 62 64 63 70 64 72 65
REMARK SMILES IDX 69 66 65 67 66 68 67 69 68 70 5 71 6 72 7 73 8 74 9 76 10 77
REMARK SMILES IDX 11 78 30 79 12 80 29 81 13 82 28 83 14 84 27 85 15 86 16 87
REMARK SMILES IDX 17 88 31 89 32 90 33 91 34 92 35 93 18 94 19 95 26 96 20 97
REMARK SMILES IDX 25 98 21 100 24 101 22 102 23 103
REMARK H PARENT 3 5 92 23 60 34 7 75 26 99
REMARK Flexibility Score: inf
ROOT
ATOM      1  C   UNL A   1      37.791  23.232  26.045  1.00  0.00     0.118 C 
ENDROOT
BRANCH   1   2
ATOM      2  N   UNL A   1      38.997  22.428  26.172  1.00  0.00    -0.352 N 
ATOM      3  O   UNL A   1      41.177  21.936  26.203  1.00  0.00    -0.269 OA
ATOM      4  C   UNL A   1      40.304  22.781  26.387  1.00  0.00     0.251 C 
ATOM      5  H   UNL A   1      38.849  21.458  26.088  1.00  0.00     0.163 HD
BRANCH   4   6
ATOM      6  C   UNL A   1      40.679  24.143  26.829  1.00  0.00     0.039 A 
ATOM      7  C   UNL A   1      40.689  25.226  25.946  1.00  0.00     0.014 A 
ATOM      8  C   UNL A   1      40.934  24.359  28.189  1.00  0.00     0.014 A 
ATOM      9  C   UNL A   1      41.062  26.491  26.393  1.00  0.00     0.010 A 
ATOM     10  C   UNL A   1      41.237  25.643  28.650  1.00  0.00     0.010 A 
ATOM     11  C   UNL A   1      41.327  26.716  27.751  1.00  0.00    -0.014 A 
BRANCH  11  12
ATOM     12  C   UNL A   1      41.649  28.083  28.232  1.00  0.00     0.031 A 
ATOM     13  C   UNL A   1      43.073  28.557  28.286  1.00  0.00     0.074 A 
ATOM     14  C   UNL A   1      40.651  28.889  28.639  1.00  0.00     0.049 A 
ATOM     15  N   UNL A   1      43.552  29.689  28.736  1.00  0.00    -0.248 NA
ATOM     16  C   UNL A   1      44.093  27.627  27.783  1.00  0.00     0.031 C 
ATOM     17  C   UNL A   1      39.230  28.532  28.650  1.00  0.00     0.029 A 
ATOM     18  N   UNL A   1      40.677  30.170  29.128  1.00  0.00    -0.354 N 
ATOM     19  C   UNL A   1      44.932  29.602  28.589  1.00  0.00     0.074 A 
ATOM     20  C   UNL A   1      45.210  28.291  28.037  1.00  0.00     0.031 C 
ATOM     21  C   UNL A   1      38.520  29.572  29.115  1.00  0.00     0.029 A 
ATOM     22  C   UNL A   1      39.436  30.647  29.479  1.00  0.00     0.049 A 
ATOM     23  H   UNL A   1      41.503  30.696  29.220  1.00  0.00     0.167 HD
ATOM     24  C   UNL A   1      45.876  30.533  28.882  1.00  0.00     0.034 A 
ATOM     25  C   UNL A   1      39.077  31.808  30.058  1.00  0.00     0.034 A 
ATOM     26  C   UNL A   1      45.581  31.836  29.426  1.00  0.00     0.049 A 
ATOM     27  C   UNL A   1      40.136  32.816  30.392  1.00  0.00     0.074 A 
ATOM     28  C   UNL A   1      46.454  32.870  29.719  1.00  0.00     0.029 A 
ATOM     29  N   UNL A   1      44.312  32.282  29.772  1.00  0.00    -0.354 N 
ATOM     30  N   UNL A   1      41.436  32.726  30.235  1.00  0.00    -0.248 NA
ATOM     31  C   UNL A   1      39.682  34.081  30.983  1.00  0.00     0.031 C 
ATOM     32  C   UNL A   1      45.719  33.921  30.284  1.00  0.00     0.029 A 
ATOM     33  C   UNL A   1      44.381  33.564  30.297  1.00  0.00     0.049 A 
ATOM     34  H   UNL A   1      43.483  31.763  29.661  1.00  0.00     0.167 HD
ATOM     35  C   UNL A   1      41.956  33.929  30.699  1.00  0.00     0.074 A 
ATOM     36  C   UNL A   1      40.829  34.730  31.136  1.00  0.00     0.031 C 
ATOM     37  C   UNL A   1      43.249  34.336  30.750  1.00  0.00     0.034 A 
BRANCH  24  38
ATOM     38  C   UNL A   1      47.316  30.141  28.655  1.00  0.00     0.023 A 
ATOM     39  C   UNL A   1      48.065  29.482  29.645  1.00  0.00     0.031 A 
ATOM     40  C   UNL A   1      47.964  30.484  27.456  1.00  0.00     0.131 A 
ATOM     41  C   UNL A   1      49.437  29.260  29.452  1.00  0.00     0.055 A 
ATOM     42  C   UNL A   1      49.312  30.193  27.239  1.00  0.00     0.041 A 
ATOM     43  F   UNL A   1      47.303  31.131  26.483  1.00  0.00    -0.206 F 
ATOM     44  C   UNL A   1      50.062  29.594  28.248  1.00  0.00     0.022 A 
BRANCH  41  45
ATOM     45  S   UNL A   1      50.425  28.680  30.860  1.00  0.00     0.124 S 
ATOM     46  O   UNL A   1      49.601  29.092  31.994  1.00  0.00    -0.237 OA
ATOM     47  O   UNL A   1      50.505  27.245  30.617  1.00  0.00    -0.237 OA
ATOM     48  O   UNL A   1      51.684  29.410  30.718  1.00  0.00    -0.744 OA
ENDBRANCH  41  45
ENDBRANCH  24  38
BRANCH  25  49
ATOM     49  C   UNL A   1      37.650  32.043  30.397  1.00  0.00     0.023 A 
ATOM     50  C   UNL A   1      36.737  32.496  29.434  1.00  0.00     0.031 A 
ATOM     51  C   UNL A   1      37.177  31.780  31.695  1.00  0.00     0.131 A 
ATOM     52  C   UNL A   1      35.393  32.685  29.789  1.00  0.00     0.055 A 
ATOM     53  C   UNL A   1      35.835  31.942  32.035  1.00  0.00     0.041 A 
ATOM     54  F   UNL A   1      38.015  31.329  32.642  1.00  0.00    -0.206 F 
ATOM     55  C   UNL A   1      34.934  32.402  31.079  1.00  0.00     0.022 A 
BRANCH  52  56
ATOM     56  S   UNL A   1      34.243  33.314  28.537  1.00  0.00     0.124 S 
ATOM     57  O   UNL A   1      33.349  34.141  29.341  1.00  0.00    -0.237 OA
ATOM     58  O   UNL A   1      35.137  34.029  27.632  1.00  0.00    -0.237 OA
ATOM     59  O   UNL A   1      33.644  32.101  27.983  1.00  0.00    -0.744 OA
ENDBRANCH  52  56
ENDBRANCH  25  49
BRANCH  37  60
ATOM     60  C   UNL A   1      43.498  35.724  31.270  1.00  0.00     0.023 A 
ATOM     61  C   UNL A   1      43.623  36.822  30.402  1.00  0.00     0.031 A 
ATOM     62  C   UNL A   1      43.621  35.946  32.652  1.00  0.00     0.131 A 
ATOM     63  C   UNL A   1      43.900  38.094  30.926  1.00  0.00     0.055 A 
ATOM     64  C   UNL A   1      43.858  37.219  33.170  1.00  0.00     0.041 A 
ATOM     65  F   UNL A   1      43.511  34.927  33.518  1.00  0.00    -0.206 F 
ATOM     66  C   UNL A   1      44.007  38.300  32.305  1.00  0.00     0.022 A 
BRANCH  63  67
ATOM     67  S   UNL A   1      44.161  39.475  29.779  1.00  0.00     0.124 S 
ATOM     68  O   UNL A   1      42.869  40.150  29.821  1.00  0.00    -0.237 OA
ATOM     69  O   UNL A   1      45.275  40.189  30.394  1.00  0.00    -0.237 OA
ATOM     70  O   UNL A   1      44.475  38.813  28.513  1.00  0.00    -0.744 OA
ENDBRANCH  63  67
ENDBRANCH  37  60
ENDBRANCH  11  12
ENDBRANCH   4   6
ENDBRANCH   1   2
BRANCH   1  71
ATOM     71  C   UNL A   1      36.520  22.410  26.230  1.00  0.00     0.042 C 
BRANCH  71  72
ATOM     72  C   UNL A   1      36.273  21.388  25.128  1.00  0.00     0.117 C 
BRANCH  72  73
ATOM     73  N   UNL A   1      36.131  21.989  23.808  1.00  0.00    -0.354 N 
ATOM     74  C   UNL A   1      35.100  22.742  23.304  1.00  0.00     0.242 C 
ATOM     75  H   UNL A   1      36.880  21.832  23.190  1.00  0.00     0.163 HD
ATOM     76  O   UNL A   1      35.242  23.273  22.204  1.00  0.00    -0.273 OA
BRANCH  74  77
ATOM     77  C   UNL A   1      33.866  22.957  24.196  1.00  0.00     0.175 C 
ATOM     78  C   UNL A   1      33.395  24.386  23.903  1.00  0.00     0.044 C 
ATOM     79  N   UNL A   1      32.648  22.182  23.980  1.00  0.00    -0.330 N 
ATOM     80  C   UNL A   1      31.926  24.447  24.345  1.00  0.00    -0.006 C 
ATOM     81  C   UNL A   1      31.458  22.990  24.195  1.00  0.00     0.127 C 
ATOM     82  C   UNL A   1      31.124  25.381  23.424  1.00  0.00     0.030 C 
ATOM     83  C   UNL A   1      31.784  24.956  25.797  1.00  0.00     0.030 C 
ATOM     84  C   UNL A   1      31.604  26.819  23.558  1.00  0.00     0.120 C 
ATOM     85  C   UNL A   1      32.119  26.447  25.954  1.00  0.00     0.120 C 
ATOM     86  N   UNL A   1      31.477  27.284  24.939  1.00  0.00    -0.337 N 
ATOM     87  C   UNL A   1      31.173  28.609  25.281  1.00  0.00     0.270 C 
ATOM     88  O   UNL A   1      31.468  29.078  26.379  1.00  0.00    -0.267 OA
BRANCH  79  89
ATOM     89  C   UNL A   1      32.508  20.809  23.924  1.00  0.00     0.226 C 
ATOM     90  O   UNL A   1      32.079  20.232  22.926  1.00  0.00    -0.275 OA
BRANCH  89  91
ATOM     91  C   UNL A   1      33.009  19.989  25.056  1.00  0.00     0.079 C 
ATOM     92  C   UNL A   1      32.566  18.579  25.349  1.00  0.00     0.014 C 
ATOM     93  C   UNL A   1      33.923  18.817  24.762  1.00  0.00     0.014 C 
ENDBRANCH  89  91
ENDBRANCH  79  89
BRANCH  87  94
ATOM     94  C   UNL A   1      30.500  29.412  24.283  1.00  0.00     0.105 A 
ATOM     95  C   UNL A   1      29.985  29.019  23.060  1.00  0.00     0.042 A 
ATOM     96  N   UNL A   1      30.311  30.773  24.366  1.00  0.00    -0.351 N 
ATOM     97  C   UNL A   1      29.327  30.137  22.477  1.00  0.00     0.000 A 
ATOM     98  C   UNL A   1      29.527  31.220  23.330  1.00  0.00     0.046 A 
ATOM     99  H   UNL A   1      30.687  31.348  25.072  1.00  0.00     0.167 HD
ATOM    100  C   UNL A   1      28.564  30.326  21.309  1.00  0.00     0.010 A 
ATOM    101  C   UNL A   1      28.989  32.488  23.085  1.00  0.00     0.026 A 
ATOM    102  C   UNL A   1      28.012  31.586  21.050  1.00  0.00     0.001 A 
ATOM    103  C   UNL A   1      28.219  32.648  21.929  1.00  0.00     0.002 A 
ENDBRANCH  87  94
ENDBRANCH  74  77
ENDBRANCH  72  73
ENDBRANCH  71  72
ENDBRANCH   1  71
TORSDOF 16
ENDMDL
