MODEL 1
REMARK VINA RESULT:     -13.3      0.000      0.000
REMARK SMILES Cc1c(NS(=O)(=O)c2ccc3c(c2)COC3)cccc1C(=O)NCCCNC(=O)c1ccc(-c2c3nc(c(-c4cc(S(=O)(=O)[O-])ccc4F)c4ccc([nH]4)c(-c4cc(S(=O)(=O)[O-])ccc4F)c4nc(c(-c5cc(S(=O)(=O)[O-])ccc5F)c5ccc2[nH]5)C=C4)C=C3)cc1
REMARK SMILES IDX 25 1 24 2 23 3 21 4 22 5 20 7 1 8 2 9 3 10 17 11 19 12 18 13
REMARK SMILES IDX 4 14 5 16 6 17 7 18 8 19 9 20 13 21 10 22 12 23 11 24 14 25
REMARK SMILES IDX 16 26 15 27 26 28 27 29 28 30 29 32 30 33 31 34 92 35 32 36
REMARK SMILES IDX 91 37 33 38 34 39 35 40 85 41 36 42 90 43 84 44 86 45 37 46
REMARK SMILES IDX 89 47 83 48 82 49 38 51 70 52 50 53 69 54 51 55 54 56 68 57
REMARK SMILES IDX 87 58 52 59 53 60 67 62 88 63 55 64 39 65 40 66 48 67 41 68
REMARK SMILES IDX 47 69 49 70 46 71 42 72 43 73 44 74 45 75 71 76 72 77 80 78
REMARK SMILES IDX 73 79 79 80 81 81 78 82 74 83 75 84 76 85 77 86 56 87 57 88
REMARK SMILES IDX 65 89 58 90 64 91 66 92 63 93 59 94 60 95 61 96 62 97
REMARK H PARENT 23 6 4 15 27 31 86 50 54 61
REMARK Flexibility Score: inf
ROOT
ATOM      1  C   UNL A   1      33.337  31.174  27.389  1.00  0.00     0.042 C 
ENDROOT
BRANCH   1   2
ATOM      2  C   UNL A   1      32.374  30.374  26.505  1.00  0.00     0.118 C 
BRANCH   2   3
ATOM      3  N   UNL A   1      32.972  30.053  25.209  1.00  0.00    -0.352 N 
ATOM      4  C   UNL A   1      32.775  28.993  24.360  1.00  0.00     0.251 C 
ATOM      5  O   UNL A   1      33.331  28.987  23.261  1.00  0.00    -0.269 OA
ATOM      6  H   UNL A   1      33.631  30.712  24.891  1.00  0.00     0.163 HD
BRANCH   4   7
ATOM      7  C   UNL A   1      31.857  27.866  24.677  1.00  0.00     0.044 A 
ATOM      8  C   UNL A   1      33.444  26.685  26.289  1.00  0.00     0.047 C 
ATOM      9  C   UNL A   1      32.135  26.812  25.572  1.00  0.00    -0.014 A 
ATOM     10  C   UNL A   1      31.140  25.839  25.792  1.00  0.00     0.053 A 
ATOM     11  C   UNL A   1      29.941  25.866  25.070  1.00  0.00     0.027 A 
ATOM     12  C   UNL A   1      30.675  27.838  23.913  1.00  0.00     0.014 A 
ATOM     13  C   UNL A   1      29.730  26.832  24.095  1.00  0.00     0.003 A 
BRANCH  10  14
ATOM     14  N   UNL A   1      31.258  24.907  26.865  1.00  0.00    -0.279 N 
ATOM     15  H   UNL A   1      31.127  25.251  27.778  1.00  0.00     0.180 HD
BRANCH  14  16
ATOM     16  S   UNL A   1      31.600  23.269  26.701  1.00  0.00     0.261 S 
ATOM     17  O   UNL A   1      31.888  22.698  28.000  1.00  0.00    -0.201 OA
ATOM     18  O   UNL A   1      30.495  22.762  25.909  1.00  0.00    -0.201 OA
BRANCH  16  19
ATOM     19  C   UNL A   1      33.066  23.068  25.715  1.00  0.00     0.088 A 
ATOM     20  C   UNL A   1      32.944  22.884  24.323  1.00  0.00     0.022 A 
ATOM     21  C   UNL A   1      34.324  23.108  26.323  1.00  0.00     0.028 A 
ATOM     22  C   UNL A   1      34.085  22.858  23.517  1.00  0.00     0.008 A 
ATOM     23  C   UNL A   1      35.432  23.174  25.499  1.00  0.00    -0.015 A 
ATOM     24  C   UNL A   1      35.313  23.063  24.121  1.00  0.00    -0.017 A 
ATOM     25  C   UNL A   1      36.851  23.426  25.855  1.00  0.00     0.196 C 
ATOM     26  C   UNL A   1      36.653  23.227  23.505  1.00  0.00     0.196 C 
ATOM     27  O   UNL A   1      37.492  23.697  24.584  1.00  0.00    -0.372 OA
ENDBRANCH  16  19
ENDBRANCH  14  16
ENDBRANCH  10  14
ENDBRANCH   4   7
ENDBRANCH   2   3
ENDBRANCH   1   2
BRANCH   1  28
ATOM     28  C   UNL A   1      34.517  30.390  27.946  1.00  0.00     0.118 C 
BRANCH  28  29
ATOM     29  N   UNL A   1      35.292  31.139  28.949  1.00  0.00    -0.352 N 
ATOM     30  C   UNL A   1      36.447  30.753  29.611  1.00  0.00     0.251 C 
ATOM     31  H   UNL A   1      34.944  32.029  29.181  1.00  0.00     0.163 HD
ATOM     32  O   UNL A   1      37.049  31.492  30.380  1.00  0.00    -0.269 OA
BRANCH  30  33
ATOM     33  C   UNL A   1      37.020  29.440  29.246  1.00  0.00     0.039 A 
ATOM     34  C   UNL A   1      37.441  28.649  30.319  1.00  0.00     0.014 A 
ATOM     35  C   UNL A   1      37.564  29.292  27.974  1.00  0.00     0.014 A 
ATOM     36  C   UNL A   1      38.634  27.951  30.199  1.00  0.00     0.010 A 
ATOM     37  C   UNL A   1      38.795  28.672  27.884  1.00  0.00     0.010 A 
ATOM     38  C   UNL A   1      39.369  28.089  29.021  1.00  0.00    -0.014 A 
BRANCH  38  39
ATOM     39  C   UNL A   1      40.779  27.725  28.945  1.00  0.00     0.031 A 
ATOM     40  C   UNL A   1      41.137  26.386  28.455  1.00  0.00     0.074 A 
ATOM     41  C   UNL A   1      41.758  28.551  29.381  1.00  0.00     0.049 A 
ATOM     42  N   UNL A   1      42.147  25.706  28.878  1.00  0.00    -0.248 NA
ATOM     43  C   UNL A   1      40.324  25.678  27.478  1.00  0.00     0.031 C 
ATOM     44  C   UNL A   1      43.201  28.351  29.255  1.00  0.00     0.029 A 
ATOM     45  N   UNL A   1      41.637  29.630  30.250  1.00  0.00    -0.354 N 
ATOM     46  C   UNL A   1      42.279  24.613  28.059  1.00  0.00     0.074 A 
ATOM     47  C   UNL A   1      41.081  24.604  27.250  1.00  0.00     0.031 C 
ATOM     48  C   UNL A   1      43.824  29.079  30.194  1.00  0.00     0.029 A 
ATOM     49  C   UNL A   1      42.809  29.694  31.027  1.00  0.00     0.049 A 
ATOM     50  H   UNL A   1      40.866  30.240  30.311  1.00  0.00     0.167 HD
ATOM     51  C   UNL A   1      43.446  23.908  28.056  1.00  0.00     0.034 A 
ATOM     52  C   UNL A   1      42.740  29.617  32.387  1.00  0.00     0.034 A 
ATOM     53  C   UNL A   1      44.405  24.438  29.030  1.00  0.00     0.049 A 
ATOM     54  C   UNL A   1      43.360  28.350  32.958  1.00  0.00     0.074 A 
ATOM     55  C   UNL A   1      45.534  25.237  28.937  1.00  0.00     0.029 A 
ATOM     56  N   UNL A   1      44.090  24.389  30.380  1.00  0.00    -0.354 N 
ATOM     57  N   UNL A   1      43.994  27.440  32.267  1.00  0.00    -0.248 NA
ATOM     58  C   UNL A   1      43.208  27.970  34.363  1.00  0.00     0.031 C 
ATOM     59  C   UNL A   1      45.880  25.676  30.251  1.00  0.00     0.029 A 
ATOM     60  C   UNL A   1      44.983  25.121  31.144  1.00  0.00     0.049 A 
ATOM     61  H   UNL A   1      43.325  23.893  30.751  1.00  0.00     0.167 HD
ATOM     62  C   UNL A   1      44.239  26.345  33.064  1.00  0.00     0.074 A 
ATOM     63  C   UNL A   1      43.729  26.733  34.369  1.00  0.00     0.031 C 
ATOM     64  C   UNL A   1      44.783  25.180  32.588  1.00  0.00     0.034 A 
BRANCH  51  65
ATOM     65  C   UNL A   1      43.802  22.931  26.960  1.00  0.00     0.023 A 
ATOM     66  C   UNL A   1      43.141  21.689  26.899  1.00  0.00     0.031 A 
ATOM     67  C   UNL A   1      44.805  23.128  25.990  1.00  0.00     0.131 A 
ATOM     68  C   UNL A   1      43.565  20.679  26.015  1.00  0.00     0.055 A 
ATOM     69  C   UNL A   1      45.284  22.099  25.170  1.00  0.00     0.041 A 
ATOM     70  F   UNL A   1      45.323  24.340  25.751  1.00  0.00    -0.206 F 
ATOM     71  C   UNL A   1      44.673  20.856  25.192  1.00  0.00     0.022 A 
BRANCH  68  72
ATOM     72  S   UNL A   1      42.628  19.129  25.939  1.00  0.00     0.124 S 
ATOM     73  O   UNL A   1      41.323  19.578  25.468  1.00  0.00    -0.237 OA
ATOM     74  O   UNL A   1      43.419  18.341  25.000  1.00  0.00    -0.237 OA
ATOM     75  O   UNL A   1      42.656  18.649  27.320  1.00  0.00    -0.744 OA
ENDBRANCH  68  72
ENDBRANCH  51  65
BRANCH  52  76
ATOM     76  C   UNL A   1      41.533  30.315  32.924  1.00  0.00     0.023 A 
ATOM     77  C   UNL A   1      41.523  31.728  32.884  1.00  0.00     0.031 A 
ATOM     78  C   UNL A   1      40.305  29.651  33.044  1.00  0.00     0.131 A 
ATOM     79  C   UNL A   1      40.306  32.421  32.799  1.00  0.00     0.055 A 
ATOM     80  C   UNL A   1      39.095  30.351  33.005  1.00  0.00     0.041 A 
ATOM     81  F   UNL A   1      40.249  28.311  33.059  1.00  0.00    -0.206 F 
ATOM     82  C   UNL A   1      39.090  31.733  32.828  1.00  0.00     0.022 A 
BRANCH  79  83
ATOM     83  S   UNL A   1      40.287  34.195  32.408  1.00  0.00     0.124 S 
ATOM     84  O   UNL A   1      41.430  34.329  31.515  1.00  0.00    -0.237 OA
ATOM     85  O   UNL A   1      38.976  34.394  31.798  1.00  0.00    -0.237 OA
ATOM     86  O   UNL A   1      40.432  34.816  33.726  1.00  0.00    -0.744 OA
ENDBRANCH  79  83
ENDBRANCH  52  76
BRANCH  64  87
ATOM     87  C   UNL A   1      45.116  23.965  33.444  1.00  0.00     0.023 A 
ATOM     88  C   UNL A   1      46.392  23.742  33.986  1.00  0.00     0.031 A 
ATOM     89  C   UNL A   1      44.169  22.941  33.698  1.00  0.00     0.131 A 
ATOM     90  C   UNL A   1      46.648  22.650  34.836  1.00  0.00     0.055 A 
ATOM     91  C   UNL A   1      44.446  21.816  34.482  1.00  0.00     0.041 A 
ATOM     92  F   UNL A   1      42.923  22.983  33.210  1.00  0.00    -0.206 F 
ATOM     93  C   UNL A   1      45.685  21.676  35.081  1.00  0.00     0.022 A 
BRANCH  90  94
ATOM     94  S   UNL A   1      48.257  22.559  35.666  1.00  0.00     0.124 S 
ATOM     95  O   UNL A   1      48.648  23.962  35.751  1.00  0.00    -0.237 OA
ATOM     96  O   UNL A   1      47.901  21.923  36.931  1.00  0.00    -0.237 OA
ATOM     97  O   UNL A   1      49.064  21.741  34.765  1.00  0.00    -0.744 OA
ENDBRANCH  90  94
ENDBRANCH  64  87
ENDBRANCH  38  39
ENDBRANCH  30  33
ENDBRANCH  28  29
ENDBRANCH   1  28
TORSDOF 16
ENDMDL
MODEL 2
REMARK VINA RESULT:     -13.1      2.213      2.817
REMARK SMILES Cc1c(NS(=O)(=O)c2ccc3c(c2)COC3)cccc1C(=O)NCCCNC(=O)c1ccc(-c2c3nc(c(-c4cc(S(=O)(=O)[O-])ccc4F)c4ccc([nH]4)c(-c4cc(S(=O)(=O)[O-])ccc4F)c4nc(c(-c5cc(S(=O)(=O)[O-])ccc5F)c5ccc2[nH]5)C=C4)C=C3)cc1
REMARK SMILES IDX 25 1 24 2 23 3 21 4 22 5 20 7 1 8 2 9 3 10 17 11 19 12 18 13
REMARK SMILES IDX 4 14 5 16 6 17 7 18 8 19 9 20 13 21 10 22 12 23 11 24 14 25
REMARK SMILES IDX 16 26 15 27 26 28 27 29 28 30 29 32 30 33 31 34 92 35 32 36
REMARK SMILES IDX 91 37 33 38 34 39 35 40 85 41 36 42 90 43 84 44 86 45 37 46
REMARK SMILES IDX 89 47 83 48 82 49 38 51 70 52 50 53 69 54 51 55 54 56 68 57
REMARK SMILES IDX 87 58 52 59 53 60 67 62 88 63 55 64 39 65 40 66 48 67 41 68
REMARK SMILES IDX 47 69 49 70 46 71 42 72 43 73 44 74 45 75 71 76 72 77 80 78
REMARK SMILES IDX 73 79 79 80 81 81 78 82 74 83 75 84 76 85 77 86 56 87 57 88
REMARK SMILES IDX 65 89 58 90 64 91 66 92 63 93 59 94 60 95 61 96 62 97
REMARK H PARENT 23 6 4 15 27 31 86 50 54 61
REMARK Flexibility Score: inf
ROOT
ATOM      1  C   UNL A   1      34.101  31.468  27.925  1.00  0.00     0.042 C 
ENDROOT
BRANCH   1   2
ATOM      2  C   UNL A   1      34.039  30.109  27.217  1.00  0.00     0.118 C 
BRANCH   2   3
ATOM      3  N   UNL A   1      32.909  29.308  27.687  1.00  0.00    -0.352 N 
ATOM      4  C   UNL A   1      32.007  28.530  27.005  1.00  0.00     0.251 C 
ATOM      5  O   UNL A   1      31.187  27.861  27.635  1.00  0.00    -0.269 OA
ATOM      6  H   UNL A   1      32.770  29.332  28.662  1.00  0.00     0.163 HD
BRANCH   4   7
ATOM      7  C   UNL A   1      32.014  28.399  25.523  1.00  0.00     0.044 A 
ATOM      8  C   UNL A   1      33.976  26.771  25.417  1.00  0.00     0.047 C 
ATOM      9  C   UNL A   1      32.893  27.583  24.779  1.00  0.00    -0.014 A 
ATOM     10  C   UNL A   1      32.743  27.541  23.378  1.00  0.00     0.053 A 
ATOM     11  C   UNL A   1      31.808  28.359  22.733  1.00  0.00     0.027 A 
ATOM     12  C   UNL A   1      31.127  29.262  24.852  1.00  0.00     0.014 A 
ATOM     13  C   UNL A   1      31.038  29.256  23.463  1.00  0.00     0.003 A 
BRANCH  10  14
ATOM     14  N   UNL A   1      33.418  26.552  22.604  1.00  0.00    -0.279 N 
ATOM     15  H   UNL A   1      34.370  26.706  22.407  1.00  0.00     0.180 HD
BRANCH  14  16
ATOM     16  S   UNL A   1      32.724  25.144  22.001  1.00  0.00     0.261 S 
ATOM     17  O   UNL A   1      31.310  25.128  22.308  1.00  0.00    -0.201 OA
ATOM     18  O   UNL A   1      33.174  25.100  20.622  1.00  0.00    -0.201 OA
BRANCH  16  19
ATOM     19  C   UNL A   1      33.443  23.736  22.815  1.00  0.00     0.088 A 
ATOM     20  C   UNL A   1      34.758  23.821  23.314  1.00  0.00     0.022 A 
ATOM     21  C   UNL A   1      32.696  22.564  22.967  1.00  0.00     0.028 A 
ATOM     22  C   UNL A   1      35.290  22.774  24.071  1.00  0.00     0.008 A 
ATOM     23  C   UNL A   1      33.205  21.583  23.797  1.00  0.00    -0.015 A 
ATOM     24  C   UNL A   1      34.474  21.692  24.347  1.00  0.00    -0.017 A 
ATOM     25  C   UNL A   1      32.553  20.347  24.298  1.00  0.00     0.196 C 
ATOM     26  C   UNL A   1      34.720  20.525  25.230  1.00  0.00     0.196 C 
ATOM     27  O   UNL A   1      33.428  19.888  25.356  1.00  0.00    -0.372 OA
ENDBRANCH  16  19
ENDBRANCH  14  16
ENDBRANCH  10  14
ENDBRANCH   4   7
ENDBRANCH   2   3
ENDBRANCH   1   2
BRANCH   1  28
ATOM     28  C   UNL A   1      35.481  32.107  27.992  1.00  0.00     0.118 C 
BRANCH  28  29
ATOM     29  N   UNL A   1      35.990  32.253  29.365  1.00  0.00    -0.352 N 
ATOM     30  C   UNL A   1      36.748  31.360  30.105  1.00  0.00     0.251 C 
ATOM     31  H   UNL A   1      35.760  33.096  29.818  1.00  0.00     0.163 HD
ATOM     32  O   UNL A   1      37.177  31.620  31.222  1.00  0.00    -0.269 OA
BRANCH  30  33
ATOM     33  C   UNL A   1      37.152  30.107  29.431  1.00  0.00     0.039 A 
ATOM     34  C   UNL A   1      37.364  29.013  30.275  1.00  0.00     0.014 A 
ATOM     35  C   UNL A   1      37.768  30.199  28.188  1.00  0.00     0.014 A 
ATOM     36  C   UNL A   1      38.448  28.185  30.024  1.00  0.00     0.010 A 
ATOM     37  C   UNL A   1      38.900  29.431  27.988  1.00  0.00     0.010 A 
ATOM     38  C   UNL A   1      39.288  28.494  28.954  1.00  0.00    -0.014 A 
BRANCH  38  39
ATOM     39  C   UNL A   1      40.631  27.938  28.842  1.00  0.00     0.031 A 
ATOM     40  C   UNL A   1      40.780  26.495  28.605  1.00  0.00     0.074 A 
ATOM     41  C   UNL A   1      41.739  28.693  29.024  1.00  0.00     0.049 A 
ATOM     42  N   UNL A   1      41.743  25.779  29.075  1.00  0.00    -0.248 NA
ATOM     43  C   UNL A   1      39.793  25.729  27.857  1.00  0.00     0.031 C 
ATOM     44  C   UNL A   1      43.128  28.283  28.827  1.00  0.00     0.029 A 
ATOM     45  N   UNL A   1      41.833  29.925  29.664  1.00  0.00    -0.354 N 
ATOM     46  C   UNL A   1      41.662  24.542  28.484  1.00  0.00     0.074 A 
ATOM     47  C   UNL A   1      40.394  24.540  27.791  1.00  0.00     0.031 C 
ATOM     48  C   UNL A   1      43.925  29.086  29.548  1.00  0.00     0.029 A 
ATOM     49  C   UNL A   1      43.079  29.978  30.318  1.00  0.00     0.049 A 
ATOM     50  H   UNL A   1      41.149  30.633  29.662  1.00  0.00     0.167 HD
ATOM     51  C   UNL A   1      42.734  23.701  28.532  1.00  0.00     0.034 A 
ATOM     52  C   UNL A   1      43.144  30.170  31.667  1.00  0.00     0.034 A 
ATOM     53  C   UNL A   1      43.843  24.273  29.300  1.00  0.00     0.049 A 
ATOM     54  C   UNL A   1      43.669  28.963  32.430  1.00  0.00     0.074 A 
ATOM     55  C   UNL A   1      45.041  24.883  28.960  1.00  0.00     0.029 A 
ATOM     56  N   UNL A   1      43.667  24.524  30.653  1.00  0.00    -0.354 N 
ATOM     57  N   UNL A   1      44.119  27.862  31.889  1.00  0.00    -0.248 NA
ATOM     58  C   UNL A   1      43.620  28.881  33.890  1.00  0.00     0.031 C 
ATOM     59  C   UNL A   1      45.570  25.513  30.126  1.00  0.00     0.029 A 
ATOM     60  C   UNL A   1      44.713  25.262  31.181  1.00  0.00     0.049 A 
ATOM     61  H   UNL A   1      42.892  24.214  31.175  1.00  0.00     0.167 HD
ATOM     62  C   UNL A   1      44.317  26.916  32.868  1.00  0.00     0.074 A 
ATOM     63  C   UNL A   1      43.994  27.609  34.104  1.00  0.00     0.031 C 
ATOM     64  C   UNL A   1      44.671  25.620  32.595  1.00  0.00     0.034 A 
BRANCH  51  65
ATOM     65  C   UNL A   1      42.859  22.495  27.631  1.00  0.00     0.023 A 
ATOM     66  C   UNL A   1      43.945  22.407  26.738  1.00  0.00     0.031 A 
ATOM     67  C   UNL A   1      41.932  21.435  27.557  1.00  0.00     0.131 A 
ATOM     68  C   UNL A   1      44.004  21.401  25.756  1.00  0.00     0.055 A 
ATOM     69  C   UNL A   1      41.943  20.484  26.529  1.00  0.00     0.041 A 
ATOM     70  F   UNL A   1      41.011  21.240  28.510  1.00  0.00    -0.206 F 
ATOM     71  C   UNL A   1      42.977  20.474  25.608  1.00  0.00     0.022 A 
BRANCH  68  72
ATOM     72  S   UNL A   1      45.463  21.305  24.684  1.00  0.00     0.124 S 
ATOM     73  O   UNL A   1      46.329  20.392  25.421  1.00  0.00    -0.237 OA
ATOM     74  O   UNL A   1      44.894  20.797  23.441  1.00  0.00    -0.237 OA
ATOM     75  O   UNL A   1      45.931  22.689  24.626  1.00  0.00    -0.744 OA
ENDBRANCH  68  72
ENDBRANCH  51  65
BRANCH  52  76
ATOM     76  C   UNL A   1      42.087  31.112  32.145  1.00  0.00     0.023 A 
ATOM     77  C   UNL A   1      40.927  30.552  32.729  1.00  0.00     0.031 A 
ATOM     78  C   UNL A   1      42.382  32.453  32.424  1.00  0.00     0.131 A 
ATOM     79  C   UNL A   1      40.202  31.276  33.686  1.00  0.00     0.055 A 
ATOM     80  C   UNL A   1      41.628  33.185  33.345  1.00  0.00     0.041 A 
ATOM     81  F   UNL A   1      43.483  33.030  31.921  1.00  0.00    -0.206 F 
ATOM     82  C   UNL A   1      40.567  32.583  34.020  1.00  0.00     0.022 A 
BRANCH  79  83
ATOM     83  S   UNL A   1      38.925  30.454  34.685  1.00  0.00     0.124 S 
ATOM     84  O   UNL A   1      39.705  29.875  35.771  1.00  0.00    -0.237 OA
ATOM     85  O   UNL A   1      38.030  31.545  35.058  1.00  0.00    -0.237 OA
ATOM     86  O   UNL A   1      38.343  29.501  33.739  1.00  0.00    -0.744 OA
ENDBRANCH  79  83
ENDBRANCH  52  76
BRANCH  64  87
ATOM     87  C   UNL A   1      44.949  24.556  33.649  1.00  0.00     0.023 A 
ATOM     88  C   UNL A   1      46.241  24.086  33.933  1.00  0.00     0.031 A 
ATOM     89  C   UNL A   1      43.907  23.922  34.370  1.00  0.00     0.131 A 
ATOM     90  C   UNL A   1      46.473  23.158  34.966  1.00  0.00     0.055 A 
ATOM     91  C   UNL A   1      44.133  22.945  35.346  1.00  0.00     0.041 A 
ATOM     92  F   UNL A   1      42.617  24.226  34.178  1.00  0.00    -0.206 F 
ATOM     93  C   UNL A   1      45.425  22.574  35.670  1.00  0.00     0.022 A 
BRANCH  90  94
ATOM     94  S   UNL A   1      48.187  22.772  35.412  1.00  0.00     0.124 S 
ATOM     95  O   UNL A   1      48.049  21.519  36.146  1.00  0.00    -0.237 OA
ATOM     96  O   UNL A   1      48.819  22.672  34.099  1.00  0.00    -0.237 OA
ATOM     97  O   UNL A   1      48.602  23.921  36.213  1.00  0.00    -0.744 OA
ENDBRANCH  90  94
ENDBRANCH  64  87
ENDBRANCH  38  39
ENDBRANCH  30  33
ENDBRANCH  28  29
ENDBRANCH   1  28
TORSDOF 16
ENDMDL
MODEL 3
REMARK VINA RESULT:     -13.1      2.343      2.757
REMARK SMILES Cc1c(NS(=O)(=O)c2ccc3c(c2)COC3)cccc1C(=O)NCCCNC(=O)c1ccc(-c2c3nc(c(-c4cc(S(=O)(=O)[O-])ccc4F)c4ccc([nH]4)c(-c4cc(S(=O)(=O)[O-])ccc4F)c4nc(c(-c5cc(S(=O)(=O)[O-])ccc5F)c5ccc2[nH]5)C=C4)C=C3)cc1
REMARK SMILES IDX 25 1 24 2 23 3 21 4 22 5 20 7 1 8 2 9 3 10 17 11 19 12 18 13
REMARK SMILES IDX 4 14 5 16 6 17 7 18 8 19 9 20 13 21 10 22 12 23 11 24 14 25
REMARK SMILES IDX 16 26 15 27 26 28 27 29 28 30 29 32 30 33 31 34 92 35 32 36
REMARK SMILES IDX 91 37 33 38 34 39 35 40 85 41 36 42 90 43 84 44 86 45 37 46
REMARK SMILES IDX 89 47 83 48 82 49 38 51 70 52 50 53 69 54 51 55 54 56 68 57
REMARK SMILES IDX 87 58 52 59 53 60 67 62 88 63 55 64 39 65 40 66 48 67 41 68
REMARK SMILES IDX 47 69 49 70 46 71 42 72 43 73 44 74 45 75 71 76 72 77 80 78
REMARK SMILES IDX 73 79 79 80 81 81 78 82 74 83 75 84 76 85 77 86 56 87 57 88
REMARK SMILES IDX 65 89 58 90 64 91 66 92 63 93 59 94 60 95 61 96 62 97
REMARK H PARENT 23 6 4 15 27 31 86 50 54 61
REMARK Flexibility Score: inf
ROOT
ATOM      1  C   UNL A   1      33.572  31.633  27.928  1.00  0.00     0.042 C 
ENDROOT
BRANCH   1   2
ATOM      2  C   UNL A   1      33.596  30.307  27.159  1.00  0.00     0.118 C 
BRANCH   2   3
ATOM      3  N   UNL A   1      32.578  29.379  27.652  1.00  0.00    -0.352 N 
ATOM      4  C   UNL A   1      31.832  28.427  27.004  1.00  0.00     0.251 C 
ATOM      5  O   UNL A   1      31.095  27.688  27.657  1.00  0.00    -0.269 OA
ATOM      6  H   UNL A   1      32.397  29.450  28.618  1.00  0.00     0.163 HD
BRANCH   4   7
ATOM      7  C   UNL A   1      31.922  28.194  25.537  1.00  0.00     0.044 A 
ATOM      8  C   UNL A   1      33.873  26.554  25.655  1.00  0.00     0.047 C 
ATOM      9  C   UNL A   1      32.835  27.325  24.902  1.00  0.00    -0.014 A 
ATOM     10  C   UNL A   1      32.764  27.187  23.501  1.00  0.00     0.053 A 
ATOM     11  C   UNL A   1      31.874  27.963  22.749  1.00  0.00     0.027 A 
ATOM     12  C   UNL A   1      31.082  29.013  24.759  1.00  0.00     0.014 A 
ATOM     13  C   UNL A   1      31.072  28.911  23.370  1.00  0.00     0.003 A 
BRANCH  10  14
ATOM     14  N   UNL A   1      33.474  26.144  22.836  1.00  0.00    -0.279 N 
ATOM     15  H   UNL A   1      34.404  26.329  22.571  1.00  0.00     0.180 HD
BRANCH  14  16
ATOM     16  S   UNL A   1      32.855  24.625  22.468  1.00  0.00     0.261 S 
ATOM     17  O   UNL A   1      31.469  24.551  22.878  1.00  0.00    -0.201 OA
ATOM     18  O   UNL A   1      33.217  24.431  21.076  1.00  0.00    -0.201 OA
BRANCH  16  19
ATOM     19  C   UNL A   1      33.733  23.389  23.398  1.00  0.00     0.088 A 
ATOM     20  C   UNL A   1      33.066  22.208  23.782  1.00  0.00     0.022 A 
ATOM     21  C   UNL A   1      35.077  23.589  23.726  1.00  0.00     0.028 A 
ATOM     22  C   UNL A   1      33.774  21.171  24.395  1.00  0.00     0.008 A 
ATOM     23  C   UNL A   1      35.777  22.516  24.246  1.00  0.00    -0.015 A 
ATOM     24  C   UNL A   1      35.138  21.326  24.564  1.00  0.00    -0.017 A 
ATOM     25  C   UNL A   1      37.234  22.378  24.492  1.00  0.00     0.196 C 
ATOM     26  C   UNL A   1      36.147  20.350  25.044  1.00  0.00     0.196 C 
ATOM     27  O   UNL A   1      37.420  20.962  24.734  1.00  0.00    -0.372 OA
ENDBRANCH  16  19
ENDBRANCH  14  16
ENDBRANCH  10  14
ENDBRANCH   4   7
ENDBRANCH   2   3
ENDBRANCH   1   2
BRANCH   1  28
ATOM     28  C   UNL A   1      34.936  32.248  28.210  1.00  0.00     0.118 C 
BRANCH  28  29
ATOM     29  N   UNL A   1      35.254  32.326  29.646  1.00  0.00    -0.352 N 
ATOM     30  C   UNL A   1      35.953  31.419  30.425  1.00  0.00     0.251 C 
ATOM     31  H   UNL A   1      34.927  33.128  30.113  1.00  0.00     0.163 HD
ATOM     32  O   UNL A   1      36.221  31.623  31.603  1.00  0.00    -0.269 OA
BRANCH  30  33
ATOM     33  C   UNL A   1      36.501  30.229  29.739  1.00  0.00     0.039 A 
ATOM     34  C   UNL A   1      37.041  29.249  30.576  1.00  0.00     0.014 A 
ATOM     35  C   UNL A   1      36.909  30.365  28.416  1.00  0.00     0.014 A 
ATOM     36  C   UNL A   1      38.223  28.631  30.194  1.00  0.00     0.010 A 
ATOM     37  C   UNL A   1      38.132  29.819  28.076  1.00  0.00     0.010 A 
ATOM     38  C   UNL A   1      38.829  29.033  29.003  1.00  0.00    -0.014 A 
BRANCH  38  39
ATOM     39  C   UNL A   1      40.227  28.740  28.712  1.00  0.00     0.031 A 
ATOM     40  C   UNL A   1      40.600  27.364  28.351  1.00  0.00     0.074 A 
ATOM     41  C   UNL A   1      41.198  29.674  28.838  1.00  0.00     0.049 A 
ATOM     42  N   UNL A   1      41.721  26.812  28.663  1.00  0.00    -0.248 NA
ATOM     43  C   UNL A   1      39.685  26.475  27.651  1.00  0.00     0.031 C 
ATOM     44  C   UNL A   1      42.606  29.537  28.470  1.00  0.00     0.029 A 
ATOM     45  N   UNL A   1      41.146  30.863  29.558  1.00  0.00    -0.354 N 
ATOM     46  C   UNL A   1      41.793  25.617  27.991  1.00  0.00     0.074 A 
ATOM     47  C   UNL A   1      40.474  25.422  27.432  1.00  0.00     0.031 C 
ATOM     48  C   UNL A   1      43.326  30.430  29.165  1.00  0.00     0.029 A 
ATOM     49  C   UNL A   1      42.430  31.107  30.083  1.00  0.00     0.049 A 
ATOM     50  H   UNL A   1      40.352  31.432  29.680  1.00  0.00     0.167 HD
ATOM     51  C   UNL A   1      42.994  24.986  27.864  1.00  0.00     0.034 A 
ATOM     52  C   UNL A   1      42.613  31.229  31.430  1.00  0.00     0.034 A 
ATOM     53  C   UNL A   1      44.066  25.707  28.557  1.00  0.00     0.049 A 
ATOM     54  C   UNL A   1      43.426  30.097  32.040  1.00  0.00     0.074 A 
ATOM     55  C   UNL A   1      45.091  26.544  28.144  1.00  0.00     0.029 A 
ATOM     56  N   UNL A   1      44.003  25.842  29.936  1.00  0.00    -0.354 N 
ATOM     57  N   UNL A   1      43.998  29.131  31.373  1.00  0.00    -0.248 NA
ATOM     58  C   UNL A   1      43.560  29.924  33.487  1.00  0.00     0.031 C 
ATOM     59  C   UNL A   1      45.630  27.192  29.296  1.00  0.00     0.029 A 
ATOM     60  C   UNL A   1      44.956  26.729  30.410  1.00  0.00     0.049 A 
ATOM     61  H   UNL A   1      43.360  25.366  30.509  1.00  0.00     0.167 HD
ATOM     62  C   UNL A   1      44.470  28.182  32.251  1.00  0.00     0.074 A 
ATOM     63  C   UNL A   1      44.173  28.732  33.563  1.00  0.00     0.031 C 
ATOM     64  C   UNL A   1      45.014  26.991  31.844  1.00  0.00     0.034 A 
BRANCH  51  65
ATOM     65  C   UNL A   1      43.226  23.877  26.865  1.00  0.00     0.023 A 
ATOM     66  C   UNL A   1      42.517  22.667  26.994  1.00  0.00     0.031 A 
ATOM     67  C   UNL A   1      44.157  23.918  25.806  1.00  0.00     0.131 A 
ATOM     68  C   UNL A   1      42.832  21.547  26.204  1.00  0.00     0.055 A 
ATOM     69  C   UNL A   1      44.532  22.782  25.077  1.00  0.00     0.041 A 
ATOM     70  F   UNL A   1      44.701  25.071  25.393  1.00  0.00    -0.206 F 
ATOM     71  C   UNL A   1      43.878  21.579  25.287  1.00  0.00     0.022 A 
BRANCH  68  72
ATOM     72  S   UNL A   1      41.835  20.042  26.375  1.00  0.00     0.124 S 
ATOM     73  O   UNL A   1      40.478  20.548  26.198  1.00  0.00    -0.237 OA
ATOM     74  O   UNL A   1      42.359  19.206  25.302  1.00  0.00    -0.237 OA
ATOM     75  O   UNL A   1      42.151  19.580  27.726  1.00  0.00    -0.744 OA
ENDBRANCH  68  72
ENDBRANCH  51  65
BRANCH  52  76
ATOM     76  C   UNL A   1      41.468  31.932  32.084  1.00  0.00     0.023 A 
ATOM     77  C   UNL A   1      40.474  31.134  32.695  1.00  0.00     0.031 A 
ATOM     78  C   UNL A   1      41.570  33.273  32.478  1.00  0.00     0.131 A 
ATOM     79  C   UNL A   1      39.734  31.637  33.776  1.00  0.00     0.055 A 
ATOM     80  C   UNL A   1      40.797  33.781  33.526  1.00  0.00     0.041 A 
ATOM     81  F   UNL A   1      42.512  34.071  31.954  1.00  0.00    -0.206 F 
ATOM     82  C   UNL A   1      39.915  32.950  34.215  1.00  0.00     0.022 A 
BRANCH  79  83
ATOM     83  S   UNL A   1      38.706  30.524  34.780  1.00  0.00     0.124 S 
ATOM     84  O   UNL A   1      37.612  31.396  35.189  1.00  0.00    -0.237 OA
ATOM     85  O   UNL A   1      38.353  29.456  33.849  1.00  0.00    -0.237 OA
ATOM     86  O   UNL A   1      39.623  30.111  35.842  1.00  0.00    -0.744 OA
ENDBRANCH  79  83
ENDBRANCH  52  76
BRANCH  64  87
ATOM     87  C   UNL A   1      45.593  25.937  32.779  1.00  0.00     0.023 A 
ATOM     88  C   UNL A   1      44.793  25.131  33.605  1.00  0.00     0.031 A 
ATOM     89  C   UNL A   1      46.989  25.746  32.924  1.00  0.00     0.131 A 
ATOM     90  C   UNL A   1      45.353  24.114  34.402  1.00  0.00     0.055 A 
ATOM     91  C   UNL A   1      47.549  24.784  33.772  1.00  0.00     0.041 A 
ATOM     92  F   UNL A   1      47.885  26.471  32.241  1.00  0.00    -0.206 F 
ATOM     93  C   UNL A   1      46.730  23.940  34.500  1.00  0.00     0.022 A 
BRANCH  90  94
ATOM     94  S   UNL A   1      44.234  22.979  35.265  1.00  0.00     0.124 S 
ATOM     95  O   UNL A   1      44.912  22.778  36.542  1.00  0.00    -0.237 OA
ATOM     96  O   UNL A   1      43.002  23.761  35.318  1.00  0.00    -0.237 OA
ATOM     97  O   UNL A   1      44.189  21.808  34.392  1.00  0.00    -0.744 OA
ENDBRANCH  90  94
ENDBRANCH  64  87
ENDBRANCH  38  39
ENDBRANCH  30  33
ENDBRANCH  28  29
ENDBRANCH   1  28
TORSDOF 16
ENDMDL
