MODEL 1
REMARK VINA RESULT:     -12.3      0.000      0.000
REMARK SMILES O=C(CN1C(=O)c2ccccc2C1=O)Nc1c(Br)cc(Br)cc1C(=O)NCCCNC(=O)c1ccc(-c2c3nc(c(-c4cc(S(=O)(=O)[O-])ccc4F)c4ccc([nH]4)c(-c4cc(S(=O)(=O)[O-])ccc4F)c4nc(c(-c5cc(S(=O)(=O)[O-])ccc5F)c5ccc2[nH]5)C=C4)C=C3)cc1
REMARK SMILES IDX 28 1 27 2 26 3 24 4 25 5 23 7 16 8 17 9 18 10 19 11 22 12
REMARK SMILES IDX 20 13 21 14 15 15 1 16 2 17 3 19 4 20 5 21 13 22 6 23 7 24
REMARK SMILES IDX 12 25 14 26 8 27 11 28 9 29 10 30 29 31 30 32 31 33 32 35
REMARK SMILES IDX 33 36 34 37 95 38 35 39 94 40 36 41 37 42 38 43 88 44 39 45
REMARK SMILES IDX 93 46 87 47 89 48 40 49 92 50 86 51 85 52 41 54 73 55 53 56
REMARK SMILES IDX 72 57 54 58 57 59 71 60 90 61 55 62 56 63 70 65 91 66 58 67
REMARK SMILES IDX 42 68 43 69 51 70 44 71 50 72 52 73 49 74 45 75 46 76 47 77
REMARK SMILES IDX 48 78 74 79 75 80 83 81 76 82 82 83 84 84 81 85 77 86 78 87
REMARK SMILES IDX 79 88 80 89 59 90 60 91 68 92 61 93 67 94 69 95 66 96 62 97
REMARK SMILES IDX 63 98 64 99 65 100
REMARK H PARENT 26 6 15 18 30 34 89 53 57 64
REMARK Flexibility Score: inf
ROOT
ATOM      1  C   UNL A   1      34.149  27.968  26.081  1.00  0.00     0.042 C 
ENDROOT
BRANCH   1   2
ATOM      2  C   UNL A   1      33.854  26.475  25.848  1.00  0.00     0.118 C 
BRANCH   2   3
ATOM      3  N   UNL A   1      34.086  26.075  24.466  1.00  0.00    -0.352 N 
ATOM      4  C   UNL A   1      34.346  24.886  23.821  1.00  0.00     0.253 C 
ATOM      5  O   UNL A   1      34.210  24.909  22.593  1.00  0.00    -0.269 OA
ATOM      6  H   UNL A   1      34.050  26.838  23.845  1.00  0.00     0.163 HD
BRANCH   4   7
ATOM      7  C   UNL A   1      34.710  23.580  24.466  1.00  0.00     0.065 A 
ATOM      8  C   UNL A   1      33.829  22.621  25.022  1.00  0.00     0.068 A 
ATOM      9  C   UNL A   1      34.365  21.445  25.589  1.00  0.00     0.043 A 
ATOM     10  Br  UNL A   1      33.322  19.884  25.932  1.00  0.00    -0.048 Br
ATOM     11  C   UNL A   1      35.739  21.317  25.806  1.00  0.00     0.033 A 
ATOM     12  C   UNL A   1      36.093  23.428  24.702  1.00  0.00     0.031 A 
ATOM     13  C   UNL A   1      36.591  22.333  25.399  1.00  0.00     0.020 A 
ATOM     14  Br  UNL A   1      38.438  22.220  25.788  1.00  0.00    -0.051 Br
BRANCH   8  15
ATOM     15  N   UNL A   1      32.454  22.936  25.097  1.00  0.00    -0.323 N 
ATOM     16  O   UNL A   1      32.284  23.534  27.350  1.00  0.00    -0.273 OA
ATOM     17  C   UNL A   1      31.782  23.358  26.246  1.00  0.00     0.244 C 
ATOM     18  H   UNL A   1      31.926  22.851  24.271  1.00  0.00     0.170 HD
BRANCH  17  19
ATOM     19  C   UNL A   1      30.338  23.760  25.935  1.00  0.00     0.229 C 
BRANCH  19  20
ATOM     20  N   UNL A   1      30.194  25.030  25.234  1.00  0.00    -0.265 N 
ATOM     21  C   UNL A   1      30.311  25.100  23.870  1.00  0.00     0.262 C 
ATOM     22  C   UNL A   1      30.360  26.267  25.788  1.00  0.00     0.262 C 
ATOM     23  O   UNL A   1      30.466  24.177  23.093  1.00  0.00    -0.269 OA
ATOM     24  C   UNL A   1      30.444  26.519  23.526  1.00  0.00     0.053 A 
ATOM     25  C   UNL A   1      30.526  27.220  24.710  1.00  0.00     0.053 A 
ATOM     26  O   UNL A   1      30.488  26.584  26.954  1.00  0.00    -0.269 OA
ATOM     27  C   UNL A   1      30.619  27.154  22.319  1.00  0.00     0.015 A 
ATOM     28  C   UNL A   1      30.849  28.563  24.773  1.00  0.00     0.015 A 
ATOM     29  C   UNL A   1      30.939  28.519  22.343  1.00  0.00     0.001 A 
ATOM     30  C   UNL A   1      31.070  29.214  23.561  1.00  0.00     0.001 A 
ENDBRANCH  19  20
ENDBRANCH  17  19
ENDBRANCH   8  15
ENDBRANCH   4   7
ENDBRANCH   2   3
ENDBRANCH   1   2
BRANCH   1  31
ATOM     31  C   UNL A   1      33.286  28.679  27.134  1.00  0.00     0.118 C 
BRANCH  31  32
ATOM     32  N   UNL A   1      33.528  30.114  27.119  1.00  0.00    -0.352 N 
ATOM     33  C   UNL A   1      34.489  30.870  27.754  1.00  0.00     0.251 C 
ATOM     34  H   UNL A   1      32.901  30.630  26.562  1.00  0.00     0.163 HD
ATOM     35  O   UNL A   1      34.280  32.075  27.887  1.00  0.00    -0.269 OA
BRANCH  33  36
ATOM     36  C   UNL A   1      35.759  30.289  28.268  1.00  0.00     0.039 A 
ATOM     37  C   UNL A   1      36.861  30.192  27.408  1.00  0.00     0.014 A 
ATOM     38  C   UNL A   1      35.848  29.710  29.532  1.00  0.00     0.014 A 
ATOM     39  C   UNL A   1      38.055  29.577  27.831  1.00  0.00     0.010 A 
ATOM     40  C   UNL A   1      37.055  29.130  29.961  1.00  0.00     0.010 A 
ATOM     41  C   UNL A   1      38.193  29.072  29.134  1.00  0.00    -0.014 A 
BRANCH  41  42
ATOM     42  C   UNL A   1      39.503  28.522  29.647  1.00  0.00     0.031 A 
ATOM     43  C   UNL A   1      40.274  29.215  30.752  1.00  0.00     0.074 A 
ATOM     44  C   UNL A   1      40.086  27.452  29.057  1.00  0.00     0.049 A 
ATOM     45  N   UNL A   1      41.486  28.980  31.198  1.00  0.00    -0.248 NA
ATOM     46  C   UNL A   1      39.613  30.352  31.406  1.00  0.00     0.031 C 
ATOM     47  C   UNL A   1      39.540  26.697  27.930  1.00  0.00     0.029 A 
ATOM     48  N   UNL A   1      41.292  26.827  29.305  1.00  0.00    -0.354 N 
ATOM     49  C   UNL A   1      41.751  29.965  32.145  1.00  0.00     0.074 A 
ATOM     50  C   UNL A   1      40.590  30.834  32.161  1.00  0.00     0.031 C 
ATOM     51  C   UNL A   1      40.389  25.713  27.595  1.00  0.00     0.029 A 
ATOM     52  C   UNL A   1      41.566  25.778  28.454  1.00  0.00     0.049 A 
ATOM     53  H   UNL A   1      41.903  27.106  30.026  1.00  0.00     0.167 HD
ATOM     54  C   UNL A   1      42.835  30.124  32.950  1.00  0.00     0.034 A 
ATOM     55  C   UNL A   1      42.636  24.961  28.352  1.00  0.00     0.034 A 
ATOM     56  C   UNL A   1      43.960  29.218  33.009  1.00  0.00     0.049 A 
ATOM     57  C   UNL A   1      43.808  25.121  29.288  1.00  0.00     0.074 A 
ATOM     58  C   UNL A   1      45.034  29.240  33.886  1.00  0.00     0.029 A 
ATOM     59  N   UNL A   1      44.161  28.131  32.172  1.00  0.00    -0.354 N 
ATOM     60  N   UNL A   1      44.001  26.021  30.221  1.00  0.00    -0.248 NA
ATOM     61  C   UNL A   1      44.900  24.142  29.166  1.00  0.00     0.031 C 
ATOM     62  C   UNL A   1      45.910  28.203  33.544  1.00  0.00     0.029 A 
ATOM     63  C   UNL A   1      45.351  27.492  32.498  1.00  0.00     0.049 A 
ATOM     64  H   UNL A   1      43.550  27.853  31.453  1.00  0.00     0.167 HD
ATOM     65  C   UNL A   1      45.215  25.690  30.820  1.00  0.00     0.074 A 
ATOM     66  C   UNL A   1      45.709  24.509  30.148  1.00  0.00     0.031 C 
ATOM     67  C   UNL A   1      45.854  26.309  31.843  1.00  0.00     0.034 A 
BRANCH  54  68
ATOM     68  C   UNL A   1      42.863  31.337  33.854  1.00  0.00     0.023 A 
ATOM     69  C   UNL A   1      42.357  31.293  35.163  1.00  0.00     0.031 A 
ATOM     70  C   UNL A   1      43.398  32.555  33.398  1.00  0.00     0.131 A 
ATOM     71  C   UNL A   1      42.303  32.464  35.933  1.00  0.00     0.055 A 
ATOM     72  C   UNL A   1      43.431  33.694  34.205  1.00  0.00     0.041 A 
ATOM     73  F   UNL A   1      43.891  32.663  32.153  1.00  0.00    -0.206 F 
ATOM     74  C   UNL A   1      42.863  33.658  35.474  1.00  0.00     0.022 A 
BRANCH  71  75
ATOM     75  S   UNL A   1      41.342  32.435  37.468  1.00  0.00     0.124 S 
ATOM     76  O   UNL A   1      41.272  33.858  37.795  1.00  0.00    -0.237 OA
ATOM     77  O   UNL A   1      40.091  31.814  37.047  1.00  0.00    -0.237 OA
ATOM     78  O   UNL A   1      42.165  31.636  38.374  1.00  0.00    -0.744 OA
ENDBRANCH  71  75
ENDBRANCH  54  68
BRANCH  55  79
ATOM     79  C   UNL A   1      42.675  23.897  27.307  1.00  0.00     0.023 A 
ATOM     80  C   UNL A   1      42.047  22.659  27.520  1.00  0.00     0.031 A 
ATOM     81  C   UNL A   1      43.399  24.075  26.116  1.00  0.00     0.131 A 
ATOM     82  C   UNL A   1      42.206  21.625  26.585  1.00  0.00     0.055 A 
ATOM     83  C   UNL A   1      43.508  23.061  25.163  1.00  0.00     0.041 A 
ATOM     84  F   UNL A   1      44.015  25.241  25.866  1.00  0.00    -0.206 F 
ATOM     85  C   UNL A   1      42.922  21.822  25.403  1.00  0.00     0.022 A 
BRANCH  82  86
ATOM     86  S   UNL A   1      41.546  19.984  26.991  1.00  0.00     0.124 S 
ATOM     87  O   UNL A   1      40.685  20.284  28.128  1.00  0.00    -0.237 OA
ATOM     88  O   UNL A   1      40.869  19.616  25.752  1.00  0.00    -0.237 OA
ATOM     89  O   UNL A   1      42.742  19.204  27.300  1.00  0.00    -0.744 OA
ENDBRANCH  82  86
ENDBRANCH  55  79
BRANCH  67  90
ATOM     90  C   UNL A   1      47.127  25.682  32.356  1.00  0.00     0.023 A 
ATOM     91  C   UNL A   1      47.144  24.818  33.466  1.00  0.00     0.031 A 
ATOM     92  C   UNL A   1      48.351  25.957  31.716  1.00  0.00     0.131 A 
ATOM     93  C   UNL A   1      48.363  24.292  33.924  1.00  0.00     0.055 A 
ATOM     94  C   UNL A   1      49.552  25.393  32.148  1.00  0.00     0.041 A 
ATOM     95  F   UNL A   1      48.395  26.778  30.654  1.00  0.00    -0.206 F 
ATOM     96  C   UNL A   1      49.564  24.562  33.263  1.00  0.00     0.022 A 
BRANCH  93  97
ATOM     97  S   UNL A   1      48.371  23.288  35.438  1.00  0.00     0.124 S 
ATOM     98  O   UNL A   1      47.549  22.147  35.050  1.00  0.00    -0.237 OA
ATOM     99  O   UNL A   1      49.793  23.015  35.624  1.00  0.00    -0.237 OA
ATOM    100  O   UNL A   1      47.775  24.170  36.439  1.00  0.00    -0.744 OA
ENDBRANCH  93  97
ENDBRANCH  67  90
ENDBRANCH  41  42
ENDBRANCH  33  36
ENDBRANCH  31  32
ENDBRANCH   1  31
TORSDOF 16
ENDMDL
MODEL 2
REMARK VINA RESULT:     -12.1      4.977      7.797
REMARK SMILES O=C(CN1C(=O)c2ccccc2C1=O)Nc1c(Br)cc(Br)cc1C(=O)NCCCNC(=O)c1ccc(-c2c3nc(c(-c4cc(S(=O)(=O)[O-])ccc4F)c4ccc([nH]4)c(-c4cc(S(=O)(=O)[O-])ccc4F)c4nc(c(-c5cc(S(=O)(=O)[O-])ccc5F)c5ccc2[nH]5)C=C4)C=C3)cc1
REMARK SMILES IDX 28 1 27 2 26 3 24 4 25 5 23 7 16 8 17 9 18 10 19 11 22 12
REMARK SMILES IDX 20 13 21 14 15 15 1 16 2 17 3 19 4 20 5 21 13 22 6 23 7 24
REMARK SMILES IDX 12 25 14 26 8 27 11 28 9 29 10 30 29 31 30 32 31 33 32 35
REMARK SMILES IDX 33 36 34 37 95 38 35 39 94 40 36 41 37 42 38 43 88 44 39 45
REMARK SMILES IDX 93 46 87 47 89 48 40 49 92 50 86 51 85 52 41 54 73 55 53 56
REMARK SMILES IDX 72 57 54 58 57 59 71 60 90 61 55 62 56 63 70 65 91 66 58 67
REMARK SMILES IDX 42 68 43 69 51 70 44 71 50 72 52 73 49 74 45 75 46 76 47 77
REMARK SMILES IDX 48 78 74 79 75 80 83 81 76 82 82 83 84 84 81 85 77 86 78 87
REMARK SMILES IDX 79 88 80 89 59 90 60 91 68 92 61 93 67 94 69 95 66 96 62 97
REMARK SMILES IDX 63 98 64 99 65 100
REMARK H PARENT 26 6 15 18 30 34 89 53 57 64
REMARK Flexibility Score: inf
ROOT
ATOM      1  C   UNL A   1      34.362  21.643  27.110  1.00  0.00     0.042 C 
ENDROOT
BRANCH   1   2
ATOM      2  C   UNL A   1      33.586  22.740  27.861  1.00  0.00     0.118 C 
BRANCH   2   3
ATOM      3  N   UNL A   1      32.163  22.724  27.548  1.00  0.00    -0.352 N 
ATOM      4  C   UNL A   1      31.362  23.313  26.594  1.00  0.00     0.253 C 
ATOM      5  O   UNL A   1      30.228  22.834  26.485  1.00  0.00    -0.269 OA
ATOM      6  H   UNL A   1      31.650  22.157  28.168  1.00  0.00     0.163 HD
BRANCH   4   7
ATOM      7  C   UNL A   1      31.756  24.416  25.653  1.00  0.00     0.065 A 
ATOM      8  C   UNL A   1      31.787  24.367  24.239  1.00  0.00     0.068 A 
ATOM      9  C   UNL A   1      32.189  25.516  23.523  1.00  0.00     0.043 A 
ATOM     10  Br  UNL A   1      31.834  25.764  21.664  1.00  0.00    -0.048 Br
ATOM     11  C   UNL A   1      32.760  26.607  24.183  1.00  0.00     0.033 A 
ATOM     12  C   UNL A   1      32.341  25.528  26.295  1.00  0.00     0.031 A 
ATOM     13  C   UNL A   1      32.872  26.586  25.565  1.00  0.00     0.020 A 
ATOM     14  Br  UNL A   1      33.742  28.007  26.458  1.00  0.00    -0.051 Br
BRANCH   8  15
ATOM     15  N   UNL A   1      31.532  23.133  23.603  1.00  0.00    -0.323 N 
ATOM     16  O   UNL A   1      33.626  22.710  22.653  1.00  0.00    -0.273 OA
ATOM     17  C   UNL A   1      32.457  22.401  22.854  1.00  0.00     0.244 C 
ATOM     18  H   UNL A   1      30.627  22.757  23.694  1.00  0.00     0.170 HD
BRANCH  17  19
ATOM     19  C   UNL A   1      31.892  21.040  22.440  1.00  0.00     0.229 C 
BRANCH  19  20
ATOM     20  N   UNL A   1      32.449  19.902  23.161  1.00  0.00    -0.265 N 
ATOM     21  C   UNL A   1      32.688  18.712  22.523  1.00  0.00     0.262 C 
ATOM     22  C   UNL A   1      32.397  19.713  24.512  1.00  0.00     0.262 C 
ATOM     23  O   UNL A   1      32.552  18.467  21.340  1.00  0.00    -0.269 OA
ATOM     24  C   UNL A   1      32.923  17.709  23.566  1.00  0.00     0.053 A 
ATOM     25  C   UNL A   1      32.691  18.320  24.779  1.00  0.00     0.053 A 
ATOM     26  O   UNL A   1      32.051  20.479  25.389  1.00  0.00    -0.269 OA
ATOM     27  C   UNL A   1      33.179  16.359  23.495  1.00  0.00     0.015 A 
ATOM     28  C   UNL A   1      32.631  17.628  25.975  1.00  0.00     0.015 A 
ATOM     29  C   UNL A   1      33.135  15.627  24.690  1.00  0.00     0.001 A 
ATOM     30  C   UNL A   1      32.847  16.254  25.919  1.00  0.00     0.001 A 
ENDBRANCH  19  20
ENDBRANCH  17  19
ENDBRANCH   8  15
ENDBRANCH   4   7
ENDBRANCH   2   3
ENDBRANCH   1   2
BRANCH   1  31
ATOM     31  C   UNL A   1      35.398  22.121  26.082  1.00  0.00     0.118 C 
BRANCH  31  32
ATOM     32  N   UNL A   1      36.372  21.075  25.804  1.00  0.00    -0.352 N 
ATOM     33  C   UNL A   1      37.737  21.141  25.628  1.00  0.00     0.251 C 
ATOM     34  H   UNL A   1      35.991  20.170  25.730  1.00  0.00     0.163 HD
ATOM     35  O   UNL A   1      38.289  20.206  25.051  1.00  0.00    -0.269 OA
BRANCH  33  36
ATOM     36  C   UNL A   1      38.556  22.284  26.115  1.00  0.00     0.039 A 
ATOM     37  C   UNL A   1      38.206  23.585  25.731  1.00  0.00     0.014 A 
ATOM     38  C   UNL A   1      39.740  22.094  26.825  1.00  0.00     0.014 A 
ATOM     39  C   UNL A   1      39.000  24.686  26.105  1.00  0.00     0.010 A 
ATOM     40  C   UNL A   1      40.509  23.201  27.225  1.00  0.00     0.010 A 
ATOM     41  C   UNL A   1      40.146  24.522  26.899  1.00  0.00    -0.014 A 
BRANCH  41  42
ATOM     42  C   UNL A   1      40.941  25.699  27.414  1.00  0.00     0.031 A 
ATOM     43  C   UNL A   1      40.283  26.815  28.201  1.00  0.00     0.074 A 
ATOM     44  C   UNL A   1      42.247  25.851  27.092  1.00  0.00     0.049 A 
ATOM     45  N   UNL A   1      40.773  27.974  28.573  1.00  0.00    -0.248 NA
ATOM     46  C   UNL A   1      38.876  26.620  28.574  1.00  0.00     0.031 C 
ATOM     47  C   UNL A   1      43.037  24.926  26.280  1.00  0.00     0.029 A 
ATOM     48  N   UNL A   1      43.140  26.862  27.385  1.00  0.00    -0.354 N 
ATOM     49  C   UNL A   1      39.726  28.665  29.178  1.00  0.00     0.074 A 
ATOM     50  C   UNL A   1      38.560  27.810  29.064  1.00  0.00     0.031 C 
ATOM     51  C   UNL A   1      44.287  25.398  26.151  1.00  0.00     0.029 A 
ATOM     52  C   UNL A   1      44.393  26.680  26.838  1.00  0.00     0.049 A 
ATOM     53  H   UNL A   1      42.904  27.643  27.936  1.00  0.00     0.167 HD
ATOM     54  C   UNL A   1      39.729  29.876  29.797  1.00  0.00     0.034 A 
ATOM     55  C   UNL A   1      45.503  27.447  26.863  1.00  0.00     0.034 A 
ATOM     56  C   UNL A   1      40.900  30.699  29.995  1.00  0.00     0.049 A 
ATOM     57  C   UNL A   1      45.501  28.765  27.598  1.00  0.00     0.074 A 
ATOM     58  C   UNL A   1      41.009  31.875  30.721  1.00  0.00     0.029 A 
ATOM     59  N   UNL A   1      42.161  30.441  29.479  1.00  0.00    -0.354 N 
ATOM     60  N   UNL A   1      44.513  29.361  28.219  1.00  0.00    -0.248 NA
ATOM     61  C   UNL A   1      46.772  29.504  27.647  1.00  0.00     0.031 C 
ATOM     62  C   UNL A   1      42.317  32.356  30.598  1.00  0.00     0.029 A 
ATOM     63  C   UNL A   1      43.044  31.446  29.852  1.00  0.00     0.049 A 
ATOM     64  H   UNL A   1      42.395  29.659  28.930  1.00  0.00     0.167 HD
ATOM     65  C   UNL A   1      45.056  30.523  28.764  1.00  0.00     0.074 A 
ATOM     66  C   UNL A   1      46.455  30.545  28.404  1.00  0.00     0.031 C 
ATOM     67  C   UNL A   1      44.444  31.479  29.506  1.00  0.00     0.034 A 
BRANCH  54  68
ATOM     68  C   UNL A   1      38.408  30.397  30.319  1.00  0.00     0.023 A 
ATOM     69  C   UNL A   1      37.576  31.213  29.536  1.00  0.00     0.031 A 
ATOM     70  C   UNL A   1      37.979  30.079  31.620  1.00  0.00     0.131 A 
ATOM     71  C   UNL A   1      36.412  31.764  30.091  1.00  0.00     0.055 A 
ATOM     72  C   UNL A   1      36.769  30.551  32.134  1.00  0.00     0.041 A 
ATOM     73  F   UNL A   1      38.734  29.309  32.420  1.00  0.00    -0.206 F 
ATOM     74  C   UNL A   1      35.987  31.416  31.374  1.00  0.00     0.022 A 
BRANCH  71  75
ATOM     75  S   UNL A   1      35.558  33.068  29.168  1.00  0.00     0.124 S 
ATOM     76  O   UNL A   1      35.338  32.416  27.879  1.00  0.00    -0.237 OA
ATOM     77  O   UNL A   1      34.368  33.302  29.977  1.00  0.00    -0.237 OA
ATOM     78  O   UNL A   1      36.527  34.163  29.146  1.00  0.00    -0.744 OA
ENDBRANCH  71  75
ENDBRANCH  54  68
BRANCH  55  79
ATOM     79  C   UNL A   1      46.741  27.005  26.158  1.00  0.00     0.023 A 
ATOM     80  C   UNL A   1      47.063  27.511  24.888  1.00  0.00     0.031 A 
ATOM     81  C   UNL A   1      47.577  26.020  26.709  1.00  0.00     0.131 A 
ATOM     82  C   UNL A   1      48.157  26.987  24.184  1.00  0.00     0.055 A 
ATOM     83  C   UNL A   1      48.698  25.541  26.028  1.00  0.00     0.041 A 
ATOM     84  F   UNL A   1      47.313  25.507  27.921  1.00  0.00    -0.206 F 
ATOM     85  C   UNL A   1      48.984  26.013  24.751  1.00  0.00     0.022 A 
BRANCH  82  86
ATOM     86  S   UNL A   1      48.422  27.525  22.472  1.00  0.00     0.124 S 
ATOM     87  O   UNL A   1      48.443  26.252  21.762  1.00  0.00    -0.237 OA
ATOM     88  O   UNL A   1      47.258  28.372  22.237  1.00  0.00    -0.237 OA
ATOM     89  O   UNL A   1      49.701  28.230  22.531  1.00  0.00    -0.744 OA
ENDBRANCH  82  86
ENDBRANCH  55  79
BRANCH  67  90
ATOM     90  C   UNL A   1      45.298  32.600  30.047  1.00  0.00     0.023 A 
ATOM     91  C   UNL A   1      45.481  33.807  29.348  1.00  0.00     0.031 A 
ATOM     92  C   UNL A   1      45.940  32.454  31.291  1.00  0.00     0.131 A 
ATOM     93  C   UNL A   1      46.317  34.803  29.880  1.00  0.00     0.055 A 
ATOM     94  C   UNL A   1      46.731  33.468  31.836  1.00  0.00     0.041 A 
ATOM     95  F   UNL A   1      45.802  31.323  32.001  1.00  0.00    -0.206 F 
ATOM     96  C   UNL A   1      46.931  34.646  31.126  1.00  0.00     0.022 A 
BRANCH  93  97
ATOM     97  S   UNL A   1      46.642  36.293  28.895  1.00  0.00     0.124 S 
ATOM     98  O   UNL A   1      48.045  36.555  29.194  1.00  0.00    -0.237 OA
ATOM     99  O   UNL A   1      46.354  35.840  27.537  1.00  0.00    -0.237 OA
ATOM    100  O   UNL A   1      45.700  37.274  29.432  1.00  0.00    -0.744 OA
ENDBRANCH  93  97
ENDBRANCH  67  90
ENDBRANCH  41  42
ENDBRANCH  33  36
ENDBRANCH  31  32
ENDBRANCH   1  31
TORSDOF 16
ENDMDL
MODEL 3
REMARK VINA RESULT:     -12.0      1.933      3.814
REMARK SMILES O=C(CN1C(=O)c2ccccc2C1=O)Nc1c(Br)cc(Br)cc1C(=O)NCCCNC(=O)c1ccc(-c2c3nc(c(-c4cc(S(=O)(=O)[O-])ccc4F)c4ccc([nH]4)c(-c4cc(S(=O)(=O)[O-])ccc4F)c4nc(c(-c5cc(S(=O)(=O)[O-])ccc5F)c5ccc2[nH]5)C=C4)C=C3)cc1
REMARK SMILES IDX 28 1 27 2 26 3 24 4 25 5 23 7 16 8 17 9 18 10 19 11 22 12
REMARK SMILES IDX 20 13 21 14 15 15 1 16 2 17 3 19 4 20 5 21 13 22 6 23 7 24
REMARK SMILES IDX 12 25 14 26 8 27 11 28 9 29 10 30 29 31 30 32 31 33 32 35
REMARK SMILES IDX 33 36 34 37 95 38 35 39 94 40 36 41 37 42 38 43 88 44 39 45
REMARK SMILES IDX 93 46 87 47 89 48 40 49 92 50 86 51 85 52 41 54 73 55 53 56
REMARK SMILES IDX 72 57 54 58 57 59 71 60 90 61 55 62 56 63 70 65 91 66 58 67
REMARK SMILES IDX 42 68 43 69 51 70 44 71 50 72 52 73 49 74 45 75 46 76 47 77
REMARK SMILES IDX 48 78 74 79 75 80 83 81 76 82 82 83 84 84 81 85 77 86 78 87
REMARK SMILES IDX 79 88 80 89 59 90 60 91 68 92 61 93 67 94 69 95 66 96 62 97
REMARK SMILES IDX 63 98 64 99 65 100
REMARK H PARENT 26 6 15 18 30 34 89 53 57 64
REMARK Flexibility Score: inf
ROOT
ATOM      1  C   UNL A   1      32.120  29.214  26.982  1.00  0.00     0.042 C 
ENDROOT
BRANCH   1   2
ATOM      2  C   UNL A   1      32.284  27.758  27.455  1.00  0.00     0.118 C 
BRANCH   2   3
ATOM      3  N   UNL A   1      31.077  26.969  27.242  1.00  0.00    -0.352 N 
ATOM      4  C   UNL A   1      30.514  26.309  26.172  1.00  0.00     0.253 C 
ATOM      5  O   UNL A   1      29.611  25.514  26.456  1.00  0.00    -0.269 OA
ATOM      6  H   UNL A   1      30.533  26.891  28.059  1.00  0.00     0.163 HD
BRANCH   4   7
ATOM      7  C   UNL A   1      30.931  26.418  24.734  1.00  0.00     0.065 A 
ATOM      8  C   UNL A   1      31.841  25.585  24.039  1.00  0.00     0.068 A 
ATOM      9  C   UNL A   1      32.108  25.849  22.677  1.00  0.00     0.043 A 
ATOM     10  Br  UNL A   1      32.911  24.574  21.506  1.00  0.00    -0.048 Br
ATOM     11  C   UNL A   1      31.668  27.033  22.078  1.00  0.00     0.033 A 
ATOM     12  C   UNL A   1      30.503  27.607  24.107  1.00  0.00     0.031 A 
ATOM     13  C   UNL A   1      30.903  27.926  22.813  1.00  0.00     0.020 A 
ATOM     14  Br  UNL A   1      30.397  29.578  22.048  1.00  0.00    -0.051 Br
BRANCH   8  15
ATOM     15  N   UNL A   1      32.539  24.597  24.766  1.00  0.00    -0.323 N 
ATOM     16  O   UNL A   1      34.377  25.839  25.502  1.00  0.00    -0.273 OA
ATOM     17  C   UNL A   1      33.751  24.788  25.434  1.00  0.00     0.244 C 
ATOM     18  H   UNL A   1      32.139  23.699  24.806  1.00  0.00     0.170 HD
BRANCH  17  19
ATOM     19  C   UNL A   1      34.145  23.551  26.246  1.00  0.00     0.229 C 
BRANCH  19  20
ATOM     20  N   UNL A   1      34.089  22.294  25.509  1.00  0.00    -0.265 N 
ATOM     21  C   UNL A   1      32.912  21.603  25.381  1.00  0.00     0.262 C 
ATOM     22  C   UNL A   1      35.150  21.472  25.257  1.00  0.00     0.262 C 
ATOM     23  O   UNL A   1      31.810  21.943  25.767  1.00  0.00    -0.269 OA
ATOM     24  C   UNL A   1      33.255  20.264  24.892  1.00  0.00     0.053 A 
ATOM     25  C   UNL A   1      34.629  20.177  24.869  1.00  0.00     0.053 A 
ATOM     26  O   UNL A   1      36.337  21.666  25.425  1.00  0.00    -0.269 OA
ATOM     27  C   UNL A   1      32.475  19.165  24.617  1.00  0.00     0.015 A 
ATOM     28  C   UNL A   1      35.309  18.994  24.644  1.00  0.00     0.015 A 
ATOM     29  C   UNL A   1      33.131  17.949  24.375  1.00  0.00     0.001 A 
ATOM     30  C   UNL A   1      34.537  17.860  24.405  1.00  0.00     0.001 A 
ENDBRANCH  19  20
ENDBRANCH  17  19
ENDBRANCH   8  15
ENDBRANCH   4   7
ENDBRANCH   2   3
ENDBRANCH   1   2
BRANCH   1  31
ATOM     31  C   UNL A   1      33.374  29.891  26.409  1.00  0.00     0.118 C 
BRANCH  31  32
ATOM     32  N   UNL A   1      33.486  31.262  26.886  1.00  0.00    -0.352 N 
ATOM     33  C   UNL A   1      34.260  31.805  27.888  1.00  0.00     0.251 C 
ATOM     34  H   UNL A   1      32.912  31.908  26.414  1.00  0.00     0.163 HD
ATOM     35  O   UNL A   1      33.925  32.894  28.349  1.00  0.00    -0.269 OA
BRANCH  33  36
ATOM     36  C   UNL A   1      35.478  31.133  28.416  1.00  0.00     0.039 A 
ATOM     37  C   UNL A   1      36.739  31.630  28.061  1.00  0.00     0.014 A 
ATOM     38  C   UNL A   1      35.411  29.943  29.137  1.00  0.00     0.014 A 
ATOM     39  C   UNL A   1      37.916  30.977  28.474  1.00  0.00     0.010 A 
ATOM     40  C   UNL A   1      36.590  29.315  29.577  1.00  0.00     0.010 A 
ATOM     41  C   UNL A   1      37.867  29.828  29.280  1.00  0.00    -0.014 A 
BRANCH  41  42
ATOM     42  C   UNL A   1      39.115  29.185  29.837  1.00  0.00     0.031 A 
ATOM     43  C   UNL A   1      39.827  29.756  31.048  1.00  0.00     0.074 A 
ATOM     44  C   UNL A   1      39.702  28.142  29.204  1.00  0.00     0.049 A 
ATOM     45  N   UNL A   1      40.994  29.435  31.556  1.00  0.00    -0.248 NA
ATOM     46  C   UNL A   1      39.161  30.863  31.745  1.00  0.00     0.031 C 
ATOM     47  C   UNL A   1      39.213  27.503  27.983  1.00  0.00     0.029 A 
ATOM     48  N   UNL A   1      40.863  27.450  29.484  1.00  0.00    -0.354 N 
ATOM     49  C   UNL A   1      41.224  30.330  32.598  1.00  0.00     0.074 A 
ATOM     50  C   UNL A   1      40.096  31.242  32.604  1.00  0.00     0.031 C 
ATOM     51  C   UNL A   1      40.048  26.514  27.628  1.00  0.00     0.029 A 
ATOM     52  C   UNL A   1      41.161  26.461  28.570  1.00  0.00     0.049 A 
ATOM     53  H   UNL A   1      41.428  27.645  30.266  1.00  0.00     0.167 HD
ATOM     54  C   UNL A   1      42.251  30.378  33.488  1.00  0.00     0.034 A 
ATOM     55  C   UNL A   1      42.205  25.611  28.476  1.00  0.00     0.034 A 
ATOM     56  C   UNL A   1      43.335  29.425  33.551  1.00  0.00     0.049 A 
ATOM     57  C   UNL A   1      43.310  25.647  29.503  1.00  0.00     0.074 A 
ATOM     58  C   UNL A   1      44.342  29.332  34.500  1.00  0.00     0.029 A 
ATOM     59  N   UNL A   1      43.558  28.401  32.644  1.00  0.00    -0.354 N 
ATOM     60  N   UNL A   1      43.467  26.462  30.519  1.00  0.00    -0.248 NA
ATOM     61  C   UNL A   1      44.372  24.636  29.377  1.00  0.00     0.031 C 
ATOM     62  C   UNL A   1      45.203  28.290  34.137  1.00  0.00     0.029 A 
ATOM     63  C   UNL A   1      44.697  27.689  32.999  1.00  0.00     0.049 A 
ATOM     64  H   UNL A   1      42.992  28.206  31.863  1.00  0.00     0.167 HD
ATOM     65  C   UNL A   1      44.621  26.033  31.172  1.00  0.00     0.074 A 
ATOM     66  C   UNL A   1      45.120  24.890  30.442  1.00  0.00     0.031 C 
ATOM     67  C   UNL A   1      45.204  26.542  32.285  1.00  0.00     0.034 A 
BRANCH  54  68
ATOM     68  C   UNL A   1      42.256  31.513  34.489  1.00  0.00     0.023 A 
ATOM     69  C   UNL A   1      41.393  31.524  35.596  1.00  0.00     0.031 A 
ATOM     70  C   UNL A   1      43.132  32.602  34.329  1.00  0.00     0.131 A 
ATOM     71  C   UNL A   1      41.351  32.642  36.441  1.00  0.00     0.055 A 
ATOM     72  C   UNL A   1      43.155  33.668  35.231  1.00  0.00     0.041 A 
ATOM     73  F   UNL A   1      43.976  32.654  33.286  1.00  0.00    -0.206 F 
ATOM     74  C   UNL A   1      42.246  33.702  36.284  1.00  0.00     0.022 A 
BRANCH  71  75
ATOM     75  S   UNL A   1      39.999  32.758  37.642  1.00  0.00     0.124 S 
ATOM     76  O   UNL A   1      39.504  34.110  37.392  1.00  0.00    -0.237 OA
ATOM     77  O   UNL A   1      39.119  31.669  37.234  1.00  0.00    -0.237 OA
ATOM     78  O   UNL A   1      40.667  32.576  38.929  1.00  0.00    -0.744 OA
ENDBRANCH  71  75
ENDBRANCH  54  68
BRANCH  55  79
ATOM     79  C   UNL A   1      42.283  24.633  27.353  1.00  0.00     0.023 A 
ATOM     80  C   UNL A   1      41.542  23.441  27.387  1.00  0.00     0.031 A 
ATOM     81  C   UNL A   1      43.151  24.842  26.268  1.00  0.00     0.131 A 
ATOM     82  C   UNL A   1      41.728  22.474  26.388  1.00  0.00     0.055 A 
ATOM     83  C   UNL A   1      43.291  23.900  25.247  1.00  0.00     0.041 A 
ATOM     84  F   UNL A   1      43.879  25.967  26.189  1.00  0.00    -0.206 F 
ATOM     85  C   UNL A   1      42.589  22.701  25.312  1.00  0.00     0.022 A 
BRANCH  82  86
ATOM     86  S   UNL A   1      40.903  20.869  26.575  1.00  0.00     0.124 S 
ATOM     87  O   UNL A   1      39.595  21.139  25.990  1.00  0.00    -0.237 OA
ATOM     88  O   UNL A   1      41.778  19.987  25.810  1.00  0.00    -0.237 OA
ATOM     89  O   UNL A   1      40.909  20.649  28.020  1.00  0.00    -0.744 OA
ENDBRANCH  82  86
ENDBRANCH  55  79
BRANCH  67  90
ATOM     90  C   UNL A   1      46.413  25.824  32.833  1.00  0.00     0.023 A 
ATOM     91  C   UNL A   1      46.303  24.746  33.730  1.00  0.00     0.031 A 
ATOM     92  C   UNL A   1      47.704  26.229  32.444  1.00  0.00     0.131 A 
ATOM     93  C   UNL A   1      47.462  24.138  34.239  1.00  0.00     0.055 A 
ATOM     94  C   UNL A   1      48.852  25.588  32.917  1.00  0.00     0.041 A 
ATOM     95  F   UNL A   1      47.870  27.253  31.592  1.00  0.00    -0.206 F 
ATOM     96  C   UNL A   1      48.735  24.543  33.826  1.00  0.00     0.022 A 
BRANCH  93  97
ATOM     97  S   UNL A   1      47.292  22.839  35.497  1.00  0.00     0.124 S 
ATOM     98  O   UNL A   1      48.274  23.252  36.493  1.00  0.00    -0.237 OA
ATOM     99  O   UNL A   1      45.892  22.967  35.891  1.00  0.00    -0.237 OA
ATOM    100  O   UNL A   1      47.621  21.613  34.773  1.00  0.00    -0.744 OA
ENDBRANCH  93  97
ENDBRANCH  67  90
ENDBRANCH  41  42
ENDBRANCH  33  36
ENDBRANCH  31  32
ENDBRANCH   1  31
TORSDOF 16
ENDMDL
