MODEL 1
REMARK VINA RESULT:     -13.8      0.000      0.000
REMARK SMILES Cc1ccc(-c2cc(Cl)cc3c2O[C@@H](C(F)(F)F)C(C(=O)NCCCNC(=O)c2ccc(-c4c5nc(c(-c6cc(S(=O)(=O)[O-])ccc6F)c6ccc([nH]6)c(-c6cc(S(=O)(=O)[O-])ccc6F)c6nc(c(-c7cc(S(=O)(=O)[O-])ccc7F)c7ccc4[nH]7)C=C6)C=C5)cc2)=C3)cc1
REMARK SMILES IDX 25 1 24 2 23 3 22 4 20 5 21 6 19 8 6 9 7 10 12 11 8 12 11 13
REMARK SMILES IDX 13 14 9 15 10 16 92 17 14 18 5 19 1 20 2 21 3 22 94 23 4 24
REMARK SMILES IDX 93 25 15 26 16 27 17 28 18 29 26 30 27 31 28 33 29 34 30 35
REMARK SMILES IDX 91 36 31 37 90 38 32 39 33 40 34 41 84 42 35 43 89 44 83 45
REMARK SMILES IDX 85 46 36 47 88 48 82 49 81 50 37 52 69 53 49 54 68 55 50 56
REMARK SMILES IDX 53 57 67 58 86 59 51 60 52 61 66 63 87 64 54 65 38 66 39 67
REMARK SMILES IDX 47 68 40 69 46 70 48 71 45 72 41 73 42 74 43 75 44 76 70 77
REMARK SMILES IDX 71 78 79 79 72 80 78 81 80 82 77 83 73 84 74 85 75 86 76 87
REMARK SMILES IDX 55 88 56 89 64 90 57 91 63 92 65 93 62 94 58 95 59 96 60 97
REMARK SMILES IDX 61 98
REMARK H PARENT 22 7 26 32 85 51 53 62
REMARK Flexibility Score: inf
ROOT
ATOM      1  C   UNL A   1      39.438  22.620  26.361  1.00  0.00     0.118 C 
ENDROOT
BRANCH   1   2
ATOM      2  C   UNL A   1      39.145  21.152  26.054  1.00  0.00     0.042 C 
BRANCH   2   3
ATOM      3  C   UNL A   1      37.855  20.895  25.280  1.00  0.00     0.118 C 
BRANCH   3   4
ATOM      4  N   UNL A   1      36.985  22.057  25.174  1.00  0.00    -0.352 N 
ATOM      5  C   UNL A   1      35.801  22.400  25.752  1.00  0.00     0.251 C 
ATOM      6  O   UNL A   1      35.519  23.602  25.794  1.00  0.00    -0.270 OA
ATOM      7  H   UNL A   1      37.324  22.740  24.550  1.00  0.00     0.163 HD
BRANCH   5   8
ATOM      8  C   UNL A   1      34.792  21.375  26.293  1.00  0.00     0.067 C 
ATOM      9  C   UNL A   1      31.984  23.607  24.383  1.00  0.00     0.026 A 
ATOM     10  C   UNL A   1      30.771  23.933  25.019  1.00  0.00     0.033 A 
ATOM     11  C   UNL A   1      32.775  22.664  25.039  1.00  0.00     0.135 A 
ATOM     12  C   UNL A   1      30.576  23.619  26.368  1.00  0.00     0.042 A 
ATOM     13  C   UNL A   1      32.733  22.575  26.456  1.00  0.00     0.019 A 
ATOM     14  O   UNL A   1      33.516  21.728  24.296  1.00  0.00    -0.475 OA
ATOM     15  Cl  UNL A   1      29.118  24.102  27.144  1.00  0.00    -0.084 Cl
ATOM     16  C   UNL A   1      31.600  23.034  27.117  1.00  0.00     0.032 A 
ATOM     17  C   UNL A   1      33.922  21.981  27.149  1.00  0.00     0.025 C 
ATOM     18  C   UNL A   1      33.966  20.690  25.214  1.00  0.00     0.314 C 
BRANCH   9  19
ATOM     19  C   UNL A   1      32.640  24.754  23.701  1.00  0.00    -0.015 A 
ATOM     20  C   UNL A   1      34.051  28.543  22.126  1.00  0.00     0.044 C 
ATOM     21  C   UNL A   1      33.604  27.214  22.666  1.00  0.00    -0.051 A 
ATOM     22  C   UNL A   1      33.109  26.211  21.816  1.00  0.00     0.004 A 
ATOM     23  C   UNL A   1      33.684  26.957  24.030  1.00  0.00     0.004 A 
ATOM     24  C   UNL A   1      32.623  24.991  22.327  1.00  0.00     0.009 A 
ATOM     25  C   UNL A   1      33.219  25.745  24.531  1.00  0.00     0.009 A 
ENDBRANCH   9  19
BRANCH  18  26
ATOM     26  C   UNL A   1      34.379  19.297  24.718  1.00  0.00     0.429 C 
ATOM     27  F   UNL A   1      33.917  18.348  25.590  1.00  0.00    -0.167 F 
ATOM     28  F   UNL A   1      33.863  18.969  23.520  1.00  0.00    -0.167 F 
ATOM     29  F   UNL A   1      35.714  19.105  24.689  1.00  0.00    -0.167 F 
ENDBRANCH  18  26
ENDBRANCH   5   8
ENDBRANCH   3   4
ENDBRANCH   2   3
ENDBRANCH   1   2
BRANCH   1  30
ATOM     30  N   UNL A   1      40.871  22.924  26.472  1.00  0.00    -0.352 N 
ATOM     31  C   UNL A   1      41.490  24.148  26.692  1.00  0.00     0.251 C 
ATOM     32  H   UNL A   1      41.476  22.154  26.377  1.00  0.00     0.163 HD
ATOM     33  O   UNL A   1      42.685  24.274  26.762  1.00  0.00    -0.269 OA
BRANCH  31  34
ATOM     34  C   UNL A   1      40.607  25.312  26.947  1.00  0.00     0.039 A 
ATOM     35  C   UNL A   1      40.851  26.475  26.208  1.00  0.00     0.014 A 
ATOM     36  C   UNL A   1      39.783  25.327  28.068  1.00  0.00     0.014 A 
ATOM     37  C   UNL A   1      40.466  27.702  26.737  1.00  0.00     0.010 A 
ATOM     38  C   UNL A   1      39.470  26.550  28.631  1.00  0.00     0.010 A 
ATOM     39  C   UNL A   1      39.884  27.735  28.007  1.00  0.00    -0.014 A 
BRANCH  39  40
ATOM     40  C   UNL A   1      39.937  28.929  28.850  1.00  0.00     0.031 A 
ATOM     41  C   UNL A   1      38.870  29.946  28.858  1.00  0.00     0.074 A 
ATOM     42  C   UNL A   1      40.967  29.067  29.717  1.00  0.00     0.049 A 
ATOM     43  N   UNL A   1      39.065  31.195  29.135  1.00  0.00    -0.248 NA
ATOM     44  C   UNL A   1      37.483  29.633  28.537  1.00  0.00     0.031 C 
ATOM     45  C   UNL A   1      41.072  30.008  30.827  1.00  0.00     0.029 A 
ATOM     46  N   UNL A   1      42.235  28.500  29.621  1.00  0.00    -0.354 N 
ATOM     47  C   UNL A   1      37.830  31.766  29.332  1.00  0.00     0.074 A 
ATOM     48  C   UNL A   1      36.879  30.776  28.874  1.00  0.00     0.031 C 
ATOM     49  C   UNL A   1      42.365  30.143  31.159  1.00  0.00     0.029 A 
ATOM     50  C   UNL A   1      43.148  29.407  30.183  1.00  0.00     0.049 A 
ATOM     51  H   UNL A   1      42.453  27.624  29.230  1.00  0.00     0.167 HD
ATOM     52  C   UNL A   1      37.710  32.941  30.011  1.00  0.00     0.034 A 
ATOM     53  C   UNL A   1      44.171  29.922  29.442  1.00  0.00     0.034 A 
ATOM     54  C   UNL A   1      38.995  33.464  30.463  1.00  0.00     0.049 A 
ATOM     55  C   UNL A   1      44.116  31.422  29.288  1.00  0.00     0.074 A 
ATOM     56  C   UNL A   1      39.635  33.438  31.693  1.00  0.00     0.029 A 
ATOM     57  N   UNL A   1      39.948  33.880  29.536  1.00  0.00    -0.354 N 
ATOM     58  N   UNL A   1      43.077  32.150  29.589  1.00  0.00    -0.248 NA
ATOM     59  C   UNL A   1      45.216  32.215  28.748  1.00  0.00     0.031 C 
ATOM     60  C   UNL A   1      40.998  33.772  31.488  1.00  0.00     0.029 A 
ATOM     61  C   UNL A   1      41.183  34.032  30.141  1.00  0.00     0.049 A 
ATOM     62  H   UNL A   1      39.768  34.041  28.582  1.00  0.00     0.167 HD
ATOM     63  C   UNL A   1      43.317  33.456  29.248  1.00  0.00     0.074 A 
ATOM     64  C   UNL A   1      44.688  33.451  28.766  1.00  0.00     0.031 C 
ATOM     65  C   UNL A   1      42.357  34.421  29.369  1.00  0.00     0.034 A 
BRANCH  52  66
ATOM     66  C   UNL A   1      36.375  33.402  30.546  1.00  0.00     0.023 A 
ATOM     67  C   UNL A   1      35.503  34.150  29.730  1.00  0.00     0.031 A 
ATOM     68  C   UNL A   1      35.940  33.179  31.865  1.00  0.00     0.131 A 
ATOM     69  C   UNL A   1      34.335  34.731  30.253  1.00  0.00     0.055 A 
ATOM     70  C   UNL A   1      34.809  33.806  32.404  1.00  0.00     0.041 A 
ATOM     71  F   UNL A   1      36.594  32.333  32.678  1.00  0.00    -0.206 F 
ATOM     72  C   UNL A   1      34.008  34.604  31.600  1.00  0.00     0.022 A 
BRANCH  69  73
ATOM     73  S   UNL A   1      33.241  35.658  29.139  1.00  0.00     0.124 S 
ATOM     74  O   UNL A   1      32.520  34.592  28.452  1.00  0.00    -0.237 OA
ATOM     75  O   UNL A   1      32.463  36.464  30.074  1.00  0.00    -0.237 OA
ATOM     76  O   UNL A   1      34.172  36.414  28.301  1.00  0.00    -0.744 OA
ENDBRANCH  69  73
ENDBRANCH  52  66
BRANCH  53  77
ATOM     77  C   UNL A   1      44.714  28.969  28.435  1.00  0.00     0.023 A 
ATOM     78  C   UNL A   1      45.560  27.951  28.917  1.00  0.00     0.031 A 
ATOM     79  C   UNL A   1      44.143  28.806  27.167  1.00  0.00     0.131 A 
ATOM     80  C   UNL A   1      45.683  26.745  28.217  1.00  0.00     0.055 A 
ATOM     81  C   UNL A   1      44.322  27.623  26.439  1.00  0.00     0.041 A 
ATOM     82  F   UNL A   1      43.309  29.729  26.669  1.00  0.00    -0.206 F 
ATOM     83  C   UNL A   1      45.056  26.567  26.983  1.00  0.00     0.022 A 
BRANCH  80  84
ATOM     84  S   UNL A   1      46.421  25.321  29.064  1.00  0.00     0.124 S 
ATOM     85  O   UNL A   1      46.012  25.531  30.446  1.00  0.00    -0.237 OA
ATOM     86  O   UNL A   1      45.806  24.184  28.380  1.00  0.00    -0.237 OA
ATOM     87  O   UNL A   1      47.849  25.473  28.794  1.00  0.00    -0.744 OA
ENDBRANCH  80  84
ENDBRANCH  53  77
BRANCH  65  88
ATOM     88  C   UNL A   1      42.482  35.837  28.859  1.00  0.00     0.023 A 
ATOM     89  C   UNL A   1      43.154  36.850  29.560  1.00  0.00     0.031 A 
ATOM     90  C   UNL A   1      41.971  36.202  27.591  1.00  0.00     0.131 A 
ATOM     91  C   UNL A   1      43.205  38.166  29.067  1.00  0.00     0.055 A 
ATOM     92  C   UNL A   1      42.097  37.491  27.062  1.00  0.00     0.041 A 
ATOM     93  F   UNL A   1      41.328  35.321  26.809  1.00  0.00    -0.206 F 
ATOM     94  C   UNL A   1      42.699  38.491  27.813  1.00  0.00     0.022 A 
BRANCH  91  95
ATOM     95  S   UNL A   1      43.875  39.459  30.145  1.00  0.00     0.124 S 
ATOM     96  O   UNL A   1      42.803  40.452  30.124  1.00  0.00    -0.237 OA
ATOM     97  O   UNL A   1      44.059  38.751  31.408  1.00  0.00    -0.237 OA
ATOM     98  O   UNL A   1      45.107  39.864  29.473  1.00  0.00    -0.744 OA
ENDBRANCH  91  95
ENDBRANCH  65  88
ENDBRANCH  39  40
ENDBRANCH  31  34
ENDBRANCH   1  30
TORSDOF 15
ENDMDL
MODEL 2
REMARK VINA RESULT:     -13.7      4.427     10.417
REMARK SMILES Cc1ccc(-c2cc(Cl)cc3c2O[C@@H](C(F)(F)F)C(C(=O)NCCCNC(=O)c2ccc(-c4c5nc(c(-c6cc(S(=O)(=O)[O-])ccc6F)c6ccc([nH]6)c(-c6cc(S(=O)(=O)[O-])ccc6F)c6nc(c(-c7cc(S(=O)(=O)[O-])ccc7F)c7ccc4[nH]7)C=C6)C=C5)cc2)=C3)cc1
REMARK SMILES IDX 25 1 24 2 23 3 22 4 20 5 21 6 19 8 6 9 7 10 12 11 8 12 11 13
REMARK SMILES IDX 13 14 9 15 10 16 92 17 14 18 5 19 1 20 2 21 3 22 94 23 4 24
REMARK SMILES IDX 93 25 15 26 16 27 17 28 18 29 26 30 27 31 28 33 29 34 30 35
REMARK SMILES IDX 91 36 31 37 90 38 32 39 33 40 34 41 84 42 35 43 89 44 83 45
REMARK SMILES IDX 85 46 36 47 88 48 82 49 81 50 37 52 69 53 49 54 68 55 50 56
REMARK SMILES IDX 53 57 67 58 86 59 51 60 52 61 66 63 87 64 54 65 38 66 39 67
REMARK SMILES IDX 47 68 40 69 46 70 48 71 45 72 41 73 42 74 43 75 44 76 70 77
REMARK SMILES IDX 71 78 79 79 72 80 78 81 80 82 77 83 73 84 74 85 75 86 76 87
REMARK SMILES IDX 55 88 56 89 64 90 57 91 63 92 65 93 62 94 58 95 59 96 60 97
REMARK SMILES IDX 61 98
REMARK H PARENT 22 7 26 32 85 51 53 62
REMARK Flexibility Score: inf
ROOT
ATOM      1  C   UNL A   1      34.153  29.615  27.653  1.00  0.00     0.118 C 
ENDROOT
BRANCH   1   2
ATOM      2  C   UNL A   1      34.324  29.379  26.153  1.00  0.00     0.042 C 
BRANCH   2   3
ATOM      3  C   UNL A   1      33.367  28.359  25.542  1.00  0.00     0.118 C 
BRANCH   3   4
ATOM      4  N   UNL A   1      34.024  27.322  24.760  1.00  0.00    -0.352 N 
ATOM      5  C   UNL A   1      33.581  26.399  23.863  1.00  0.00     0.251 C 
ATOM      6  O   UNL A   1      34.406  25.946  23.062  1.00  0.00    -0.270 OA
ATOM      7  H   UNL A   1      34.996  27.278  24.913  1.00  0.00     0.163 HD
BRANCH   5   8
ATOM      8  C   UNL A   1      32.141  25.862  23.838  1.00  0.00     0.067 C 
ATOM      9  C   UNL A   1      33.774  22.337  25.030  1.00  0.00     0.026 A 
ATOM     10  C   UNL A   1      33.379  21.124  24.434  1.00  0.00     0.033 A 
ATOM     11  C   UNL A   1      33.001  23.450  24.703  1.00  0.00     0.135 A 
ATOM     12  C   UNL A   1      32.529  21.129  23.323  1.00  0.00     0.042 A 
ATOM     13  C   UNL A   1      32.371  23.520  23.431  1.00  0.00     0.019 A 
ATOM     14  O   UNL A   1      32.748  24.441  25.669  1.00  0.00    -0.475 OA
ATOM     15  Cl  UNL A   1      32.128  19.639  22.561  1.00  0.00    -0.084 Cl
ATOM     16  C   UNL A   1      32.109  22.334  22.755  1.00  0.00     0.032 A 
ATOM     17  C   UNL A   1      32.024  24.879  22.902  1.00  0.00     0.025 C 
ATOM     18  C   UNL A   1      31.672  25.285  25.165  1.00  0.00     0.314 C 
BRANCH   9  19
ATOM     19  C   UNL A   1      35.246  22.493  25.172  1.00  0.00    -0.015 A 
ATOM     20  C   UNL A   1      39.477  22.376  26.123  1.00  0.00     0.044 C 
ATOM     21  C   UNL A   1      38.023  22.429  25.752  1.00  0.00    -0.051 A 
ATOM     22  C   UNL A   1      37.274  23.609  25.903  1.00  0.00     0.004 A 
ATOM     23  C   UNL A   1      37.394  21.298  25.241  1.00  0.00     0.004 A 
ATOM     24  C   UNL A   1      35.894  23.642  25.623  1.00  0.00     0.009 A 
ATOM     25  C   UNL A   1      36.035  21.338  24.949  1.00  0.00     0.009 A 
ENDBRANCH   9  19
BRANCH  18  26
ATOM     26  C   UNL A   1      30.818  26.149  26.104  1.00  0.00     0.429 C 
ATOM     27  F   UNL A   1      30.442  27.293  25.452  1.00  0.00    -0.167 F 
ATOM     28  F   UNL A   1      29.672  25.563  26.495  1.00  0.00    -0.167 F 
ATOM     29  F   UNL A   1      31.482  26.587  27.193  1.00  0.00    -0.167 F 
ENDBRANCH  18  26
ENDBRANCH   5   8
ENDBRANCH   3   4
ENDBRANCH   2   3
ENDBRANCH   1   2
BRANCH   1  30
ATOM     30  N   UNL A   1      34.898  30.776  28.155  1.00  0.00    -0.352 N 
ATOM     31  C   UNL A   1      36.231  30.861  28.536  1.00  0.00     0.251 C 
ATOM     32  H   UNL A   1      34.382  31.610  28.233  1.00  0.00     0.163 HD
ATOM     33  O   UNL A   1      36.734  31.878  28.938  1.00  0.00    -0.269 OA
BRANCH  31  34
ATOM     34  C   UNL A   1      37.067  29.652  28.332  1.00  0.00     0.039 A 
ATOM     35  C   UNL A   1      37.238  28.799  29.427  1.00  0.00     0.014 A 
ATOM     36  C   UNL A   1      37.867  29.545  27.199  1.00  0.00     0.014 A 
ATOM     37  C   UNL A   1      38.373  28.000  29.487  1.00  0.00     0.010 A 
ATOM     38  C   UNL A   1      39.035  28.810  27.293  1.00  0.00     0.010 A 
ATOM     39  C   UNL A   1      39.326  28.104  28.469  1.00  0.00    -0.014 A 
BRANCH  39  40
ATOM     40  C   UNL A   1      40.728  27.748  28.684  1.00  0.00     0.031 A 
ATOM     41  C   UNL A   1      41.340  26.539  28.103  1.00  0.00     0.074 A 
ATOM     42  C   UNL A   1      41.517  28.602  29.375  1.00  0.00     0.049 A 
ATOM     43  N   UNL A   1      42.335  25.907  28.635  1.00  0.00    -0.248 NA
ATOM     44  C   UNL A   1      40.862  25.933  26.866  1.00  0.00     0.031 C 
ATOM     45  C   UNL A   1      42.973  28.592  29.462  1.00  0.00     0.029 A 
ATOM     46  N   UNL A   1      41.119  29.544  30.321  1.00  0.00    -0.354 N 
ATOM     47  C   UNL A   1      42.815  25.033  27.689  1.00  0.00     0.074 A 
ATOM     48  C   UNL A   1      41.822  25.031  26.637  1.00  0.00     0.031 C 
ATOM     49  C   UNL A   1      43.346  29.284  30.550  1.00  0.00     0.029 A 
ATOM     50  C   UNL A   1      42.142  29.641  31.277  1.00  0.00     0.049 A 
ATOM     51  H   UNL A   1      40.274  30.049  30.319  1.00  0.00     0.167 HD
ATOM     52  C   UNL A   1      44.074  24.520  27.794  1.00  0.00     0.034 A 
ATOM     53  C   UNL A   1      41.903  29.364  32.591  1.00  0.00     0.034 A 
ATOM     54  C   UNL A   1      44.781  25.002  28.976  1.00  0.00     0.049 A 
ATOM     55  C   UNL A   1      42.709  28.206  33.125  1.00  0.00     0.074 A 
ATOM     56  C   UNL A   1      45.745  25.983  29.154  1.00  0.00     0.029 A 
ATOM     57  N   UNL A   1      44.333  24.661  30.249  1.00  0.00    -0.354 N 
ATOM     58  N   UNL A   1      43.373  27.370  32.376  1.00  0.00    -0.248 NA
ATOM     59  C   UNL A   1      42.801  27.878  34.545  1.00  0.00     0.031 C 
ATOM     60  C   UNL A   1      45.821  26.281  30.538  1.00  0.00     0.029 A 
ATOM     61  C   UNL A   1      44.929  25.460  31.207  1.00  0.00     0.049 A 
ATOM     62  H   UNL A   1      43.680  23.950  30.441  1.00  0.00     0.167 HD
ATOM     63  C   UNL A   1      43.919  26.387  33.159  1.00  0.00     0.074 A 
ATOM     64  C   UNL A   1      43.569  26.776  34.515  1.00  0.00     0.031 C 
ATOM     65  C   UNL A   1      44.591  25.326  32.619  1.00  0.00     0.034 A 
BRANCH  52  66
ATOM     66  C   UNL A   1      44.749  23.858  26.617  1.00  0.00     0.023 A 
ATOM     67  C   UNL A   1      44.477  22.510  26.309  1.00  0.00     0.031 A 
ATOM     68  C   UNL A   1      45.706  24.492  25.803  1.00  0.00     0.131 A 
ATOM     69  C   UNL A   1      45.214  21.824  25.327  1.00  0.00     0.055 A 
ATOM     70  C   UNL A   1      46.481  23.797  24.867  1.00  0.00     0.041 A 
ATOM     71  F   UNL A   1      45.914  25.817  25.882  1.00  0.00    -0.206 F 
ATOM     72  C   UNL A   1      46.249  22.448  24.637  1.00  0.00     0.022 A 
BRANCH  69  73
ATOM     73  S   UNL A   1      44.793  20.097  24.960  1.00  0.00     0.124 S 
ATOM     74  O   UNL A   1      44.528  20.139  23.525  1.00  0.00    -0.237 OA
ATOM     75  O   UNL A   1      46.002  19.392  25.371  1.00  0.00    -0.237 OA
ATOM     76  O   UNL A   1      43.619  19.849  25.796  1.00  0.00    -0.744 OA
ENDBRANCH  69  73
ENDBRANCH  52  66
BRANCH  53  77
ATOM     77  C   UNL A   1      40.535  29.744  33.039  1.00  0.00     0.023 A 
ATOM     78  C   UNL A   1      40.278  31.120  33.197  1.00  0.00     0.031 A 
ATOM     79  C   UNL A   1      39.440  28.877  32.935  1.00  0.00     0.131 A 
ATOM     80  C   UNL A   1      38.973  31.612  33.081  1.00  0.00     0.055 A 
ATOM     81  C   UNL A   1      38.129  29.368  32.885  1.00  0.00     0.041 A 
ATOM     82  F   UNL A   1      39.623  27.562  32.756  1.00  0.00    -0.206 F 
ATOM     83  C   UNL A   1      37.893  30.744  32.911  1.00  0.00     0.022 A 
BRANCH  80  84
ATOM     84  S   UNL A   1      38.734  33.397  32.861  1.00  0.00     0.124 S 
ATOM     85  O   UNL A   1      39.973  33.801  32.211  1.00  0.00    -0.237 OA
ATOM     86  O   UNL A   1      37.528  33.463  32.037  1.00  0.00    -0.237 OA
ATOM     87  O   UNL A   1      38.546  33.881  34.227  1.00  0.00    -0.744 OA
ENDBRANCH  80  84
ENDBRANCH  53  77
BRANCH  65  88
ATOM     88  C   UNL A   1      45.070  24.120  33.392  1.00  0.00     0.023 A 
ATOM     89  C   UNL A   1      46.332  24.049  34.001  1.00  0.00     0.031 A 
ATOM     90  C   UNL A   1      44.226  23.003  33.596  1.00  0.00     0.131 A 
ATOM     91  C   UNL A   1      46.753  22.886  34.672  1.00  0.00     0.055 A 
ATOM     92  C   UNL A   1      44.614  21.881  34.336  1.00  0.00     0.041 A 
ATOM     93  F   UNL A   1      42.986  22.953  33.086  1.00  0.00    -0.206 F 
ATOM     94  C   UNL A   1      45.896  21.808  34.861  1.00  0.00     0.022 A 
BRANCH  91  95
ATOM     95  S   UNL A   1      48.479  22.789  35.215  1.00  0.00     0.124 S 
ATOM     96  O   UNL A   1      49.028  24.039  34.695  1.00  0.00    -0.237 OA
ATOM     97  O   UNL A   1      48.347  22.708  36.666  1.00  0.00    -0.237 OA
ATOM     98  O   UNL A   1      48.977  21.578  34.566  1.00  0.00    -0.744 OA
ENDBRANCH  91  95
ENDBRANCH  65  88
ENDBRANCH  39  40
ENDBRANCH  31  34
ENDBRANCH   1  30
TORSDOF 15
ENDMDL
MODEL 3
REMARK VINA RESULT:     -13.7      4.171     10.015
REMARK SMILES Cc1ccc(-c2cc(Cl)cc3c2O[C@@H](C(F)(F)F)C(C(=O)NCCCNC(=O)c2ccc(-c4c5nc(c(-c6cc(S(=O)(=O)[O-])ccc6F)c6ccc([nH]6)c(-c6cc(S(=O)(=O)[O-])ccc6F)c6nc(c(-c7cc(S(=O)(=O)[O-])ccc7F)c7ccc4[nH]7)C=C6)C=C5)cc2)=C3)cc1
REMARK SMILES IDX 25 1 24 2 23 3 22 4 20 5 21 6 19 8 6 9 7 10 12 11 8 12 11 13
REMARK SMILES IDX 13 14 9 15 10 16 92 17 14 18 5 19 1 20 2 21 3 22 94 23 4 24
REMARK SMILES IDX 93 25 15 26 16 27 17 28 18 29 26 30 27 31 28 33 29 34 30 35
REMARK SMILES IDX 91 36 31 37 90 38 32 39 33 40 34 41 84 42 35 43 89 44 83 45
REMARK SMILES IDX 85 46 36 47 88 48 82 49 81 50 37 52 69 53 49 54 68 55 50 56
REMARK SMILES IDX 53 57 67 58 86 59 51 60 52 61 66 63 87 64 54 65 38 66 39 67
REMARK SMILES IDX 47 68 40 69 46 70 48 71 45 72 41 73 42 74 43 75 44 76 70 77
REMARK SMILES IDX 71 78 79 79 72 80 78 81 80 82 77 83 73 84 74 85 75 86 76 87
REMARK SMILES IDX 55 88 56 89 64 90 57 91 63 92 65 93 62 94 58 95 59 96 60 97
REMARK SMILES IDX 61 98
REMARK H PARENT 22 7 26 32 85 51 53 62
REMARK Flexibility Score: inf
ROOT
ATOM      1  C   UNL A   1      33.544  29.771  27.221  1.00  0.00     0.118 C 
ENDROOT
BRANCH   1   2
ATOM      2  C   UNL A   1      33.840  29.412  25.766  1.00  0.00     0.042 C 
BRANCH   2   3
ATOM      3  C   UNL A   1      32.937  28.337  25.165  1.00  0.00     0.118 C 
BRANCH   3   4
ATOM      4  N   UNL A   1      33.655  27.284  24.463  1.00  0.00    -0.352 N 
ATOM      5  C   UNL A   1      33.270  26.284  23.624  1.00  0.00     0.251 C 
ATOM      6  O   UNL A   1      34.129  25.818  22.866  1.00  0.00    -0.270 OA
ATOM      7  H   UNL A   1      34.625  27.296  24.632  1.00  0.00     0.163 HD
BRANCH   5   8
ATOM      8  C   UNL A   1      31.858  25.679  23.614  1.00  0.00     0.067 C 
ATOM      9  C   UNL A   1      33.628  22.326  25.076  1.00  0.00     0.026 A 
ATOM     10  C   UNL A   1      33.301  21.057  24.560  1.00  0.00     0.033 A 
ATOM     11  C   UNL A   1      32.811  23.376  24.659  1.00  0.00     0.135 A 
ATOM     12  C   UNL A   1      32.473  20.945  23.439  1.00  0.00     0.042 A 
ATOM     13  C   UNL A   1      32.203  23.327  23.376  1.00  0.00     0.019 A 
ATOM     14  O   UNL A   1      32.495  24.418  25.550  1.00  0.00    -0.475 OA
ATOM     15  Cl  UNL A   1      32.155  19.388  22.777  1.00  0.00    -0.084 Cl
ATOM     16  C   UNL A   1      32.008  22.086  22.781  1.00  0.00     0.032 A 
ATOM     17  C   UNL A   1      31.802  24.628  22.748  1.00  0.00     0.025 C 
ATOM     18  C   UNL A   1      31.391  25.174  24.972  1.00  0.00     0.314 C 
BRANCH   9  19
ATOM     19  C   UNL A   1      35.089  22.561  25.229  1.00  0.00    -0.015 A 
ATOM     20  C   UNL A   1      39.334  22.600  26.124  1.00  0.00     0.044 C 
ATOM     21  C   UNL A   1      37.873  22.606  25.774  1.00  0.00    -0.051 A 
ATOM     22  C   UNL A   1      37.050  23.697  26.099  1.00  0.00     0.004 A 
ATOM     23  C   UNL A   1      37.314  21.520  25.110  1.00  0.00     0.004 A 
ATOM     24  C   UNL A   1      35.666  23.675  25.836  1.00  0.00     0.009 A 
ATOM     25  C   UNL A   1      35.950  21.507  24.835  1.00  0.00     0.009 A 
ENDBRANCH   9  19
BRANCH  18  26
ATOM     26  C   UNL A   1      30.481  26.060  25.834  1.00  0.00     0.429 C 
ATOM     27  F   UNL A   1      29.970  27.071  25.066  1.00  0.00    -0.167 F 
ATOM     28  F   UNL A   1      29.413  25.416  26.340  1.00  0.00    -0.167 F 
ATOM     29  F   UNL A   1      31.128  26.691  26.834  1.00  0.00    -0.167 F 
ENDBRANCH  18  26
ENDBRANCH   5   8
ENDBRANCH   3   4
ENDBRANCH   2   3
ENDBRANCH   1   2
BRANCH   1  30
ATOM     30  N   UNL A   1      34.170  31.025  27.657  1.00  0.00    -0.352 N 
ATOM     31  C   UNL A   1      35.466  31.245  28.108  1.00  0.00     0.251 C 
ATOM     32  H   UNL A   1      33.592  31.821  27.627  1.00  0.00     0.163 HD
ATOM     33  O   UNL A   1      35.868  32.329  28.443  1.00  0.00    -0.269 OA
BRANCH  31  34
ATOM     34  C   UNL A   1      36.397  30.090  28.066  1.00  0.00     0.039 A 
ATOM     35  C   UNL A   1      36.524  29.328  29.231  1.00  0.00     0.014 A 
ATOM     36  C   UNL A   1      37.303  29.966  27.017  1.00  0.00     0.014 A 
ATOM     37  C   UNL A   1      37.701  28.620  29.448  1.00  0.00     0.010 A 
ATOM     38  C   UNL A   1      38.504  29.328  27.266  1.00  0.00     0.010 A 
ATOM     39  C   UNL A   1      38.733  28.726  28.511  1.00  0.00    -0.014 A 
BRANCH  39  40
ATOM     40  C   UNL A   1      40.131  28.490  28.872  1.00  0.00     0.031 A 
ATOM     41  C   UNL A   1      40.883  27.309  28.411  1.00  0.00     0.074 A 
ATOM     42  C   UNL A   1      40.785  29.432  29.590  1.00  0.00     0.049 A 
ATOM     43  N   UNL A   1      41.867  26.780  29.064  1.00  0.00    -0.248 NA
ATOM     44  C   UNL A   1      40.573  26.616  27.167  1.00  0.00     0.031 C 
ATOM     45  C   UNL A   1      42.223  29.539  29.812  1.00  0.00     0.029 A 
ATOM     46  N   UNL A   1      40.230  30.379  30.447  1.00  0.00    -0.354 N 
ATOM     47  C   UNL A   1      42.499  25.907  28.211  1.00  0.00     0.074 A 
ATOM     48  C   UNL A   1      41.614  25.783  27.073  1.00  0.00     0.031 C 
ATOM     49  C   UNL A   1      42.438  30.304  30.894  1.00  0.00     0.029 A 
ATOM     50  C   UNL A   1      41.146  30.597  31.488  1.00  0.00     0.049 A 
ATOM     51  H   UNL A   1      39.354  30.816  30.343  1.00  0.00     0.167 HD
ATOM     52  C   UNL A   1      43.776  25.499  28.457  1.00  0.00     0.034 A 
ATOM     53  C   UNL A   1      40.803  30.358  32.787  1.00  0.00     0.034 A 
ATOM     54  C   UNL A   1      44.329  26.084  29.674  1.00  0.00     0.049 A 
ATOM     55  C   UNL A   1      41.638  29.290  33.449  1.00  0.00     0.074 A 
ATOM     56  C   UNL A   1      45.196  27.144  29.891  1.00  0.00     0.029 A 
ATOM     57  N   UNL A   1      43.787  25.763  30.915  1.00  0.00    -0.354 N 
ATOM     58  N   UNL A   1      42.430  28.478  32.807  1.00  0.00    -0.248 NA
ATOM     59  C   UNL A   1      41.617  29.030  34.886  1.00  0.00     0.031 C 
ATOM     60  C   UNL A   1      45.118  27.506  31.259  1.00  0.00     0.029 A 
ATOM     61  C   UNL A   1      44.228  26.647  31.884  1.00  0.00     0.049 A 
ATOM     62  H   UNL A   1      43.173  25.012  31.081  1.00  0.00     0.167 HD
ATOM     63  C   UNL A   1      42.970  27.574  33.685  1.00  0.00     0.074 A 
ATOM     64  C   UNL A   1      42.464  27.991  34.982  1.00  0.00     0.031 C 
ATOM     65  C   UNL A   1      43.767  26.546  33.263  1.00  0.00     0.034 A 
BRANCH  52  66
ATOM     66  C   UNL A   1      44.608  24.842  27.381  1.00  0.00     0.023 A 
ATOM     67  C   UNL A   1      45.538  25.599  26.643  1.00  0.00     0.031 A 
ATOM     68  C   UNL A   1      44.483  23.491  27.009  1.00  0.00     0.131 A 
ATOM     69  C   UNL A   1      46.201  25.053  25.529  1.00  0.00     0.055 A 
ATOM     70  C   UNL A   1      45.095  22.962  25.866  1.00  0.00     0.041 A 
ATOM     71  F   UNL A   1      43.767  22.630  27.752  1.00  0.00    -0.206 F 
ATOM     72  C   UNL A   1      45.947  23.752  25.107  1.00  0.00     0.022 A 
BRANCH  69  73
ATOM     73  S   UNL A   1      47.410  26.075  24.639  1.00  0.00     0.124 S 
ATOM     74  O   UNL A   1      46.591  27.186  24.167  1.00  0.00    -0.237 OA
ATOM     75  O   UNL A   1      48.379  26.385  25.684  1.00  0.00    -0.237 OA
ATOM     76  O   UNL A   1      47.900  25.181  23.589  1.00  0.00    -0.744 OA
ENDBRANCH  69  73
ENDBRANCH  52  66
BRANCH  53  77
ATOM     77  C   UNL A   1      39.374  30.648  33.087  1.00  0.00     0.023 A 
ATOM     78  C   UNL A   1      39.009  32.005  33.181  1.00  0.00     0.031 A 
ATOM     79  C   UNL A   1      38.357  29.703  32.898  1.00  0.00     0.131 A 
ATOM     80  C   UNL A   1      37.691  32.401  32.923  1.00  0.00     0.055 A 
ATOM     81  C   UNL A   1      37.028  30.099  32.706  1.00  0.00     0.041 A 
ATOM     82  F   UNL A   1      38.648  28.401  32.775  1.00  0.00    -0.206 F 
ATOM     83  C   UNL A   1      36.696  31.455  32.671  1.00  0.00     0.022 A 
BRANCH  80  84
ATOM     84  S   UNL A   1      37.354  34.159  32.632  1.00  0.00     0.124 S 
ATOM     85  O   UNL A   1      38.453  34.549  31.760  1.00  0.00    -0.237 OA
ATOM     86  O   UNL A   1      36.027  34.136  32.018  1.00  0.00    -0.237 OA
ATOM     87  O   UNL A   1      37.375  34.732  33.976  1.00  0.00    -0.744 OA
ENDBRANCH  80  84
ENDBRANCH  53  77
BRANCH  65  88
ATOM     88  C   UNL A   1      44.258  25.415  34.136  1.00  0.00     0.023 A 
ATOM     89  C   UNL A   1      45.617  25.143  34.349  1.00  0.00     0.031 A 
ATOM     90  C   UNL A   1      43.348  24.597  34.847  1.00  0.00     0.131 A 
ATOM     91  C   UNL A   1      46.027  24.050  35.133  1.00  0.00     0.055 A 
ATOM     92  C   UNL A   1      43.759  23.563  35.695  1.00  0.00     0.041 A 
ATOM     93  F   UNL A   1      42.021  24.767  34.749  1.00  0.00    -0.206 F 
ATOM     94  C   UNL A   1      45.108  23.268  35.825  1.00  0.00     0.022 A 
BRANCH  91  95
ATOM     95  S   UNL A   1      47.788  23.625  35.156  1.00  0.00     0.124 S 
ATOM     96  O   UNL A   1      48.206  24.147  36.455  1.00  0.00    -0.237 OA
ATOM     97  O   UNL A   1      47.762  22.171  35.035  1.00  0.00    -0.237 OA
ATOM     98  O   UNL A   1      48.330  24.336  34.000  1.00  0.00    -0.744 OA
ENDBRANCH  91  95
ENDBRANCH  65  88
ENDBRANCH  39  40
ENDBRANCH  31  34
ENDBRANCH   1  30
TORSDOF 15
ENDMDL
