MODEL 1
REMARK VINA RESULT:     -11.6      0.000      0.000
REMARK SMILES CC(C)[C@@](C)(CC(=O)N[C@H]1CCCC1(C)C)C(=O)NCCCNC(=O)c1ccc(-c2c3nc(c(-c4cc(S(=O)(=O)[O-])ccc4F)c4ccc([nH]4)c(-c4cc(S(=O)(=O)[O-])ccc4F)c4nc(c(-c5cc(S(=O)(=O)[O-])ccc5F)c5ccc2[nH]5)C=C4)C=C3)cc1
REMARK SMILES IDX 21 1 20 2 19 3 17 4 18 5 4 7 5 8 2 9 1 10 3 11 6 12 7 13
REMARK SMILES IDX 8 14 9 15 10 17 11 18 14 19 12 20 13 21 15 22 16 23 22 24
REMARK SMILES IDX 23 25 24 26 25 28 26 29 27 30 88 31 28 32 87 33 29 34 30 35
REMARK SMILES IDX 31 36 81 37 32 38 86 39 80 40 82 41 33 42 85 43 79 44 78 45
REMARK SMILES IDX 34 47 66 48 46 49 65 50 47 51 50 52 64 53 83 54 48 55 49 56
REMARK SMILES IDX 63 58 84 59 51 60 35 61 36 62 44 63 37 64 43 65 45 66 42 67
REMARK SMILES IDX 38 68 39 69 40 70 41 71 67 72 68 73 76 74 69 75 75 76 77 77
REMARK SMILES IDX 74 78 70 79 71 80 72 81 73 82 52 83 53 84 61 85 54 86 60 87
REMARK SMILES IDX 62 88 59 89 55 90 56 91 57 92 58 93
REMARK H PARENT 19 6 9 16 23 27 82 46 50 57
REMARK Flexibility Score: inf
ROOT
ATOM      1  C   UNL A   1      31.420  31.748  26.393  1.00  0.00     0.042 C 
ENDROOT
BRANCH   1   2
ATOM      2  C   UNL A   1      31.444  30.280  25.996  1.00  0.00     0.117 C 
BRANCH   2   3
ATOM      3  N   UNL A   1      31.153  30.098  24.587  1.00  0.00    -0.356 N 
ATOM      4  C   UNL A   1      31.279  29.083  23.706  1.00  0.00     0.226 C 
ATOM      5  O   UNL A   1      30.896  29.364  22.565  1.00  0.00    -0.274 OA
ATOM      6  H   UNL A   1      30.774  30.908  24.175  1.00  0.00     0.163 HD
BRANCH   4   7
ATOM      7  C   UNL A   1      31.762  27.665  24.075  1.00  0.00     0.057 C 
ATOM      8  C   UNL A   1      33.255  27.755  24.503  1.00  0.00     0.022 C 
BRANCH   7   9
ATOM      9  C   UNL A   1      30.952  27.122  25.334  1.00  0.00    -0.002 C 
ATOM     10  C   UNL A   1      29.944  25.997  25.038  1.00  0.00     0.008 C 
ATOM     11  C   UNL A   1      31.800  26.667  26.535  1.00  0.00     0.008 C 
ENDBRANCH   7   9
BRANCH   7  12
ATOM     12  C   UNL A   1      31.733  26.666  22.877  1.00  0.00     0.116 C 
BRANCH  12  13
ATOM     13  C   UNL A   1      33.001  25.954  22.436  1.00  0.00     0.221 C 
ATOM     14  O   UNL A   1      33.703  26.405  21.532  1.00  0.00    -0.275 OA
ATOM     15  N   UNL A   1      33.419  24.840  23.119  1.00  0.00    -0.353 N 
ATOM     16  H   UNL A   1      34.369  24.601  23.019  1.00  0.00     0.163 HD
BRANCH  15  17
ATOM     17  C   UNL A   1      32.623  23.972  23.973  1.00  0.00     0.087 C 
ATOM     18  C   UNL A   1      32.062  22.790  23.169  1.00  0.00     0.025 C 
ATOM     19  C   UNL A   1      33.335  23.336  25.181  1.00  0.00    -0.015 C 
ATOM     20  C   UNL A   1      32.849  21.555  23.591  1.00  0.00     0.003 C 
ATOM     21  C   UNL A   1      33.890  22.030  24.600  1.00  0.00     0.008 C 
ATOM     22  C   UNL A   1      34.443  24.196  25.793  1.00  0.00     0.013 C 
ATOM     23  C   UNL A   1      32.282  23.050  26.278  1.00  0.00     0.013 C 
ENDBRANCH  15  17
ENDBRANCH  12  13
ENDBRANCH   7  12
ENDBRANCH   4   7
ENDBRANCH   2   3
ENDBRANCH   1   2
BRANCH   1  24
ATOM     24  C   UNL A   1      32.727  32.248  26.997  1.00  0.00     0.118 C 
BRANCH  24  25
ATOM     25  N   UNL A   1      32.625  33.612  27.506  1.00  0.00    -0.352 N 
ATOM     26  C   UNL A   1      33.307  34.224  28.526  1.00  0.00     0.251 C 
ATOM     27  H   UNL A   1      31.965  34.180  27.046  1.00  0.00     0.163 HD
ATOM     28  O   UNL A   1      32.919  35.311  28.950  1.00  0.00    -0.269 OA
BRANCH  26  29
ATOM     29  C   UNL A   1      34.485  33.563  29.125  1.00  0.00     0.039 A 
ATOM     30  C   UNL A   1      35.752  34.111  28.915  1.00  0.00     0.014 A 
ATOM     31  C   UNL A   1      34.337  32.411  29.901  1.00  0.00     0.014 A 
ATOM     32  C   UNL A   1      36.860  33.542  29.547  1.00  0.00     0.010 A 
ATOM     33  C   UNL A   1      35.422  31.910  30.608  1.00  0.00     0.010 A 
ATOM     34  C   UNL A   1      36.698  32.464  30.433  1.00  0.00    -0.014 A 
BRANCH  34  35
ATOM     35  C   UNL A   1      37.854  31.893  31.174  1.00  0.00     0.031 A 
ATOM     36  C   UNL A   1      38.677  30.798  30.552  1.00  0.00     0.074 A 
ATOM     37  C   UNL A   1      38.125  32.323  32.422  1.00  0.00     0.049 A 
ATOM     38  N   UNL A   1      39.678  30.125  31.059  1.00  0.00    -0.248 NA
ATOM     39  C   UNL A   1      38.303  30.381  29.191  1.00  0.00     0.031 C 
ATOM     40  C   UNL A   1      37.368  33.348  33.145  1.00  0.00     0.029 A 
ATOM     41  N   UNL A   1      39.104  31.951  33.308  1.00  0.00    -0.354 N 
ATOM     42  C   UNL A   1      40.047  29.203  30.084  1.00  0.00     0.074 A 
ATOM     43  C   UNL A   1      39.112  29.353  28.990  1.00  0.00     0.031 C 
ATOM     44  C   UNL A   1      37.931  33.546  34.348  1.00  0.00     0.029 A 
ATOM     45  C   UNL A   1      39.054  32.627  34.507  1.00  0.00     0.049 A 
ATOM     46  H   UNL A   1      39.781  31.265  33.106  1.00  0.00     0.167 HD
ATOM     47  C   UNL A   1      41.088  28.335  30.089  1.00  0.00     0.034 A 
ATOM     48  C   UNL A   1      39.815  32.508  35.612  1.00  0.00     0.034 A 
ATOM     49  C   UNL A   1      42.011  28.203  31.188  1.00  0.00     0.049 A 
ATOM     50  C   UNL A   1      40.943  31.507  35.609  1.00  0.00     0.074 A 
ATOM     51  C   UNL A   1      43.124  27.385  31.285  1.00  0.00     0.029 A 
ATOM     52  N   UNL A   1      41.926  28.899  32.388  1.00  0.00    -0.354 N 
ATOM     53  N   UNL A   1      41.312  30.679  34.658  1.00  0.00    -0.248 NA
ATOM     54  C   UNL A   1      41.765  31.432  36.823  1.00  0.00     0.031 C 
ATOM     55  C   UNL A   1      43.665  27.531  32.568  1.00  0.00     0.029 A 
ATOM     56  C   UNL A   1      42.946  28.506  33.241  1.00  0.00     0.049 A 
ATOM     57  H   UNL A   1      41.240  29.573  32.601  1.00  0.00     0.167 HD
ATOM     58  C   UNL A   1      42.431  30.011  35.148  1.00  0.00     0.074 A 
ATOM     59  C   UNL A   1      42.685  30.548  36.470  1.00  0.00     0.031 C 
ATOM     60  C   UNL A   1      43.183  29.045  34.561  1.00  0.00     0.034 A 
BRANCH  47  61
ATOM     61  C   UNL A   1      41.261  27.451  28.874  1.00  0.00     0.023 A 
ATOM     62  C   UNL A   1      42.267  27.695  27.922  1.00  0.00     0.031 A 
ATOM     63  C   UNL A   1      40.394  26.369  28.647  1.00  0.00     0.131 A 
ATOM     64  C   UNL A   1      42.332  26.921  26.754  1.00  0.00     0.055 A 
ATOM     65  C   UNL A   1      40.520  25.546  27.526  1.00  0.00     0.041 A 
ATOM     66  F   UNL A   1      39.399  26.097  29.507  1.00  0.00    -0.206 F 
ATOM     67  C   UNL A   1      41.482  25.830  26.563  1.00  0.00     0.022 A 
BRANCH  64  68
ATOM     68  S   UNL A   1      43.439  27.457  25.421  1.00  0.00     0.124 S 
ATOM     69  O   UNL A   1      44.226  28.492  26.089  1.00  0.00    -0.237 OA
ATOM     70  O   UNL A   1      44.151  26.229  25.088  1.00  0.00    -0.237 OA
ATOM     71  O   UNL A   1      42.525  27.948  24.392  1.00  0.00    -0.744 OA
ENDBRANCH  64  68
ENDBRANCH  47  61
BRANCH  48  72
ATOM     72  C   UNL A   1      39.538  33.343  36.818  1.00  0.00     0.023 A 
ATOM     73  C   UNL A   1      38.836  32.820  37.916  1.00  0.00     0.031 A 
ATOM     74  C   UNL A   1      39.924  34.695  36.868  1.00  0.00     0.131 A 
ATOM     75  C   UNL A   1      38.492  33.656  38.990  1.00  0.00     0.055 A 
ATOM     76  C   UNL A   1      39.636  35.506  37.967  1.00  0.00     0.041 A 
ATOM     77  F   UNL A   1      40.600  35.247  35.849  1.00  0.00    -0.206 F 
ATOM     78  C   UNL A   1      38.901  34.991  39.031  1.00  0.00     0.022 A 
BRANCH  75  79
ATOM     79  S   UNL A   1      37.409  33.000  40.289  1.00  0.00     0.124 S 
ATOM     80  O   UNL A   1      36.180  32.742  39.547  1.00  0.00    -0.237 OA
ATOM     81  O   UNL A   1      38.148  31.824  40.736  1.00  0.00    -0.237 OA
ATOM     82  O   UNL A   1      37.336  34.094  41.255  1.00  0.00    -0.744 OA
ENDBRANCH  75  79
ENDBRANCH  48  72
BRANCH  60  83
ATOM     83  C   UNL A   1      44.384  28.547  35.329  1.00  0.00     0.023 A 
ATOM     84  C   UNL A   1      44.274  27.558  36.321  1.00  0.00     0.031 A 
ATOM     85  C   UNL A   1      45.658  29.084  35.071  1.00  0.00     0.131 A 
ATOM     86  C   UNL A   1      45.404  27.182  37.063  1.00  0.00     0.055 A 
ATOM     87  C   UNL A   1      46.792  28.655  35.763  1.00  0.00     0.041 A 
ATOM     88  F   UNL A   1      45.824  30.035  34.138  1.00  0.00    -0.206 F 
ATOM     89  C   UNL A   1      46.666  27.710  36.776  1.00  0.00     0.022 A 
BRANCH  86  90
ATOM     90  S   UNL A   1      45.186  26.075  38.483  1.00  0.00     0.124 S 
ATOM     91  O   UNL A   1      44.712  24.852  37.844  1.00  0.00    -0.237 OA
ATOM     92  O   UNL A   1      46.531  26.021  39.046  1.00  0.00    -0.237 OA
ATOM     93  O   UNL A   1      44.198  26.767  39.308  1.00  0.00    -0.744 OA
ENDBRANCH  86  90
ENDBRANCH  60  83
ENDBRANCH  34  35
ENDBRANCH  26  29
ENDBRANCH  24  25
ENDBRANCH   1  24
TORSDOF 17
ENDMDL
MODEL 2
REMARK VINA RESULT:     -11.6      1.903      3.221
REMARK SMILES CC(C)[C@@](C)(CC(=O)N[C@H]1CCCC1(C)C)C(=O)NCCCNC(=O)c1ccc(-c2c3nc(c(-c4cc(S(=O)(=O)[O-])ccc4F)c4ccc([nH]4)c(-c4cc(S(=O)(=O)[O-])ccc4F)c4nc(c(-c5cc(S(=O)(=O)[O-])ccc5F)c5ccc2[nH]5)C=C4)C=C3)cc1
REMARK SMILES IDX 21 1 20 2 19 3 17 4 18 5 4 7 5 8 2 9 1 10 3 11 6 12 7 13
REMARK SMILES IDX 8 14 9 15 10 17 11 18 14 19 12 20 13 21 15 22 16 23 22 24
REMARK SMILES IDX 23 25 24 26 25 28 26 29 27 30 88 31 28 32 87 33 29 34 30 35
REMARK SMILES IDX 31 36 81 37 32 38 86 39 80 40 82 41 33 42 85 43 79 44 78 45
REMARK SMILES IDX 34 47 66 48 46 49 65 50 47 51 50 52 64 53 83 54 48 55 49 56
REMARK SMILES IDX 63 58 84 59 51 60 35 61 36 62 44 63 37 64 43 65 45 66 42 67
REMARK SMILES IDX 38 68 39 69 40 70 41 71 67 72 68 73 76 74 69 75 75 76 77 77
REMARK SMILES IDX 74 78 70 79 71 80 72 81 73 82 52 83 53 84 61 85 54 86 60 87
REMARK SMILES IDX 62 88 59 89 55 90 56 91 57 92 58 93
REMARK H PARENT 19 6 9 16 23 27 82 46 50 57
REMARK Flexibility Score: inf
ROOT
ATOM      1  C   UNL A   1      31.385  32.267  26.461  1.00  0.00     0.042 C 
ENDROOT
BRANCH   1   2
ATOM      2  C   UNL A   1      31.367  30.835  25.948  1.00  0.00     0.117 C 
BRANCH   2   3
ATOM      3  N   UNL A   1      32.239  29.975  26.724  1.00  0.00    -0.356 N 
ATOM      4  C   UNL A   1      32.714  28.719  26.587  1.00  0.00     0.226 C 
ATOM      5  O   UNL A   1      33.454  28.363  27.510  1.00  0.00    -0.274 OA
ATOM      6  H   UNL A   1      32.561  30.411  27.546  1.00  0.00     0.163 HD
BRANCH   4   7
ATOM      7  C   UNL A   1      32.453  27.818  25.362  1.00  0.00     0.057 C 
ATOM      8  C   UNL A   1      32.988  28.550  24.097  1.00  0.00     0.022 C 
BRANCH   7   9
ATOM      9  C   UNL A   1      33.279  26.463  25.495  1.00  0.00    -0.002 C 
ATOM     10  C   UNL A   1      32.508  25.274  26.095  1.00  0.00     0.008 C 
ATOM     11  C   UNL A   1      33.960  25.960  24.209  1.00  0.00     0.008 C 
ENDBRANCH   7   9
BRANCH   7  12
ATOM     12  C   UNL A   1      30.940  27.564  25.085  1.00  0.00     0.116 C 
BRANCH  12  13
ATOM     13  C   UNL A   1      30.470  27.124  23.709  1.00  0.00     0.221 C 
ATOM     14  O   UNL A   1      30.796  26.034  23.243  1.00  0.00    -0.275 OA
ATOM     15  N   UNL A   1      29.593  27.917  23.013  1.00  0.00    -0.353 N 
ATOM     16  H   UNL A   1      29.080  27.474  22.299  1.00  0.00     0.163 HD
BRANCH  15  17
ATOM     17  C   UNL A   1      29.332  29.336  23.208  1.00  0.00     0.087 C 
ATOM     18  C   UNL A   1      30.202  30.178  22.264  1.00  0.00     0.025 C 
ATOM     19  C   UNL A   1      27.890  29.820  22.969  1.00  0.00    -0.015 C 
ATOM     20  C   UNL A   1      29.278  30.725  21.182  1.00  0.00     0.003 C 
ATOM     21  C   UNL A   1      27.890  30.163  21.474  1.00  0.00     0.008 C 
ATOM     22  C   UNL A   1      26.808  28.795  23.313  1.00  0.00     0.013 C 
ATOM     23  C   UNL A   1      27.649  31.085  23.827  1.00  0.00     0.013 C 
ENDBRANCH  15  17
ENDBRANCH  12  13
ENDBRANCH   7  12
ENDBRANCH   4   7
ENDBRANCH   2   3
ENDBRANCH   1   2
BRANCH   1  24
ATOM     24  C   UNL A   1      32.656  32.640  27.215  1.00  0.00     0.118 C 
BRANCH  24  25
ATOM     25  N   UNL A   1      32.649  34.023  27.679  1.00  0.00    -0.352 N 
ATOM     26  C   UNL A   1      33.379  34.621  28.675  1.00  0.00     0.251 C 
ATOM     27  H   UNL A   1      32.024  34.618  27.206  1.00  0.00     0.163 HD
ATOM     28  O   UNL A   1      33.067  35.744  29.065  1.00  0.00    -0.269 OA
BRANCH  26  29
ATOM     29  C   UNL A   1      34.516  33.903  29.287  1.00  0.00     0.039 A 
ATOM     30  C   UNL A   1      35.817  34.259  28.930  1.00  0.00     0.014 A 
ATOM     31  C   UNL A   1      34.296  32.888  30.220  1.00  0.00     0.014 A 
ATOM     32  C   UNL A   1      36.898  33.645  29.566  1.00  0.00     0.010 A 
ATOM     33  C   UNL A   1      35.367  32.352  30.924  1.00  0.00     0.010 A 
ATOM     34  C   UNL A   1      36.681  32.718  30.600  1.00  0.00    -0.014 A 
BRANCH  34  35
ATOM     35  C   UNL A   1      37.816  32.109  31.342  1.00  0.00     0.031 A 
ATOM     36  C   UNL A   1      38.619  31.004  30.711  1.00  0.00     0.074 A 
ATOM     37  C   UNL A   1      38.086  32.514  32.599  1.00  0.00     0.049 A 
ATOM     38  N   UNL A   1      39.600  30.301  31.217  1.00  0.00    -0.248 NA
ATOM     39  C   UNL A   1      38.249  30.616  29.341  1.00  0.00     0.031 C 
ATOM     40  C   UNL A   1      37.347  33.547  33.330  1.00  0.00     0.029 A 
ATOM     41  N   UNL A   1      39.049  32.107  33.487  1.00  0.00    -0.354 N 
ATOM     42  C   UNL A   1      39.957  29.385  30.232  1.00  0.00     0.074 A 
ATOM     43  C   UNL A   1      39.035  29.573  29.132  1.00  0.00     0.031 C 
ATOM     44  C   UNL A   1      37.904  33.714  34.541  1.00  0.00     0.029 A 
ATOM     45  C   UNL A   1      39.003  32.766  34.696  1.00  0.00     0.049 A 
ATOM     46  H   UNL A   1      39.711  31.409  33.281  1.00  0.00     0.167 HD
ATOM     47  C   UNL A   1      40.977  28.492  30.232  1.00  0.00     0.034 A 
ATOM     48  C   UNL A   1      39.752  32.613  35.806  1.00  0.00     0.034 A 
ATOM     49  C   UNL A   1      41.887  28.323  31.337  1.00  0.00     0.049 A 
ATOM     50  C   UNL A   1      40.856  31.586  35.797  1.00  0.00     0.074 A 
ATOM     51  C   UNL A   1      42.980  27.478  31.432  1.00  0.00     0.029 A 
ATOM     52  N   UNL A   1      41.807  29.003  32.547  1.00  0.00    -0.354 N 
ATOM     53  N   UNL A   1      41.214  30.764  34.837  1.00  0.00    -0.248 NA
ATOM     54  C   UNL A   1      41.666  31.475  37.017  1.00  0.00     0.031 C 
ATOM     55  C   UNL A   1      43.512  27.593  32.721  1.00  0.00     0.029 A 
ATOM     56  C   UNL A   1      42.810  28.574  33.402  1.00  0.00     0.049 A 
ATOM     57  H   UNL A   1      41.135  29.690  32.763  1.00  0.00     0.167 HD
ATOM     58  C   UNL A   1      42.313  30.063  35.328  1.00  0.00     0.074 A 
ATOM     59  C   UNL A   1      42.568  30.574  36.659  1.00  0.00     0.031 C 
ATOM     60  C   UNL A   1      43.048  29.088  34.732  1.00  0.00     0.034 A 
BRANCH  47  61
ATOM     61  C   UNL A   1      41.141  27.623  29.006  1.00  0.00     0.023 A 
ATOM     62  C   UNL A   1      42.163  27.855  28.068  1.00  0.00     0.031 A 
ATOM     63  C   UNL A   1      40.248  26.567  28.754  1.00  0.00     0.131 A 
ATOM     64  C   UNL A   1      42.220  27.097  26.889  1.00  0.00     0.055 A 
ATOM     65  C   UNL A   1      40.365  25.758  27.621  1.00  0.00     0.041 A 
ATOM     66  F   UNL A   1      39.238  26.308  29.599  1.00  0.00    -0.206 F 
ATOM     67  C   UNL A   1      41.344  26.032  26.672  1.00  0.00     0.022 A 
BRANCH  64  68
ATOM     68  S   UNL A   1      43.354  27.625  25.576  1.00  0.00     0.124 S 
ATOM     69  O   UNL A   1      44.008  28.776  26.196  1.00  0.00    -0.237 OA
ATOM     70  O   UNL A   1      44.188  26.443  25.385  1.00  0.00    -0.237 OA
ATOM     71  O   UNL A   1      42.464  27.948  24.463  1.00  0.00    -0.744 OA
ENDBRANCH  64  68
ENDBRANCH  47  61
BRANCH  48  72
ATOM     72  C   UNL A   1      39.483  33.436  37.022  1.00  0.00     0.023 A 
ATOM     73  C   UNL A   1      40.206  34.613  37.276  1.00  0.00     0.031 A 
ATOM     74  C   UNL A   1      38.535  33.028  37.978  1.00  0.00     0.131 A 
ATOM     75  C   UNL A   1      40.012  35.308  38.479  1.00  0.00     0.055 A 
ATOM     76  C   UNL A   1      38.300  33.759  39.144  1.00  0.00     0.041 A 
ATOM     77  F   UNL A   1      37.813  31.913  37.787  1.00  0.00    -0.206 F 
ATOM     78  C   UNL A   1      39.052  34.899  39.407  1.00  0.00     0.022 A 
BRANCH  75  79
ATOM     79  S   UNL A   1      41.108  36.702  38.864  1.00  0.00     0.124 S 
ATOM     80  O   UNL A   1      41.869  36.177  39.992  1.00  0.00    -0.237 OA
ATOM     81  O   UNL A   1      41.844  36.863  37.614  1.00  0.00    -0.237 OA
ATOM     82  O   UNL A   1      40.181  37.785  39.185  1.00  0.00    -0.744 OA
ENDBRANCH  75  79
ENDBRANCH  48  72
BRANCH  60  83
ATOM     83  C   UNL A   1      44.230  28.551  35.503  1.00  0.00     0.023 A 
ATOM     84  C   UNL A   1      44.099  27.502  36.428  1.00  0.00     0.031 A 
ATOM     85  C   UNL A   1      45.507  29.111  35.316  1.00  0.00     0.131 A 
ATOM     86  C   UNL A   1      45.210  27.088  37.179  1.00  0.00     0.055 A 
ATOM     87  C   UNL A   1      46.623  28.647  36.013  1.00  0.00     0.041 A 
ATOM     88  F   UNL A   1      45.692  30.119  34.449  1.00  0.00    -0.206 F 
ATOM     89  C   UNL A   1      46.476  27.640  36.962  1.00  0.00     0.022 A 
BRANCH  86  90
ATOM     90  S   UNL A   1      44.960  25.894  38.522  1.00  0.00     0.124 S 
ATOM     91  O   UNL A   1      46.301  25.786  39.085  1.00  0.00    -0.237 OA
ATOM     92  O   UNL A   1      43.970  26.568  39.356  1.00  0.00    -0.237 OA
ATOM     93  O   UNL A   1      44.478  24.699  37.833  1.00  0.00    -0.744 OA
ENDBRANCH  86  90
ENDBRANCH  60  83
ENDBRANCH  34  35
ENDBRANCH  26  29
ENDBRANCH  24  25
ENDBRANCH   1  24
TORSDOF 17
ENDMDL
MODEL 3
REMARK VINA RESULT:     -11.6      3.089      8.376
REMARK SMILES CC(C)[C@@](C)(CC(=O)N[C@H]1CCCC1(C)C)C(=O)NCCCNC(=O)c1ccc(-c2c3nc(c(-c4cc(S(=O)(=O)[O-])ccc4F)c4ccc([nH]4)c(-c4cc(S(=O)(=O)[O-])ccc4F)c4nc(c(-c5cc(S(=O)(=O)[O-])ccc5F)c5ccc2[nH]5)C=C4)C=C3)cc1
REMARK SMILES IDX 21 1 20 2 19 3 17 4 18 5 4 7 5 8 2 9 1 10 3 11 6 12 7 13
REMARK SMILES IDX 8 14 9 15 10 17 11 18 14 19 12 20 13 21 15 22 16 23 22 24
REMARK SMILES IDX 23 25 24 26 25 28 26 29 27 30 88 31 28 32 87 33 29 34 30 35
REMARK SMILES IDX 31 36 81 37 32 38 86 39 80 40 82 41 33 42 85 43 79 44 78 45
REMARK SMILES IDX 34 47 66 48 46 49 65 50 47 51 50 52 64 53 83 54 48 55 49 56
REMARK SMILES IDX 63 58 84 59 51 60 35 61 36 62 44 63 37 64 43 65 45 66 42 67
REMARK SMILES IDX 38 68 39 69 40 70 41 71 67 72 68 73 76 74 69 75 75 76 77 77
REMARK SMILES IDX 74 78 70 79 71 80 72 81 73 82 52 83 53 84 61 85 54 86 60 87
REMARK SMILES IDX 62 88 59 89 55 90 56 91 57 92 58 93
REMARK H PARENT 19 6 9 16 23 27 82 46 50 57
REMARK Flexibility Score: inf
ROOT
ATOM      1  C   UNL A   1      33.347  28.057  27.004  1.00  0.00     0.042 C 
ENDROOT
BRANCH   1   2
ATOM      2  C   UNL A   1      31.890  27.888  26.601  1.00  0.00     0.117 C 
BRANCH   2   3
ATOM      3  N   UNL A   1      31.452  26.512  26.732  1.00  0.00    -0.356 N 
ATOM      4  C   UNL A   1      31.164  25.512  25.872  1.00  0.00     0.226 C 
ATOM      5  O   UNL A   1      30.816  24.464  26.425  1.00  0.00    -0.274 OA
ATOM      6  H   UNL A   1      31.337  26.243  27.672  1.00  0.00     0.163 HD
BRANCH   4   7
ATOM      7  C   UNL A   1      31.332  25.605  24.341  1.00  0.00     0.057 C 
ATOM      8  C   UNL A   1      30.716  24.325  23.705  1.00  0.00     0.022 C 
BRANCH   7   9
ATOM      9  C   UNL A   1      30.508  26.844  23.776  1.00  0.00    -0.002 C 
ATOM     10  C   UNL A   1      30.893  27.305  22.358  1.00  0.00     0.008 C 
ATOM     11  C   UNL A   1      28.975  26.704  23.806  1.00  0.00     0.008 C 
ENDBRANCH   7   9
BRANCH   7  12
ATOM     12  C   UNL A   1      32.821  25.624  23.877  1.00  0.00     0.116 C 
BRANCH  12  13
ATOM     13  C   UNL A   1      33.344  24.568  22.918  1.00  0.00     0.221 C 
ATOM     14  O   UNL A   1      33.343  24.755  21.703  1.00  0.00    -0.275 OA
ATOM     15  N   UNL A   1      33.911  23.424  23.422  1.00  0.00    -0.353 N 
ATOM     16  H   UNL A   1      34.503  22.929  22.811  1.00  0.00     0.163 HD
BRANCH  15  17
ATOM     17  C   UNL A   1      33.739  22.860  24.752  1.00  0.00     0.087 C 
ATOM     18  C   UNL A   1      33.320  21.385  24.662  1.00  0.00     0.025 C 
ATOM     19  C   UNL A   1      34.967  22.874  25.681  1.00  0.00    -0.015 C 
ATOM     20  C   UNL A   1      34.530  20.555  25.072  1.00  0.00     0.003 C 
ATOM     21  C   UNL A   1      35.657  21.544  25.352  1.00  0.00     0.008 C 
ATOM     22  C   UNL A   1      35.908  24.063  25.476  1.00  0.00     0.013 C 
ATOM     23  C   UNL A   1      34.474  22.893  27.147  1.00  0.00     0.013 C 
ENDBRANCH  15  17
ENDBRANCH  12  13
ENDBRANCH   7  12
ENDBRANCH   4   7
ENDBRANCH   2   3
ENDBRANCH   1   2
BRANCH   1  24
ATOM     24  C   UNL A   1      34.091  29.122  26.207  1.00  0.00     0.118 C 
BRANCH  24  25
ATOM     25  N   UNL A   1      33.791  30.475  26.661  1.00  0.00    -0.352 N 
ATOM     26  C   UNL A   1      34.375  31.221  27.653  1.00  0.00     0.251 C 
ATOM     27  H   UNL A   1      33.055  30.922  26.182  1.00  0.00     0.163 HD
ATOM     28  O   UNL A   1      33.831  32.255  28.035  1.00  0.00    -0.269 OA
BRANCH  26  29
ATOM     29  C   UNL A   1      35.635  30.763  28.273  1.00  0.00     0.039 A 
ATOM     30  C   UNL A   1      35.586  29.818  29.298  1.00  0.00     0.014 A 
ATOM     31  C   UNL A   1      36.865  31.262  27.835  1.00  0.00     0.014 A 
ATOM     32  C   UNL A   1      36.776  29.318  29.831  1.00  0.00     0.010 A 
ATOM     33  C   UNL A   1      38.045  30.690  28.294  1.00  0.00     0.010 A 
ATOM     34  C   UNL A   1      38.015  29.718  29.303  1.00  0.00    -0.014 A 
BRANCH  34  35
ATOM     35  C   UNL A   1      39.290  29.142  29.805  1.00  0.00     0.031 A 
ATOM     36  C   UNL A   1      39.986  29.769  30.982  1.00  0.00     0.074 A 
ATOM     37  C   UNL A   1      39.844  28.091  29.167  1.00  0.00     0.049 A 
ATOM     38  N   UNL A   1      41.135  29.459  31.526  1.00  0.00    -0.248 NA
ATOM     39  C   UNL A   1      39.318  30.920  31.609  1.00  0.00     0.031 C 
ATOM     40  C   UNL A   1      39.283  27.427  27.987  1.00  0.00     0.029 A 
ATOM     41  N   UNL A   1      41.002  27.399  29.414  1.00  0.00    -0.354 N 
ATOM     42  C   UNL A   1      41.329  30.379  32.552  1.00  0.00     0.074 A 
ATOM     43  C   UNL A   1      40.216  31.303  32.501  1.00  0.00     0.031 C 
ATOM     44  C   UNL A   1      40.080  26.405  27.636  1.00  0.00     0.029 A 
ATOM     45  C   UNL A   1      41.235  26.372  28.526  1.00  0.00     0.049 A 
ATOM     46  H   UNL A   1      41.611  27.615  30.157  1.00  0.00     0.167 HD
ATOM     47  C   UNL A   1      42.325  30.429  33.470  1.00  0.00     0.034 A 
ATOM     48  C   UNL A   1      42.269  25.512  28.433  1.00  0.00     0.034 A 
ATOM     49  C   UNL A   1      43.423  29.495  33.506  1.00  0.00     0.049 A 
ATOM     50  C   UNL A   1      43.386  25.612  29.441  1.00  0.00     0.074 A 
ATOM     51  C   UNL A   1      44.466  29.426  34.413  1.00  0.00     0.029 A 
ATOM     52  N   UNL A   1      43.630  28.473  32.588  1.00  0.00    -0.354 N 
ATOM     53  N   UNL A   1      43.527  26.455  30.439  1.00  0.00    -0.248 NA
ATOM     54  C   UNL A   1      44.476  24.637  29.320  1.00  0.00     0.031 C 
ATOM     55  C   UNL A   1      45.340  28.414  34.001  1.00  0.00     0.029 A 
ATOM     56  C   UNL A   1      44.797  27.790  32.889  1.00  0.00     0.049 A 
ATOM     57  H   UNL A   1      43.032  28.264  31.833  1.00  0.00     0.167 HD
ATOM     58  C   UNL A   1      44.706  26.087  31.083  1.00  0.00     0.074 A 
ATOM     59  C   UNL A   1      45.222  24.936  30.371  1.00  0.00     0.031 C 
ATOM     60  C   UNL A   1      45.306  26.646  32.165  1.00  0.00     0.034 A 
BRANCH  47  61
ATOM     61  C   UNL A   1      42.274  31.542  34.491  1.00  0.00     0.023 A 
ATOM     62  C   UNL A   1      41.352  31.528  35.553  1.00  0.00     0.031 A 
ATOM     63  C   UNL A   1      43.137  32.647  34.388  1.00  0.00     0.131 A 
ATOM     64  C   UNL A   1      41.260  32.627  36.419  1.00  0.00     0.055 A 
ATOM     65  C   UNL A   1      43.101  33.699  35.307  1.00  0.00     0.041 A 
ATOM     66  F   UNL A   1      44.024  32.732  33.385  1.00  0.00    -0.206 F 
ATOM     67  C   UNL A   1      42.147  33.701  36.320  1.00  0.00     0.022 A 
BRANCH  64  68
ATOM     68  S   UNL A   1      39.866  32.704  37.576  1.00  0.00     0.124 S 
ATOM     69  O   UNL A   1      40.538  32.514  38.861  1.00  0.00    -0.237 OA
ATOM     70  O   UNL A   1      39.323  34.035  37.331  1.00  0.00    -0.237 OA
ATOM     71  O   UNL A   1      39.013  31.593  37.159  1.00  0.00    -0.744 OA
ENDBRANCH  64  68
ENDBRANCH  47  61
BRANCH  48  72
ATOM     72  C   UNL A   1      42.311  24.492  27.344  1.00  0.00     0.023 A 
ATOM     73  C   UNL A   1      41.538  23.322  27.416  1.00  0.00     0.031 A 
ATOM     74  C   UNL A   1      43.169  24.646  26.240  1.00  0.00     0.131 A 
ATOM     75  C   UNL A   1      41.678  22.328  26.435  1.00  0.00     0.055 A 
ATOM     76  C   UNL A   1      43.258  23.682  25.233  1.00  0.00     0.041 A 
ATOM     77  F   UNL A   1      43.930  25.744  26.117  1.00  0.00    -0.206 F 
ATOM     78  C   UNL A   1      42.520  22.507  25.336  1.00  0.00     0.022 A 
BRANCH  75  79
ATOM     79  S   UNL A   1      40.820  20.747  26.672  1.00  0.00     0.124 S 
ATOM     80  O   UNL A   1      40.855  20.606  28.123  1.00  0.00    -0.237 OA
ATOM     81  O   UNL A   1      39.513  21.020  26.084  1.00  0.00    -0.237 OA
ATOM     82  O   UNL A   1      41.649  19.797  25.933  1.00  0.00    -0.744 OA
ENDBRANCH  75  79
ENDBRANCH  48  72
BRANCH  60  83
ATOM     83  C   UNL A   1      46.563  25.982  32.674  1.00  0.00     0.023 A 
ATOM     84  C   UNL A   1      46.525  24.945  33.621  1.00  0.00     0.031 A 
ATOM     85  C   UNL A   1      47.822  26.407  32.211  1.00  0.00     0.131 A 
ATOM     86  C   UNL A   1      47.721  24.412  34.124  1.00  0.00     0.055 A 
ATOM     87  C   UNL A   1      49.007  25.823  32.661  1.00  0.00     0.041 A 
ATOM     88  F   UNL A   1      47.921  27.397  31.309  1.00  0.00    -0.206 F 
ATOM     89  C   UNL A   1      48.962  24.830  33.634  1.00  0.00     0.022 A 
BRANCH  86  90
ATOM     90  S   UNL A   1      47.641  23.240  35.507  1.00  0.00     0.124 S 
ATOM     91  O   UNL A   1      46.536  23.777  36.294  1.00  0.00    -0.237 OA
ATOM     92  O   UNL A   1      47.384  21.974  34.828  1.00  0.00    -0.237 OA
ATOM     93  O   UNL A   1      48.958  23.353  36.129  1.00  0.00    -0.744 OA
ENDBRANCH  86  90
ENDBRANCH  60  83
ENDBRANCH  34  35
ENDBRANCH  26  29
ENDBRANCH  24  25
ENDBRANCH   1  24
TORSDOF 17
ENDMDL
