MODEL 1
REMARK VINA RESULT:     -10.4      0.000      0.000
REMARK SMILES CC[NH2+]C[C@@H](C)C(=O)N1CCO[C@@H](CC(=O)NCCCNC(=O)c2ccc(-c3c4nc(c(-c5cc(S(=O)(=O)[O-])ccc5F)c5ccc([nH]5)c(-c5cc(S(=O)(=O)[O-])ccc5F)c5nc(c(-c6cc(S(=O)(=O)[O-])ccc6F)c6ccc3[nH]6)C=C5)C=C4)cc2)C1
REMARK SMILES IDX 15 1 16 2 17 3 14 5 13 6 9 7 10 8 87 9 11 10 12 11 7 12 8 13
REMARK SMILES IDX 5 14 6 15 4 16 3 17 2 20 1 21 18 22 19 23 20 24 21 25 22 26
REMARK SMILES IDX 23 28 24 29 25 30 86 31 26 32 85 33 27 34 28 35 29 36 79 37
REMARK SMILES IDX 30 38 84 39 78 40 80 41 31 42 83 43 77 44 76 45 32 47 64 48
REMARK SMILES IDX 44 49 63 50 45 51 48 52 62 53 81 54 46 55 47 56 61 58 82 59
REMARK SMILES IDX 49 60 33 61 34 62 42 63 35 64 41 65 43 66 40 67 36 68 37 69
REMARK SMILES IDX 38 70 39 71 65 72 66 73 74 74 67 75 73 76 75 77 72 78 68 79
REMARK SMILES IDX 69 80 70 81 71 82 50 83 51 84 59 85 52 86 58 87 60 88 57 89
REMARK SMILES IDX 53 90 54 91 55 92 56 93
REMARK H PARENT 17 4 3 18 3 19 21 27 80 46 48 57
REMARK Flexibility Score: inf
ROOT
ATOM      1  C   UNL A   1      33.295  28.988  25.275  1.00  0.00     0.222 C 
ATOM      2  O   UNL A   1      34.377  28.584  25.705  1.00  0.00    -0.275 OA
ATOM      3  N   UNL A   1      32.677  30.008  25.939  1.00  0.00    -0.356 N 
ATOM      4  H   UNL A   1      33.183  30.353  26.709  1.00  0.00     0.163 HD
ENDROOT
BRANCH   1   5
ATOM      5  C   UNL A   1      32.663  28.342  24.061  1.00  0.00     0.133 C 
BRANCH   5   6
ATOM      6  C   UNL A   1      32.021  26.990  24.387  1.00  0.00     0.147 C 
ATOM      7  N   UNL A   1      32.622  24.688  25.165  1.00  0.00    -0.337 N 
ATOM      8  C   UNL A   1      31.823  24.916  26.362  1.00  0.00     0.148 C 
ATOM      9  C   UNL A   1      33.103  25.922  24.579  1.00  0.00     0.152 C 
ATOM     10  C   UNL A   1      30.701  25.904  26.049  1.00  0.00     0.182 C 
ATOM     11  O   UNL A   1      31.243  27.157  25.594  1.00  0.00    -0.374 OA
BRANCH   7  12
ATOM     12  C   UNL A   1      33.511  23.621  25.104  1.00  0.00     0.231 C 
ATOM     13  O   UNL A   1      33.244  22.531  25.608  1.00  0.00    -0.274 OA
BRANCH  12  14
ATOM     14  C   UNL A   1      34.900  23.925  24.545  1.00  0.00     0.130 C 
ATOM     15  C   UNL A   1      35.144  23.112  23.272  1.00  0.00     0.024 C 
BRANCH  14  16
ATOM     16  C   UNL A   1      35.988  23.744  25.608  1.00  0.00     0.273 C 
BRANCH  16  17
ATOM     17  N   UNL A   1      36.293  22.368  26.001  1.00  0.00    -0.346 N 
ATOM     18  H   UNL A   1      36.150  22.278  27.006  1.00  0.00     0.346 HD
ATOM     19  H   UNL A   1      35.673  21.757  25.469  1.00  0.00     0.346 HD
BRANCH  17  20
ATOM     20  C   UNL A   1      37.666  21.969  25.690  1.00  0.00     0.257 C 
ATOM     21  C   UNL A   1      37.632  20.661  24.916  1.00  0.00     0.071 C 
ENDBRANCH  17  20
ENDBRANCH  16  17
ENDBRANCH  14  16
ENDBRANCH  12  14
ENDBRANCH   7  12
ENDBRANCH   5   6
ENDBRANCH   1   5
BRANCH   3  22
ATOM     22  C   UNL A   1      31.399  30.677  25.710  1.00  0.00     0.117 C 
BRANCH  22  23
ATOM     23  C   UNL A   1      31.271  31.985  26.494  1.00  0.00     0.042 C 
BRANCH  23  24
ATOM     24  C   UNL A   1      32.522  32.400  27.258  1.00  0.00     0.118 C 
BRANCH  24  25
ATOM     25  N   UNL A   1      32.524  33.820  27.555  1.00  0.00    -0.352 N 
ATOM     26  C   UNL A   1      33.197  34.521  28.530  1.00  0.00     0.251 C 
ATOM     27  H   UNL A   1      31.956  34.368  26.967  1.00  0.00     0.163 HD
ATOM     28  O   UNL A   1      32.836  35.672  28.768  1.00  0.00    -0.269 OA
BRANCH  26  29
ATOM     29  C   UNL A   1      34.325  33.929  29.297  1.00  0.00     0.039 A 
ATOM     30  C   UNL A   1      35.624  34.378  29.029  1.00  0.00     0.014 A 
ATOM     31  C   UNL A   1      34.145  32.884  30.209  1.00  0.00     0.014 A 
ATOM     32  C   UNL A   1      36.722  33.813  29.690  1.00  0.00     0.010 A 
ATOM     33  C   UNL A   1      35.232  32.378  30.930  1.00  0.00     0.010 A 
ATOM     34  C   UNL A   1      36.536  32.821  30.665  1.00  0.00    -0.014 A 
BRANCH  34  35
ATOM     35  C   UNL A   1      37.695  32.213  31.381  1.00  0.00     0.031 A 
ATOM     36  C   UNL A   1      38.499  31.114  30.732  1.00  0.00     0.074 A 
ATOM     37  C   UNL A   1      38.003  32.615  32.632  1.00  0.00     0.049 A 
ATOM     38  N   UNL A   1      39.496  30.415  31.215  1.00  0.00    -0.248 NA
ATOM     39  C   UNL A   1      38.109  30.731  29.366  1.00  0.00     0.031 C 
ATOM     40  C   UNL A   1      37.288  33.643  33.388  1.00  0.00     0.029 A 
ATOM     41  N   UNL A   1      38.994  32.203  33.490  1.00  0.00    -0.354 N 
ATOM     42  C   UNL A   1      39.837  29.498  30.225  1.00  0.00     0.074 A 
ATOM     43  C   UNL A   1      38.902  29.696  29.136  1.00  0.00     0.031 C 
ATOM     44  C   UNL A   1      37.875  33.797  34.586  1.00  0.00     0.029 A 
ATOM     45  C   UNL A   1      38.979  32.850  34.705  1.00  0.00     0.049 A 
ATOM     46  H   UNL A   1      39.653  31.509  33.259  1.00  0.00     0.167 HD
ATOM     47  C   UNL A   1      40.846  28.591  30.213  1.00  0.00     0.034 A 
ATOM     48  C   UNL A   1      39.756  32.692  35.796  1.00  0.00     0.034 A 
ATOM     49  C   UNL A   1      41.786  28.419  31.293  1.00  0.00     0.049 A 
ATOM     50  C   UNL A   1      40.868  31.673  35.764  1.00  0.00     0.074 A 
ATOM     51  C   UNL A   1      42.883  27.575  31.358  1.00  0.00     0.029 A 
ATOM     52  N   UNL A   1      41.742  29.098  32.505  1.00  0.00    -0.354 N 
ATOM     53  N   UNL A   1      41.204  30.847  34.800  1.00  0.00    -0.248 NA
ATOM     54  C   UNL A   1      41.711  31.573  36.963  1.00  0.00     0.031 C 
ATOM     55  C   UNL A   1      43.458  27.694  32.627  1.00  0.00     0.029 A 
ATOM     56  C   UNL A   1      42.770  28.669  33.331  1.00  0.00     0.049 A 
ATOM     57  H   UNL A   1      41.078  29.785  32.742  1.00  0.00     0.167 HD
ATOM     58  C   UNL A   1      42.315  30.150  35.268  1.00  0.00     0.074 A 
ATOM     59  C   UNL A   1      42.600  30.664  36.592  1.00  0.00     0.031 C 
ATOM     60  C   UNL A   1      43.037  29.177  34.656  1.00  0.00     0.034 A 
BRANCH  47  61
ATOM     61  C   UNL A   1      40.964  27.693  29.001  1.00  0.00     0.023 A 
ATOM     62  C   UNL A   1      41.947  27.898  28.017  1.00  0.00     0.031 A 
ATOM     63  C   UNL A   1      40.066  26.625  28.819  1.00  0.00     0.131 A 
ATOM     64  C   UNL A   1      41.961  27.101  26.862  1.00  0.00     0.055 A 
ATOM     65  C   UNL A   1      40.138  25.783  27.707  1.00  0.00     0.041 A 
ATOM     66  F   UNL A   1      39.094  26.388  29.714  1.00  0.00    -0.206 F 
ATOM     67  C   UNL A   1      41.079  26.028  26.712  1.00  0.00     0.022 A 
BRANCH  64  68
ATOM     68  S   UNL A   1      43.055  27.577  25.496  1.00  0.00     0.124 S 
ATOM     69  O   UNL A   1      43.501  26.275  25.007  1.00  0.00    -0.237 OA
ATOM     70  O   UNL A   1      42.158  28.318  24.617  1.00  0.00    -0.237 OA
ATOM     71  O   UNL A   1      44.090  28.377  26.149  1.00  0.00    -0.744 OA
ENDBRANCH  64  68
ENDBRANCH  47  61
BRANCH  48  72
ATOM     72  C   UNL A   1      39.507  33.506  37.022  1.00  0.00     0.023 A 
ATOM     73  C   UNL A   1      38.779  32.983  38.103  1.00  0.00     0.031 A 
ATOM     74  C   UNL A   1      39.965  34.833  37.114  1.00  0.00     0.131 A 
ATOM     75  C   UNL A   1      38.490  33.795  39.210  1.00  0.00     0.055 A 
ATOM     76  C   UNL A   1      39.720  35.620  38.242  1.00  0.00     0.041 A 
ATOM     77  F   UNL A   1      40.670  35.381  36.112  1.00  0.00    -0.206 F 
ATOM     78  C   UNL A   1      38.967  35.106  39.293  1.00  0.00     0.022 A 
BRANCH  75  79
ATOM     79  S   UNL A   1      37.409  33.139  40.511  1.00  0.00     0.124 S 
ATOM     80  O   UNL A   1      38.200  32.025  41.021  1.00  0.00    -0.237 OA
ATOM     81  O   UNL A   1      37.271  34.289  41.398  1.00  0.00    -0.237 OA
ATOM     82  O   UNL A   1      36.194  32.764  39.789  1.00  0.00    -0.744 OA
ENDBRANCH  75  79
ENDBRANCH  48  72
BRANCH  60  83
ATOM     83  C   UNL A   1      44.232  28.634  35.403  1.00  0.00     0.023 A 
ATOM     84  C   UNL A   1      44.108  27.605  36.352  1.00  0.00     0.031 A 
ATOM     85  C   UNL A   1      45.514  29.162  35.164  1.00  0.00     0.131 A 
ATOM     86  C   UNL A   1      45.237  27.173  37.067  1.00  0.00     0.055 A 
ATOM     87  C   UNL A   1      46.642  28.687  35.835  1.00  0.00     0.041 A 
ATOM     88  F   UNL A   1      45.692  30.148  34.269  1.00  0.00    -0.206 F 
ATOM     89  C   UNL A   1      46.505  27.696  36.802  1.00  0.00     0.022 A 
BRANCH  86  90
ATOM     90  S   UNL A   1      45.012  25.975  38.411  1.00  0.00     0.124 S 
ATOM     91  O   UNL A   1      44.271  24.908  37.746  1.00  0.00    -0.237 OA
ATOM     92  O   UNL A   1      46.389  25.660  38.782  1.00  0.00    -0.237 OA
ATOM     93  O   UNL A   1      44.257  26.723  39.414  1.00  0.00    -0.744 OA
ENDBRANCH  86  90
ENDBRANCH  60  83
ENDBRANCH  34  35
ENDBRANCH  26  29
ENDBRANCH  24  25
ENDBRANCH  23  24
ENDBRANCH  22  23
ENDBRANCH   3  22
TORSDOF 19
ENDMDL
MODEL 2
REMARK VINA RESULT:     -10.1      1.744      2.175
REMARK SMILES CC[NH2+]C[C@@H](C)C(=O)N1CCO[C@@H](CC(=O)NCCCNC(=O)c2ccc(-c3c4nc(c(-c5cc(S(=O)(=O)[O-])ccc5F)c5ccc([nH]5)c(-c5cc(S(=O)(=O)[O-])ccc5F)c5nc(c(-c6cc(S(=O)(=O)[O-])ccc6F)c6ccc3[nH]6)C=C5)C=C4)cc2)C1
REMARK SMILES IDX 15 1 16 2 17 3 14 5 13 6 9 7 10 8 87 9 11 10 12 11 7 12 8 13
REMARK SMILES IDX 5 14 6 15 4 16 3 17 2 20 1 21 18 22 19 23 20 24 21 25 22 26
REMARK SMILES IDX 23 28 24 29 25 30 86 31 26 32 85 33 27 34 28 35 29 36 79 37
REMARK SMILES IDX 30 38 84 39 78 40 80 41 31 42 83 43 77 44 76 45 32 47 64 48
REMARK SMILES IDX 44 49 63 50 45 51 48 52 62 53 81 54 46 55 47 56 61 58 82 59
REMARK SMILES IDX 49 60 33 61 34 62 42 63 35 64 41 65 43 66 40 67 36 68 37 69
REMARK SMILES IDX 38 70 39 71 65 72 66 73 74 74 67 75 73 76 75 77 72 78 68 79
REMARK SMILES IDX 69 80 70 81 71 82 50 83 51 84 59 85 52 86 58 87 60 88 57 89
REMARK SMILES IDX 53 90 54 91 55 92 56 93
REMARK H PARENT 17 4 3 18 3 19 21 27 80 46 48 57
REMARK Flexibility Score: inf
ROOT
ATOM      1  C   UNL A   1      33.070  28.771  23.683  1.00  0.00     0.222 C 
ATOM      2  O   UNL A   1      34.260  28.818  23.366  1.00  0.00    -0.275 OA
ATOM      3  N   UNL A   1      32.599  29.704  24.561  1.00  0.00    -0.356 N 
ATOM      4  H   UNL A   1      33.271  30.364  24.847  1.00  0.00     0.163 HD
ENDROOT
BRANCH   1   5
ATOM      5  C   UNL A   1      32.172  27.685  23.131  1.00  0.00     0.133 C 
BRANCH   5   6
ATOM      6  C   UNL A   1      32.302  26.371  23.906  1.00  0.00     0.147 C 
ATOM      7  N   UNL A   1      33.856  24.430  24.199  1.00  0.00    -0.337 N 
ATOM      8  C   UNL A   1      34.029  24.817  25.593  1.00  0.00     0.148 C 
ATOM      9  C   UNL A   1      33.472  25.547  23.360  1.00  0.00     0.152 C 
ATOM     10  C   UNL A   1      32.770  25.529  26.087  1.00  0.00     0.182 C 
ATOM     11  O   UNL A   1      32.511  26.704  25.297  1.00  0.00    -0.374 OA
BRANCH   7  12
ATOM     12  C   UNL A   1      34.725  23.520  23.607  1.00  0.00     0.231 C 
ATOM     13  O   UNL A   1      34.741  23.345  22.389  1.00  0.00    -0.274 OA
BRANCH  12  14
ATOM     14  C   UNL A   1      35.520  22.625  24.555  1.00  0.00     0.130 C 
ATOM     15  C   UNL A   1      37.019  22.765  24.276  1.00  0.00     0.024 C 
BRANCH  14  16
ATOM     16  C   UNL A   1      35.021  21.178  24.516  1.00  0.00     0.273 C 
BRANCH  16  17
ATOM     17  N   UNL A   1      34.439  20.656  25.754  1.00  0.00    -0.346 N 
ATOM     18  H   UNL A   1      34.953  19.817  26.025  1.00  0.00     0.346 HD
ATOM     19  H   UNL A   1      34.509  21.393  26.455  1.00  0.00     0.346 HD
BRANCH  17  20
ATOM     20  C   UNL A   1      33.023  20.311  25.625  1.00  0.00     0.257 C 
ATOM     21  C   UNL A   1      32.904  18.813  25.396  1.00  0.00     0.071 C 
ENDBRANCH  17  20
ENDBRANCH  16  17
ENDBRANCH  14  16
ENDBRANCH  12  14
ENDBRANCH   7  12
ENDBRANCH   5   6
ENDBRANCH   1   5
BRANCH   3  22
ATOM     22  C   UNL A   1      31.277  29.898  25.150  1.00  0.00     0.117 C 
BRANCH  22  23
ATOM     23  C   UNL A   1      31.100  31.292  25.756  1.00  0.00     0.042 C 
BRANCH  23  24
ATOM     24  C   UNL A   1      32.132  31.667  26.812  1.00  0.00     0.118 C 
BRANCH  24  25
ATOM     25  N   UNL A   1      32.182  33.101  27.029  1.00  0.00    -0.352 N 
ATOM     26  C   UNL A   1      32.972  33.842  27.878  1.00  0.00     0.251 C 
ATOM     27  H   UNL A   1      31.553  33.626  26.484  1.00  0.00     0.163 HD
ATOM     28  O   UNL A   1      32.652  35.010  28.094  1.00  0.00    -0.269 OA
BRANCH  26  29
ATOM     29  C   UNL A   1      34.179  33.275  28.537  1.00  0.00     0.039 A 
ATOM     30  C   UNL A   1      34.054  32.065  29.232  1.00  0.00     0.014 A 
ATOM     31  C   UNL A   1      35.405  33.946  28.562  1.00  0.00     0.014 A 
ATOM     32  C   UNL A   1      35.151  31.519  29.910  1.00  0.00     0.010 A 
ATOM     33  C   UNL A   1      36.521  33.360  29.169  1.00  0.00     0.010 A 
ATOM     34  C   UNL A   1      36.403  32.149  29.869  1.00  0.00    -0.014 A 
BRANCH  34  35
ATOM     35  C   UNL A   1      37.582  31.578  30.583  1.00  0.00     0.031 A 
ATOM     36  C   UNL A   1      38.462  30.558  29.904  1.00  0.00     0.074 A 
ATOM     37  C   UNL A   1      37.841  31.941  31.856  1.00  0.00     0.049 A 
ATOM     38  N   UNL A   1      39.489  29.898  30.378  1.00  0.00    -0.248 NA
ATOM     39  C   UNL A   1      38.123  30.215  28.515  1.00  0.00     0.031 C 
ATOM     40  C   UNL A   1      37.051  32.891  32.642  1.00  0.00     0.029 A 
ATOM     41  N   UNL A   1      38.838  31.549  32.718  1.00  0.00    -0.354 N 
ATOM     42  C   UNL A   1      39.903  29.048  29.356  1.00  0.00     0.074 A 
ATOM     43  C   UNL A   1      38.980  29.240  28.258  1.00  0.00     0.031 C 
ATOM     44  C   UNL A   1      37.605  33.025  33.857  1.00  0.00     0.029 A 
ATOM     45  C   UNL A   1      38.761  32.139  33.959  1.00  0.00     0.049 A 
ATOM     46  H   UNL A   1      39.542  30.907  32.471  1.00  0.00     0.167 HD
ATOM     47  C   UNL A   1      40.965  28.203  29.327  1.00  0.00     0.034 A 
ATOM     48  C   UNL A   1      39.524  31.978  35.059  1.00  0.00     0.034 A 
ATOM     49  C   UNL A   1      41.892  28.038  30.420  1.00  0.00     0.049 A 
ATOM     50  C   UNL A   1      40.695  31.028  35.007  1.00  0.00     0.074 A 
ATOM     51  C   UNL A   1      43.035  27.257  30.471  1.00  0.00     0.029 A 
ATOM     52  N   UNL A   1      41.784  28.658  31.658  1.00  0.00    -0.354 N 
ATOM     53  N   UNL A   1      41.098  30.267  34.016  1.00  0.00    -0.248 NA
ATOM     54  C   UNL A   1      41.519  30.924  36.218  1.00  0.00     0.031 C 
ATOM     55  C   UNL A   1      43.578  27.352  31.757  1.00  0.00     0.029 A 
ATOM     56  C   UNL A   1      42.820  28.253  32.488  1.00  0.00     0.049 A 
ATOM     57  H   UNL A   1      41.076  29.294  31.911  1.00  0.00     0.167 HD
ATOM     58  C   UNL A   1      42.240  29.616  34.477  1.00  0.00     0.074 A 
ATOM     59  C   UNL A   1      42.468  30.086  35.828  1.00  0.00     0.031 C 
ATOM     60  C   UNL A   1      43.030  28.716  33.839  1.00  0.00     0.034 A 
BRANCH  47  61
ATOM     61  C   UNL A   1      41.159  27.369  28.081  1.00  0.00     0.023 A 
ATOM     62  C   UNL A   1      40.851  25.997  28.049  1.00  0.00     0.031 A 
ATOM     63  C   UNL A   1      41.678  27.951  26.910  1.00  0.00     0.131 A 
ATOM     64  C   UNL A   1      41.136  25.240  26.902  1.00  0.00     0.055 A 
ATOM     65  C   UNL A   1      41.882  27.209  25.745  1.00  0.00     0.041 A 
ATOM     66  F   UNL A   1      42.009  29.252  26.882  1.00  0.00    -0.206 F 
ATOM     67  C   UNL A   1      41.625  25.842  25.741  1.00  0.00     0.022 A 
BRANCH  64  68
ATOM     68  S   UNL A   1      40.992  23.434  26.999  1.00  0.00     0.124 S 
ATOM     69  O   UNL A   1      41.867  23.010  25.909  1.00  0.00    -0.237 OA
ATOM     70  O   UNL A   1      41.465  23.151  28.348  1.00  0.00    -0.237 OA
ATOM     71  O   UNL A   1      39.567  23.192  26.774  1.00  0.00    -0.744 OA
ENDBRANCH  64  68
ENDBRANCH  47  61
BRANCH  48  72
ATOM     72  C   UNL A   1      39.203  32.720  36.313  1.00  0.00     0.023 A 
ATOM     73  C   UNL A   1      38.346  32.171  37.280  1.00  0.00     0.031 A 
ATOM     74  C   UNL A   1      39.724  34.005  36.547  1.00  0.00     0.131 A 
ATOM     75  C   UNL A   1      37.996  32.922  38.413  1.00  0.00     0.055 A 
ATOM     76  C   UNL A   1      39.416  34.727  37.701  1.00  0.00     0.041 A 
ATOM     77  F   UNL A   1      40.554  34.576  35.658  1.00  0.00    -0.206 F 
ATOM     78  C   UNL A   1      38.537  34.191  38.637  1.00  0.00     0.022 A 
BRANCH  75  79
ATOM     79  S   UNL A   1      36.759  32.248  39.555  1.00  0.00     0.124 S 
ATOM     80  O   UNL A   1      35.512  32.594  38.882  1.00  0.00    -0.237 OA
ATOM     81  O   UNL A   1      37.106  30.831  39.576  1.00  0.00    -0.237 OA
ATOM     82  O   UNL A   1      37.017  32.967  40.801  1.00  0.00    -0.744 OA
ENDBRANCH  75  79
ENDBRANCH  48  72
BRANCH  60  83
ATOM     83  C   UNL A   1      44.241  28.211  34.588  1.00  0.00     0.023 A 
ATOM     84  C   UNL A   1      44.189  27.055  35.386  1.00  0.00     0.031 A 
ATOM     85  C   UNL A   1      45.462  28.903  34.505  1.00  0.00     0.131 A 
ATOM     86  C   UNL A   1      45.323  26.656  36.113  1.00  0.00     0.055 A 
ATOM     87  C   UNL A   1      46.602  28.468  35.183  1.00  0.00     0.041 A 
ATOM     88  F   UNL A   1      45.569  30.014  33.758  1.00  0.00    -0.206 F 
ATOM     89  C   UNL A   1      46.532  27.346  36.003  1.00  0.00     0.022 A 
BRANCH  86  90
ATOM     90  S   UNL A   1      45.171  25.270  37.273  1.00  0.00     0.124 S 
ATOM     91  O   UNL A   1      45.418  24.121  36.409  1.00  0.00    -0.237 OA
ATOM     92  O   UNL A   1      46.213  25.567  38.252  1.00  0.00    -0.237 OA
ATOM     93  O   UNL A   1      43.802  25.388  37.772  1.00  0.00    -0.744 OA
ENDBRANCH  86  90
ENDBRANCH  60  83
ENDBRANCH  34  35
ENDBRANCH  26  29
ENDBRANCH  24  25
ENDBRANCH  23  24
ENDBRANCH  22  23
ENDBRANCH   3  22
TORSDOF 19
ENDMDL
MODEL 3
REMARK VINA RESULT:     -10.0      5.179      8.471
REMARK SMILES CC[NH2+]C[C@@H](C)C(=O)N1CCO[C@@H](CC(=O)NCCCNC(=O)c2ccc(-c3c4nc(c(-c5cc(S(=O)(=O)[O-])ccc5F)c5ccc([nH]5)c(-c5cc(S(=O)(=O)[O-])ccc5F)c5nc(c(-c6cc(S(=O)(=O)[O-])ccc6F)c6ccc3[nH]6)C=C5)C=C4)cc2)C1
REMARK SMILES IDX 15 1 16 2 17 3 14 5 13 6 9 7 10 8 87 9 11 10 12 11 7 12 8 13
REMARK SMILES IDX 5 14 6 15 4 16 3 17 2 20 1 21 18 22 19 23 20 24 21 25 22 26
REMARK SMILES IDX 23 28 24 29 25 30 86 31 26 32 85 33 27 34 28 35 29 36 79 37
REMARK SMILES IDX 30 38 84 39 78 40 80 41 31 42 83 43 77 44 76 45 32 47 64 48
REMARK SMILES IDX 44 49 63 50 45 51 48 52 62 53 81 54 46 55 47 56 61 58 82 59
REMARK SMILES IDX 49 60 33 61 34 62 42 63 35 64 41 65 43 66 40 67 36 68 37 69
REMARK SMILES IDX 38 70 39 71 65 72 66 73 74 74 67 75 73 76 75 77 72 78 68 79
REMARK SMILES IDX 69 80 70 81 71 82 50 83 51 84 59 85 52 86 58 87 60 88 57 89
REMARK SMILES IDX 53 90 54 91 55 92 56 93
REMARK H PARENT 17 4 3 18 3 19 21 27 80 46 48 57
REMARK Flexibility Score: inf
ROOT
ATOM      1  C   UNL A   1      33.128  21.896  23.834  1.00  0.00     0.222 C 
ATOM      2  O   UNL A   1      32.301  21.133  23.333  1.00  0.00    -0.275 OA
ATOM      3  N   UNL A   1      33.331  21.832  25.183  1.00  0.00    -0.356 N 
ATOM      4  H   UNL A   1      32.798  21.140  25.638  1.00  0.00     0.163 HD
ENDROOT
BRANCH   1   5
ATOM      5  C   UNL A   1      33.870  22.896  22.974  1.00  0.00     0.133 C 
BRANCH   5   6
ATOM      6  C   UNL A   1      33.024  24.131  22.653  1.00  0.00     0.147 C 
ATOM      7  N   UNL A   1      32.817  26.555  23.242  1.00  0.00    -0.337 N 
ATOM      8  C   UNL A   1      33.126  26.888  21.857  1.00  0.00     0.148 C 
ATOM      9  C   UNL A   1      33.347  25.265  23.631  1.00  0.00     0.152 C 
ATOM     10  C   UNL A   1      32.665  25.754  20.943  1.00  0.00     0.182 C 
ATOM     11  O   UNL A   1      33.323  24.522  21.293  1.00  0.00    -0.374 OA
BRANCH   7  12
ATOM     12  C   UNL A   1      32.864  27.533  24.229  1.00  0.00     0.231 C 
ATOM     13  O   UNL A   1      33.935  27.982  24.639  1.00  0.00    -0.274 OA
BRANCH  12  14
ATOM     14  C   UNL A   1      31.539  27.884  24.902  1.00  0.00     0.130 C 
ATOM     15  C   UNL A   1      31.135  29.318  24.552  1.00  0.00     0.024 C 
BRANCH  14  16
ATOM     16  C   UNL A   1      31.580  27.608  26.408  1.00  0.00     0.273 C 
BRANCH  16  17
ATOM     17  N   UNL A   1      31.383  26.218  26.822  1.00  0.00    -0.346 N 
ATOM     18  H   UNL A   1      32.290  25.752  26.834  1.00  0.00     0.346 HD
ATOM     19  H   UNL A   1      30.948  26.235  27.743  1.00  0.00     0.346 HD
BRANCH  17  20
ATOM     20  C   UNL A   1      30.491  25.472  25.934  1.00  0.00     0.257 C 
ATOM     21  C   UNL A   1      30.544  24.000  26.310  1.00  0.00     0.071 C 
ENDBRANCH  17  20
ENDBRANCH  16  17
ENDBRANCH  14  16
ENDBRANCH  12  14
ENDBRANCH   7  12
ENDBRANCH   5   6
ENDBRANCH   1   5
BRANCH   3  22
ATOM     22  C   UNL A   1      34.196  22.605  26.069  1.00  0.00     0.117 C 
BRANCH  22  23
ATOM     23  C   UNL A   1      35.461  21.843  26.469  1.00  0.00     0.042 C 
BRANCH  23  24
ATOM     24  C   UNL A   1      36.515  21.732  25.375  1.00  0.00     0.118 C 
BRANCH  24  25
ATOM     25  N   UNL A   1      37.521  20.737  25.696  1.00  0.00    -0.352 N 
ATOM     26  C   UNL A   1      38.864  20.887  25.960  1.00  0.00     0.251 C 
ATOM     27  H   UNL A   1      37.193  19.810  25.731  1.00  0.00     0.163 HD
ATOM     28  O   UNL A   1      39.574  19.883  25.935  1.00  0.00    -0.269 OA
BRANCH  26  29
ATOM     29  C   UNL A   1      39.470  22.212  26.262  1.00  0.00     0.039 A 
ATOM     30  C   UNL A   1      40.628  22.253  27.047  1.00  0.00     0.014 A 
ATOM     31  C   UNL A   1      38.879  23.415  25.864  1.00  0.00     0.014 A 
ATOM     32  C   UNL A   1      41.205  23.480  27.398  1.00  0.00     0.010 A 
ATOM     33  C   UNL A   1      39.500  24.636  26.144  1.00  0.00     0.010 A 
ATOM     34  C   UNL A   1      40.660  24.686  26.932  1.00  0.00    -0.014 A 
BRANCH  34  35
ATOM     35  C   UNL A   1      41.265  26.001  27.294  1.00  0.00     0.031 A 
ATOM     36  C   UNL A   1      42.646  26.363  26.806  1.00  0.00     0.074 A 
ATOM     37  C   UNL A   1      40.595  26.855  28.096  1.00  0.00     0.049 A 
ATOM     38  N   UNL A   1      43.368  27.424  27.066  1.00  0.00    -0.248 NA
ATOM     39  C   UNL A   1      43.313  25.386  25.933  1.00  0.00     0.031 C 
ATOM     40  C   UNL A   1      39.268  26.615  28.665  1.00  0.00     0.029 A 
ATOM     41  N   UNL A   1      40.941  28.095  28.577  1.00  0.00    -0.354 N 
ATOM     42  C   UNL A   1      44.580  27.233  26.408  1.00  0.00     0.074 A 
ATOM     43  C   UNL A   1      44.511  25.929  25.784  1.00  0.00     0.031 C 
ATOM     44  C   UNL A   1      38.903  27.679  29.397  1.00  0.00     0.029 A 
ATOM     45  C   UNL A   1      39.984  28.660  29.390  1.00  0.00     0.049 A 
ATOM     46  H   UNL A   1      41.792  28.539  28.360  1.00  0.00     0.167 HD
ATOM     47  C   UNL A   1      45.641  28.074  26.314  1.00  0.00     0.034 A 
ATOM     48  C   UNL A   1      39.982  29.827  30.066  1.00  0.00     0.034 A 
ATOM     49  C   UNL A   1      45.688  29.382  26.921  1.00  0.00     0.049 A 
ATOM     50  C   UNL A   1      41.175  30.744  29.953  1.00  0.00     0.074 A 
ATOM     51  C   UNL A   1      46.687  30.338  26.835  1.00  0.00     0.029 A 
ATOM     52  N   UNL A   1      44.697  29.921  27.731  1.00  0.00    -0.354 N 
ATOM     53  N   UNL A   1      42.293  30.565  29.288  1.00  0.00    -0.248 NA
ATOM     54  C   UNL A   1      41.101  32.021  30.673  1.00  0.00     0.031 C 
ATOM     55  C   UNL A   1      46.332  31.421  27.645  1.00  0.00     0.029 A 
ATOM     56  C   UNL A   1      45.076  31.179  28.177  1.00  0.00     0.049 A 
ATOM     57  H   UNL A   1      43.849  29.475  27.957  1.00  0.00     0.167 HD
ATOM     58  C   UNL A   1      43.042  31.722  29.488  1.00  0.00     0.074 A 
ATOM     59  C   UNL A   1      42.242  32.596  30.322  1.00  0.00     0.031 C 
ATOM     60  C   UNL A   1      44.277  32.036  29.021  1.00  0.00     0.034 A 
BRANCH  47  61
ATOM     61  C   UNL A   1      46.852  27.586  25.550  1.00  0.00     0.023 A 
ATOM     62  C   UNL A   1      47.101  27.980  24.223  1.00  0.00     0.031 A 
ATOM     63  C   UNL A   1      47.763  26.699  26.152  1.00  0.00     0.131 A 
ATOM     64  C   UNL A   1      48.184  27.430  23.519  1.00  0.00     0.055 A 
ATOM     65  C   UNL A   1      48.885  26.219  25.473  1.00  0.00     0.041 A 
ATOM     66  F   UNL A   1      47.570  26.271  27.410  1.00  0.00    -0.206 F 
ATOM     67  C   UNL A   1      49.092  26.572  24.143  1.00  0.00     0.022 A 
BRANCH  64  68
ATOM     68  S   UNL A   1      48.304  27.740  21.736  1.00  0.00     0.124 S 
ATOM     69  O   UNL A   1      49.391  28.713  21.678  1.00  0.00    -0.237 OA
ATOM     70  O   UNL A   1      48.600  26.416  21.204  1.00  0.00    -0.237 OA
ATOM     71  O   UNL A   1      46.985  28.271  21.392  1.00  0.00    -0.744 OA
ENDBRANCH  64  68
ENDBRANCH  47  61
BRANCH  48  72
ATOM     72  C   UNL A   1      38.818  30.198  30.923  1.00  0.00     0.023 A 
ATOM     73  C   UNL A   1      37.770  30.986  30.419  1.00  0.00     0.031 A 
ATOM     74  C   UNL A   1      38.755  29.798  32.270  1.00  0.00     0.131 A 
ATOM     75  C   UNL A   1      36.728  31.388  31.268  1.00  0.00     0.055 A 
ATOM     76  C   UNL A   1      37.687  30.156  33.096  1.00  0.00     0.041 A 
ATOM     77  F   UNL A   1      39.727  29.039  32.802  1.00  0.00    -0.206 F 
ATOM     78  C   UNL A   1      36.671  30.967  32.599  1.00  0.00     0.022 A 
BRANCH  75  79
ATOM     79  S   UNL A   1      35.480  32.539  30.627  1.00  0.00     0.124 S 
ATOM     80  O   UNL A   1      36.200  33.807  30.661  1.00  0.00    -0.237 OA
ATOM     81  O   UNL A   1      35.211  31.988  29.303  1.00  0.00    -0.237 OA
ATOM     82  O   UNL A   1      34.381  32.418  31.584  1.00  0.00    -0.744 OA
ENDBRANCH  75  79
ENDBRANCH  48  72
BRANCH  60  83
ATOM     83  C   UNL A   1      44.820  33.401  29.371  1.00  0.00     0.023 A 
ATOM     84  C   UNL A   1      45.610  33.613  30.515  1.00  0.00     0.031 A 
ATOM     85  C   UNL A   1      44.534  34.507  28.551  1.00  0.00     0.131 A 
ATOM     86  C   UNL A   1      46.042  34.910  30.835  1.00  0.00     0.055 A 
ATOM     87  C   UNL A   1      45.016  35.784  28.843  1.00  0.00     0.041 A 
ATOM     88  F   UNL A   1      43.783  34.364  27.446  1.00  0.00    -0.206 F 
ATOM     89  C   UNL A   1      45.764  35.993  29.997  1.00  0.00     0.022 A 
BRANCH  86  90
ATOM     90  S   UNL A   1      46.902  35.179  32.410  1.00  0.00     0.124 S 
ATOM     91  O   UNL A   1      47.629  36.417  32.152  1.00  0.00    -0.237 OA
ATOM     92  O   UNL A   1      45.795  35.275  33.358  1.00  0.00    -0.237 OA
ATOM     93  O   UNL A   1      47.737  33.988  32.552  1.00  0.00    -0.744 OA
ENDBRANCH  86  90
ENDBRANCH  60  83
ENDBRANCH  34  35
ENDBRANCH  26  29
ENDBRANCH  24  25
ENDBRANCH  23  24
ENDBRANCH  22  23
ENDBRANCH   3  22
TORSDOF 19
ENDMDL
