MODEL 1
REMARK VINA RESULT:     -12.6      0.000      0.000
REMARK SMILES CC(=O)Nc1ccc(/C(=C\c2ccc(S(C)(=O)=O)cc2)C(=O)NCCCNC(=O)c2ccc(-c3c4nc(c(-c5cc(S(=O)(=O)[O-])ccc5F)c5ccc([nH]5)c(-c5cc(S(=O)(=O)[O-])ccc5F)c5nc(c(-c6cc(S(=O)(=O)[O-])ccc6F)c6ccc3[nH]6)C=C5)C=C4)cc2)cc1
REMARK SMILES IDX 25 1 24 2 23 3 21 4 22 5 9 7 10 8 8 9 5 10 6 11 94 12 7 13
REMARK SMILES IDX 93 14 4 15 1 16 2 17 3 18 11 20 12 21 20 22 13 23 19 24
REMARK SMILES IDX 14 25 15 26 16 27 17 28 18 29 26 30 27 31 28 32 29 34 30 35
REMARK SMILES IDX 31 36 92 37 32 38 91 39 33 40 34 41 35 42 85 43 36 44 90 45
REMARK SMILES IDX 84 46 86 47 37 48 89 49 83 50 82 51 38 53 70 54 50 55 69 56
REMARK SMILES IDX 51 57 54 58 68 59 87 60 52 61 53 62 67 64 88 65 55 66 39 67
REMARK SMILES IDX 40 68 48 69 41 70 47 71 49 72 46 73 42 74 43 75 44 76 45 77
REMARK SMILES IDX 71 78 72 79 80 80 73 81 79 82 81 83 78 84 74 85 75 86 76 87
REMARK SMILES IDX 77 88 56 89 57 90 65 91 58 92 64 93 66 94 63 95 59 96 60 97
REMARK SMILES IDX 61 98 62 99
REMARK H PARENT 23 6 4 19 27 33 86 52 54 63
REMARK Flexibility Score: inf
ROOT
ATOM      1  C   UNL A   1      33.408  28.639  24.950  1.00  0.00     0.042 C 
ENDROOT
BRANCH   1   2
ATOM      2  C   UNL A   1      32.843  27.269  24.562  1.00  0.00     0.118 C 
BRANCH   2   3
ATOM      3  N   UNL A   1      33.106  26.976  23.166  1.00  0.00    -0.352 N 
ATOM      4  C   UNL A   1      33.448  25.877  22.445  1.00  0.00     0.251 C 
ATOM      5  O   UNL A   1      33.554  26.102  21.237  1.00  0.00    -0.269 OA
ATOM      6  H   UNL A   1      33.010  27.773  22.597  1.00  0.00     0.163 HD
BRANCH   4   7
ATOM      7  C   UNL A   1      33.621  24.471  23.019  1.00  0.00     0.047 C 
ATOM      8  C   UNL A   1      32.534  23.662  23.057  1.00  0.00     0.022 C 
BRANCH   7   9
ATOM      9  C   UNL A   1      34.917  24.096  23.708  1.00  0.00    -0.013 A 
ATOM     10  C   UNL A   1      37.040  22.991  25.276  1.00  0.00     0.041 A 
ATOM     11  C   UNL A   1      36.939  22.717  23.911  1.00  0.00     0.027 A 
ATOM     12  C   UNL A   1      36.196  23.952  25.802  1.00  0.00     0.027 A 
ATOM     13  C   UNL A   1      35.913  23.291  23.135  1.00  0.00     0.011 A 
ATOM     14  C   UNL A   1      35.135  24.462  25.045  1.00  0.00     0.011 A 
BRANCH  10  15
ATOM     15  N   UNL A   1      37.986  22.278  26.029  1.00  0.00    -0.326 N 
ATOM     16  C   UNL A   1      39.624  24.094  26.582  1.00  0.00     0.114 C 
ATOM     17  C   UNL A   1      39.178  22.656  26.586  1.00  0.00     0.221 C 
ATOM     18  O   UNL A   1      39.870  21.795  27.136  1.00  0.00    -0.275 OA
ATOM     19  H   UNL A   1      37.749  21.335  26.187  1.00  0.00     0.169 HD
ENDBRANCH  10  15
ENDBRANCH   7   9
BRANCH   8  20
ATOM     20  C   UNL A   1      32.450  22.230  23.381  1.00  0.00    -0.025 A 
ATOM     21  C   UNL A   1      32.138  21.348  22.332  1.00  0.00     0.009 A 
ATOM     22  C   UNL A   1      32.747  21.722  24.649  1.00  0.00     0.009 A 
ATOM     23  C   UNL A   1      32.195  19.969  22.525  1.00  0.00     0.021 A 
ATOM     24  C   UNL A   1      32.806  20.338  24.848  1.00  0.00     0.021 A 
ATOM     25  C   UNL A   1      32.546  19.471  23.781  1.00  0.00     0.067 A 
BRANCH  25  26
ATOM     26  S   UNL A   1      32.793  17.720  23.967  1.00  0.00     0.175 S 
ATOM     27  C   UNL A   1      34.471  17.576  24.515  1.00  0.00     0.163 C 
ATOM     28  O   UNL A   1      31.924  17.282  25.043  1.00  0.00    -0.224 OA
ATOM     29  O   UNL A   1      32.695  17.117  22.650  1.00  0.00    -0.224 OA
ENDBRANCH  25  26
ENDBRANCH   8  20
ENDBRANCH   4   7
ENDBRANCH   2   3
ENDBRANCH   1   2
BRANCH   1  30
ATOM     30  C   UNL A   1      33.094  29.048  26.390  1.00  0.00     0.118 C 
BRANCH  30  31
ATOM     31  N   UNL A   1      32.955  30.489  26.527  1.00  0.00    -0.352 N 
ATOM     32  C   UNL A   1      33.651  31.375  27.311  1.00  0.00     0.251 C 
ATOM     33  H   UNL A   1      32.250  30.893  25.969  1.00  0.00     0.163 HD
ATOM     34  O   UNL A   1      33.188  32.500  27.488  1.00  0.00    -0.269 OA
BRANCH  32  35
ATOM     35  C   UNL A   1      34.932  30.988  27.943  1.00  0.00     0.039 A 
ATOM     36  C   UNL A   1      35.976  31.917  27.973  1.00  0.00     0.014 A 
ATOM     37  C   UNL A   1      35.133  29.700  28.448  1.00  0.00     0.014 A 
ATOM     38  C   UNL A   1      37.199  31.573  28.555  1.00  0.00     0.010 A 
ATOM     39  C   UNL A   1      36.330  29.381  29.088  1.00  0.00     0.010 A 
ATOM     40  C   UNL A   1      37.379  30.312  29.145  1.00  0.00    -0.014 A 
BRANCH  40  41
ATOM     41  C   UNL A   1      38.653  29.951  29.820  1.00  0.00     0.031 A 
ATOM     42  C   UNL A   1      38.976  30.512  31.179  1.00  0.00     0.074 A 
ATOM     43  C   UNL A   1      39.547  29.170  29.180  1.00  0.00     0.049 A 
ATOM     44  N   UNL A   1      40.067  30.385  31.890  1.00  0.00    -0.248 NA
ATOM     45  C   UNL A   1      37.944  31.348  31.810  1.00  0.00     0.031 C 
ATOM     46  C   UNL A   1      39.362  28.598  27.845  1.00  0.00     0.029 A 
ATOM     47  N   UNL A   1      40.792  28.732  29.557  1.00  0.00    -0.354 N 
ATOM     48  C   UNL A   1      39.862  31.139  33.042  1.00  0.00     0.074 A 
ATOM     49  C   UNL A   1      38.562  31.761  32.907  1.00  0.00     0.031 C 
ATOM     50  C   UNL A   1      40.444  27.872  27.522  1.00  0.00     0.029 A 
ATOM     51  C   UNL A   1      41.421  27.965  28.602  1.00  0.00     0.049 A 
ATOM     52  H   UNL A   1      41.197  28.947  30.428  1.00  0.00     0.167 HD
ATOM     53  C   UNL A   1      40.675  31.283  34.119  1.00  0.00     0.034 A 
ATOM     54  C   UNL A   1      42.652  27.416  28.589  1.00  0.00     0.034 A 
ATOM     55  C   UNL A   1      41.963  30.641  34.242  1.00  0.00     0.049 A 
ATOM     56  C   UNL A   1      43.545  27.604  29.791  1.00  0.00     0.074 A 
ATOM     57  C   UNL A   1      42.839  30.667  35.313  1.00  0.00     0.029 A 
ATOM     58  N   UNL A   1      42.564  29.864  33.258  1.00  0.00    -0.354 N 
ATOM     59  N   UNL A   1      43.312  28.276  30.895  1.00  0.00    -0.248 NA
ATOM     60  C   UNL A   1      44.859  26.950  29.749  1.00  0.00     0.031 C 
ATOM     61  C   UNL A   1      43.997  29.970  34.950  1.00  0.00     0.029 A 
ATOM     62  C   UNL A   1      43.812  29.436  33.685  1.00  0.00     0.049 A 
ATOM     63  H   UNL A   1      42.162  29.650  32.386  1.00  0.00     0.167 HD
ATOM     64  C   UNL A   1      44.441  28.097  31.691  1.00  0.00     0.074 A 
ATOM     65  C   UNL A   1      45.343  27.243  30.947  1.00  0.00     0.031 C 
ATOM     66  C   UNL A   1      44.706  28.592  32.927  1.00  0.00     0.034 A 
BRANCH  53  67
ATOM     67  C   UNL A   1      40.207  32.190  35.233  1.00  0.00     0.023 A 
ATOM     68  C   UNL A   1      39.369  31.727  36.263  1.00  0.00     0.031 A 
ATOM     69  C   UNL A   1      40.592  33.542  35.259  1.00  0.00     0.131 A 
ATOM     70  C   UNL A   1      38.886  32.623  37.229  1.00  0.00     0.055 A 
ATOM     71  C   UNL A   1      40.176  34.409  36.271  1.00  0.00     0.041 A 
ATOM     72  F   UNL A   1      41.376  34.049  34.293  1.00  0.00    -0.206 F 
ATOM     73  C   UNL A   1      39.305  33.955  37.256  1.00  0.00     0.022 A 
BRANCH  70  74
ATOM     74  S   UNL A   1      37.592  32.054  38.367  1.00  0.00     0.124 S 
ATOM     75  O   UNL A   1      37.364  30.690  37.894  1.00  0.00    -0.237 OA
ATOM     76  O   UNL A   1      38.238  32.179  39.668  1.00  0.00    -0.237 OA
ATOM     77  O   UNL A   1      36.490  32.982  38.124  1.00  0.00    -0.744 OA
ENDBRANCH  70  74
ENDBRANCH  53  67
BRANCH  54  78
ATOM     78  C   UNL A   1      43.126  26.652  27.400  1.00  0.00     0.023 A 
ATOM     79  C   UNL A   1      42.996  25.256  27.335  1.00  0.00     0.031 A 
ATOM     80  C   UNL A   1      43.758  27.305  26.324  1.00  0.00     0.131 A 
ATOM     81  C   UNL A   1      43.534  24.552  26.245  1.00  0.00     0.055 A 
ATOM     82  C   UNL A   1      44.242  26.606  25.218  1.00  0.00     0.041 A 
ATOM     83  F   UNL A   1      43.904  28.639  26.332  1.00  0.00    -0.206 F 
ATOM     84  C   UNL A   1      44.144  25.219  25.181  1.00  0.00     0.022 A 
BRANCH  81  85
ATOM     85  S   UNL A   1      43.506  22.739  26.284  1.00  0.00     0.124 S 
ATOM     86  O   UNL A   1      42.624  22.432  25.163  1.00  0.00    -0.237 OA
ATOM     87  O   UNL A   1      44.915  22.411  26.103  1.00  0.00    -0.237 OA
ATOM     88  O   UNL A   1      42.963  22.436  27.607  1.00  0.00    -0.744 OA
ENDBRANCH  81  85
ENDBRANCH  54  78
BRANCH  66  89
ATOM     89  C   UNL A   1      46.009  28.176  33.567  1.00  0.00     0.023 A 
ATOM     90  C   UNL A   1      46.111  27.018  34.356  1.00  0.00     0.031 A 
ATOM     91  C   UNL A   1      47.163  28.962  33.393  1.00  0.00     0.131 A 
ATOM     92  C   UNL A   1      47.324  26.706  34.987  1.00  0.00     0.055 A 
ATOM     93  C   UNL A   1      48.383  28.612  33.971  1.00  0.00     0.041 A 
ATOM     94  F   UNL A   1      47.123  30.081  32.653  1.00  0.00    -0.206 F 
ATOM     95  C   UNL A   1      48.466  27.486  34.785  1.00  0.00     0.022 A 
BRANCH  92  96
ATOM     96  S   UNL A   1      47.368  25.320  36.155  1.00  0.00     0.124 S 
ATOM     97  O   UNL A   1      48.616  25.565  36.871  1.00  0.00    -0.237 OA
ATOM     98  O   UNL A   1      46.144  25.520  36.924  1.00  0.00    -0.237 OA
ATOM     99  O   UNL A   1      47.371  24.142  35.291  1.00  0.00    -0.744 OA
ENDBRANCH  92  96
ENDBRANCH  66  89
ENDBRANCH  40  41
ENDBRANCH  32  35
ENDBRANCH  30  31
ENDBRANCH   1  30
TORSDOF 17
ENDMDL
MODEL 2
REMARK VINA RESULT:     -12.6      0.809      7.336
REMARK SMILES CC(=O)Nc1ccc(/C(=C\c2ccc(S(C)(=O)=O)cc2)C(=O)NCCCNC(=O)c2ccc(-c3c4nc(c(-c5cc(S(=O)(=O)[O-])ccc5F)c5ccc([nH]5)c(-c5cc(S(=O)(=O)[O-])ccc5F)c5nc(c(-c6cc(S(=O)(=O)[O-])ccc6F)c6ccc3[nH]6)C=C5)C=C4)cc2)cc1
REMARK SMILES IDX 25 1 24 2 23 3 21 4 22 5 9 7 10 8 8 9 5 10 6 11 94 12 7 13
REMARK SMILES IDX 93 14 4 15 1 16 2 17 3 18 11 20 12 21 20 22 13 23 19 24
REMARK SMILES IDX 14 25 15 26 16 27 17 28 18 29 26 30 27 31 28 32 29 34 30 35
REMARK SMILES IDX 31 36 92 37 32 38 91 39 33 40 34 41 35 42 85 43 36 44 90 45
REMARK SMILES IDX 84 46 86 47 37 48 89 49 83 50 82 51 38 53 70 54 50 55 69 56
REMARK SMILES IDX 51 57 54 58 68 59 87 60 52 61 53 62 67 64 88 65 55 66 39 67
REMARK SMILES IDX 40 68 48 69 41 70 47 71 49 72 46 73 42 74 43 75 44 76 45 77
REMARK SMILES IDX 71 78 72 79 80 80 73 81 79 82 81 83 78 84 74 85 75 86 76 87
REMARK SMILES IDX 77 88 56 89 57 90 65 91 58 92 64 93 66 94 63 95 59 96 60 97
REMARK SMILES IDX 61 98 62 99
REMARK H PARENT 23 6 4 19 27 33 86 52 54 63
REMARK Flexibility Score: inf
ROOT
ATOM      1  C   UNL A   1      33.338  28.326  25.034  1.00  0.00     0.042 C 
ENDROOT
BRANCH   1   2
ATOM      2  C   UNL A   1      32.555  27.120  24.509  1.00  0.00     0.118 C 
BRANCH   2   3
ATOM      3  N   UNL A   1      32.898  26.839  23.128  1.00  0.00    -0.352 N 
ATOM      4  C   UNL A   1      33.328  25.758  22.427  1.00  0.00     0.251 C 
ATOM      5  O   UNL A   1      33.481  25.988  21.225  1.00  0.00    -0.269 OA
ATOM      6  H   UNL A   1      32.793  27.631  22.553  1.00  0.00     0.163 HD
BRANCH   4   7
ATOM      7  C   UNL A   1      33.539  24.361  23.012  1.00  0.00     0.047 C 
ATOM      8  C   UNL A   1      32.471  23.529  23.071  1.00  0.00     0.022 C 
BRANCH   7   9
ATOM      9  C   UNL A   1      34.851  24.022  23.688  1.00  0.00    -0.013 A 
ATOM     10  C   UNL A   1      37.012  22.993  25.255  1.00  0.00     0.041 A 
ATOM     11  C   UNL A   1      36.886  22.664  23.905  1.00  0.00     0.027 A 
ATOM     12  C   UNL A   1      36.173  23.969  25.760  1.00  0.00     0.027 A 
ATOM     13  C   UNL A   1      35.841  23.201  23.128  1.00  0.00     0.011 A 
ATOM     14  C   UNL A   1      35.094  24.442  25.005  1.00  0.00     0.011 A 
BRANCH  10  15
ATOM     15  N   UNL A   1      37.979  22.317  26.017  1.00  0.00    -0.326 N 
ATOM     16  C   UNL A   1      39.556  24.189  26.561  1.00  0.00     0.114 C 
ATOM     17  C   UNL A   1      39.156  22.737  26.574  1.00  0.00     0.221 C 
ATOM     18  O   UNL A   1      39.874  21.902  27.133  1.00  0.00    -0.275 OA
ATOM     19  H   UNL A   1      37.771  21.368  26.181  1.00  0.00     0.169 HD
ENDBRANCH  10  15
ENDBRANCH   7   9
BRANCH   8  20
ATOM     20  C   UNL A   1      32.423  22.099  23.409  1.00  0.00    -0.025 A 
ATOM     21  C   UNL A   1      32.159  21.197  22.364  1.00  0.00     0.009 A 
ATOM     22  C   UNL A   1      32.707  21.613  24.688  1.00  0.00     0.009 A 
ATOM     23  C   UNL A   1      32.253  19.822  22.573  1.00  0.00     0.021 A 
ATOM     24  C   UNL A   1      32.804  20.234  24.904  1.00  0.00     0.021 A 
ATOM     25  C   UNL A   1      32.592  19.348  23.842  1.00  0.00     0.067 A 
BRANCH  25  26
ATOM     26  S   UNL A   1      32.888  17.607  24.053  1.00  0.00     0.175 S 
ATOM     27  C   UNL A   1      34.567  17.518  24.607  1.00  0.00     0.163 C 
ATOM     28  O   UNL A   1      32.028  17.160  25.132  1.00  0.00    -0.224 OA
ATOM     29  O   UNL A   1      32.811  16.984  22.743  1.00  0.00    -0.224 OA
ENDBRANCH  25  26
ENDBRANCH   8  20
ENDBRANCH   4   7
ENDBRANCH   2   3
ENDBRANCH   1   2
BRANCH   1  30
ATOM     30  C   UNL A   1      32.882  28.800  26.416  1.00  0.00     0.118 C 
BRANCH  30  31
ATOM     31  N   UNL A   1      32.579  30.222  26.428  1.00  0.00    -0.352 N 
ATOM     32  C   UNL A   1      33.166  31.247  27.129  1.00  0.00     0.251 C 
ATOM     33  H   UNL A   1      31.834  30.493  25.843  1.00  0.00     0.163 HD
ATOM     34  O   UNL A   1      32.577  32.322  27.211  1.00  0.00    -0.269 OA
BRANCH  32  35
ATOM     35  C   UNL A   1      34.481  31.064  27.783  1.00  0.00     0.039 A 
ATOM     36  C   UNL A   1      35.368  32.145  27.826  1.00  0.00     0.014 A 
ATOM     37  C   UNL A   1      34.872  29.824  28.296  1.00  0.00     0.014 A 
ATOM     38  C   UNL A   1      36.620  31.996  28.428  1.00  0.00     0.010 A 
ATOM     39  C   UNL A   1      36.093  29.697  28.957  1.00  0.00     0.010 A 
ATOM     40  C   UNL A   1      36.983  30.779  29.026  1.00  0.00    -0.014 A 
BRANCH  40  41
ATOM     41  C   UNL A   1      38.287  30.622  29.724  1.00  0.00     0.031 A 
ATOM     42  C   UNL A   1      39.385  29.802  29.102  1.00  0.00     0.074 A 
ATOM     43  C   UNL A   1      38.457  31.164  30.947  1.00  0.00     0.049 A 
ATOM     44  N   UNL A   1      40.555  29.477  29.589  1.00  0.00    -0.248 NA
ATOM     45  C   UNL A   1      39.121  29.252  27.763  1.00  0.00     0.031 C 
ATOM     46  C   UNL A   1      37.451  31.948  31.668  1.00  0.00     0.029 A 
ATOM     47  N   UNL A   1      39.527  31.130  31.806  1.00  0.00    -0.354 N 
ATOM     48  C   UNL A   1      41.159  28.671  28.629  1.00  0.00     0.074 A 
ATOM     49  C   UNL A   1      40.202  28.515  27.554  1.00  0.00     0.031 C 
ATOM     50  C   UNL A   1      37.958  32.334  32.849  1.00  0.00     0.029 A 
ATOM     51  C   UNL A   1      39.303  31.787  32.994  1.00  0.00     0.049 A 
ATOM     52  H   UNL A   1      40.375  30.678  31.591  1.00  0.00     0.167 HD
ATOM     53  C   UNL A   1      42.403  28.129  28.636  1.00  0.00     0.034 A 
ATOM     54  C   UNL A   1      40.083  31.917  34.086  1.00  0.00     0.034 A 
ATOM     55  C   UNL A   1      43.350  28.309  29.711  1.00  0.00     0.049 A 
ATOM     56  C   UNL A   1      41.456  31.291  34.077  1.00  0.00     0.074 A 
ATOM     57  C   UNL A   1      44.656  27.857  29.794  1.00  0.00     0.029 A 
ATOM     58  N   UNL A   1      43.091  28.987  30.896  1.00  0.00    -0.354 N 
ATOM     59  N   UNL A   1      42.031  30.577  33.136  1.00  0.00    -0.248 NA
ATOM     60  C   UNL A   1      42.286  31.497  35.270  1.00  0.00     0.031 C 
ATOM     61  C   UNL A   1      45.159  28.199  31.053  1.00  0.00     0.029 A 
ATOM     62  C   UNL A   1      44.200  28.936  31.727  1.00  0.00     0.049 A 
ATOM     63  H   UNL A   1      42.243  29.438  31.114  1.00  0.00     0.167 HD
ATOM     64  C   UNL A   1      43.304  30.278  33.615  1.00  0.00     0.074 A 
ATOM     65  C   UNL A   1      43.415  30.901  34.917  1.00  0.00     0.031 C 
ATOM     66  C   UNL A   1      44.293  29.555  33.029  1.00  0.00     0.034 A 
BRANCH  53  67
ATOM     67  C   UNL A   1      42.797  27.267  27.459  1.00  0.00     0.023 A 
ATOM     68  C   UNL A   1      42.743  25.862  27.518  1.00  0.00     0.031 A 
ATOM     69  C   UNL A   1      43.248  27.855  26.265  1.00  0.00     0.131 A 
ATOM     70  C   UNL A   1      43.201  25.097  26.435  1.00  0.00     0.055 A 
ATOM     71  C   UNL A   1      43.624  27.089  25.160  1.00  0.00     0.041 A 
ATOM     72  F   UNL A   1      43.341  29.191  26.153  1.00  0.00    -0.206 F 
ATOM     73  C   UNL A   1      43.617  25.700  25.246  1.00  0.00     0.022 A 
BRANCH  70  74
ATOM     74  S   UNL A   1      43.379  23.305  26.654  1.00  0.00     0.124 S 
ATOM     75  O   UNL A   1      44.832  23.150  26.642  1.00  0.00    -0.237 OA
ATOM     76  O   UNL A   1      42.723  23.077  27.936  1.00  0.00    -0.237 OA
ATOM     77  O   UNL A   1      42.690  22.748  25.491  1.00  0.00    -0.744 OA
ENDBRANCH  70  74
ENDBRANCH  53  67
BRANCH  54  78
ATOM     78  C   UNL A   1      39.589  32.653  35.285  1.00  0.00     0.023 A 
ATOM     79  C   UNL A   1      38.911  31.986  36.317  1.00  0.00     0.031 A 
ATOM     80  C   UNL A   1      39.752  34.047  35.397  1.00  0.00     0.131 A 
ATOM     81  C   UNL A   1      38.376  32.717  37.390  1.00  0.00     0.055 A 
ATOM     82  C   UNL A   1      39.267  34.761  36.493  1.00  0.00     0.041 A 
ATOM     83  F   UNL A   1      40.399  34.733  34.442  1.00  0.00    -0.206 F 
ATOM     84  C   UNL A   1      38.561  34.098  37.492  1.00  0.00     0.022 A 
BRANCH  81  85
ATOM     85  S   UNL A   1      37.352  31.847  38.609  1.00  0.00     0.124 S 
ATOM     86  O   UNL A   1      37.202  30.536  37.987  1.00  0.00    -0.237 OA
ATOM     87  O   UNL A   1      38.190  31.901  39.801  1.00  0.00    -0.237 OA
ATOM     88  O   UNL A   1      36.135  32.654  38.667  1.00  0.00    -0.744 OA
ENDBRANCH  81  85
ENDBRANCH  54  78
BRANCH  66  89
ATOM     89  C   UNL A   1      45.599  29.445  33.779  1.00  0.00     0.023 A 
ATOM     90  C   UNL A   1      45.850  28.397  34.681  1.00  0.00     0.031 A 
ATOM     91  C   UNL A   1      46.602  30.413  33.595  1.00  0.00     0.131 A 
ATOM     92  C   UNL A   1      47.050  28.372  35.407  1.00  0.00     0.055 A 
ATOM     93  C   UNL A   1      47.820  30.347  34.272  1.00  0.00     0.041 A 
ATOM     94  F   UNL A   1      46.416  31.438  32.748  1.00  0.00    -0.206 F 
ATOM     95  C   UNL A   1      48.044  29.330  35.194  1.00  0.00     0.022 A 
BRANCH  92  96
ATOM     96  S   UNL A   1      47.258  27.122  36.705  1.00  0.00     0.124 S 
ATOM     97  O   UNL A   1      46.076  27.345  37.532  1.00  0.00    -0.237 OA
ATOM     98  O   UNL A   1      47.275  25.878  35.941  1.00  0.00    -0.237 OA
ATOM     99  O   UNL A   1      48.529  27.482  37.329  1.00  0.00    -0.744 OA
ENDBRANCH  92  96
ENDBRANCH  66  89
ENDBRANCH  40  41
ENDBRANCH  32  35
ENDBRANCH  30  31
ENDBRANCH   1  30
TORSDOF 17
ENDMDL
MODEL 3
REMARK VINA RESULT:     -12.5      1.938      2.232
REMARK SMILES CC(=O)Nc1ccc(/C(=C\c2ccc(S(C)(=O)=O)cc2)C(=O)NCCCNC(=O)c2ccc(-c3c4nc(c(-c5cc(S(=O)(=O)[O-])ccc5F)c5ccc([nH]5)c(-c5cc(S(=O)(=O)[O-])ccc5F)c5nc(c(-c6cc(S(=O)(=O)[O-])ccc6F)c6ccc3[nH]6)C=C5)C=C4)cc2)cc1
REMARK SMILES IDX 25 1 24 2 23 3 21 4 22 5 9 7 10 8 8 9 5 10 6 11 94 12 7 13
REMARK SMILES IDX 93 14 4 15 1 16 2 17 3 18 11 20 12 21 20 22 13 23 19 24
REMARK SMILES IDX 14 25 15 26 16 27 17 28 18 29 26 30 27 31 28 32 29 34 30 35
REMARK SMILES IDX 31 36 92 37 32 38 91 39 33 40 34 41 35 42 85 43 36 44 90 45
REMARK SMILES IDX 84 46 86 47 37 48 89 49 83 50 82 51 38 53 70 54 50 55 69 56
REMARK SMILES IDX 51 57 54 58 68 59 87 60 52 61 53 62 67 64 88 65 55 66 39 67
REMARK SMILES IDX 40 68 48 69 41 70 47 71 49 72 46 73 42 74 43 75 44 76 45 77
REMARK SMILES IDX 71 78 72 79 80 80 73 81 79 82 81 83 78 84 74 85 75 86 76 87
REMARK SMILES IDX 77 88 56 89 57 90 65 91 58 92 64 93 66 94 63 95 59 96 60 97
REMARK SMILES IDX 61 98 62 99
REMARK H PARENT 23 6 4 19 27 33 86 52 54 63
REMARK Flexibility Score: inf
ROOT
ATOM      1  C   UNL A   1      32.947  28.478  24.553  1.00  0.00     0.042 C 
ENDROOT
BRANCH   1   2
ATOM      2  C   UNL A   1      32.943  26.952  24.425  1.00  0.00     0.118 C 
BRANCH   2   3
ATOM      3  N   UNL A   1      33.029  26.547  23.035  1.00  0.00    -0.352 N 
ATOM      4  C   UNL A   1      33.323  25.403  22.366  1.00  0.00     0.251 C 
ATOM      5  O   UNL A   1      33.254  25.524  21.141  1.00  0.00    -0.269 OA
ATOM      6  H   UNL A   1      32.820  27.288  22.421  1.00  0.00     0.163 HD
BRANCH   4   7
ATOM      7  C   UNL A   1      33.638  24.059  23.024  1.00  0.00     0.047 C 
ATOM      8  C   UNL A   1      32.645  23.140  23.098  1.00  0.00     0.022 C 
BRANCH   7   9
ATOM      9  C   UNL A   1      34.955  23.869  23.747  1.00  0.00    -0.013 A 
ATOM     10  C   UNL A   1      37.156  23.102  25.406  1.00  0.00     0.041 A 
ATOM     11  C   UNL A   1      37.102  22.719  24.066  1.00  0.00     0.027 A 
ATOM     12  C   UNL A   1      36.213  24.010  25.854  1.00  0.00     0.027 A 
ATOM     13  C   UNL A   1      36.035  23.128  23.242  1.00  0.00     0.011 A 
ATOM     14  C   UNL A   1      35.118  24.353  25.054  1.00  0.00     0.011 A 
BRANCH  10  15
ATOM     15  N   UNL A   1      38.158  22.547  26.218  1.00  0.00    -0.326 N 
ATOM     16  C   UNL A   1      39.647  24.534  26.569  1.00  0.00     0.114 C 
ATOM     17  C   UNL A   1      39.317  23.072  26.721  1.00  0.00     0.221 C 
ATOM     18  O   UNL A   1      40.078  22.328  27.347  1.00  0.00    -0.275 OA
ATOM     19  H   UNL A   1      37.998  21.609  26.471  1.00  0.00     0.169 HD
ENDBRANCH  10  15
ENDBRANCH   7   9
BRANCH   8  20
ATOM     20  C   UNL A   1      32.713  21.728  23.504  1.00  0.00    -0.025 A 
ATOM     21  C   UNL A   1      32.264  20.768  22.582  1.00  0.00     0.009 A 
ATOM     22  C   UNL A   1      33.273  21.315  24.717  1.00  0.00     0.009 A 
ATOM     23  C   UNL A   1      32.441  19.408  22.830  1.00  0.00     0.021 A 
ATOM     24  C   UNL A   1      33.454  19.951  24.972  1.00  0.00     0.021 A 
ATOM     25  C   UNL A   1      33.052  19.007  24.020  1.00  0.00     0.067 A 
BRANCH  25  26
ATOM     26  S   UNL A   1      33.438  17.286  24.245  1.00  0.00     0.175 S 
ATOM     27  C   UNL A   1      32.469  16.805  25.647  1.00  0.00     0.163 C 
ATOM     28  O   UNL A   1      32.932  16.584  23.080  1.00  0.00    -0.224 OA
ATOM     29  O   UNL A   1      34.840  17.192  24.611  1.00  0.00    -0.224 OA
ENDBRANCH  25  26
ENDBRANCH   8  20
ENDBRANCH   4   7
ENDBRANCH   2   3
ENDBRANCH   1   2
BRANCH   1  30
ATOM     30  C   UNL A   1      33.767  28.994  25.737  1.00  0.00     0.118 C 
BRANCH  30  31
ATOM     31  N   UNL A   1      33.422  30.365  26.079  1.00  0.00    -0.352 N 
ATOM     32  C   UNL A   1      33.846  31.150  27.123  1.00  0.00     0.251 C 
ATOM     33  H   UNL A   1      32.784  30.798  25.467  1.00  0.00     0.163 HD
ATOM     34  O   UNL A   1      33.219  32.174  27.387  1.00  0.00    -0.269 OA
BRANCH  32  35
ATOM     35  C   UNL A   1      35.030  30.773  27.926  1.00  0.00     0.039 A 
ATOM     36  C   UNL A   1      36.117  31.652  27.977  1.00  0.00     0.014 A 
ATOM     37  C   UNL A   1      35.106  29.537  28.575  1.00  0.00     0.014 A 
ATOM     38  C   UNL A   1      37.252  31.315  28.720  1.00  0.00     0.010 A 
ATOM     39  C   UNL A   1      36.209  29.233  29.370  1.00  0.00     0.010 A 
ATOM     40  C   UNL A   1      37.297  30.116  29.448  1.00  0.00    -0.014 A 
BRANCH  40  41
ATOM     41  C   UNL A   1      38.473  29.770  30.291  1.00  0.00     0.031 A 
ATOM     42  C   UNL A   1      38.638  30.390  31.652  1.00  0.00     0.074 A 
ATOM     43  C   UNL A   1      39.423  28.948  29.801  1.00  0.00     0.049 A 
ATOM     44  N   UNL A   1      39.631  30.282  32.497  1.00  0.00    -0.248 NA
ATOM     45  C   UNL A   1      37.552  31.270  32.113  1.00  0.00     0.031 C 
ATOM     46  C   UNL A   1      39.391  28.316  28.481  1.00  0.00     0.029 A 
ATOM     47  N   UNL A   1      40.604  28.511  30.348  1.00  0.00    -0.354 N 
ATOM     48  C   UNL A   1      39.302  31.093  33.579  1.00  0.00     0.074 A 
ATOM     49  C   UNL A   1      38.040  31.726  33.257  1.00  0.00     0.031 C 
ATOM     50  C   UNL A   1      40.490  27.561  28.327  1.00  0.00     0.029 A 
ATOM     51  C   UNL A   1      41.330  27.691  29.514  1.00  0.00     0.049 A 
ATOM     52  H   UNL A   1      40.903  28.761  31.252  1.00  0.00     0.167 HD
ATOM     53  C   UNL A   1      39.980  31.277  34.740  1.00  0.00     0.034 A 
ATOM     54  C   UNL A   1      42.542  27.125  29.677  1.00  0.00     0.034 A 
ATOM     55  C   UNL A   1      41.230  30.624  35.050  1.00  0.00     0.049 A 
ATOM     56  C   UNL A   1      43.285  27.357  30.970  1.00  0.00     0.074 A 
ATOM     57  C   UNL A   1      41.969  30.689  36.218  1.00  0.00     0.029 A 
ATOM     58  N   UNL A   1      41.932  29.793  34.184  1.00  0.00    -0.354 N 
ATOM     59  N   UNL A   1      42.932  28.084  32.005  1.00  0.00    -0.248 NA
ATOM     60  C   UNL A   1      44.581  26.684  31.119  1.00  0.00     0.031 C 
ATOM     61  C   UNL A   1      43.149  29.959  36.032  1.00  0.00     0.029 A 
ATOM     62  C   UNL A   1      43.110  29.369  34.779  1.00  0.00     0.049 A 
ATOM     63  H   UNL A   1      41.635  29.544  33.279  1.00  0.00     0.167 HD
ATOM     64  C   UNL A   1      43.951  27.928  32.941  1.00  0.00     0.074 A 
ATOM     65  C   UNL A   1      44.921  27.027  32.353  1.00  0.00     0.031 C 
ATOM     66  C   UNL A   1      44.073  28.478  34.176  1.00  0.00     0.034 A 
BRANCH  53  67
ATOM     67  C   UNL A   1      39.397  32.242  35.746  1.00  0.00     0.023 A 
ATOM     68  C   UNL A   1      39.804  33.588  35.804  1.00  0.00     0.031 A 
ATOM     69  C   UNL A   1      38.431  31.809  36.672  1.00  0.00     0.131 A 
ATOM     70  C   UNL A   1      39.303  34.429  36.809  1.00  0.00     0.055 A 
ATOM     71  C   UNL A   1      37.875  32.673  37.617  1.00  0.00     0.041 A 
ATOM     72  F   UNL A   1      38.016  30.532  36.680  1.00  0.00    -0.206 F 
ATOM     73  C   UNL A   1      38.322  33.988  37.700  1.00  0.00     0.022 A 
BRANCH  70  74
ATOM     74  S   UNL A   1      40.057  36.065  37.024  1.00  0.00     0.124 S 
ATOM     75  O   UNL A   1      39.734  36.706  35.752  1.00  0.00    -0.237 OA
ATOM     76  O   UNL A   1      39.362  36.582  38.196  1.00  0.00    -0.237 OA
ATOM     77  O   UNL A   1      41.475  35.765  37.219  1.00  0.00    -0.744 OA
ENDBRANCH  70  74
ENDBRANCH  53  67
BRANCH  54  78
ATOM     78  C   UNL A   1      43.143  26.299  28.591  1.00  0.00     0.023 A 
ATOM     79  C   UNL A   1      44.113  26.832  27.727  1.00  0.00     0.031 A 
ATOM     80  C   UNL A   1      42.724  24.974  28.373  1.00  0.00     0.131 A 
ATOM     81  C   UNL A   1      44.595  26.062  26.655  1.00  0.00     0.055 A 
ATOM     82  C   UNL A   1      43.247  24.194  27.341  1.00  0.00     0.041 A 
ATOM     83  F   UNL A   1      41.804  24.413  29.174  1.00  0.00    -0.206 F 
ATOM     84  C   UNL A   1      44.178  24.743  26.465  1.00  0.00     0.022 A 
BRANCH  81  85
ATOM     85  S   UNL A   1      45.709  26.844  25.457  1.00  0.00     0.124 S 
ATOM     86  O   UNL A   1      46.010  25.732  24.562  1.00  0.00    -0.237 OA
ATOM     87  O   UNL A   1      44.869  27.901  24.908  1.00  0.00    -0.237 OA
ATOM     88  O   UNL A   1      46.826  27.302  26.281  1.00  0.00    -0.744 OA
ENDBRANCH  81  85
ENDBRANCH  54  78
BRANCH  66  89
ATOM     89  C   UNL A   1      45.280  28.075  34.990  1.00  0.00     0.023 A 
ATOM     90  C   UNL A   1      45.258  26.961  35.847  1.00  0.00     0.031 A 
ATOM     91  C   UNL A   1      46.465  28.828  34.914  1.00  0.00     0.131 A 
ATOM     92  C   UNL A   1      46.380  26.664  36.635  1.00  0.00     0.055 A 
ATOM     93  C   UNL A   1      47.599  28.489  35.653  1.00  0.00     0.041 A 
ATOM     94  F   UNL A   1      46.542  29.904  34.115  1.00  0.00    -0.206 F 
ATOM     95  C   UNL A   1      47.556  27.409  36.530  1.00  0.00     0.022 A 
BRANCH  92  96
ATOM     96  S   UNL A   1      46.249  25.345  37.873  1.00  0.00     0.124 S 
ATOM     97  O   UNL A   1      47.228  24.376  37.389  1.00  0.00    -0.237 OA
ATOM     98  O   UNL A   1      46.598  26.040  39.108  1.00  0.00    -0.237 OA
ATOM     99  O   UNL A   1      44.855  24.918  37.776  1.00  0.00    -0.744 OA
ENDBRANCH  92  96
ENDBRANCH  66  89
ENDBRANCH  40  41
ENDBRANCH  32  35
ENDBRANCH  30  31
ENDBRANCH   1  30
TORSDOF 17
ENDMDL
