MODEL 1
REMARK VINA RESULT:     -10.5      0.000      0.000
REMARK SMILES CCC[C@@H]([NH2+]Cc1cc(Cl)cs1)C(=O)NCCCNC(=O)c1ccc(-c2c3nc(c(-c4cc(S(=O)(=O)[O-])ccc4F)c4ccc([nH]4)c(-c4cc(S(=O)(=O)[O-])ccc4F)c4nc(c(-c5cc(S(=O)(=O)[O-])ccc5F)c5ccc2[nH]5)C=C4)C=C3)cc1
REMARK SMILES IDX 17 1 16 2 15 3 13 4 14 5 4 7 3 8 2 9 1 10 5 11 6 14 7 15
REMARK SMILES IDX 8 16 12 17 9 18 11 19 10 20 18 21 19 22 20 23 21 25 22 26
REMARK SMILES IDX 23 27 84 28 24 29 83 30 25 31 26 32 27 33 77 34 28 35 82 36
REMARK SMILES IDX 76 37 78 38 29 39 81 40 75 41 74 42 30 44 62 45 42 46 61 47
REMARK SMILES IDX 43 48 46 49 60 50 79 51 44 52 45 53 59 55 80 56 47 57 31 58
REMARK SMILES IDX 32 59 40 60 33 61 39 62 41 63 38 64 34 65 35 66 36 67 37 68
REMARK SMILES IDX 63 69 64 70 72 71 65 72 71 73 73 74 70 75 66 76 67 77 68 78
REMARK SMILES IDX 69 79 48 80 49 81 57 82 50 83 56 84 58 85 55 86 51 87 52 88
REMARK SMILES IDX 53 89 54 90
REMARK H PARENT 15 6 5 12 5 13 19 24 78 43 46 54
REMARK Flexibility Score: inf
ROOT
ATOM      1  C   UNL A   1      31.589  32.140  26.887  1.00  0.00     0.042 C 
ENDROOT
BRANCH   1   2
ATOM      2  C   UNL A   1      31.661  30.811  26.141  1.00  0.00     0.118 C 
BRANCH   2   3
ATOM      3  N   UNL A   1      31.259  29.693  26.979  1.00  0.00    -0.351 N 
ATOM      4  C   UNL A   1      31.673  28.394  26.973  1.00  0.00     0.278 C 
ATOM      5  O   UNL A   1      31.196  27.640  27.827  1.00  0.00    -0.268 OA
ATOM      6  H   UNL A   1      30.580  29.908  27.660  1.00  0.00     0.163 HD
BRANCH   4   7
ATOM      7  C   UNL A   1      32.717  27.870  25.959  1.00  0.00     0.272 C 
BRANCH   7   8
ATOM      8  C   UNL A   1      34.132  27.921  26.575  1.00  0.00     0.075 C 
BRANCH   8   9
ATOM      9  C   UNL A   1      34.792  29.302  26.657  1.00  0.00     0.003 C 
ATOM     10  C   UNL A   1      35.212  29.696  28.062  1.00  0.00     0.004 C 
ENDBRANCH   8   9
ENDBRANCH   7   8
BRANCH   7  11
ATOM     11  N   UNL A   1      32.365  26.519  25.460  1.00  0.00    -0.332 N 
ATOM     12  H   UNL A   1      31.554  26.188  25.982  1.00  0.00     0.347 HD
ATOM     13  H   UNL A   1      33.192  25.937  25.594  1.00  0.00     0.347 HD
BRANCH  11  14
ATOM     14  C   UNL A   1      32.044  26.463  24.029  1.00  0.00     0.309 C 
BRANCH  14  15
ATOM     15  C   UNL A   1      31.033  27.472  23.555  1.00  0.00     0.060 A 
ATOM     16  C   UNL A   1      29.654  27.372  23.636  1.00  0.00     0.041 A 
ATOM     17  S   UNL A   1      31.495  28.907  22.732  1.00  0.00    -0.141 S 
ATOM     18  C   UNL A   1      28.991  28.504  23.088  1.00  0.00     0.052 A 
ATOM     19  C   UNL A   1      29.875  29.438  22.606  1.00  0.00     0.085 A 
ATOM     20  Cl  UNL A   1      27.291  28.657  23.050  1.00  0.00    -0.083 Cl
ENDBRANCH  14  15
ENDBRANCH  11  14
ENDBRANCH   7  11
ENDBRANCH   4   7
ENDBRANCH   2   3
ENDBRANCH   1   2
BRANCH   1  21
ATOM     21  C   UNL A   1      32.919  32.880  26.979  1.00  0.00     0.118 C 
BRANCH  21  22
ATOM     22  N   UNL A   1      32.795  34.173  27.637  1.00  0.00    -0.352 N 
ATOM     23  C   UNL A   1      33.419  34.661  28.755  1.00  0.00     0.251 C 
ATOM     24  H   UNL A   1      32.162  34.796  27.211  1.00  0.00     0.163 HD
ATOM     25  O   UNL A   1      33.007  35.712  29.255  1.00  0.00    -0.269 OA
BRANCH  23  26
ATOM     26  C   UNL A   1      34.550  33.939  29.377  1.00  0.00     0.039 A 
ATOM     27  C   UNL A   1      35.852  34.367  29.102  1.00  0.00     0.014 A 
ATOM     28  C   UNL A   1      34.343  32.831  30.204  1.00  0.00     0.014 A 
ATOM     29  C   UNL A   1      36.937  33.726  29.704  1.00  0.00     0.010 A 
ATOM     30  C   UNL A   1      35.420  32.245  30.867  1.00  0.00     0.010 A 
ATOM     31  C   UNL A   1      36.730  32.684  30.623  1.00  0.00    -0.014 A 
BRANCH  31  32
ATOM     32  C   UNL A   1      37.874  32.068  31.344  1.00  0.00     0.031 A 
ATOM     33  C   UNL A   1      38.686  30.974  30.706  1.00  0.00     0.074 A 
ATOM     34  C   UNL A   1      38.141  32.455  32.606  1.00  0.00     0.049 A 
ATOM     35  N   UNL A   1      39.703  30.307  31.189  1.00  0.00    -0.248 NA
ATOM     36  C   UNL A   1      38.278  30.553  29.359  1.00  0.00     0.031 C 
ATOM     37  C   UNL A   1      37.379  33.454  33.358  1.00  0.00     0.029 A 
ATOM     38  N   UNL A   1      39.116  32.054  33.483  1.00  0.00    -0.354 N 
ATOM     39  C   UNL A   1      40.049  29.377  30.214  1.00  0.00     0.074 A 
ATOM     40  C   UNL A   1      39.086  29.527  29.142  1.00  0.00     0.031 C 
ATOM     41  C   UNL A   1      37.927  33.604  34.573  1.00  0.00     0.029 A 
ATOM     42  C   UNL A   1      39.054  32.686  34.703  1.00  0.00     0.049 A 
ATOM     43  H   UNL A   1      39.797  31.378  33.260  1.00  0.00     0.167 HD
ATOM     44  C   UNL A   1      41.084  28.500  30.204  1.00  0.00     0.034 A 
ATOM     45  C   UNL A   1      39.810  32.537  35.809  1.00  0.00     0.034 A 
ATOM     46  C   UNL A   1      42.033  28.370  31.287  1.00  0.00     0.049 A 
ATOM     47  C   UNL A   1      40.956  31.564  35.779  1.00  0.00     0.074 A 
ATOM     48  C   UNL A   1      43.168  27.581  31.350  1.00  0.00     0.029 A 
ATOM     49  N   UNL A   1      41.947  29.033  32.506  1.00  0.00    -0.354 N 
ATOM     50  N   UNL A   1      41.330  30.755  34.813  1.00  0.00    -0.248 NA
ATOM     51  C   UNL A   1      41.792  31.495  36.982  1.00  0.00     0.031 C 
ATOM     52  C   UNL A   1      43.719  27.703  32.631  1.00  0.00     0.029 A 
ATOM     53  C   UNL A   1      42.980  28.635  33.344  1.00  0.00     0.049 A 
ATOM     54  H   UNL A   1      41.252  29.690  32.743  1.00  0.00     0.167 HD
ATOM     55  C   UNL A   1      42.454  30.088  35.289  1.00  0.00     0.074 A 
ATOM     56  C   UNL A   1      42.712  30.613  36.616  1.00  0.00     0.031 C 
ATOM     57  C   UNL A   1      43.205  29.133  34.683  1.00  0.00     0.034 A 
BRANCH  44  58
ATOM     58  C   UNL A   1      41.211  27.592  28.999  1.00  0.00     0.023 A 
ATOM     59  C   UNL A   1      42.223  27.771  28.038  1.00  0.00     0.031 A 
ATOM     60  C   UNL A   1      40.275  26.565  28.777  1.00  0.00     0.131 A 
ATOM     61  C   UNL A   1      42.213  27.013  26.857  1.00  0.00     0.055 A 
ATOM     62  C   UNL A   1      40.328  25.750  27.644  1.00  0.00     0.041 A 
ATOM     63  F   UNL A   1      39.274  26.352  29.645  1.00  0.00    -0.206 F 
ATOM     64  C   UNL A   1      41.287  25.986  26.665  1.00  0.00     0.022 A 
BRANCH  61  65
ATOM     65  S   UNL A   1      43.307  27.516  25.498  1.00  0.00     0.124 S 
ATOM     66  O   UNL A   1      42.348  28.018  24.517  1.00  0.00    -0.237 OA
ATOM     67  O   UNL A   1      44.155  28.517  26.133  1.00  0.00    -0.237 OA
ATOM     68  O   UNL A   1      43.979  26.274  25.122  1.00  0.00    -0.744 OA
ENDBRANCH  61  65
ENDBRANCH  44  58
BRANCH  45  69
ATOM     69  C   UNL A   1      39.490  33.321  37.034  1.00  0.00     0.023 A 
ATOM     70  C   UNL A   1      38.727  32.773  38.076  1.00  0.00     0.031 A 
ATOM     71  C   UNL A   1      39.962  34.639  37.183  1.00  0.00     0.131 A 
ATOM     72  C   UNL A   1      38.436  33.547  39.210  1.00  0.00     0.055 A 
ATOM     73  C   UNL A   1      39.708  35.388  38.331  1.00  0.00     0.041 A 
ATOM     74  F   UNL A   1      40.707  35.204  36.220  1.00  0.00    -0.206 F 
ATOM     75  C   UNL A   1      38.933  34.845  39.351  1.00  0.00     0.022 A 
BRANCH  72  76
ATOM     76  S   UNL A   1      37.359  32.846  40.491  1.00  0.00     0.124 S 
ATOM     77  O   UNL A   1      38.123  31.680  40.918  1.00  0.00    -0.237 OA
ATOM     78  O   UNL A   1      37.273  33.944  41.449  1.00  0.00    -0.237 OA
ATOM     79  O   UNL A   1      36.121  32.554  39.772  1.00  0.00    -0.744 OA
ENDBRANCH  72  76
ENDBRANCH  45  69
BRANCH  57  80
ATOM     80  C   UNL A   1      44.387  28.604  35.463  1.00  0.00     0.023 A 
ATOM     81  C   UNL A   1      44.264  27.508  36.337  1.00  0.00     0.031 A 
ATOM     82  C   UNL A   1      45.646  29.223  35.357  1.00  0.00     0.131 A 
ATOM     83  C   UNL A   1      45.358  27.110  37.121  1.00  0.00     0.055 A 
ATOM     84  C   UNL A   1      46.749  28.778  36.087  1.00  0.00     0.041 A 
ATOM     85  F   UNL A   1      45.823  30.276  34.543  1.00  0.00    -0.206 F 
ATOM     86  C   UNL A   1      46.604  27.727  36.989  1.00  0.00     0.022 A 
BRANCH  83  87
ATOM     87  S   UNL A   1      45.098  25.856  38.405  1.00  0.00     0.124 S 
ATOM     88  O   UNL A   1      46.467  25.455  38.717  1.00  0.00    -0.237 OA
ATOM     89  O   UNL A   1      44.402  26.609  39.442  1.00  0.00    -0.237 OA
ATOM     90  O   UNL A   1      44.294  24.838  37.731  1.00  0.00    -0.744 OA
ENDBRANCH  83  87
ENDBRANCH  57  80
ENDBRANCH  31  32
ENDBRANCH  23  26
ENDBRANCH  21  22
ENDBRANCH   1  21
TORSDOF 18
ENDMDL
MODEL 2
REMARK VINA RESULT:     -10.5      1.913      2.795
REMARK SMILES CCC[C@@H]([NH2+]Cc1cc(Cl)cs1)C(=O)NCCCNC(=O)c1ccc(-c2c3nc(c(-c4cc(S(=O)(=O)[O-])ccc4F)c4ccc([nH]4)c(-c4cc(S(=O)(=O)[O-])ccc4F)c4nc(c(-c5cc(S(=O)(=O)[O-])ccc5F)c5ccc2[nH]5)C=C4)C=C3)cc1
REMARK SMILES IDX 17 1 16 2 15 3 13 4 14 5 4 7 3 8 2 9 1 10 5 11 6 14 7 15
REMARK SMILES IDX 8 16 12 17 9 18 11 19 10 20 18 21 19 22 20 23 21 25 22 26
REMARK SMILES IDX 23 27 84 28 24 29 83 30 25 31 26 32 27 33 77 34 28 35 82 36
REMARK SMILES IDX 76 37 78 38 29 39 81 40 75 41 74 42 30 44 62 45 42 46 61 47
REMARK SMILES IDX 43 48 46 49 60 50 79 51 44 52 45 53 59 55 80 56 47 57 31 58
REMARK SMILES IDX 32 59 40 60 33 61 39 62 41 63 38 64 34 65 35 66 36 67 37 68
REMARK SMILES IDX 63 69 64 70 72 71 65 72 71 73 73 74 70 75 66 76 67 77 68 78
REMARK SMILES IDX 69 79 48 80 49 81 57 82 50 83 56 84 58 85 55 86 51 87 52 88
REMARK SMILES IDX 53 89 54 90
REMARK H PARENT 15 6 5 12 5 13 19 24 78 43 46 54
REMARK Flexibility Score: inf
ROOT
ATOM      1  C   UNL A   1      31.605  31.887  26.579  1.00  0.00     0.042 C 
ENDROOT
BRANCH   1   2
ATOM      2  C   UNL A   1      31.715  30.392  26.299  1.00  0.00     0.118 C 
BRANCH   2   3
ATOM      3  N   UNL A   1      32.631  30.108  25.207  1.00  0.00    -0.351 N 
ATOM      4  C   UNL A   1      32.712  29.023  24.384  1.00  0.00     0.278 C 
ATOM      5  O   UNL A   1      33.573  29.044  23.498  1.00  0.00    -0.268 OA
ATOM      6  H   UNL A   1      33.300  30.810  25.034  1.00  0.00     0.163 HD
BRANCH   4   7
ATOM      7  C   UNL A   1      31.759  27.813  24.524  1.00  0.00     0.272 C 
BRANCH   7   8
ATOM      8  C   UNL A   1      30.706  27.830  23.395  1.00  0.00     0.075 C 
BRANCH   8   9
ATOM      9  C   UNL A   1      29.807  29.068  23.319  1.00  0.00     0.003 C 
ATOM     10  C   UNL A   1      29.833  29.760  21.968  1.00  0.00     0.004 C 
ENDBRANCH   8   9
ENDBRANCH   7   8
BRANCH   7  11
ATOM     11  N   UNL A   1      32.504  26.533  24.585  1.00  0.00    -0.332 N 
ATOM     12  H   UNL A   1      33.296  26.594  23.944  1.00  0.00     0.347 HD
ATOM     13  H   UNL A   1      31.841  25.800  24.333  1.00  0.00     0.347 HD
BRANCH  11  14
ATOM     14  C   UNL A   1      33.020  26.190  25.915  1.00  0.00     0.309 C 
BRANCH  14  15
ATOM     15  C   UNL A   1      33.305  24.729  26.138  1.00  0.00     0.060 A 
ATOM     16  C   UNL A   1      34.479  24.055  25.845  1.00  0.00     0.041 A 
ATOM     17  S   UNL A   1      32.112  23.648  26.737  1.00  0.00    -0.141 S 
ATOM     18  C   UNL A   1      34.414  22.674  26.179  1.00  0.00     0.052 A 
ATOM     19  C   UNL A   1      33.199  22.329  26.719  1.00  0.00     0.085 A 
ATOM     20  Cl  UNL A   1      35.714  21.596  25.927  1.00  0.00    -0.083 Cl
ENDBRANCH  14  15
ENDBRANCH  11  14
ENDBRANCH   7  11
ENDBRANCH   4   7
ENDBRANCH   2   3
ENDBRANCH   1   2
BRANCH   1  21
ATOM     21  C   UNL A   1      32.802  32.478  27.316  1.00  0.00     0.118 C 
BRANCH  21  22
ATOM     22  N   UNL A   1      32.608  33.877  27.666  1.00  0.00    -0.352 N 
ATOM     23  C   UNL A   1      33.198  34.635  28.644  1.00  0.00     0.251 C 
ATOM     24  H   UNL A   1      31.949  34.356  27.113  1.00  0.00     0.163 HD
ATOM     25  O   UNL A   1      32.730  35.750  28.896  1.00  0.00    -0.269 OA
BRANCH  23  26
ATOM     26  C   UNL A   1      34.358  34.129  29.409  1.00  0.00     0.039 A 
ATOM     27  C   UNL A   1      34.125  33.340  30.539  1.00  0.00     0.014 A 
ATOM     28  C   UNL A   1      35.670  34.444  29.041  1.00  0.00     0.014 A 
ATOM     29  C   UNL A   1      35.201  32.819  31.259  1.00  0.00     0.010 A 
ATOM     30  C   UNL A   1      36.742  33.858  29.711  1.00  0.00     0.010 A 
ATOM     31  C   UNL A   1      36.520  33.040  30.829  1.00  0.00    -0.014 A 
BRANCH  31  32
ATOM     32  C   UNL A   1      37.665  32.403  31.531  1.00  0.00     0.031 A 
ATOM     33  C   UNL A   1      38.420  31.267  30.896  1.00  0.00     0.074 A 
ATOM     34  C   UNL A   1      37.985  32.813  32.773  1.00  0.00     0.049 A 
ATOM     35  N   UNL A   1      39.429  30.578  31.365  1.00  0.00    -0.248 NA
ATOM     36  C   UNL A   1      37.956  30.827  29.573  1.00  0.00     0.031 C 
ATOM     37  C   UNL A   1      37.281  33.856  33.523  1.00  0.00     0.029 A 
ATOM     38  N   UNL A   1      38.974  32.400  33.629  1.00  0.00    -0.354 N 
ATOM     39  C   UNL A   1      39.713  29.613  30.403  1.00  0.00     0.074 A 
ATOM     40  C   UNL A   1      38.722  29.769  29.358  1.00  0.00     0.031 C 
ATOM     41  C   UNL A   1      37.873  34.017  34.716  1.00  0.00     0.029 A 
ATOM     42  C   UNL A   1      38.972  33.064  34.834  1.00  0.00     0.049 A 
ATOM     43  H   UNL A   1      39.625  31.696  33.403  1.00  0.00     0.167 HD
ATOM     44  C   UNL A   1      40.717  28.701  30.384  1.00  0.00     0.034 A 
ATOM     45  C   UNL A   1      39.757  32.917  35.919  1.00  0.00     0.034 A 
ATOM     46  C   UNL A   1      41.696  28.566  31.440  1.00  0.00     0.049 A 
ATOM     47  C   UNL A   1      40.869  31.905  35.880  1.00  0.00     0.074 A 
ATOM     48  C   UNL A   1      42.805  27.740  31.489  1.00  0.00     0.029 A 
ATOM     49  N   UNL A   1      41.670  29.261  32.644  1.00  0.00    -0.354 N 
ATOM     50  N   UNL A   1      41.185  31.061  34.923  1.00  0.00    -0.248 NA
ATOM     51  C   UNL A   1      41.741  31.838  37.057  1.00  0.00     0.031 C 
ATOM     52  C   UNL A   1      43.400  27.875  32.748  1.00  0.00     0.029 A 
ATOM     53  C   UNL A   1      42.716  28.849  33.460  1.00  0.00     0.049 A 
ATOM     54  H   UNL A   1      41.006  29.948  32.885  1.00  0.00     0.167 HD
ATOM     55  C   UNL A   1      42.300  30.368  35.382  1.00  0.00     0.074 A 
ATOM     56  C   UNL A   1      42.618  30.916  36.686  1.00  0.00     0.031 C 
ATOM     57  C   UNL A   1      43.000  29.372  34.778  1.00  0.00     0.034 A 
BRANCH  44  58
ATOM     58  C   UNL A   1      40.775  27.760  29.200  1.00  0.00     0.023 A 
ATOM     59  C   UNL A   1      41.732  27.910  28.178  1.00  0.00     0.031 A 
ATOM     60  C   UNL A   1      39.828  26.729  29.060  1.00  0.00     0.131 A 
ATOM     61  C   UNL A   1      41.655  27.119  27.021  1.00  0.00     0.055 A 
ATOM     62  C   UNL A   1      39.816  25.883  27.949  1.00  0.00     0.041 A 
ATOM     63  F   UNL A   1      38.877  26.542  29.989  1.00  0.00    -0.206 F 
ATOM     64  C   UNL A   1      40.719  26.089  26.910  1.00  0.00     0.022 A 
BRANCH  61  65
ATOM     65  S   UNL A   1      42.671  27.582  25.589  1.00  0.00     0.124 S 
ATOM     66  O   UNL A   1      43.972  27.812  26.213  1.00  0.00    -0.237 OA
ATOM     67  O   UNL A   1      42.569  26.403  24.739  1.00  0.00    -0.237 OA
ATOM     68  O   UNL A   1      42.014  28.783  25.077  1.00  0.00    -0.744 OA
ENDBRANCH  61  65
ENDBRANCH  44  58
BRANCH  45  69
ATOM     69  C   UNL A   1      39.503  33.742  37.133  1.00  0.00     0.023 A 
ATOM     70  C   UNL A   1      38.818  33.221  38.242  1.00  0.00     0.031 A 
ATOM     71  C   UNL A   1      39.960  35.071  37.203  1.00  0.00     0.131 A 
ATOM     72  C   UNL A   1      38.587  34.033  39.364  1.00  0.00     0.055 A 
ATOM     73  C   UNL A   1      39.767  35.859  38.337  1.00  0.00     0.041 A 
ATOM     74  F   UNL A   1      40.631  35.611  36.173  1.00  0.00    -0.206 F 
ATOM     75  C   UNL A   1      39.069  35.343  39.424  1.00  0.00     0.022 A 
BRANCH  72  76
ATOM     76  S   UNL A   1      37.608  33.365  40.736  1.00  0.00     0.124 S 
ATOM     77  O   UNL A   1      37.109  34.580  41.367  1.00  0.00    -0.237 OA
ATOM     78  O   UNL A   1      36.618  32.552  40.036  1.00  0.00    -0.237 OA
ATOM     79  O   UNL A   1      38.586  32.611  41.517  1.00  0.00    -0.744 OA
ENDBRANCH  72  76
ENDBRANCH  45  69
BRANCH  57  80
ATOM     80  C   UNL A   1      44.188  28.823  35.533  1.00  0.00     0.023 A 
ATOM     81  C   UNL A   1      44.071  27.706  36.381  1.00  0.00     0.031 A 
ATOM     82  C   UNL A   1      45.447  29.444  35.432  1.00  0.00     0.131 A 
ATOM     83  C   UNL A   1      45.171  27.288  37.146  1.00  0.00     0.055 A 
ATOM     84  C   UNL A   1      46.555  28.979  36.142  1.00  0.00     0.041 A 
ATOM     85  F   UNL A   1      45.618  30.516  34.643  1.00  0.00    -0.206 F 
ATOM     86  C   UNL A   1      46.417  27.906  37.018  1.00  0.00     0.022 A 
BRANCH  83  87
ATOM     87  S   UNL A   1      44.920  26.002  38.400  1.00  0.00     0.124 S 
ATOM     88  O   UNL A   1      44.192  26.728  39.436  1.00  0.00    -0.237 OA
ATOM     89  O   UNL A   1      44.157  24.996  37.669  1.00  0.00    -0.237 OA
ATOM     90  O   UNL A   1      46.281  25.607  38.762  1.00  0.00    -0.744 OA
ENDBRANCH  83  87
ENDBRANCH  57  80
ENDBRANCH  31  32
ENDBRANCH  23  26
ENDBRANCH  21  22
ENDBRANCH   1  21
TORSDOF 18
ENDMDL
MODEL 3
REMARK VINA RESULT:     -10.4      5.502      8.295
REMARK SMILES CCC[C@@H]([NH2+]Cc1cc(Cl)cs1)C(=O)NCCCNC(=O)c1ccc(-c2c3nc(c(-c4cc(S(=O)(=O)[O-])ccc4F)c4ccc([nH]4)c(-c4cc(S(=O)(=O)[O-])ccc4F)c4nc(c(-c5cc(S(=O)(=O)[O-])ccc5F)c5ccc2[nH]5)C=C4)C=C3)cc1
REMARK SMILES IDX 17 1 16 2 15 3 13 4 14 5 4 7 3 8 2 9 1 10 5 11 6 14 7 15
REMARK SMILES IDX 8 16 12 17 9 18 11 19 10 20 18 21 19 22 20 23 21 25 22 26
REMARK SMILES IDX 23 27 84 28 24 29 83 30 25 31 26 32 27 33 77 34 28 35 82 36
REMARK SMILES IDX 76 37 78 38 29 39 81 40 75 41 74 42 30 44 62 45 42 46 61 47
REMARK SMILES IDX 43 48 46 49 60 50 79 51 44 52 45 53 59 55 80 56 47 57 31 58
REMARK SMILES IDX 32 59 40 60 33 61 39 62 41 63 38 64 34 65 35 66 36 67 37 68
REMARK SMILES IDX 63 69 64 70 72 71 65 72 71 73 73 74 70 75 66 76 67 77 68 78
REMARK SMILES IDX 69 79 48 80 49 81 57 82 50 83 56 84 58 85 55 86 51 87 52 88
REMARK SMILES IDX 53 89 54 90
REMARK H PARENT 15 6 5 12 5 13 19 24 78 43 46 54
REMARK Flexibility Score: inf
ROOT
ATOM      1  C   UNL A   1      36.134  23.573  24.722  1.00  0.00     0.042 C 
ENDROOT
BRANCH   1   2
ATOM      2  C   UNL A   1      34.872  24.424  24.631  1.00  0.00     0.118 C 
BRANCH   2   3
ATOM      3  N   UNL A   1      34.697  25.002  23.309  1.00  0.00    -0.351 N 
ATOM      4  C   UNL A   1      33.570  25.447  22.684  1.00  0.00     0.278 C 
ATOM      5  O   UNL A   1      33.698  25.934  21.556  1.00  0.00    -0.268 OA
ATOM      6  H   UNL A   1      35.524  25.083  22.779  1.00  0.00     0.163 HD
BRANCH   4   7
ATOM      7  C   UNL A   1      32.177  25.376  23.353  1.00  0.00     0.272 C 
BRANCH   7   8
ATOM      8  C   UNL A   1      31.488  26.757  23.300  1.00  0.00     0.075 C 
BRANCH   8   9
ATOM      9  C   UNL A   1      31.142  27.399  24.648  1.00  0.00     0.003 C 
ATOM     10  C   UNL A   1      31.344  26.475  25.835  1.00  0.00     0.004 C 
ENDBRANCH   8   9
ENDBRANCH   7   8
BRANCH   7  11
ATOM     11  N   UNL A   1      31.341  24.303  22.764  1.00  0.00    -0.332 N 
ATOM     12  H   UNL A   1      31.923  23.759  22.127  1.00  0.00     0.347 HD
ATOM     13  H   UNL A   1      30.563  24.767  22.296  1.00  0.00     0.347 HD
BRANCH  11  14
ATOM     14  C   UNL A   1      30.750  23.384  23.742  1.00  0.00     0.309 C 
BRANCH  14  15
ATOM     15  C   UNL A   1      31.734  22.573  24.542  1.00  0.00     0.060 A 
ATOM     16  C   UNL A   1      32.592  21.597  24.065  1.00  0.00     0.041 A 
ATOM     17  S   UNL A   1      31.852  22.710  26.251  1.00  0.00    -0.141 S 
ATOM     18  C   UNL A   1      33.389  21.021  25.092  1.00  0.00     0.052 A 
ATOM     19  C   UNL A   1      33.123  21.570  26.323  1.00  0.00     0.085 A 
ATOM     20  Cl  UNL A   1      34.537  19.791  24.798  1.00  0.00    -0.083 Cl
ENDBRANCH  14  15
ENDBRANCH  11  14
ENDBRANCH   7  11
ENDBRANCH   4   7
ENDBRANCH   2   3
ENDBRANCH   1   2
BRANCH   1  21
ATOM     21  C   UNL A   1      36.498  23.137  26.137  1.00  0.00     0.118 C 
BRANCH  21  22
ATOM     22  N   UNL A   1      37.699  22.317  26.178  1.00  0.00    -0.352 N 
ATOM     23  C   UNL A   1      39.008  22.674  26.376  1.00  0.00     0.251 C 
ATOM     24  H   UNL A   1      37.549  21.353  26.043  1.00  0.00     0.163 HD
ATOM     25  O   UNL A   1      39.890  21.836  26.164  1.00  0.00    -0.269 OA
BRANCH  23  26
ATOM     26  C   UNL A   1      39.372  24.040  26.808  1.00  0.00     0.039 A 
ATOM     27  C   UNL A   1      39.123  24.414  28.132  1.00  0.00     0.014 A 
ATOM     28  C   UNL A   1      39.930  24.964  25.919  1.00  0.00     0.014 A 
ATOM     29  C   UNL A   1      39.489  25.685  28.577  1.00  0.00     0.010 A 
ATOM     30  C   UNL A   1      40.369  26.202  26.385  1.00  0.00     0.010 A 
ATOM     31  C   UNL A   1      40.152  26.578  27.719  1.00  0.00    -0.014 A 
BRANCH  31  32
ATOM     32  C   UNL A   1      40.637  27.892  28.215  1.00  0.00     0.031 A 
ATOM     33  C   UNL A   1      42.109  28.199  28.267  1.00  0.00     0.074 A 
ATOM     34  C   UNL A   1      39.746  28.789  28.679  1.00  0.00     0.049 A 
ATOM     35  N   UNL A   1      42.716  29.280  28.687  1.00  0.00    -0.248 NA
ATOM     36  C   UNL A   1      43.018  27.136  27.820  1.00  0.00     0.031 C 
ATOM     37  C   UNL A   1      38.298  28.578  28.748  1.00  0.00     0.029 A 
ATOM     38  N   UNL A   1      39.921  30.051  29.188  1.00  0.00    -0.354 N 
ATOM     39  C   UNL A   1      44.078  29.023  28.569  1.00  0.00     0.074 A 
ATOM     40  C   UNL A   1      44.202  27.658  28.101  1.00  0.00     0.031 C 
ATOM     41  C   UNL A   1      37.715  29.679  29.247  1.00  0.00     0.029 A 
ATOM     42  C   UNL A   1      38.748  30.658  29.571  1.00  0.00     0.049 A 
ATOM     43  H   UNL A   1      40.803  30.481  29.270  1.00  0.00     0.167 HD
ATOM     44  C   UNL A   1      45.124  29.855  28.806  1.00  0.00     0.034 A 
ATOM     45  C   UNL A   1      38.525  31.863  30.131  1.00  0.00     0.034 A 
ATOM     46  C   UNL A   1      44.975  31.215  29.272  1.00  0.00     0.049 A 
ATOM     47  C   UNL A   1      39.694  32.775  30.382  1.00  0.00     0.074 A 
ATOM     48  C   UNL A   1      45.953  32.175  29.463  1.00  0.00     0.029 A 
ATOM     49  N   UNL A   1      43.770  31.804  29.642  1.00  0.00    -0.354 N 
ATOM     50  N   UNL A   1      40.974  32.554  30.178  1.00  0.00    -0.248 NA
ATOM     51  C   UNL A   1      39.389  34.103  30.924  1.00  0.00     0.031 C 
ATOM     52  C   UNL A   1      45.354  33.310  30.023  1.00  0.00     0.029 A 
ATOM     53  C   UNL A   1      43.987  33.095  30.104  1.00  0.00     0.049 A 
ATOM     54  H   UNL A   1      42.889  31.367  29.586  1.00  0.00     0.167 HD
ATOM     55  C   UNL A   1      41.626  33.723  30.556  1.00  0.00     0.074 A 
ATOM     56  C   UNL A   1      40.594  34.654  30.972  1.00  0.00     0.031 C 
ATOM     57  C   UNL A   1      42.955  34.002  30.557  1.00  0.00     0.034 A 
BRANCH  44  58
ATOM     58  C   UNL A   1      46.515  29.295  28.598  1.00  0.00     0.023 A 
ATOM     59  C   UNL A   1      47.038  29.062  27.312  1.00  0.00     0.031 A 
ATOM     60  C   UNL A   1      47.312  28.936  29.701  1.00  0.00     0.131 A 
ATOM     61  C   UNL A   1      48.264  28.396  27.162  1.00  0.00     0.055 A 
ATOM     62  C   UNL A   1      48.575  28.360  29.543  1.00  0.00     0.041 A 
ATOM     63  F   UNL A   1      46.867  29.115  30.954  1.00  0.00    -0.206 F 
ATOM     64  C   UNL A   1      49.048  28.066  28.268  1.00  0.00     0.022 A 
BRANCH  61  65
ATOM     65  S   UNL A   1      48.726  27.801  25.510  1.00  0.00     0.124 S 
ATOM     66  O   UNL A   1      50.005  28.474  25.300  1.00  0.00    -0.237 OA
ATOM     67  O   UNL A   1      48.787  26.357  25.703  1.00  0.00    -0.237 OA
ATOM     68  O   UNL A   1      47.635  28.273  24.659  1.00  0.00    -0.744 OA
ENDBRANCH  61  65
ENDBRANCH  44  58
BRANCH  45  69
ATOM     69  C   UNL A   1      37.138  32.262  30.502  1.00  0.00     0.023 A 
ATOM     70  C   UNL A   1      36.272  32.852  29.568  1.00  0.00     0.031 A 
ATOM     71  C   UNL A   1      36.655  32.042  31.805  1.00  0.00     0.131 A 
ATOM     72  C   UNL A   1      34.977  33.226  29.957  1.00  0.00     0.055 A 
ATOM     73  C   UNL A   1      35.352  32.374  32.174  1.00  0.00     0.041 A 
ATOM     74  F   UNL A   1      37.441  31.470  32.731  1.00  0.00    -0.206 F 
ATOM     75  C   UNL A   1      34.506  32.978  31.250  1.00  0.00     0.022 A 
BRANCH  72  76
ATOM     76  S   UNL A   1      33.919  34.082  28.757  1.00  0.00     0.124 S 
ATOM     77  O   UNL A   1      33.550  32.997  27.857  1.00  0.00    -0.237 OA
ATOM     78  O   UNL A   1      32.852  34.601  29.609  1.00  0.00    -0.237 OA
ATOM     79  O   UNL A   1      34.803  35.095  28.186  1.00  0.00    -0.744 OA
ENDBRANCH  72  76
ENDBRANCH  45  69
BRANCH  57  80
ATOM     80  C   UNL A   1      43.358  35.384  31.018  1.00  0.00     0.023 A 
ATOM     81  C   UNL A   1      43.408  35.720  32.383  1.00  0.00     0.031 A 
ATOM     82  C   UNL A   1      43.664  36.388  30.081  1.00  0.00     0.131 A 
ATOM     83  C   UNL A   1      43.686  37.040  32.771  1.00  0.00     0.055 A 
ATOM     84  C   UNL A   1      44.009  37.681  30.476  1.00  0.00     0.041 A 
ATOM     85  F   UNL A   1      43.628  36.128  28.765  1.00  0.00    -0.206 F 
ATOM     86  C   UNL A   1      44.004  38.019  31.826  1.00  0.00     0.022 A 
BRANCH  83  87
ATOM     87  S   UNL A   1      43.507  37.490  34.519  1.00  0.00     0.124 S 
ATOM     88  O   UNL A   1      43.527  38.949  34.458  1.00  0.00    -0.237 OA
ATOM     89  O   UNL A   1      42.227  36.884  34.868  1.00  0.00    -0.237 OA
ATOM     90  O   UNL A   1      44.676  36.882  35.151  1.00  0.00    -0.744 OA
ENDBRANCH  83  87
ENDBRANCH  57  80
ENDBRANCH  31  32
ENDBRANCH  23  26
ENDBRANCH  21  22
ENDBRANCH   1  21
TORSDOF 18
ENDMDL
