MODEL 1
REMARK VINA RESULT:     -13.1      0.000      0.000
REMARK SMILES Cc1cc(C(=O)NCCCNC(=O)c2ccc(-c3c4nc(c(-c5cc(S(=O)(=O)[O-])ccc5F)c5ccc([nH]5)c(-c5cc(S(=O)(=O)[O-])ccc5F)c5nc(c(-c6cc(S(=O)(=O)[O-])ccc6F)c6ccc3[nH]6)C=C5)C=C4)cc2)nc(N2CCN(c3ccccc3Cl)CC2)n1
REMARK SMILES IDX 9 1 8 2 7 3 5 4 6 5 4 7 1 8 2 9 3 10 92 11 78 12 77 13 79 14
REMARK SMILES IDX 80 15 91 16 81 17 90 18 82 19 83 20 84 21 88 22 85 23 87 24
REMARK SMILES IDX 89 25 86 26 10 27 11 28 12 29 13 31 14 32 15 33 76 34 16 35
REMARK SMILES IDX 75 36 17 37 18 38 19 39 69 40 20 41 74 42 68 43 70 44 21 45
REMARK SMILES IDX 73 46 67 47 66 48 22 50 54 51 34 52 53 53 35 54 38 55 52 56
REMARK SMILES IDX 71 57 36 58 37 59 51 61 72 62 39 63 23 64 24 65 32 66 25 67
REMARK SMILES IDX 31 68 33 69 30 70 26 71 27 72 28 73 29 74 55 75 56 76 64 77
REMARK SMILES IDX 57 78 63 79 65 80 62 81 58 82 59 83 60 84 61 85 40 86 41 87
REMARK SMILES IDX 49 88 42 89 48 90 50 91 47 92 43 93 44 94 45 95 46 96
REMARK H PARENT 7 6 11 30 70 49 38 60
REMARK Flexibility Score: inf
ROOT
ATOM      1  C   UNL A   1      31.774  31.573  26.644  1.00  0.00     0.042 C 
ENDROOT
BRANCH   1   2
ATOM      2  C   UNL A   1      32.024  30.093  26.368  1.00  0.00     0.118 C 
BRANCH   2   3
ATOM      3  N   UNL A   1      32.740  29.934  25.123  1.00  0.00    -0.351 N 
ATOM      4  C   UNL A   1      32.679  28.992  24.126  1.00  0.00     0.270 C 
ATOM      5  O   UNL A   1      33.492  29.128  23.208  1.00  0.00    -0.268 OA
ATOM      6  H   UNL A   1      33.405  30.641  24.956  1.00  0.00     0.163 HD
BRANCH   4   7
ATOM      7  C   UNL A   1      31.662  27.890  24.071  1.00  0.00     0.133 A 
ATOM      8  C   UNL A   1      28.070  26.961  23.700  1.00  0.00     0.067 C 
ATOM      9  C   UNL A   1      29.564  26.894  23.826  1.00  0.00     0.044 A 
ATOM     10  C   UNL A   1      30.298  28.043  24.049  1.00  0.00     0.058 A 
ATOM     11  N   UNL A   1      30.133  25.673  23.743  1.00  0.00    -0.218 NA
ATOM     12  C   UNL A   1      31.456  25.602  23.928  1.00  0.00     0.226 A 
ATOM     13  N   UNL A   1      32.233  26.675  24.045  1.00  0.00    -0.208 NA
BRANCH  12  14
ATOM     14  N   UNL A   1      32.094  24.399  24.055  1.00  0.00    -0.337 N 
ATOM     15  C   UNL A   1      32.899  23.851  22.971  1.00  0.00     0.141 C 
ATOM     16  C   UNL A   1      31.348  23.423  24.866  1.00  0.00     0.141 C 
ATOM     17  C   UNL A   1      33.887  22.805  23.556  1.00  0.00     0.138 C 
ATOM     18  C   UNL A   1      32.298  22.351  25.427  1.00  0.00     0.138 C 
ATOM     19  N   UNL A   1      33.152  21.816  24.357  1.00  0.00    -0.367 N 
BRANCH  19  20
ATOM     20  C   UNL A   1      33.383  20.464  24.242  1.00  0.00     0.056 A 
ATOM     21  C   UNL A   1      32.392  19.634  23.696  1.00  0.00     0.027 A 
ATOM     22  C   UNL A   1      34.582  19.851  24.664  1.00  0.00     0.064 A 
ATOM     23  C   UNL A   1      32.583  18.254  23.569  1.00  0.00     0.002 A 
ATOM     24  C   UNL A   1      34.772  18.470  24.545  1.00  0.00     0.023 A 
ATOM     25  Cl  UNL A   1      35.852  20.750  25.426  1.00  0.00    -0.082 Cl
ATOM     26  C   UNL A   1      33.773  17.673  23.996  1.00  0.00     0.002 A 
ENDBRANCH  19  20
ENDBRANCH  12  14
ENDBRANCH   4   7
ENDBRANCH   2   3
ENDBRANCH   1   2
BRANCH   1  27
ATOM     27  C   UNL A   1      32.999  32.264  27.235  1.00  0.00     0.118 C 
BRANCH  27  28
ATOM     28  N   UNL A   1      32.719  33.660  27.552  1.00  0.00    -0.352 N 
ATOM     29  C   UNL A   1      33.192  34.434  28.583  1.00  0.00     0.251 C 
ATOM     30  H   UNL A   1      32.100  34.115  26.935  1.00  0.00     0.163 HD
ATOM     31  O   UNL A   1      32.630  35.488  28.855  1.00  0.00    -0.269 OA
BRANCH  29  32
ATOM     32  C   UNL A   1      34.363  33.980  29.360  1.00  0.00     0.039 A 
ATOM     33  C   UNL A   1      34.169  33.166  30.478  1.00  0.00     0.014 A 
ATOM     34  C   UNL A   1      35.652  34.367  28.984  1.00  0.00     0.014 A 
ATOM     35  C   UNL A   1      35.276  32.683  31.179  1.00  0.00     0.010 A 
ATOM     36  C   UNL A   1      36.753  33.822  29.635  1.00  0.00     0.010 A 
ATOM     37  C   UNL A   1      36.577  32.973  30.738  1.00  0.00    -0.014 A 
BRANCH  37  38
ATOM     38  C   UNL A   1      37.775  32.405  31.406  1.00  0.00     0.031 A 
ATOM     39  C   UNL A   1      38.521  31.269  30.763  1.00  0.00     0.074 A 
ATOM     40  C   UNL A   1      38.131  32.851  32.627  1.00  0.00     0.049 A 
ATOM     41  N   UNL A   1      39.493  30.539  31.245  1.00  0.00    -0.248 NA
ATOM     42  C   UNL A   1      38.091  30.883  29.410  1.00  0.00     0.031 C 
ATOM     43  C   UNL A   1      37.465  33.931  33.360  1.00  0.00     0.029 A 
ATOM     44  N   UNL A   1      39.127  32.440  33.478  1.00  0.00    -0.354 N 
ATOM     45  C   UNL A   1      39.779  29.596  30.263  1.00  0.00     0.074 A 
ATOM     46  C   UNL A   1      38.836  29.812  29.186  1.00  0.00     0.031 C 
ATOM     47  C   UNL A   1      38.082  34.107  34.539  1.00  0.00     0.029 A 
ATOM     48  C   UNL A   1      39.143  33.115  34.677  1.00  0.00     0.049 A 
ATOM     49  H   UNL A   1      39.769  31.728  33.252  1.00  0.00     0.167 HD
ATOM     50  C   UNL A   1      40.751  28.650  30.256  1.00  0.00     0.034 A 
ATOM     51  C   UNL A   1      39.908  32.937  35.773  1.00  0.00     0.034 A 
ATOM     52  C   UNL A   1      41.686  28.459  31.337  1.00  0.00     0.049 A 
ATOM     53  C   UNL A   1      40.951  31.848  35.761  1.00  0.00     0.074 A 
ATOM     54  C   UNL A   1      42.742  27.568  31.415  1.00  0.00     0.029 A 
ATOM     55  N   UNL A   1      41.671  29.161  32.537  1.00  0.00    -0.354 N 
ATOM     56  N   UNL A   1      41.237  30.989  34.810  1.00  0.00    -0.248 NA
ATOM     57  C   UNL A   1      41.778  31.706  36.967  1.00  0.00     0.031 C 
ATOM     58  C   UNL A   1      43.313  27.675  32.687  1.00  0.00     0.029 A 
ATOM     59  C   UNL A   1      42.675  28.698  33.372  1.00  0.00     0.049 A 
ATOM     60  H   UNL A   1      41.039  29.882  32.760  1.00  0.00     0.167 HD
ATOM     61  C   UNL A   1      42.302  30.230  35.290  1.00  0.00     0.074 A 
ATOM     62  C   UNL A   1      42.610  30.738  36.610  1.00  0.00     0.031 C 
ATOM     63  C   UNL A   1      42.969  29.214  34.689  1.00  0.00     0.034 A 
BRANCH  50  64
ATOM     64  C   UNL A   1      40.828  27.737  29.056  1.00  0.00     0.023 A 
ATOM     65  C   UNL A   1      41.775  27.932  28.036  1.00  0.00     0.031 A 
ATOM     66  C   UNL A   1      39.926  26.666  28.916  1.00  0.00     0.131 A 
ATOM     67  C   UNL A   1      41.749  27.123  26.889  1.00  0.00     0.055 A 
ATOM     68  C   UNL A   1      39.963  25.809  27.814  1.00  0.00     0.041 A 
ATOM     69  F   UNL A   1      38.983  26.440  29.845  1.00  0.00    -0.206 F 
ATOM     70  C   UNL A   1      40.868  26.045  26.784  1.00  0.00     0.022 A 
BRANCH  67  71
ATOM     71  S   UNL A   1      42.779  27.598  25.474  1.00  0.00     0.124 S 
ATOM     72  O   UNL A   1      42.058  28.760  24.960  1.00  0.00    -0.237 OA
ATOM     73  O   UNL A   1      44.068  27.873  26.100  1.00  0.00    -0.237 OA
ATOM     74  O   UNL A   1      42.742  26.418  24.612  1.00  0.00    -0.744 OA
ENDBRANCH  67  71
ENDBRANCH  50  64
BRANCH  51  75
ATOM     75  C   UNL A   1      39.707  33.790  36.982  1.00  0.00     0.023 A 
ATOM     76  C   UNL A   1      39.209  33.245  38.175  1.00  0.00     0.031 A 
ATOM     77  C   UNL A   1      39.969  35.171  36.948  1.00  0.00     0.131 A 
ATOM     78  C   UNL A   1      38.942  34.082  39.269  1.00  0.00     0.055 A 
ATOM     79  C   UNL A   1      39.759  35.991  38.059  1.00  0.00     0.041 A 
ATOM     80  F   UNL A   1      40.450  35.746  35.833  1.00  0.00    -0.206 F 
ATOM     81  C   UNL A   1      39.227  35.449  39.224  1.00  0.00     0.022 A 
BRANCH  78  82
ATOM     82  S   UNL A   1      38.120  33.375  40.722  1.00  0.00     0.124 S 
ATOM     83  O   UNL A   1      38.590  31.995  40.686  1.00  0.00    -0.237 OA
ATOM     84  O   UNL A   1      38.645  34.206  41.800  1.00  0.00    -0.237 OA
ATOM     85  O   UNL A   1      36.699  33.558  40.432  1.00  0.00    -0.744 OA
ENDBRANCH  78  82
ENDBRANCH  51  75
BRANCH  63  86
ATOM     86  C   UNL A   1      44.143  28.621  35.431  1.00  0.00     0.023 A 
ATOM     87  C   UNL A   1      43.988  27.585  36.367  1.00  0.00     0.031 A 
ATOM     88  C   UNL A   1      45.444  29.094  35.176  1.00  0.00     0.131 A 
ATOM     89  C   UNL A   1      45.110  27.084  37.046  1.00  0.00     0.055 A 
ATOM     90  C   UNL A   1      46.562  28.548  35.807  1.00  0.00     0.041 A 
ATOM     91  F   UNL A   1      45.650  30.085  34.294  1.00  0.00    -0.206 F 
ATOM     92  C   UNL A   1      46.397  27.544  36.756  1.00  0.00     0.022 A 
BRANCH  89  93
ATOM     93  S   UNL A   1      44.859  25.872  38.371  1.00  0.00     0.124 S 
ATOM     94  O   UNL A   1      44.012  24.879  37.717  1.00  0.00    -0.237 OA
ATOM     95  O   UNL A   1      46.223  25.448  38.670  1.00  0.00    -0.237 OA
ATOM     96  O   UNL A   1      44.206  26.645  39.425  1.00  0.00    -0.744 OA
ENDBRANCH  89  93
ENDBRANCH  63  86
ENDBRANCH  37  38
ENDBRANCH  29  32
ENDBRANCH  27  28
ENDBRANCH   1  27
TORSDOF 15
ENDMDL
MODEL 2
REMARK VINA RESULT:     -12.7      1.559      1.767
REMARK SMILES Cc1cc(C(=O)NCCCNC(=O)c2ccc(-c3c4nc(c(-c5cc(S(=O)(=O)[O-])ccc5F)c5ccc([nH]5)c(-c5cc(S(=O)(=O)[O-])ccc5F)c5nc(c(-c6cc(S(=O)(=O)[O-])ccc6F)c6ccc3[nH]6)C=C5)C=C4)cc2)nc(N2CCN(c3ccccc3Cl)CC2)n1
REMARK SMILES IDX 9 1 8 2 7 3 5 4 6 5 4 7 1 8 2 9 3 10 92 11 78 12 77 13 79 14
REMARK SMILES IDX 80 15 91 16 81 17 90 18 82 19 83 20 84 21 88 22 85 23 87 24
REMARK SMILES IDX 89 25 86 26 10 27 11 28 12 29 13 31 14 32 15 33 76 34 16 35
REMARK SMILES IDX 75 36 17 37 18 38 19 39 69 40 20 41 74 42 68 43 70 44 21 45
REMARK SMILES IDX 73 46 67 47 66 48 22 50 54 51 34 52 53 53 35 54 38 55 52 56
REMARK SMILES IDX 71 57 36 58 37 59 51 61 72 62 39 63 23 64 24 65 32 66 25 67
REMARK SMILES IDX 31 68 33 69 30 70 26 71 27 72 28 73 29 74 55 75 56 76 64 77
REMARK SMILES IDX 57 78 63 79 65 80 62 81 58 82 59 83 60 84 61 85 40 86 41 87
REMARK SMILES IDX 49 88 42 89 48 90 50 91 47 92 43 93 44 94 45 95 46 96
REMARK H PARENT 7 6 11 30 70 49 38 60
REMARK Flexibility Score: inf
ROOT
ATOM      1  C   UNL A   1      31.903  32.015  26.891  1.00  0.00     0.042 C 
ENDROOT
BRANCH   1   2
ATOM      2  C   UNL A   1      32.245  30.691  26.213  1.00  0.00     0.118 C 
BRANCH   2   3
ATOM      3  N   UNL A   1      32.003  29.591  27.118  1.00  0.00    -0.351 N 
ATOM      4  C   UNL A   1      31.589  28.298  26.923  1.00  0.00     0.270 C 
ATOM      5  O   UNL A   1      31.426  27.625  27.945  1.00  0.00    -0.268 OA
ATOM      6  H   UNL A   1      32.168  29.813  28.063  1.00  0.00     0.163 HD
BRANCH   4   7
ATOM      7  C   UNL A   1      31.401  27.669  25.573  1.00  0.00     0.133 A 
ATOM      8  C   UNL A   1      30.082  28.034  22.105  1.00  0.00     0.067 C 
ATOM      9  C   UNL A   1      30.776  27.512  23.329  1.00  0.00     0.044 A 
ATOM     10  C   UNL A   1      30.668  28.181  24.532  1.00  0.00     0.058 A 
ATOM     11  N   UNL A   1      31.469  26.361  23.197  1.00  0.00    -0.218 NA
ATOM     12  C   UNL A   1      32.028  25.855  24.302  1.00  0.00     0.226 A 
ATOM     13  N   UNL A   1      32.047  26.497  25.467  1.00  0.00    -0.208 NA
BRANCH  12  14
ATOM     14  N   UNL A   1      32.582  24.604  24.312  1.00  0.00    -0.337 N 
ATOM     15  C   UNL A   1      32.853  23.888  23.072  1.00  0.00     0.141 C 
ATOM     16  C   UNL A   1      32.154  23.783  25.455  1.00  0.00     0.141 C 
ATOM     17  C   UNL A   1      33.919  22.792  23.346  1.00  0.00     0.138 C 
ATOM     18  C   UNL A   1      33.173  22.663  25.725  1.00  0.00     0.138 C 
ATOM     19  N   UNL A   1      33.496  21.955  24.478  1.00  0.00    -0.367 N 
BRANCH  19  20
ATOM     20  C   UNL A   1      33.571  20.581  24.440  1.00  0.00     0.056 A 
ATOM     21  C   UNL A   1      32.429  19.832  24.118  1.00  0.00     0.027 A 
ATOM     22  C   UNL A   1      34.755  19.868  24.727  1.00  0.00     0.064 A 
ATOM     23  C   UNL A   1      32.461  18.433  24.077  1.00  0.00     0.002 A 
ATOM     24  C   UNL A   1      34.787  18.471  24.694  1.00  0.00     0.023 A 
ATOM     25  Cl  UNL A   1      36.212  20.670  25.215  1.00  0.00    -0.082 Cl
ATOM     26  C   UNL A   1      33.639  17.754  24.367  1.00  0.00     0.002 A 
ENDBRANCH  19  20
ENDBRANCH  12  14
ENDBRANCH   4   7
ENDBRANCH   2   3
ENDBRANCH   1   2
BRANCH   1  27
ATOM     27  C   UNL A   1      33.138  32.704  27.466  1.00  0.00     0.118 C 
BRANCH  27  28
ATOM     28  N   UNL A   1      32.839  34.070  27.879  1.00  0.00    -0.352 N 
ATOM     29  C   UNL A   1      33.305  34.778  28.959  1.00  0.00     0.251 C 
ATOM     30  H   UNL A   1      32.212  34.557  27.296  1.00  0.00     0.163 HD
ATOM     31  O   UNL A   1      32.729  35.803  29.303  1.00  0.00    -0.269 OA
BRANCH  29  32
ATOM     32  C   UNL A   1      34.486  34.290  29.699  1.00  0.00     0.039 A 
ATOM     33  C   UNL A   1      34.301  33.539  30.862  1.00  0.00     0.014 A 
ATOM     34  C   UNL A   1      35.775  34.583  29.245  1.00  0.00     0.014 A 
ATOM     35  C   UNL A   1      35.413  33.021  31.531  1.00  0.00     0.010 A 
ATOM     36  C   UNL A   1      36.873  34.002  29.867  1.00  0.00     0.010 A 
ATOM     37  C   UNL A   1      36.704  33.214  31.015  1.00  0.00    -0.014 A 
BRANCH  37  38
ATOM     38  C   UNL A   1      37.900  32.605  31.652  1.00  0.00     0.031 A 
ATOM     39  C   UNL A   1      38.596  31.451  30.984  1.00  0.00     0.074 A 
ATOM     40  C   UNL A   1      38.298  33.032  32.867  1.00  0.00     0.049 A 
ATOM     41  N   UNL A   1      39.556  30.689  31.438  1.00  0.00    -0.248 NA
ATOM     42  C   UNL A   1      38.122  31.088  29.640  1.00  0.00     0.031 C 
ATOM     43  C   UNL A   1      37.683  34.126  33.621  1.00  0.00     0.029 A 
ATOM     44  N   UNL A   1      39.301  32.585  33.691  1.00  0.00    -0.354 N 
ATOM     45  C   UNL A   1      39.790  29.744  30.444  1.00  0.00     0.074 A 
ATOM     46  C   UNL A   1      38.828  29.996  29.391  1.00  0.00     0.031 C 
ATOM     47  C   UNL A   1      38.332  34.275  34.787  1.00  0.00     0.029 A 
ATOM     48  C   UNL A   1      39.366  33.250  34.893  1.00  0.00     0.049 A 
ATOM     49  H   UNL A   1      39.915  31.855  33.445  1.00  0.00     0.167 HD
ATOM     50  C   UNL A   1      40.732  28.770  30.408  1.00  0.00     0.034 A 
ATOM     51  C   UNL A   1      40.150  33.042  35.970  1.00  0.00     0.034 A 
ATOM     52  C   UNL A   1      41.686  28.542  31.466  1.00  0.00     0.049 A 
ATOM     53  C   UNL A   1      41.159  31.922  35.927  1.00  0.00     0.074 A 
ATOM     54  C   UNL A   1      42.716  27.620  31.513  1.00  0.00     0.029 A 
ATOM     55  N   UNL A   1      41.720  29.237  32.669  1.00  0.00    -0.354 N 
ATOM     56  N   UNL A   1      41.396  31.061  34.963  1.00  0.00    -0.248 NA
ATOM     57  C   UNL A   1      42.009  31.746  37.112  1.00  0.00     0.031 C 
ATOM     58  C   UNL A   1      43.320  27.701  32.771  1.00  0.00     0.029 A 
ATOM     59  C   UNL A   1      42.729  28.737  33.478  1.00  0.00     0.049 A 
ATOM     60  H   UNL A   1      41.116  29.975  32.913  1.00  0.00     0.167 HD
ATOM     61  C   UNL A   1      42.448  30.267  35.414  1.00  0.00     0.074 A 
ATOM     62  C   UNL A   1      42.803  30.757  36.729  1.00  0.00     0.031 C 
ATOM     63  C   UNL A   1      43.070  29.235  34.791  1.00  0.00     0.034 A 
BRANCH  50  64
ATOM     64  C   UNL A   1      40.753  27.862  29.201  1.00  0.00     0.023 A 
ATOM     65  C   UNL A   1      41.688  28.029  28.165  1.00  0.00     0.031 A 
ATOM     66  C   UNL A   1      39.809  26.827  29.070  1.00  0.00     0.131 A 
ATOM     67  C   UNL A   1      41.611  27.230  27.014  1.00  0.00     0.055 A 
ATOM     68  C   UNL A   1      39.793  25.978  27.963  1.00  0.00     0.041 A 
ATOM     69  F   UNL A   1      38.875  26.631  30.015  1.00  0.00    -0.206 F 
ATOM     70  C   UNL A   1      40.688  26.187  26.918  1.00  0.00     0.022 A 
BRANCH  67  71
ATOM     71  S   UNL A   1      42.633  27.676  25.583  1.00  0.00     0.124 S 
ATOM     72  O   UNL A   1      42.498  26.488  24.743  1.00  0.00    -0.237 OA
ATOM     73  O   UNL A   1      41.979  28.884  25.093  1.00  0.00    -0.237 OA
ATOM     74  O   UNL A   1      43.962  27.875  26.160  1.00  0.00    -0.744 OA
ENDBRANCH  67  71
ENDBRANCH  50  64
BRANCH  51  75
ATOM     75  C   UNL A   1      40.004  33.893  37.188  1.00  0.00     0.023 A 
ATOM     76  C   UNL A   1      40.870  34.972  37.423  1.00  0.00     0.031 A 
ATOM     77  C   UNL A   1      39.025  33.612  38.158  1.00  0.00     0.131 A 
ATOM     78  C   UNL A   1      40.773  35.700  38.619  1.00  0.00     0.055 A 
ATOM     79  C   UNL A   1      38.893  34.377  39.318  1.00  0.00     0.041 A 
ATOM     80  F   UNL A   1      38.167  32.593  37.983  1.00  0.00    -0.206 F 
ATOM     81  C   UNL A   1      39.781  35.419  39.561  1.00  0.00     0.022 A 
BRANCH  78  82
ATOM     82  S   UNL A   1      42.030  36.959  38.972  1.00  0.00     0.124 S 
ATOM     83  O   UNL A   1      42.600  37.188  37.649  1.00  0.00    -0.237 OA
ATOM     84  O   UNL A   1      41.223  38.044  39.521  1.00  0.00    -0.237 OA
ATOM     85  O   UNL A   1      42.915  36.297  39.928  1.00  0.00    -0.744 OA
ENDBRANCH  78  82
ENDBRANCH  51  75
BRANCH  63  86
ATOM     86  C   UNL A   1      44.243  28.602  35.501  1.00  0.00     0.023 A 
ATOM     87  C   UNL A   1      44.076  27.580  36.450  1.00  0.00     0.031 A 
ATOM     88  C   UNL A   1      45.552  29.021  35.201  1.00  0.00     0.131 A 
ATOM     89  C   UNL A   1      45.198  27.040  37.099  1.00  0.00     0.055 A 
ATOM     90  C   UNL A   1      46.667  28.436  35.802  1.00  0.00     0.041 A 
ATOM     91  F   UNL A   1      45.769  29.996  34.305  1.00  0.00    -0.206 F 
ATOM     92  C   UNL A   1      46.493  27.447  36.765  1.00  0.00     0.022 A 
BRANCH  89  93
ATOM     93  S   UNL A   1      44.941  25.848  38.441  1.00  0.00     0.124 S 
ATOM     94  O   UNL A   1      44.368  24.710  37.730  1.00  0.00    -0.237 OA
ATOM     95  O   UNL A   1      46.294  25.663  38.958  1.00  0.00    -0.237 OA
ATOM     96  O   UNL A   1      44.024  26.541  39.344  1.00  0.00    -0.744 OA
ENDBRANCH  89  93
ENDBRANCH  63  86
ENDBRANCH  37  38
ENDBRANCH  29  32
ENDBRANCH  27  28
ENDBRANCH   1  27
TORSDOF 15
ENDMDL
MODEL 3
REMARK VINA RESULT:     -12.6      1.521      7.601
REMARK SMILES Cc1cc(C(=O)NCCCNC(=O)c2ccc(-c3c4nc(c(-c5cc(S(=O)(=O)[O-])ccc5F)c5ccc([nH]5)c(-c5cc(S(=O)(=O)[O-])ccc5F)c5nc(c(-c6cc(S(=O)(=O)[O-])ccc6F)c6ccc3[nH]6)C=C5)C=C4)cc2)nc(N2CCN(c3ccccc3Cl)CC2)n1
REMARK SMILES IDX 9 1 8 2 7 3 5 4 6 5 4 7 1 8 2 9 3 10 92 11 78 12 77 13 79 14
REMARK SMILES IDX 80 15 91 16 81 17 90 18 82 19 83 20 84 21 88 22 85 23 87 24
REMARK SMILES IDX 89 25 86 26 10 27 11 28 12 29 13 31 14 32 15 33 76 34 16 35
REMARK SMILES IDX 75 36 17 37 18 38 19 39 69 40 20 41 74 42 68 43 70 44 21 45
REMARK SMILES IDX 73 46 67 47 66 48 22 50 54 51 34 52 53 53 35 54 38 55 52 56
REMARK SMILES IDX 71 57 36 58 37 59 51 61 72 62 39 63 23 64 24 65 32 66 25 67
REMARK SMILES IDX 31 68 33 69 30 70 26 71 27 72 28 73 29 74 55 75 56 76 64 77
REMARK SMILES IDX 57 78 63 79 65 80 62 81 58 82 59 83 60 84 61 85 40 86 41 87
REMARK SMILES IDX 49 88 42 89 48 90 50 91 47 92 43 93 44 94 45 95 46 96
REMARK H PARENT 7 6 11 30 70 49 38 60
REMARK Flexibility Score: inf
ROOT
ATOM      1  C   UNL A   1      31.577  31.902  26.458  1.00  0.00     0.042 C 
ENDROOT
BRANCH   1   2
ATOM      2  C   UNL A   1      31.510  30.404  26.172  1.00  0.00     0.118 C 
BRANCH   2   3
ATOM      3  N   UNL A   1      32.472  30.050  25.153  1.00  0.00    -0.351 N 
ATOM      4  C   UNL A   1      32.607  28.951  24.341  1.00  0.00     0.270 C 
ATOM      5  O   UNL A   1      33.598  28.945  23.606  1.00  0.00    -0.268 OA
ATOM      6  H   UNL A   1      33.169  30.730  25.013  1.00  0.00     0.163 HD
BRANCH   4   7
ATOM      7  C   UNL A   1      31.604  27.837  24.259  1.00  0.00     0.133 A 
ATOM      8  C   UNL A   1      28.026  26.867  23.865  1.00  0.00     0.067 C 
ATOM      9  C   UNL A   1      29.521  26.818  23.989  1.00  0.00     0.044 A 
ATOM     10  C   UNL A   1      30.238  27.971  24.240  1.00  0.00     0.058 A 
ATOM     11  N   UNL A   1      30.106  25.608  23.876  1.00  0.00    -0.218 NA
ATOM     12  C   UNL A   1      31.430  25.550  24.059  1.00  0.00     0.226 A 
ATOM     13  N   UNL A   1      32.192  26.631  24.203  1.00  0.00    -0.208 NA
BRANCH  12  14
ATOM     14  N   UNL A   1      32.085  24.353  24.157  1.00  0.00    -0.337 N 
ATOM     15  C   UNL A   1      32.818  23.797  23.027  1.00  0.00     0.141 C 
ATOM     16  C   UNL A   1      31.404  23.383  25.029  1.00  0.00     0.141 C 
ATOM     17  C   UNL A   1      33.852  22.766  23.555  1.00  0.00     0.138 C 
ATOM     18  C   UNL A   1      32.399  22.324  25.536  1.00  0.00     0.138 C 
ATOM     19  N   UNL A   1      33.182  21.782  24.416  1.00  0.00    -0.367 N 
BRANCH  19  20
ATOM     20  C   UNL A   1      33.414  20.430  24.302  1.00  0.00     0.056 A 
ATOM     21  C   UNL A   1      32.404  19.590  23.808  1.00  0.00     0.027 A 
ATOM     22  C   UNL A   1      34.634  19.827  24.675  1.00  0.00     0.064 A 
ATOM     23  C   UNL A   1      32.597  18.210  23.683  1.00  0.00     0.002 A 
ATOM     24  C   UNL A   1      34.827  18.446  24.559  1.00  0.00     0.023 A 
ATOM     25  Cl  UNL A   1      35.932  20.739  25.374  1.00  0.00    -0.082 Cl
ATOM     26  C   UNL A   1      33.808  17.639  24.062  1.00  0.00     0.002 A 
ENDBRANCH  19  20
ENDBRANCH  12  14
ENDBRANCH   4   7
ENDBRANCH   2   3
ENDBRANCH   1   2
BRANCH   1  27
ATOM     27  C   UNL A   1      32.837  32.286  27.229  1.00  0.00     0.118 C 
BRANCH  27  28
ATOM     28  N   UNL A   1      32.848  33.707  27.553  1.00  0.00    -0.352 N 
ATOM     29  C   UNL A   1      33.524  34.372  28.546  1.00  0.00     0.251 C 
ATOM     30  H   UNL A   1      32.287  34.274  26.974  1.00  0.00     0.163 HD
ATOM     31  O   UNL A   1      33.191  35.512  28.845  1.00  0.00    -0.269 OA
BRANCH  29  32
ATOM     32  C   UNL A   1      34.636  33.701  29.248  1.00  0.00     0.039 A 
ATOM     33  C   UNL A   1      34.354  32.852  30.321  1.00  0.00     0.014 A 
ATOM     34  C   UNL A   1      35.957  33.918  28.849  1.00  0.00     0.014 A 
ATOM     35  C   UNL A   1      35.396  32.166  30.948  1.00  0.00     0.010 A 
ATOM     36  C   UNL A   1      36.982  33.175  29.423  1.00  0.00     0.010 A 
ATOM     37  C   UNL A   1      36.712  32.290  30.477  1.00  0.00    -0.014 A 
BRANCH  37  38
ATOM     38  C   UNL A   1      37.831  31.509  31.064  1.00  0.00     0.031 A 
ATOM     39  C   UNL A   1      38.345  31.854  32.434  1.00  0.00     0.074 A 
ATOM     40  C   UNL A   1      38.437  30.557  30.327  1.00  0.00     0.049 A 
ATOM     41  N   UNL A   1      39.398  31.399  33.061  1.00  0.00    -0.248 NA
ATOM     42  C   UNL A   1      37.591  32.872  33.181  1.00  0.00     0.031 C 
ATOM     43  C   UNL A   1      38.041  30.154  28.975  1.00  0.00     0.029 A 
ATOM     44  N   UNL A   1      39.527  29.768  30.600  1.00  0.00    -0.354 N 
ATOM     45  C   UNL A   1      39.444  32.088  34.269  1.00  0.00     0.074 A 
ATOM     46  C   UNL A   1      38.347  33.032  34.256  1.00  0.00     0.031 C 
ATOM     47  C   UNL A   1      38.865  29.184  28.546  1.00  0.00     0.029 A 
ATOM     48  C   UNL A   1      39.884  28.939  29.562  1.00  0.00     0.049 A 
ATOM     49  H   UNL A   1      40.009  29.795  31.458  1.00  0.00     0.167 HD
ATOM     50  C   UNL A   1      40.312  31.932  35.300  1.00  0.00     0.034 A 
ATOM     51  C   UNL A   1      40.928  28.096  29.431  1.00  0.00     0.034 A 
ATOM     52  C   UNL A   1      41.394  30.978  35.294  1.00  0.00     0.049 A 
ATOM     53  C   UNL A   1      41.909  27.974  30.571  1.00  0.00     0.074 A 
ATOM     54  C   UNL A   1      42.301  30.698  36.301  1.00  0.00     0.029 A 
ATOM     55  N   UNL A   1      41.725  30.155  34.223  1.00  0.00    -0.354 N 
ATOM     56  N   UNL A   1      41.917  28.602  31.724  1.00  0.00    -0.248 NA
ATOM     57  C   UNL A   1      43.018  27.026  30.395  1.00  0.00     0.031 C 
ATOM     58  C   UNL A   1      43.225  29.769  35.813  1.00  0.00     0.029 A 
ATOM     59  C   UNL A   1      42.842  29.397  34.533  1.00  0.00     0.049 A 
ATOM     60  H   UNL A   1      41.237  30.117  33.369  1.00  0.00     0.167 HD
ATOM     61  C   UNL A   1      43.009  28.097  32.424  1.00  0.00     0.074 A 
ATOM     62  C   UNL A   1      43.629  27.109  31.567  1.00  0.00     0.031 C 
ATOM     63  C   UNL A   1      43.452  28.415  33.666  1.00  0.00     0.034 A 
BRANCH  50  64
ATOM     64  C   UNL A   1      40.141  32.833  36.499  1.00  0.00     0.023 A 
ATOM     65  C   UNL A   1      39.365  32.452  37.607  1.00  0.00     0.031 A 
ATOM     66  C   UNL A   1      40.746  34.103  36.529  1.00  0.00     0.131 A 
ATOM     67  C   UNL A   1      39.148  33.357  38.657  1.00  0.00     0.055 A 
ATOM     68  C   UNL A   1      40.600  34.965  37.617  1.00  0.00     0.041 A 
ATOM     69  F   UNL A   1      41.482  34.534  35.491  1.00  0.00    -0.206 F 
ATOM     70  C   UNL A   1      39.783  34.600  38.683  1.00  0.00     0.022 A 
BRANCH  67  71
ATOM     71  S   UNL A   1      37.903  32.944  39.910  1.00  0.00     0.124 S 
ATOM     72  O   UNL A   1      38.511  31.786  40.560  1.00  0.00    -0.237 OA
ATOM     73  O   UNL A   1      37.842  34.164  40.707  1.00  0.00    -0.237 OA
ATOM     74  O   UNL A   1      36.708  32.652  39.122  1.00  0.00    -0.744 OA
ENDBRANCH  67  71
ENDBRANCH  50  64
BRANCH  51  75
ATOM     75  C   UNL A   1      41.119  27.318  28.172  1.00  0.00     0.023 A 
ATOM     76  C   UNL A   1      40.848  25.942  28.125  1.00  0.00     0.031 A 
ATOM     77  C   UNL A   1      41.617  27.930  27.007  1.00  0.00     0.131 A 
ATOM     78  C   UNL A   1      41.123  25.213  26.958  1.00  0.00     0.055 A 
ATOM     79  C   UNL A   1      41.831  27.212  25.829  1.00  0.00     0.041 A 
ATOM     80  F   UNL A   1      41.890  29.245  26.993  1.00  0.00    -0.206 F 
ATOM     81  C   UNL A   1      41.599  25.841  25.805  1.00  0.00     0.022 A 
BRANCH  78  82
ATOM     82  S   UNL A   1      40.943  23.409  27.000  1.00  0.00     0.124 S 
ATOM     83  O   UNL A   1      41.391  23.098  28.352  1.00  0.00    -0.237 OA
ATOM     84  O   UNL A   1      39.517  23.242  26.740  1.00  0.00    -0.237 OA
ATOM     85  O   UNL A   1      41.827  22.954  25.929  1.00  0.00    -0.744 OA
ENDBRANCH  78  82
ENDBRANCH  51  75
BRANCH  63  86
ATOM     86  C   UNL A   1      44.633  27.640  34.201  1.00  0.00     0.023 A 
ATOM     87  C   UNL A   1      44.478  26.433  34.900  1.00  0.00     0.031 A 
ATOM     88  C   UNL A   1      45.939  28.117  33.982  1.00  0.00     0.131 A 
ATOM     89  C   UNL A   1      45.608  25.763  35.396  1.00  0.00     0.055 A 
ATOM     90  C   UNL A   1      47.061  27.414  34.422  1.00  0.00     0.041 A 
ATOM     91  F   UNL A   1      46.145  29.268  33.323  1.00  0.00    -0.206 F 
ATOM     92  C   UNL A   1      46.899  26.235  35.142  1.00  0.00     0.022 A 
BRANCH  89  93
ATOM     93  S   UNL A   1      45.368  24.302  36.443  1.00  0.00     0.124 S 
ATOM     94  O   UNL A   1      46.661  24.193  37.112  1.00  0.00    -0.237 OA
ATOM     95  O   UNL A   1      44.245  24.701  37.284  1.00  0.00    -0.237 OA
ATOM     96  O   UNL A   1      45.076  23.237  35.484  1.00  0.00    -0.744 OA
ENDBRANCH  89  93
ENDBRANCH  63  86
ENDBRANCH  37  38
ENDBRANCH  29  32
ENDBRANCH  27  28
ENDBRANCH   1  27
TORSDOF 15
ENDMDL
