MODEL 1
REMARK VINA RESULT:     -11.3      0.000      0.000
REMARK SMILES COc1c(Cl)cc(C(=O)NCCCNC(=O)c2ccc(-c3c4nc(c(-c5cc(S(=O)(=O)[O-])ccc5F)c5ccc([nH]5)c(-c5cc(S(=O)(=O)[O-])ccc5F)c5nc(c(-c6cc(S(=O)(=O)[O-])ccc6F)c6ccc3[nH]6)C=C5)C=C4)cc2)cc1NC(=O)C(C)(C)Oc1ccc(Br)cc1
REMARK SMILES IDX 11 1 10 2 8 3 9 4 7 6 3 7 4 8 81 9 5 10 6 11 80 12 2 13 1 14
REMARK SMILES IDX 82 15 83 16 84 18 85 19 86 20 87 21 88 22 89 23 90 24 95 25
REMARK SMILES IDX 91 26 94 27 92 28 93 29 12 30 13 31 14 32 15 33 16 35 17 36
REMARK SMILES IDX 18 37 79 38 19 39 78 40 20 41 21 42 22 43 72 44 23 45 77 46
REMARK SMILES IDX 71 47 73 48 24 49 76 50 70 51 69 52 25 54 57 55 37 56 56 57
REMARK SMILES IDX 38 58 41 59 55 60 74 61 39 62 40 63 54 65 75 66 42 67 26 68
REMARK SMILES IDX 27 69 35 70 28 71 34 72 36 73 33 74 29 75 30 76 31 77 32 78
REMARK SMILES IDX 58 79 59 80 67 81 60 82 66 83 68 84 65 85 61 86 62 87 63 88
REMARK SMILES IDX 64 89 43 90 44 91 52 92 45 93 51 94 53 95 50 96 46 97 47 98
REMARK SMILES IDX 48 99 49 100
REMARK H PARENT 10 5 82 17 14 34 73 53 41 64
REMARK Flexibility Score: inf
ROOT
ATOM      1  C   UNL A   1      32.894  30.586  26.862  1.00  0.00     0.118 C 
ENDROOT
BRANCH   1   2
ATOM      2  N   UNL A   1      32.143  29.585  27.604  1.00  0.00    -0.352 N 
ATOM      3  C   UNL A   1      31.621  28.347  27.322  1.00  0.00     0.251 C 
ATOM      4  O   UNL A   1      31.189  27.717  28.291  1.00  0.00    -0.269 OA
ATOM      5  H   UNL A   1      31.967  29.863  28.532  1.00  0.00     0.163 HD
BRANCH   3   6
ATOM      6  C   UNL A   1      31.539  27.689  25.977  1.00  0.00     0.043 A 
ATOM      7  C   UNL A   1      31.535  26.676  23.340  1.00  0.00     0.160 A 
ATOM      8  C   UNL A   1      31.387  28.049  23.570  1.00  0.00     0.086 A 
ATOM      9  C   UNL A   1      31.604  25.773  24.424  1.00  0.00     0.086 A 
ATOM     10  Cl  UNL A   1      31.127  29.177  22.287  1.00  0.00    -0.080 Cl
ATOM     11  C   UNL A   1      31.388  28.545  24.875  1.00  0.00     0.038 A 
ATOM     12  C   UNL A   1      31.665  26.315  25.727  1.00  0.00     0.044 A 
BRANCH   7  13
ATOM     13  O   UNL A   1      31.469  26.143  22.071  1.00  0.00    -0.493 OA
ATOM     14  C   UNL A   1      32.759  26.109  21.452  1.00  0.00     0.278 C 
ENDBRANCH   7  13
BRANCH   9  15
ATOM     15  N   UNL A   1      31.538  24.383  24.075  1.00  0.00    -0.319 N 
ATOM     16  C   UNL A   1      32.341  23.263  24.260  1.00  0.00     0.268 C 
ATOM     17  H   UNL A   1      30.716  24.168  23.580  1.00  0.00     0.170 HD
ATOM     18  O   UNL A   1      31.896  22.183  23.856  1.00  0.00    -0.270 OA
BRANCH  16  19
ATOM     19  C   UNL A   1      33.721  23.356  24.975  1.00  0.00     0.181 C 
ATOM     20  C   UNL A   1      34.506  24.250  23.998  1.00  0.00     0.067 C 
ATOM     21  C   UNL A   1      33.341  23.743  26.420  1.00  0.00     0.067 C 
BRANCH  19  22
ATOM     22  O   UNL A   1      34.512  22.136  25.091  1.00  0.00    -0.478 OA
BRANCH  22  23
ATOM     23  C   UNL A   1      35.865  22.309  25.350  1.00  0.00     0.120 A 
ATOM     24  C   UNL A   1      36.743  21.286  24.982  1.00  0.00     0.047 A 
ATOM     25  C   UNL A   1      36.380  23.407  26.050  1.00  0.00     0.047 A 
ATOM     26  C   UNL A   1      38.109  21.370  25.298  1.00  0.00     0.019 A 
ATOM     27  C   UNL A   1      37.744  23.512  26.340  1.00  0.00     0.019 A 
ATOM     28  C   UNL A   1      38.600  22.475  25.991  1.00  0.00     0.018 A 
ATOM     29  Br  UNL A   1      40.398  22.523  26.571  1.00  0.00    -0.051 Br
ENDBRANCH  22  23
ENDBRANCH  19  22
ENDBRANCH  16  19
ENDBRANCH   9  15
ENDBRANCH   3   6
ENDBRANCH   1   2
BRANCH   1  30
ATOM     30  C   UNL A   1      33.674  31.533  27.773  1.00  0.00     0.042 C 
BRANCH  30  31
ATOM     31  C   UNL A   1      33.823  32.949  27.231  1.00  0.00     0.118 C 
BRANCH  31  32
ATOM     32  N   UNL A   1      33.144  33.919  28.081  1.00  0.00    -0.352 N 
ATOM     33  C   UNL A   1      33.423  34.364  29.352  1.00  0.00     0.251 C 
ATOM     34  H   UNL A   1      32.346  34.327  27.673  1.00  0.00     0.163 HD
ATOM     35  O   UNL A   1      32.575  35.045  29.926  1.00  0.00    -0.269 OA
BRANCH  33  36
ATOM     36  C   UNL A   1      34.703  34.062  30.036  1.00  0.00     0.039 A 
ATOM     37  C   UNL A   1      35.900  34.597  29.531  1.00  0.00     0.014 A 
ATOM     38  C   UNL A   1      34.754  33.149  31.087  1.00  0.00     0.014 A 
ATOM     39  C   UNL A   1      37.133  34.242  30.098  1.00  0.00     0.010 A 
ATOM     40  C   UNL A   1      35.971  32.840  31.690  1.00  0.00     0.010 A 
ATOM     41  C   UNL A   1      37.174  33.361  31.186  1.00  0.00    -0.014 A 
BRANCH  41  42
ATOM     42  C   UNL A   1      38.444  32.838  31.754  1.00  0.00     0.031 A 
ATOM     43  C   UNL A   1      39.109  31.679  31.058  1.00  0.00     0.074 A 
ATOM     44  C   UNL A   1      38.919  33.298  32.925  1.00  0.00     0.049 A 
ATOM     45  N   UNL A   1      40.016  30.848  31.497  1.00  0.00    -0.248 NA
ATOM     46  C   UNL A   1      38.640  31.398  29.692  1.00  0.00     0.031 C 
ATOM     47  C   UNL A   1      38.369  34.426  33.676  1.00  0.00     0.029 A 
ATOM     48  N   UNL A   1      39.951  32.845  33.708  1.00  0.00    -0.354 N 
ATOM     49  C   UNL A   1      40.188  29.909  30.483  1.00  0.00     0.074 A 
ATOM     50  C   UNL A   1      39.270  30.265  29.422  1.00  0.00     0.031 C 
ATOM     51  C   UNL A   1      39.057  34.565  34.823  1.00  0.00     0.029 A 
ATOM     52  C   UNL A   1      40.056  33.503  34.912  1.00  0.00     0.049 A 
ATOM     53  H   UNL A   1      40.558  32.119  33.435  1.00  0.00     0.167 HD
ATOM     54  C   UNL A   1      41.031  28.846  30.450  1.00  0.00     0.034 A 
ATOM     55  C   UNL A   1      40.839  33.249  35.980  1.00  0.00     0.034 A 
ATOM     56  C   UNL A   1      41.952  28.536  31.516  1.00  0.00     0.049 A 
ATOM     57  C   UNL A   1      41.778  32.068  35.923  1.00  0.00     0.074 A 
ATOM     58  C   UNL A   1      42.875  27.508  31.595  1.00  0.00     0.029 A 
ATOM     59  N   UNL A   1      42.069  29.265  32.695  1.00  0.00    -0.354 N 
ATOM     60  N   UNL A   1      41.920  31.173  34.971  1.00  0.00    -0.248 NA
ATOM     61  C   UNL A   1      42.663  31.866  37.077  1.00  0.00     0.031 C 
ATOM     62  C   UNL A   1      43.515  27.588  32.838  1.00  0.00     0.029 A 
ATOM     63  C   UNL A   1      43.037  28.702  33.510  1.00  0.00     0.049 A 
ATOM     64  H   UNL A   1      41.540  30.065  32.917  1.00  0.00     0.167 HD
ATOM     65  C   UNL A   1      42.927  30.315  35.405  1.00  0.00     0.074 A 
ATOM     66  C   UNL A   1      43.362  30.807  36.697  1.00  0.00     0.031 C 
ATOM     67  C   UNL A   1      43.447  29.219  34.795  1.00  0.00     0.034 A 
BRANCH  54  68
ATOM     68  C   UNL A   1      40.946  27.931  29.251  1.00  0.00     0.023 A 
ATOM     69  C   UNL A   1      41.840  28.034  28.170  1.00  0.00     0.031 A 
ATOM     70  C   UNL A   1      39.914  26.979  29.157  1.00  0.00     0.131 A 
ATOM     71  C   UNL A   1      41.629  27.273  27.009  1.00  0.00     0.055 A 
ATOM     72  C   UNL A   1      39.763  26.160  28.034  1.00  0.00     0.041 A 
ATOM     73  F   UNL A   1      39.016  26.844  30.144  1.00  0.00    -0.206 F 
ATOM     74  C   UNL A   1      40.612  26.319  26.943  1.00  0.00     0.022 A 
BRANCH  71  75
ATOM     75  S   UNL A   1      42.602  27.663  25.528  1.00  0.00     0.124 S 
ATOM     76  O   UNL A   1      43.937  27.850  26.096  1.00  0.00    -0.237 OA
ATOM     77  O   UNL A   1      42.421  26.467  24.709  1.00  0.00    -0.237 OA
ATOM     78  O   UNL A   1      41.974  28.873  25.013  1.00  0.00    -0.744 OA
ENDBRANCH  71  75
ENDBRANCH  54  68
BRANCH  55  79
ATOM     79  C   UNL A   1      40.746  34.095  37.204  1.00  0.00     0.023 A 
ATOM     80  C   UNL A   1      39.915  33.730  38.275  1.00  0.00     0.031 A 
ATOM     81  C   UNL A   1      41.477  35.293  37.315  1.00  0.00     0.131 A 
ATOM     82  C   UNL A   1      39.809  34.568  39.398  1.00  0.00     0.055 A 
ATOM     83  C   UNL A   1      41.401  36.100  38.452  1.00  0.00     0.041 A 
ATOM     84  F   UNL A   1      42.291  35.686  36.323  1.00  0.00    -0.206 F 
ATOM     85  C   UNL A   1      40.556  35.744  39.499  1.00  0.00     0.022 A 
BRANCH  82  86
ATOM     86  S   UNL A   1      38.629  34.127  40.703  1.00  0.00     0.124 S 
ATOM     87  O   UNL A   1      38.339  35.429  41.294  1.00  0.00    -0.237 OA
ATOM     88  O   UNL A   1      37.548  33.515  39.937  1.00  0.00    -0.237 OA
ATOM     89  O   UNL A   1      39.387  33.212  41.552  1.00  0.00    -0.744 OA
ENDBRANCH  82  86
ENDBRANCH  55  79
BRANCH  67  90
ATOM     90  C   UNL A   1      44.579  28.521  35.503  1.00  0.00     0.023 A 
ATOM     91  C   UNL A   1      44.354  27.422  36.349  1.00  0.00     0.031 A 
ATOM     92  C   UNL A   1      45.900  28.966  35.326  1.00  0.00     0.131 A 
ATOM     93  C   UNL A   1      45.432  26.833  37.024  1.00  0.00     0.055 A 
ATOM     94  C   UNL A   1      46.975  28.345  35.962  1.00  0.00     0.041 A 
ATOM     95  F   UNL A   1      46.166  30.012  34.526  1.00  0.00    -0.206 F 
ATOM     96  C   UNL A   1      46.742  27.277  36.826  1.00  0.00     0.022 A 
BRANCH  93  97
ATOM     97  S   UNL A   1      45.093  25.516  38.225  1.00  0.00     0.124 S 
ATOM     98  O   UNL A   1      45.020  26.259  39.478  1.00  0.00    -0.237 OA
ATOM     99  O   UNL A   1      43.833  24.965  37.736  1.00  0.00    -0.237 OA
ATOM    100  O   UNL A   1      46.247  24.627  38.095  1.00  0.00    -0.744 OA
ENDBRANCH  93  97
ENDBRANCH  67  90
ENDBRANCH  41  42
ENDBRANCH  33  36
ENDBRANCH  31  32
ENDBRANCH  30  31
ENDBRANCH   1  30
TORSDOF 18
ENDMDL
MODEL 2
REMARK VINA RESULT:     -11.3      5.508      8.706
REMARK SMILES COc1c(Cl)cc(C(=O)NCCCNC(=O)c2ccc(-c3c4nc(c(-c5cc(S(=O)(=O)[O-])ccc5F)c5ccc([nH]5)c(-c5cc(S(=O)(=O)[O-])ccc5F)c5nc(c(-c6cc(S(=O)(=O)[O-])ccc6F)c6ccc3[nH]6)C=C5)C=C4)cc2)cc1NC(=O)C(C)(C)Oc1ccc(Br)cc1
REMARK SMILES IDX 11 1 10 2 8 3 9 4 7 6 3 7 4 8 81 9 5 10 6 11 80 12 2 13 1 14
REMARK SMILES IDX 82 15 83 16 84 18 85 19 86 20 87 21 88 22 89 23 90 24 95 25
REMARK SMILES IDX 91 26 94 27 92 28 93 29 12 30 13 31 14 32 15 33 16 35 17 36
REMARK SMILES IDX 18 37 79 38 19 39 78 40 20 41 21 42 22 43 72 44 23 45 77 46
REMARK SMILES IDX 71 47 73 48 24 49 76 50 70 51 69 52 25 54 57 55 37 56 56 57
REMARK SMILES IDX 38 58 41 59 55 60 74 61 39 62 40 63 54 65 75 66 42 67 26 68
REMARK SMILES IDX 27 69 35 70 28 71 34 72 36 73 33 74 29 75 30 76 31 77 32 78
REMARK SMILES IDX 58 79 59 80 67 81 60 82 66 83 68 84 65 85 61 86 62 87 63 88
REMARK SMILES IDX 64 89 43 90 44 91 52 92 45 93 51 94 53 95 50 96 46 97 47 98
REMARK SMILES IDX 48 99 49 100
REMARK H PARENT 10 5 82 17 14 34 73 53 41 64
REMARK Flexibility Score: inf
ROOT
ATOM      1  C   UNL A   1      34.528  22.340  25.616  1.00  0.00     0.118 C 
ENDROOT
BRANCH   1   2
ATOM      2  N   UNL A   1      34.576  22.602  24.186  1.00  0.00    -0.352 N 
ATOM      3  C   UNL A   1      33.885  23.407  23.316  1.00  0.00     0.251 C 
ATOM      4  O   UNL A   1      34.348  23.481  22.174  1.00  0.00    -0.269 OA
ATOM      5  H   UNL A   1      35.273  22.073  23.733  1.00  0.00     0.163 HD
BRANCH   3   6
ATOM      6  C   UNL A   1      32.651  24.206  23.614  1.00  0.00     0.043 A 
ATOM      7  C   UNL A   1      30.395  25.681  24.458  1.00  0.00     0.160 A 
ATOM      8  C   UNL A   1      30.813  24.554  25.178  1.00  0.00     0.086 A 
ATOM      9  C   UNL A   1      31.043  26.043  23.258  1.00  0.00     0.086 A 
ATOM     10  Cl  UNL A   1      29.952  23.967  26.555  1.00  0.00    -0.080 Cl
ATOM     11  C   UNL A   1      31.928  23.828  24.756  1.00  0.00     0.038 A 
ATOM     12  C   UNL A   1      32.205  25.324  22.896  1.00  0.00     0.044 A 
BRANCH   7  13
ATOM     13  O   UNL A   1      29.258  26.379  24.804  1.00  0.00    -0.493 OA
ATOM     14  C   UNL A   1      28.131  25.954  24.033  1.00  0.00     0.278 C 
ENDBRANCH   7  13
BRANCH   9  15
ATOM     15  N   UNL A   1      30.402  27.076  22.496  1.00  0.00    -0.319 N 
ATOM     16  C   UNL A   1      30.308  28.461  22.564  1.00  0.00     0.268 C 
ATOM     17  H   UNL A   1      29.902  26.711  21.732  1.00  0.00     0.170 HD
ATOM     18  O   UNL A   1      29.695  29.026  21.652  1.00  0.00    -0.270 OA
BRANCH  16  19
ATOM     19  C   UNL A   1      30.976  29.270  23.715  1.00  0.00     0.181 C 
ATOM     20  C   UNL A   1      32.438  29.327  23.234  1.00  0.00     0.067 C 
ATOM     21  C   UNL A   1      30.047  30.493  23.869  1.00  0.00     0.067 C 
BRANCH  19  22
ATOM     22  O   UNL A   1      31.036  28.654  25.036  1.00  0.00    -0.478 OA
BRANCH  22  23
ATOM     23  C   UNL A   1      32.141  28.979  25.810  1.00  0.00     0.120 A 
ATOM     24  C   UNL A   1      32.147  30.213  26.467  1.00  0.00     0.047 A 
ATOM     25  C   UNL A   1      33.291  28.182  25.885  1.00  0.00     0.047 A 
ATOM     26  C   UNL A   1      33.274  30.630  27.193  1.00  0.00     0.019 A 
ATOM     27  C   UNL A   1      34.405  28.577  26.632  1.00  0.00     0.019 A 
ATOM     28  C   UNL A   1      34.405  29.817  27.257  1.00  0.00     0.018 A 
ATOM     29  Br  UNL A   1      35.986  30.437  28.085  1.00  0.00    -0.051 Br
ENDBRANCH  22  23
ENDBRANCH  19  22
ENDBRANCH  16  19
ENDBRANCH   9  15
ENDBRANCH   3   6
ENDBRANCH   1   2
BRANCH   1  30
ATOM     30  C   UNL A   1      35.855  21.816  26.165  1.00  0.00     0.042 C 
BRANCH  30  31
ATOM     31  C   UNL A   1      36.942  21.628  25.114  1.00  0.00     0.118 C 
BRANCH  31  32
ATOM     32  N   UNL A   1      38.024  20.787  25.611  1.00  0.00    -0.352 N 
ATOM     33  C   UNL A   1      39.257  21.107  26.127  1.00  0.00     0.251 C 
ATOM     34  H   UNL A   1      37.839  19.821  25.570  1.00  0.00     0.163 HD
ATOM     35  O   UNL A   1      40.071  20.200  26.291  1.00  0.00    -0.269 OA
BRANCH  33  36
ATOM     36  C   UNL A   1      39.627  22.495  26.497  1.00  0.00     0.039 A 
ATOM     37  C   UNL A   1      38.916  23.571  25.943  1.00  0.00     0.014 A 
ATOM     38  C   UNL A   1      40.753  22.751  27.278  1.00  0.00     0.014 A 
ATOM     39  C   UNL A   1      39.313  24.892  26.196  1.00  0.00     0.010 A 
ATOM     40  C   UNL A   1      41.114  24.061  27.580  1.00  0.00     0.010 A 
ATOM     41  C   UNL A   1      40.416  25.145  27.022  1.00  0.00    -0.014 A 
BRANCH  41  42
ATOM     42  C   UNL A   1      40.975  26.506  27.231  1.00  0.00     0.031 A 
ATOM     43  C   UNL A   1      42.346  26.802  26.683  1.00  0.00     0.074 A 
ATOM     44  C   UNL A   1      40.333  27.407  27.995  1.00  0.00     0.049 A 
ATOM     45  N   UNL A   1      43.178  27.764  26.984  1.00  0.00    -0.248 NA
ATOM     46  C   UNL A   1      42.861  25.843  25.694  1.00  0.00     0.031 C 
ATOM     47  C   UNL A   1      38.995  27.237  28.561  1.00  0.00     0.029 A 
ATOM     48  N   UNL A   1      40.740  28.632  28.461  1.00  0.00    -0.354 N 
ATOM     49  C   UNL A   1      44.339  27.496  26.263  1.00  0.00     0.074 A 
ATOM     50  C   UNL A   1      44.106  26.268  25.533  1.00  0.00     0.031 C 
ATOM     51  C   UNL A   1      38.699  28.309  29.315  1.00  0.00     0.029 A 
ATOM     52  C   UNL A   1      39.846  29.213  29.331  1.00  0.00     0.049 A 
ATOM     53  H   UNL A   1      41.589  29.056  28.198  1.00  0.00     0.167 HD
ATOM     54  C   UNL A   1      45.492  28.210  26.224  1.00  0.00     0.034 A 
ATOM     55  C   UNL A   1      39.960  30.324  30.087  1.00  0.00     0.034 A 
ATOM     56  C   UNL A   1      45.681  29.446  26.944  1.00  0.00     0.049 A 
ATOM     57  C   UNL A   1      41.246  31.112  30.024  1.00  0.00     0.074 A 
ATOM     58  C   UNL A   1      46.787  30.277  26.969  1.00  0.00     0.029 A 
ATOM     59  N   UNL A   1      44.727  30.032  27.769  1.00  0.00    -0.354 N 
ATOM     60  N   UNL A   1      42.346  30.842  29.357  1.00  0.00    -0.248 NA
ATOM     61  C   UNL A   1      41.306  32.352  30.808  1.00  0.00     0.031 C 
ATOM     62  C   UNL A   1      46.518  31.338  27.842  1.00  0.00     0.029 A 
ATOM     63  C   UNL A   1      45.222  31.204  28.315  1.00  0.00     0.049 A 
ATOM     64  H   UNL A   1      43.828  29.666  27.939  1.00  0.00     0.167 HD
ATOM     65  C   UNL A   1      43.220  31.892  29.626  1.00  0.00     0.074 A 
ATOM     66  C   UNL A   1      42.514  32.804  30.505  1.00  0.00     0.031 C 
ATOM     67  C   UNL A   1      44.490  32.090  29.190  1.00  0.00     0.034 A 
BRANCH  54  68
ATOM     68  C   UNL A   1      46.636  27.637  25.419  1.00  0.00     0.023 A 
ATOM     69  C   UNL A   1      46.959  28.117  24.137  1.00  0.00     0.031 A 
ATOM     70  C   UNL A   1      47.376  26.548  25.916  1.00  0.00     0.131 A 
ATOM     71  C   UNL A   1      47.924  27.453  23.362  1.00  0.00     0.055 A 
ATOM     72  C   UNL A   1      48.397  25.948  25.174  1.00  0.00     0.041 A 
ATOM     73  F   UNL A   1      47.103  26.029  27.123  1.00  0.00    -0.206 F 
ATOM     74  C   UNL A   1      48.662  26.387  23.880  1.00  0.00     0.022 A 
BRANCH  71  75
ATOM     75  S   UNL A   1      48.084  27.899  21.611  1.00  0.00     0.124 S 
ATOM     76  O   UNL A   1      46.778  28.497  21.340  1.00  0.00    -0.237 OA
ATOM     77  O   UNL A   1      49.217  28.821  21.623  1.00  0.00    -0.237 OA
ATOM     78  O   UNL A   1      48.328  26.621  20.951  1.00  0.00    -0.744 OA
ENDBRANCH  71  75
ENDBRANCH  54  68
BRANCH  55  79
ATOM     79  C   UNL A   1      38.852  30.739  30.993  1.00  0.00     0.023 A 
ATOM     80  C   UNL A   1      37.885  31.667  30.576  1.00  0.00     0.031 A 
ATOM     81  C   UNL A   1      38.751  30.225  32.300  1.00  0.00     0.131 A 
ATOM     82  C   UNL A   1      36.877  32.078  31.465  1.00  0.00     0.055 A 
ATOM     83  C   UNL A   1      37.722  30.603  33.164  1.00  0.00     0.041 A 
ATOM     84  F   UNL A   1      39.645  29.330  32.748  1.00  0.00    -0.206 F 
ATOM     85  C   UNL A   1      36.782  31.543  32.751  1.00  0.00     0.022 A 
BRANCH  82  86
ATOM     86  S   UNL A   1      35.724  33.373  30.933  1.00  0.00     0.124 S 
ATOM     87  O   UNL A   1      34.471  32.632  30.827  1.00  0.00    -0.237 OA
ATOM     88  O   UNL A   1      35.814  34.327  32.034  1.00  0.00    -0.237 OA
ATOM     89  O   UNL A   1      36.287  33.831  29.666  1.00  0.00    -0.744 OA
ENDBRANCH  82  86
ENDBRANCH  55  79
BRANCH  67  90
ATOM     90  C   UNL A   1      45.165  33.367  29.618  1.00  0.00     0.023 A 
ATOM     91  C   UNL A   1      45.066  34.544  28.858  1.00  0.00     0.031 A 
ATOM     92  C   UNL A   1      45.917  33.401  30.805  1.00  0.00     0.131 A 
ATOM     93  C   UNL A   1      45.750  35.697  29.270  1.00  0.00     0.055 A 
ATOM     94  C   UNL A   1      46.553  34.565  31.236  1.00  0.00     0.041 A 
ATOM     95  F   UNL A   1      46.039  32.302  31.567  1.00  0.00    -0.206 F 
ATOM     96  C   UNL A   1      46.480  35.719  30.462  1.00  0.00     0.022 A 
BRANCH  93  97
ATOM     97  S   UNL A   1      45.728  37.155  28.191  1.00  0.00     0.124 S 
ATOM     98  O   UNL A   1      46.799  36.852  27.249  1.00  0.00    -0.237 OA
ATOM     99  O   UNL A   1      44.373  37.122  27.649  1.00  0.00    -0.237 OA
ATOM    100  O   UNL A   1      46.000  38.263  29.106  1.00  0.00    -0.744 OA
ENDBRANCH  93  97
ENDBRANCH  67  90
ENDBRANCH  41  42
ENDBRANCH  33  36
ENDBRANCH  31  32
ENDBRANCH  30  31
ENDBRANCH   1  30
TORSDOF 18
ENDMDL
MODEL 3
REMARK VINA RESULT:     -11.0      5.065     10.847
REMARK SMILES COc1c(Cl)cc(C(=O)NCCCNC(=O)c2ccc(-c3c4nc(c(-c5cc(S(=O)(=O)[O-])ccc5F)c5ccc([nH]5)c(-c5cc(S(=O)(=O)[O-])ccc5F)c5nc(c(-c6cc(S(=O)(=O)[O-])ccc6F)c6ccc3[nH]6)C=C5)C=C4)cc2)cc1NC(=O)C(C)(C)Oc1ccc(Br)cc1
REMARK SMILES IDX 11 1 10 2 8 3 9 4 7 6 3 7 4 8 81 9 5 10 6 11 80 12 2 13 1 14
REMARK SMILES IDX 82 15 83 16 84 18 85 19 86 20 87 21 88 22 89 23 90 24 95 25
REMARK SMILES IDX 91 26 94 27 92 28 93 29 12 30 13 31 14 32 15 33 16 35 17 36
REMARK SMILES IDX 18 37 79 38 19 39 78 40 20 41 21 42 22 43 72 44 23 45 77 46
REMARK SMILES IDX 71 47 73 48 24 49 76 50 70 51 69 52 25 54 57 55 37 56 56 57
REMARK SMILES IDX 38 58 41 59 55 60 74 61 39 62 40 63 54 65 75 66 42 67 26 68
REMARK SMILES IDX 27 69 35 70 28 71 34 72 36 73 33 74 29 75 30 76 31 77 32 78
REMARK SMILES IDX 58 79 59 80 67 81 60 82 66 83 68 84 65 85 61 86 62 87 63 88
REMARK SMILES IDX 64 89 43 90 44 91 52 92 45 93 51 94 53 95 50 96 46 97 47 98
REMARK SMILES IDX 48 99 49 100
REMARK H PARENT 10 5 82 17 14 34 73 53 41 64
REMARK Flexibility Score: inf
ROOT
ATOM      1  C   UNL A   1      43.110  22.911  26.239  1.00  0.00     0.118 C 
ENDROOT
BRANCH   1   2
ATOM      2  N   UNL A   1      43.289  23.252  27.641  1.00  0.00    -0.352 N 
ATOM      3  C   UNL A   1      44.130  24.075  28.347  1.00  0.00     0.251 C 
ATOM      4  O   UNL A   1      43.850  24.229  29.539  1.00  0.00    -0.269 OA
ATOM      5  H   UNL A   1      42.655  22.776  28.225  1.00  0.00     0.163 HD
BRANCH   3   6
ATOM      6  C   UNL A   1      45.327  24.808  27.818  1.00  0.00     0.043 A 
ATOM      7  C   UNL A   1      47.744  25.973  26.934  1.00  0.00     0.160 A 
ATOM      8  C   UNL A   1      47.677  25.343  28.183  1.00  0.00     0.086 A 
ATOM      9  C   UNL A   1      46.585  26.107  26.139  1.00  0.00     0.086 A 
ATOM     10  Cl  UNL A   1      49.021  25.303  29.268  1.00  0.00    -0.080 Cl
ATOM     11  C   UNL A   1      46.480  24.770  28.617  1.00  0.00     0.038 A 
ATOM     12  C   UNL A   1      45.408  25.460  26.580  1.00  0.00     0.044 A 
BRANCH   7  13
ATOM     13  O   UNL A   1      48.887  26.610  26.505  1.00  0.00    -0.493 OA
ATOM     14  C   UNL A   1      49.805  25.688  25.909  1.00  0.00     0.278 C 
ENDBRANCH   7  13
BRANCH   9  15
ATOM     15  N   UNL A   1      46.719  26.951  24.987  1.00  0.00    -0.319 N 
ATOM     16  C   UNL A   1      46.635  28.314  24.725  1.00  0.00     0.268 C 
ATOM     17  H   UNL A   1      46.923  26.433  24.176  1.00  0.00     0.170 HD
ATOM     18  O   UNL A   1      46.889  28.679  23.573  1.00  0.00    -0.270 OA
BRANCH  16  19
ATOM     19  C   UNL A   1      46.275  29.339  25.841  1.00  0.00     0.181 C 
ATOM     20  C   UNL A   1      44.887  28.835  26.276  1.00  0.00     0.067 C 
ATOM     21  C   UNL A   1      47.535  29.343  26.733  1.00  0.00     0.067 C 
BRANCH  19  22
ATOM     22  O   UNL A   1      46.067  30.729  25.449  1.00  0.00    -0.478 OA
BRANCH  22  23
ATOM     23  C   UNL A   1      45.883  31.634  26.485  1.00  0.00     0.120 A 
ATOM     24  C   UNL A   1      44.751  31.491  27.292  1.00  0.00     0.047 A 
ATOM     25  C   UNL A   1      46.717  32.739  26.699  1.00  0.00     0.047 A 
ATOM     26  C   UNL A   1      44.469  32.429  28.299  1.00  0.00     0.019 A 
ATOM     27  C   UNL A   1      46.459  33.658  27.721  1.00  0.00     0.019 A 
ATOM     28  C   UNL A   1      45.316  33.517  28.497  1.00  0.00     0.018 A 
ATOM     29  Br  UNL A   1      44.862  34.874  29.731  1.00  0.00    -0.051 Br
ENDBRANCH  22  23
ENDBRANCH  19  22
ENDBRANCH  16  19
ENDBRANCH   9  15
ENDBRANCH   3   6
ENDBRANCH   1   2
BRANCH   1  30
ATOM     30  C   UNL A   1      42.044  21.836  26.025  1.00  0.00     0.042 C 
BRANCH  30  31
ATOM     31  C   UNL A   1      40.836  21.954  26.945  1.00  0.00     0.118 C 
BRANCH  31  32
ATOM     32  N   UNL A   1      39.659  22.422  26.223  1.00  0.00    -0.352 N 
ATOM     33  C   UNL A   1      38.969  23.610  26.286  1.00  0.00     0.251 C 
ATOM     34  H   UNL A   1      39.295  21.774  25.578  1.00  0.00     0.163 HD
ATOM     35  O   UNL A   1      37.884  23.681  25.712  1.00  0.00    -0.269 OA
BRANCH  33  36
ATOM     36  C   UNL A   1      39.494  24.795  27.006  1.00  0.00     0.039 A 
ATOM     37  C   UNL A   1      39.167  24.983  28.359  1.00  0.00     0.014 A 
ATOM     38  C   UNL A   1      40.190  25.794  26.327  1.00  0.00     0.014 A 
ATOM     39  C   UNL A   1      39.564  26.148  29.031  1.00  0.00     0.010 A 
ATOM     40  C   UNL A   1      40.637  26.924  27.008  1.00  0.00     0.010 A 
ATOM     41  C   UNL A   1      40.306  27.126  28.358  1.00  0.00    -0.014 A 
BRANCH  41  42
ATOM     42  C   UNL A   1      40.649  28.440  28.962  1.00  0.00     0.031 A 
ATOM     43  C   UNL A   1      42.068  28.664  29.416  1.00  0.00     0.074 A 
ATOM     44  C   UNL A   1      39.696  29.354  29.216  1.00  0.00     0.049 A 
ATOM     45  N   UNL A   1      42.553  29.558  30.235  1.00  0.00    -0.248 NA
ATOM     46  C   UNL A   1      43.062  27.708  28.904  1.00  0.00     0.031 C 
ATOM     47  C   UNL A   1      38.296  29.252  28.807  1.00  0.00     0.029 A 
ATOM     48  N   UNL A   1      39.755  30.533  29.916  1.00  0.00    -0.354 N 
ATOM     49  C   UNL A   1      43.901  29.239  30.384  1.00  0.00     0.074 A 
ATOM     50  C   UNL A   1      44.142  28.055  29.588  1.00  0.00     0.031 C 
ATOM     51  C   UNL A   1      37.623  30.315  29.280  1.00  0.00     0.029 A 
ATOM     52  C   UNL A   1      38.531  31.141  30.072  1.00  0.00     0.049 A 
ATOM     53  H   UNL A   1      40.593  30.908  30.272  1.00  0.00     0.167 HD
ATOM     54  C   UNL A   1      44.843  29.877  31.124  1.00  0.00     0.034 A 
ATOM     55  C   UNL A   1      38.177  32.215  30.806  1.00  0.00     0.034 A 
ATOM     56  C   UNL A   1      44.573  31.072  31.885  1.00  0.00     0.049 A 
ATOM     57  C   UNL A   1      39.239  32.919  31.615  1.00  0.00     0.074 A 
ATOM     58  C   UNL A   1      45.441  31.828  32.654  1.00  0.00     0.029 A 
ATOM     59  N   UNL A   1      43.330  31.691  31.969  1.00  0.00    -0.354 N 
ATOM     60  N   UNL A   1      40.505  32.601  31.768  1.00  0.00    -0.248 NA
ATOM     61  C   UNL A   1      38.829  34.124  32.346  1.00  0.00     0.031 C 
ATOM     62  C   UNL A   1      44.714  32.874  33.236  1.00  0.00     0.029 A 
ATOM     63  C   UNL A   1      43.406  32.809  32.783  1.00  0.00     0.049 A 
ATOM     64  H   UNL A   1      42.514  31.379  31.514  1.00  0.00     0.167 HD
ATOM     65  C   UNL A   1      41.046  33.581  32.595  1.00  0.00     0.074 A 
ATOM     66  C   UNL A   1      39.972  34.506  32.897  1.00  0.00     0.031 C 
ATOM     67  C   UNL A   1      42.313  33.710  33.065  1.00  0.00     0.034 A 
BRANCH  54  68
ATOM     68  C   UNL A   1      46.220  29.258  31.176  1.00  0.00     0.023 A 
ATOM     69  C   UNL A   1      46.523  28.186  32.035  1.00  0.00     0.031 A 
ATOM     70  C   UNL A   1      47.267  29.791  30.401  1.00  0.00     0.131 A 
ATOM     71  C   UNL A   1      47.850  27.746  32.167  1.00  0.00     0.055 A 
ATOM     72  C   UNL A   1      48.569  29.289  30.472  1.00  0.00     0.041 A 
ATOM     73  F   UNL A   1      47.049  30.828  29.578  1.00  0.00    -0.206 F 
ATOM     74  C   UNL A   1      48.871  28.273  31.374  1.00  0.00     0.022 A 
BRANCH  71  75
ATOM     75  S   UNL A   1      48.250  26.590  33.507  1.00  0.00     0.124 S 
ATOM     76  O   UNL A   1      49.524  27.124  33.984  1.00  0.00    -0.237 OA
ATOM     77  O   UNL A   1      47.113  26.751  34.411  1.00  0.00    -0.237 OA
ATOM     78  O   UNL A   1      48.333  25.299  32.834  1.00  0.00    -0.744 OA
ENDBRANCH  71  75
ENDBRANCH  54  68
BRANCH  55  79
ATOM     79  C   UNL A   1      36.758  32.670  30.844  1.00  0.00     0.023 A 
ATOM     80  C   UNL A   1      36.172  33.307  29.739  1.00  0.00     0.031 A 
ATOM     81  C   UNL A   1      35.968  32.490  31.995  1.00  0.00     0.131 A 
ATOM     82  C   UNL A   1      34.848  33.769  29.816  1.00  0.00     0.055 A 
ATOM     83  C   UNL A   1      34.639  32.912  32.052  1.00  0.00     0.041 A 
ATOM     84  F   UNL A   1      36.476  31.881  33.079  1.00  0.00    -0.206 F 
ATOM     85  C   UNL A   1      34.073  33.565  30.960  1.00  0.00     0.022 A 
BRANCH  82  86
ATOM     86  S   UNL A   1      34.168  34.700  28.415  1.00  0.00     0.124 S 
ATOM     87  O   UNL A   1      35.063  34.305  27.332  1.00  0.00    -0.237 OA
ATOM     88  O   UNL A   1      32.805  34.183  28.343  1.00  0.00    -0.237 OA
ATOM     89  O   UNL A   1      34.283  36.092  28.843  1.00  0.00    -0.744 OA
ENDBRANCH  82  86
ENDBRANCH  55  79
BRANCH  67  90
ATOM     90  C   UNL A   1      42.605  34.925  33.907  1.00  0.00     0.023 A 
ATOM     91  C   UNL A   1      42.557  34.878  35.310  1.00  0.00     0.031 A 
ATOM     92  C   UNL A   1      42.935  36.145  33.291  1.00  0.00     0.131 A 
ATOM     93  C   UNL A   1      42.790  36.045  36.052  1.00  0.00     0.055 A 
ATOM     94  C   UNL A   1      43.214  37.290  34.037  1.00  0.00     0.041 A 
ATOM     95  F   UNL A   1      42.995  36.239  31.952  1.00  0.00    -0.206 F 
ATOM     96  C   UNL A   1      43.132  37.246  35.426  1.00  0.00     0.022 A 
BRANCH  93  97
ATOM     97  S   UNL A   1      42.572  35.989  37.852  1.00  0.00     0.124 S 
ATOM     98  O   UNL A   1      43.784  35.301  38.284  1.00  0.00    -0.237 OA
ATOM     99  O   UNL A   1      42.483  37.404  38.200  1.00  0.00    -0.237 OA
ATOM    100  O   UNL A   1      41.333  35.231  38.025  1.00  0.00    -0.744 OA
ENDBRANCH  93  97
ENDBRANCH  67  90
ENDBRANCH  41  42
ENDBRANCH  33  36
ENDBRANCH  31  32
ENDBRANCH  30  31
ENDBRANCH   1  30
TORSDOF 18
ENDMDL
