MODEL 1
REMARK VINA RESULT:     -12.4      0.000      0.000
REMARK SMILES Cc1ccc(C)n1-c1ccccc1S[C@H](C)C(=O)NCCCNC(=O)c1ccc(-c2c3nc(c(-c4cc(S(=O)(=O)[O-])ccc4F)c4ccc([nH]4)c(-c4cc(S(=O)(=O)[O-])ccc4F)c4nc(c(-c5cc(S(=O)(=O)[O-])ccc5F)c5ccc2[nH]5)C=C4)C=C3)cc1
REMARK SMILES IDX 21 1 20 2 19 3 17 4 18 5 15 7 16 8 14 9 13 10 8 11 9 12
REMARK SMILES IDX 10 13 12 14 11 15 7 16 1 17 2 18 3 19 4 20 5 21 6 22 22 23
REMARK SMILES IDX 23 24 24 25 25 27 26 28 27 29 88 30 28 31 87 32 29 33 30 34
REMARK SMILES IDX 31 35 81 36 32 37 86 38 80 39 82 40 33 41 85 42 79 43 78 44
REMARK SMILES IDX 34 46 66 47 46 48 65 49 47 50 50 51 64 52 83 53 48 54 49 55
REMARK SMILES IDX 63 57 84 58 51 59 35 60 36 61 44 62 37 63 43 64 45 65 42 66
REMARK SMILES IDX 38 67 39 68 40 69 41 70 67 71 68 72 76 73 69 74 75 75 77 76
REMARK SMILES IDX 74 77 70 78 71 79 72 80 73 81 52 82 53 83 61 84 54 85 60 86
REMARK SMILES IDX 62 87 59 88 55 89 56 90 57 91 58 92
REMARK H PARENT 19 6 23 26 82 45 50 56
REMARK Flexibility Score: inf
ROOT
ATOM      1  C   UNL A   1      35.812  23.693  26.318  1.00  0.00     0.042 C 
ENDROOT
BRANCH   1   2
ATOM      2  C   UNL A   1      34.713  23.244  25.351  1.00  0.00     0.117 C 
BRANCH   2   3
ATOM      3  N   UNL A   1      34.699  24.016  24.126  1.00  0.00    -0.355 N 
ATOM      4  C   UNL A   1      33.724  24.513  23.330  1.00  0.00     0.233 C 
ATOM      5  O   UNL A   1      34.125  25.089  22.309  1.00  0.00    -0.274 OA
ATOM      6  H   UNL A   1      35.602  24.226  23.798  1.00  0.00     0.163 HD
BRANCH   4   7
ATOM      7  C   UNL A   1      32.216  24.372  23.553  1.00  0.00     0.137 C 
ATOM      8  C   UNL A   1      31.598  23.037  23.162  1.00  0.00     0.030 C 
BRANCH   7   9
ATOM      9  S   UNL A   1      31.526  25.470  24.843  1.00  0.00    -0.111 SA
BRANCH   9  10
ATOM     10  C   UNL A   1      30.762  26.959  24.201  1.00  0.00     0.032 A 
ATOM     11  C   UNL A   1      31.283  28.233  24.553  1.00  0.00     0.059 A 
ATOM     12  C   UNL A   1      30.635  29.421  24.156  1.00  0.00     0.028 A 
ATOM     13  C   UNL A   1      29.464  29.372  23.409  1.00  0.00     0.002 A 
ATOM     14  C   UNL A   1      29.592  26.958  23.433  1.00  0.00     0.017 A 
ATOM     15  C   UNL A   1      28.946  28.140  23.044  1.00  0.00     0.001 A 
BRANCH  11  16
ATOM     16  N   UNL A   1      32.416  28.389  25.410  1.00  0.00    -0.317 N 
ATOM     17  C   UNL A   1      31.226  28.197  27.671  1.00  0.00     0.065 C 
ATOM     18  C   UNL A   1      32.422  28.404  26.805  1.00  0.00     0.020 A 
ATOM     19  C   UNL A   1      33.724  28.606  27.225  1.00  0.00     0.023 A 
ATOM     20  C   UNL A   1      34.546  28.630  26.086  1.00  0.00     0.023 A 
ATOM     21  C   UNL A   1      33.740  28.476  24.976  1.00  0.00     0.020 A 
ATOM     22  C   UNL A   1      34.173  28.489  23.548  1.00  0.00     0.065 C 
ENDBRANCH  11  16
ENDBRANCH   9  10
ENDBRANCH   7   9
ENDBRANCH   4   7
ENDBRANCH   2   3
ENDBRANCH   1   2
BRANCH   1  23
ATOM     23  C   UNL A   1      37.164  24.028  25.656  1.00  0.00     0.118 C 
BRANCH  23  24
ATOM     24  N   UNL A   1      38.184  23.026  25.863  1.00  0.00    -0.352 N 
ATOM     25  C   UNL A   1      39.363  23.133  26.582  1.00  0.00     0.251 C 
ATOM     26  H   UNL A   1      38.021  22.154  25.436  1.00  0.00     0.163 HD
ATOM     27  O   UNL A   1      40.119  22.164  26.561  1.00  0.00    -0.269 OA
BRANCH  25  28
ATOM     28  C   UNL A   1      39.778  24.410  27.274  1.00  0.00     0.039 A 
ATOM     29  C   UNL A   1      39.074  24.798  28.404  1.00  0.00     0.014 A 
ATOM     30  C   UNL A   1      40.663  25.361  26.737  1.00  0.00     0.014 A 
ATOM     31  C   UNL A   1      39.294  26.078  29.006  1.00  0.00     0.010 A 
ATOM     32  C   UNL A   1      40.817  26.701  27.304  1.00  0.00     0.010 A 
ATOM     33  C   UNL A   1      40.124  27.125  28.459  1.00  0.00    -0.014 A 
BRANCH  33  34
ATOM     34  C   UNL A   1      39.654  28.648  28.806  1.00  0.00     0.031 A 
ATOM     35  C   UNL A   1      40.979  29.308  29.024  1.00  0.00     0.074 A 
ATOM     36  C   UNL A   1      38.541  29.462  29.054  1.00  0.00     0.049 A 
ATOM     37  N   UNL A   1      41.814  28.796  29.885  1.00  0.00    -0.248 NA
ATOM     38  C   UNL A   1      41.598  30.205  28.046  1.00  0.00     0.031 C 
ATOM     39  C   UNL A   1      37.126  29.059  29.146  1.00  0.00     0.029 A 
ATOM     40  N   UNL A   1      38.388  30.877  29.295  1.00  0.00    -0.354 N 
ATOM     41  C   UNL A   1      42.968  29.531  29.796  1.00  0.00     0.074 A 
ATOM     42  C   UNL A   1      42.858  30.191  28.498  1.00  0.00     0.031 C 
ATOM     43  C   UNL A   1      36.288  30.134  29.260  1.00  0.00     0.029 A 
ATOM     44  C   UNL A   1      37.028  31.398  29.325  1.00  0.00     0.049 A 
ATOM     45  H   UNL A   1      39.167  31.463  29.434  1.00  0.00     0.167 HD
ATOM     46  C   UNL A   1      43.389  30.075  30.976  1.00  0.00     0.034 A 
ATOM     47  C   UNL A   1      36.522  32.702  29.469  1.00  0.00     0.034 A 
ATOM     48  C   UNL A   1      42.942  31.438  31.113  1.00  0.00     0.049 A 
ATOM     49  C   UNL A   1      37.529  33.452  30.217  1.00  0.00     0.074 A 
ATOM     50  C   UNL A   1      42.946  32.516  30.251  1.00  0.00     0.029 A 
ATOM     51  N   UNL A   1      41.971  31.689  32.060  1.00  0.00    -0.354 N 
ATOM     52  N   UNL A   1      37.678  33.304  31.494  1.00  0.00    -0.248 NA
ATOM     53  C   UNL A   1      38.385  34.451  29.590  1.00  0.00     0.031 C 
ATOM     54  C   UNL A   1      41.667  33.092  30.401  1.00  0.00     0.029 A 
ATOM     55  C   UNL A   1      41.093  32.639  31.585  1.00  0.00     0.049 A 
ATOM     56  H   UNL A   1      41.912  31.254  32.942  1.00  0.00     0.167 HD
ATOM     57  C   UNL A   1      38.961  33.712  31.680  1.00  0.00     0.074 A 
ATOM     58  C   UNL A   1      39.217  34.661  30.612  1.00  0.00     0.031 C 
ATOM     59  C   UNL A   1      39.807  32.806  32.236  1.00  0.00     0.034 A 
BRANCH  46  60
ATOM     60  C   UNL A   1      43.439  29.088  32.113  1.00  0.00     0.023 A 
ATOM     61  C   UNL A   1      42.887  29.446  33.348  1.00  0.00     0.031 A 
ATOM     62  C   UNL A   1      44.115  27.849  32.030  1.00  0.00     0.131 A 
ATOM     63  C   UNL A   1      43.073  28.611  34.463  1.00  0.00     0.055 A 
ATOM     64  C   UNL A   1      44.349  27.055  33.150  1.00  0.00     0.041 A 
ATOM     65  F   UNL A   1      44.553  27.382  30.850  1.00  0.00    -0.206 F 
ATOM     66  C   UNL A   1      43.832  27.440  34.380  1.00  0.00     0.022 A 
BRANCH  63  67
ATOM     67  S   UNL A   1      42.265  29.061  36.022  1.00  0.00     0.124 S 
ATOM     68  O   UNL A   1      43.337  28.905  36.994  1.00  0.00    -0.237 OA
ATOM     69  O   UNL A   1      41.836  30.431  35.766  1.00  0.00    -0.237 OA
ATOM     70  O   UNL A   1      41.172  28.088  36.139  1.00  0.00    -0.744 OA
ENDBRANCH  63  67
ENDBRANCH  46  60
BRANCH  47  71
ATOM     71  C   UNL A   1      35.258  33.618  29.305  1.00  0.00     0.023 A 
ATOM     72  C   UNL A   1      34.532  34.171  30.446  1.00  0.00     0.031 A 
ATOM     73  C   UNL A   1      34.998  34.276  28.098  1.00  0.00     0.131 A 
ATOM     74  C   UNL A   1      33.677  35.313  30.350  1.00  0.00     0.055 A 
ATOM     75  C   UNL A   1      34.139  35.403  28.006  1.00  0.00     0.041 A 
ATOM     76  F   UNL A   1      35.652  33.922  26.982  1.00  0.00    -0.206 F 
ATOM     77  C   UNL A   1      33.494  35.934  29.124  1.00  0.00     0.022 A 
BRANCH  74  78
ATOM     78  S   UNL A   1      32.933  36.140  31.832  1.00  0.00     0.124 S 
ATOM     79  O   UNL A   1      32.771  37.520  31.392  1.00  0.00    -0.237 OA
ATOM     80  O   UNL A   1      31.709  35.378  32.055  1.00  0.00    -0.237 OA
ATOM     81  O   UNL A   1      33.947  35.953  32.874  1.00  0.00    -0.744 OA
ENDBRANCH  74  78
ENDBRANCH  47  71
BRANCH  59  82
ATOM     82  C   UNL A   1      39.256  31.934  33.371  1.00  0.00     0.023 A 
ATOM     83  C   UNL A   1      38.813  32.384  34.646  1.00  0.00     0.031 A 
ATOM     84  C   UNL A   1      39.260  30.543  33.178  1.00  0.00     0.131 A 
ATOM     85  C   UNL A   1      38.448  31.472  35.659  1.00  0.00     0.055 A 
ATOM     86  C   UNL A   1      38.852  29.640  34.163  1.00  0.00     0.041 A 
ATOM     87  F   UNL A   1      39.676  30.026  32.011  1.00  0.00    -0.206 F 
ATOM     88  C   UNL A   1      38.460  30.100  35.415  1.00  0.00     0.022 A 
BRANCH  85  89
ATOM     89  S   UNL A   1      38.031  32.058  37.340  1.00  0.00     0.124 S 
ATOM     90  O   UNL A   1      39.328  32.409  37.908  1.00  0.00    -0.237 OA
ATOM     91  O   UNL A   1      37.128  33.175  37.076  1.00  0.00    -0.237 OA
ATOM     92  O   UNL A   1      37.395  30.893  37.959  1.00  0.00    -0.744 OA
ENDBRANCH  85  89
ENDBRANCH  59  82
ENDBRANCH  33  34
ENDBRANCH  25  28
ENDBRANCH  23  24
ENDBRANCH   1  23
TORSDOF 16
ENDMDL
MODEL 2
REMARK VINA RESULT:     -12.1      4.755     10.389
REMARK SMILES Cc1ccc(C)n1-c1ccccc1S[C@H](C)C(=O)NCCCNC(=O)c1ccc(-c2c3nc(c(-c4cc(S(=O)(=O)[O-])ccc4F)c4ccc([nH]4)c(-c4cc(S(=O)(=O)[O-])ccc4F)c4nc(c(-c5cc(S(=O)(=O)[O-])ccc5F)c5ccc2[nH]5)C=C4)C=C3)cc1
REMARK SMILES IDX 21 1 20 2 19 3 17 4 18 5 15 7 16 8 14 9 13 10 8 11 9 12
REMARK SMILES IDX 10 13 12 14 11 15 7 16 1 17 2 18 3 19 4 20 5 21 6 22 22 23
REMARK SMILES IDX 23 24 24 25 25 27 26 28 27 29 88 30 28 31 87 32 29 33 30 34
REMARK SMILES IDX 31 35 81 36 32 37 86 38 80 39 82 40 33 41 85 42 79 43 78 44
REMARK SMILES IDX 34 46 66 47 46 48 65 49 47 50 50 51 64 52 83 53 48 54 49 55
REMARK SMILES IDX 63 57 84 58 51 59 35 60 36 61 44 62 37 63 43 64 45 65 42 66
REMARK SMILES IDX 38 67 39 68 40 69 41 70 67 71 68 72 76 73 69 74 75 75 77 76
REMARK SMILES IDX 74 77 70 78 71 79 72 80 73 81 52 82 53 83 61 84 54 85 60 86
REMARK SMILES IDX 62 87 59 88 55 89 56 90 57 91 58 92
REMARK H PARENT 19 6 23 26 82 45 50 56
REMARK Flexibility Score: inf
ROOT
ATOM      1  C   UNL A   1      32.666  27.968  27.462  1.00  0.00     0.042 C 
ENDROOT
BRANCH   1   2
ATOM      2  C   UNL A   1      31.736  28.013  26.246  1.00  0.00     0.117 C 
BRANCH   2   3
ATOM      3  N   UNL A   1      32.389  27.580  25.028  1.00  0.00    -0.355 N 
ATOM      4  C   UNL A   1      32.389  26.434  24.309  1.00  0.00     0.233 C 
ATOM      5  O   UNL A   1      33.143  26.434  23.325  1.00  0.00    -0.274 OA
ATOM      6  H   UNL A   1      32.961  28.277  24.634  1.00  0.00     0.163 HD
BRANCH   4   7
ATOM      7  C   UNL A   1      31.605  25.160  24.637  1.00  0.00     0.137 C 
ATOM      8  C   UNL A   1      30.517  24.764  23.649  1.00  0.00     0.030 C 
BRANCH   7   9
ATOM      9  S   UNL A   1      32.495  23.966  25.699  1.00  0.00    -0.111 SA
BRANCH   9  10
ATOM     10  C   UNL A   1      34.204  23.703  25.226  1.00  0.00     0.032 A 
ATOM     11  C   UNL A   1      34.536  22.670  24.310  1.00  0.00     0.059 A 
ATOM     12  C   UNL A   1      35.881  22.367  24.009  1.00  0.00     0.028 A 
ATOM     13  C   UNL A   1      36.916  23.074  24.607  1.00  0.00     0.002 A 
ATOM     14  C   UNL A   1      35.279  24.402  25.790  1.00  0.00     0.017 A 
ATOM     15  C   UNL A   1      36.614  24.094  25.493  1.00  0.00     0.001 A 
BRANCH  11  16
ATOM     16  N   UNL A   1      33.551  21.812  23.730  1.00  0.00    -0.317 N 
ATOM     17  C   UNL A   1      33.440  20.037  25.574  1.00  0.00     0.065 C 
ATOM     18  C   UNL A   1      33.058  20.617  24.254  1.00  0.00     0.020 A 
ATOM     19  C   UNL A   1      32.142  20.101  23.356  1.00  0.00     0.023 A 
ATOM     20  C   UNL A   1      31.999  21.024  22.307  1.00  0.00     0.023 A 
ATOM     21  C   UNL A   1      32.852  22.082  22.552  1.00  0.00     0.020 A 
ATOM     22  C   UNL A   1      33.073  23.273  21.680  1.00  0.00     0.065 C 
ENDBRANCH  11  16
ENDBRANCH   9  10
ENDBRANCH   7   9
ENDBRANCH   4   7
ENDBRANCH   2   3
ENDBRANCH   1   2
BRANCH   1  23
ATOM     23  C   UNL A   1      34.065  28.576  27.233  1.00  0.00     0.118 C 
BRANCH  23  24
ATOM     24  N   UNL A   1      34.088  30.020  27.242  1.00  0.00    -0.352 N 
ATOM     25  C   UNL A   1      35.115  30.862  27.632  1.00  0.00     0.251 C 
ATOM     26  H   UNL A   1      33.267  30.463  26.929  1.00  0.00     0.163 HD
ATOM     27  O   UNL A   1      34.882  32.069  27.621  1.00  0.00    -0.269 OA
BRANCH  25  28
ATOM     28  C   UNL A   1      36.432  30.345  28.162  1.00  0.00     0.039 A 
ATOM     29  C   UNL A   1      37.482  30.198  27.269  1.00  0.00     0.014 A 
ATOM     30  C   UNL A   1      36.616  29.778  29.436  1.00  0.00     0.014 A 
ATOM     31  C   UNL A   1      38.697  29.550  27.660  1.00  0.00     0.010 A 
ATOM     32  C   UNL A   1      37.824  29.039  29.801  1.00  0.00     0.010 A 
ATOM     33  C   UNL A   1      38.916  28.878  28.919  1.00  0.00    -0.014 A 
BRANCH  33  34
ATOM     34  C   UNL A   1      39.951  27.618  28.873  1.00  0.00     0.031 A 
ATOM     35  C   UNL A   1      40.892  27.988  29.976  1.00  0.00     0.074 A 
ATOM     36  C   UNL A   1      40.301  26.464  28.159  1.00  0.00     0.049 A 
ATOM     37  N   UNL A   1      41.470  29.157  29.957  1.00  0.00    -0.248 NA
ATOM     38  C   UNL A   1      40.878  27.343  31.291  1.00  0.00     0.031 C 
ATOM     39  C   UNL A   1      39.717  25.967  26.900  1.00  0.00     0.029 A 
ATOM     40  N   UNL A   1      41.283  25.430  28.377  1.00  0.00    -0.354 N 
ATOM     41  C   UNL A   1      42.179  29.261  31.127  1.00  0.00     0.074 A 
ATOM     42  C   UNL A   1      41.573  28.250  31.989  1.00  0.00     0.031 C 
ATOM     43  C   UNL A   1      40.203  24.735  26.556  1.00  0.00     0.029 A 
ATOM     44  C   UNL A   1      41.223  24.268  27.500  1.00  0.00     0.049 A 
ATOM     45  H   UNL A   1      41.963  25.507  29.084  1.00  0.00     0.167 HD
ATOM     46  C   UNL A   1      43.508  29.532  30.965  1.00  0.00     0.034 A 
ATOM     47  C   UNL A   1      41.965  23.073  27.469  1.00  0.00     0.034 A 
ATOM     48  C   UNL A   1      44.296  28.328  31.001  1.00  0.00     0.049 A 
ATOM     49  C   UNL A   1      43.264  23.382  28.063  1.00  0.00     0.074 A 
ATOM     50  C   UNL A   1      44.299  27.235  31.844  1.00  0.00     0.029 A 
ATOM     51  N   UNL A   1      44.872  27.917  29.816  1.00  0.00    -0.354 N 
ATOM     52  N   UNL A   1      44.172  24.034  27.411  1.00  0.00    -0.248 NA
ATOM     53  C   UNL A   1      43.642  22.928  29.395  1.00  0.00     0.031 C 
ATOM     54  C   UNL A   1      44.385  26.122  30.981  1.00  0.00     0.029 A 
ATOM     55  C   UNL A   1      44.831  26.542  29.731  1.00  0.00     0.049 A 
ATOM     56  H   UNL A   1      45.254  28.516  29.134  1.00  0.00     0.167 HD
ATOM     57  C   UNL A   1      44.927  24.552  28.415  1.00  0.00     0.074 A 
ATOM     58  C   UNL A   1      44.772  23.626  29.523  1.00  0.00     0.031 C 
ATOM     59  C   UNL A   1      45.045  25.904  28.445  1.00  0.00     0.034 A 
BRANCH  46  60
ATOM     60  C   UNL A   1      43.780  30.689  30.038  1.00  0.00     0.023 A 
ATOM     61  C   UNL A   1      44.794  30.567  29.081  1.00  0.00     0.031 A 
ATOM     62  C   UNL A   1      43.134  31.941  30.156  1.00  0.00     0.131 A 
ATOM     63  C   UNL A   1      45.176  31.689  28.325  1.00  0.00     0.055 A 
ATOM     64  C   UNL A   1      43.556  33.064  29.449  1.00  0.00     0.041 A 
ATOM     65  F   UNL A   1      42.068  32.092  30.958  1.00  0.00    -0.206 F 
ATOM     66  C   UNL A   1      44.591  32.942  28.530  1.00  0.00     0.022 A 
BRANCH  63  67
ATOM     67  S   UNL A   1      46.426  31.471  27.031  1.00  0.00     0.124 S 
ATOM     68  O   UNL A   1      46.820  30.080  27.198  1.00  0.00    -0.237 OA
ATOM     69  O   UNL A   1      45.676  31.776  25.818  1.00  0.00    -0.237 OA
ATOM     70  O   UNL A   1      47.458  32.457  27.377  1.00  0.00    -0.744 OA
ENDBRANCH  63  67
ENDBRANCH  46  60
BRANCH  47  71
ATOM     71  C   UNL A   1      42.024  21.610  26.904  1.00  0.00     0.023 A 
ATOM     72  C   UNL A   1      43.043  21.172  25.953  1.00  0.00     0.031 A 
ATOM     73  C   UNL A   1      41.379  20.558  27.564  1.00  0.00     0.131 A 
ATOM     74  C   UNL A   1      43.389  19.800  25.753  1.00  0.00     0.055 A 
ATOM     75  C   UNL A   1      41.719  19.195  27.354  1.00  0.00     0.041 A 
ATOM     76  F   UNL A   1      40.474  20.815  28.519  1.00  0.00    -0.206 F 
ATOM     77  C   UNL A   1      42.729  18.813  26.470  1.00  0.00     0.022 A 
BRANCH  74  78
ATOM     78  S   UNL A   1      44.825  19.265  24.712  1.00  0.00     0.124 S 
ATOM     79  O   UNL A   1      45.763  20.371  24.851  1.00  0.00    -0.237 OA
ATOM     80  O   UNL A   1      45.216  17.996  25.318  1.00  0.00    -0.237 OA
ATOM     81  O   UNL A   1      44.245  19.128  23.373  1.00  0.00    -0.744 OA
ENDBRANCH  74  78
ENDBRANCH  47  71
BRANCH  59  82
ATOM     82  C   UNL A   1      45.211  26.626  27.102  1.00  0.00     0.023 A 
ATOM     83  C   UNL A   1      46.315  26.514  26.212  1.00  0.00     0.031 A 
ATOM     84  C   UNL A   1      44.222  27.555  26.741  1.00  0.00     0.131 A 
ATOM     85  C   UNL A   1      46.416  27.328  25.064  1.00  0.00     0.055 A 
ATOM     86  C   UNL A   1      44.296  28.327  25.579  1.00  0.00     0.041 A 
ATOM     87  F   UNL A   1      43.150  27.739  27.528  1.00  0.00    -0.206 F 
ATOM     88  C   UNL A   1      45.403  28.230  24.743  1.00  0.00     0.022 A 
BRANCH  85  89
ATOM     89  S   UNL A   1      47.913  27.284  24.014  1.00  0.00     0.124 S 
ATOM     90  O   UNL A   1      48.131  25.859  23.795  1.00  0.00    -0.237 OA
ATOM     91  O   UNL A   1      47.505  28.053  22.842  1.00  0.00    -0.237 OA
ATOM     92  O   UNL A   1      48.930  27.932  24.845  1.00  0.00    -0.744 OA
ENDBRANCH  85  89
ENDBRANCH  59  82
ENDBRANCH  33  34
ENDBRANCH  25  28
ENDBRANCH  23  24
ENDBRANCH   1  23
TORSDOF 16
ENDMDL
MODEL 3
REMARK VINA RESULT:     -11.9      4.869     10.380
REMARK SMILES Cc1ccc(C)n1-c1ccccc1S[C@H](C)C(=O)NCCCNC(=O)c1ccc(-c2c3nc(c(-c4cc(S(=O)(=O)[O-])ccc4F)c4ccc([nH]4)c(-c4cc(S(=O)(=O)[O-])ccc4F)c4nc(c(-c5cc(S(=O)(=O)[O-])ccc5F)c5ccc2[nH]5)C=C4)C=C3)cc1
REMARK SMILES IDX 21 1 20 2 19 3 17 4 18 5 15 7 16 8 14 9 13 10 8 11 9 12
REMARK SMILES IDX 10 13 12 14 11 15 7 16 1 17 2 18 3 19 4 20 5 21 6 22 22 23
REMARK SMILES IDX 23 24 24 25 25 27 26 28 27 29 88 30 28 31 87 32 29 33 30 34
REMARK SMILES IDX 31 35 81 36 32 37 86 38 80 39 82 40 33 41 85 42 79 43 78 44
REMARK SMILES IDX 34 46 66 47 46 48 65 49 47 50 50 51 64 52 83 53 48 54 49 55
REMARK SMILES IDX 63 57 84 58 51 59 35 60 36 61 44 62 37 63 43 64 45 65 42 66
REMARK SMILES IDX 38 67 39 68 40 69 41 70 67 71 68 72 76 73 69 74 75 75 77 76
REMARK SMILES IDX 74 77 70 78 71 79 72 80 73 81 52 82 53 83 61 84 54 85 60 86
REMARK SMILES IDX 62 87 59 88 55 89 56 90 57 91 58 92
REMARK H PARENT 19 6 23 26 82 45 50 56
REMARK Flexibility Score: inf
ROOT
ATOM      1  C   UNL A   1      34.451  32.922  28.052  1.00  0.00     0.042 C 
ENDROOT
BRANCH   1   2
ATOM      2  C   UNL A   1      34.204  31.426  27.846  1.00  0.00     0.117 C 
BRANCH   2   3
ATOM      3  N   UNL A   1      33.132  31.161  26.909  1.00  0.00    -0.355 N 
ATOM      4  C   UNL A   1      32.419  30.062  26.571  1.00  0.00     0.233 C 
ATOM      5  O   UNL A   1      31.599  30.231  25.657  1.00  0.00    -0.274 OA
ATOM      6  H   UNL A   1      32.859  31.961  26.406  1.00  0.00     0.163 HD
BRANCH   4   7
ATOM      7  C   UNL A   1      32.583  28.660  27.164  1.00  0.00     0.137 C 
ATOM      8  C   UNL A   1      31.351  28.061  27.829  1.00  0.00     0.030 C 
BRANCH   7   9
ATOM      9  S   UNL A   1      33.917  27.660  26.411  1.00  0.00    -0.111 SA
BRANCH   9  10
ATOM     10  C   UNL A   1      33.615  27.213  24.701  1.00  0.00     0.032 A 
ATOM     11  C   UNL A   1      33.243  25.882  24.371  1.00  0.00     0.059 A 
ATOM     12  C   UNL A   1      33.112  25.475  23.027  1.00  0.00     0.028 A 
ATOM     13  C   UNL A   1      33.346  26.369  21.991  1.00  0.00     0.002 A 
ATOM     14  C   UNL A   1      33.824  28.084  23.626  1.00  0.00     0.017 A 
ATOM     15  C   UNL A   1      33.698  27.675  22.291  1.00  0.00     0.001 A 
BRANCH  11  16
ATOM     16  N   UNL A   1      33.089  24.861  25.358  1.00  0.00    -0.317 N 
ATOM     17  C   UNL A   1      30.555  25.017  25.696  1.00  0.00     0.065 C 
ATOM     18  C   UNL A   1      31.909  24.467  25.989  1.00  0.00     0.020 A 
ATOM     19  C   UNL A   1      32.219  23.466  26.892  1.00  0.00     0.023 A 
ATOM     20  C   UNL A   1      33.587  23.175  26.761  1.00  0.00     0.023 A 
ATOM     21  C   UNL A   1      34.112  24.021  25.803  1.00  0.00     0.020 A 
ATOM     22  C   UNL A   1      35.537  24.103  25.369  1.00  0.00     0.065 C 
ENDBRANCH  11  16
ENDBRANCH   9  10
ENDBRANCH   7   9
ENDBRANCH   4   7
ENDBRANCH   2   3
ENDBRANCH   1   2
BRANCH   1  23
ATOM     23  C   UNL A   1      35.843  33.282  28.611  1.00  0.00     0.118 C 
BRANCH  23  24
ATOM     24  N   UNL A   1      36.001  33.005  30.020  1.00  0.00    -0.352 N 
ATOM     25  C   UNL A   1      36.946  32.205  30.640  1.00  0.00     0.251 C 
ATOM     26  H   UNL A   1      35.352  33.442  30.618  1.00  0.00     0.163 HD
ATOM     27  O   UNL A   1      36.843  32.061  31.857  1.00  0.00    -0.269 OA
BRANCH  25  28
ATOM     28  C   UNL A   1      37.996  31.442  29.867  1.00  0.00     0.039 A 
ATOM     29  C   UNL A   1      37.603  30.298  29.188  1.00  0.00     0.014 A 
ATOM     30  C   UNL A   1      39.381  31.659  29.968  1.00  0.00     0.014 A 
ATOM     31  C   UNL A   1      38.568  29.432  28.585  1.00  0.00     0.010 A 
ATOM     32  C   UNL A   1      40.366  30.723  29.427  1.00  0.00     0.010 A 
ATOM     33  C   UNL A   1      40.001  29.554  28.723  1.00  0.00    -0.014 A 
BRANCH  33  34
ATOM     34  C   UNL A   1      40.835  28.154  28.664  1.00  0.00     0.031 A 
ATOM     35  C   UNL A   1      41.707  28.296  29.872  1.00  0.00     0.074 A 
ATOM     36  C   UNL A   1      41.079  27.011  27.890  1.00  0.00     0.049 A 
ATOM     37  N   UNL A   1      42.452  29.359  30.001  1.00  0.00    -0.248 NA
ATOM     38  C   UNL A   1      41.466  27.574  31.123  1.00  0.00     0.031 C 
ATOM     39  C   UNL A   1      40.556  26.698  26.549  1.00  0.00     0.029 A 
ATOM     40  N   UNL A   1      41.869  25.823  28.108  1.00  0.00    -0.354 N 
ATOM     41  C   UNL A   1      43.049  29.271  31.232  1.00  0.00     0.074 A 
ATOM     42  C   UNL A   1      42.215  28.311  31.952  1.00  0.00     0.031 C 
ATOM     43  C   UNL A   1      40.885  25.431  26.148  1.00  0.00     0.029 A 
ATOM     44  C   UNL A   1      41.724  24.748  27.137  1.00  0.00     0.049 A 
ATOM     45  H   UNL A   1      42.479  25.745  28.876  1.00  0.00     0.167 HD
ATOM     46  C   UNL A   1      44.413  29.342  31.211  1.00  0.00     0.034 A 
ATOM     47  C   UNL A   1      42.278  23.457  27.072  1.00  0.00     0.034 A 
ATOM     48  C   UNL A   1      45.005  28.029  31.216  1.00  0.00     0.049 A 
ATOM     49  C   UNL A   1      43.543  23.517  27.801  1.00  0.00     0.074 A 
ATOM     50  C   UNL A   1      44.760  26.894  31.964  1.00  0.00     0.029 A 
ATOM     51  N   UNL A   1      45.628  27.615  30.057  1.00  0.00    -0.354 N 
ATOM     52  N   UNL A   1      44.599  24.062  27.288  1.00  0.00    -0.248 NA
ATOM     53  C   UNL A   1      43.715  22.920  29.119  1.00  0.00     0.031 C 
ATOM     54  C   UNL A   1      44.765  25.843  31.022  1.00  0.00     0.029 A 
ATOM     55  C   UNL A   1      45.391  26.273  29.856  1.00  0.00     0.049 A 
ATOM     56  H   UNL A   1      46.160  28.192  29.463  1.00  0.00     0.167 HD
ATOM     57  C   UNL A   1      45.320  24.386  28.394  1.00  0.00     0.074 A 
ATOM     58  C   UNL A   1      44.918  23.423  29.404  1.00  0.00     0.031 C 
ATOM     59  C   UNL A   1      45.634  25.698  28.546  1.00  0.00     0.034 A 
BRANCH  46  60
ATOM     60  C   UNL A   1      44.945  30.502  30.411  1.00  0.00     0.023 A 
ATOM     61  C   UNL A   1      44.529  30.658  29.083  1.00  0.00     0.031 A 
ATOM     62  C   UNL A   1      45.934  31.387  30.898  1.00  0.00     0.131 A 
ATOM     63  C   UNL A   1      45.141  31.628  28.271  1.00  0.00     0.055 A 
ATOM     64  C   UNL A   1      46.580  32.305  30.074  1.00  0.00     0.041 A 
ATOM     65  F   UNL A   1      46.284  31.381  32.194  1.00  0.00    -0.206 F 
ATOM     66  C   UNL A   1      46.188  32.424  28.747  1.00  0.00     0.022 A 
BRANCH  63  67
ATOM     67  S   UNL A   1      44.512  31.865  26.588  1.00  0.00     0.124 S 
ATOM     68  O   UNL A   1      43.481  30.842  26.485  1.00  0.00    -0.237 OA
ATOM     69  O   UNL A   1      44.036  33.243  26.624  1.00  0.00    -0.237 OA
ATOM     70  O   UNL A   1      45.693  31.645  25.743  1.00  0.00    -0.744 OA
ENDBRANCH  63  67
ENDBRANCH  46  60
BRANCH  47  71
ATOM     71  C   UNL A   1      42.175  22.044  26.396  1.00  0.00     0.023 A 
ATOM     72  C   UNL A   1      43.312  21.394  25.748  1.00  0.00     0.031 A 
ATOM     73  C   UNL A   1      41.133  21.167  26.718  1.00  0.00     0.131 A 
ATOM     74  C   UNL A   1      43.379  19.986  25.513  1.00  0.00     0.055 A 
ATOM     75  C   UNL A   1      41.199  19.770  26.472  1.00  0.00     0.041 A 
ATOM     76  F   UNL A   1      40.058  21.613  27.383  1.00  0.00    -0.206 F 
ATOM     77  C   UNL A   1      42.319  19.174  25.891  1.00  0.00     0.022 A 
BRANCH  74  78
ATOM     78  S   UNL A   1      44.906  19.140  24.892  1.00  0.00     0.124 S 
ATOM     79  O   UNL A   1      45.957  20.108  25.175  1.00  0.00    -0.237 OA
ATOM     80  O   UNL A   1      44.933  17.902  25.664  1.00  0.00    -0.237 OA
ATOM     81  O   UNL A   1      44.633  18.943  23.465  1.00  0.00    -0.744 OA
ENDBRANCH  74  78
ENDBRANCH  47  71
BRANCH  59  82
ATOM     82  C   UNL A   1      46.039  26.474  27.287  1.00  0.00     0.023 A 
ATOM     83  C   UNL A   1      47.299  26.422  26.628  1.00  0.00     0.031 A 
ATOM     84  C   UNL A   1      45.113  27.394  26.769  1.00  0.00     0.131 A 
ATOM     85  C   UNL A   1      47.599  27.282  25.550  1.00  0.00     0.055 A 
ATOM     86  C   UNL A   1      45.390  28.212  25.671  1.00  0.00     0.041 A 
ATOM     87  F   UNL A   1      43.902  27.524  27.335  1.00  0.00    -0.206 F 
ATOM     88  C   UNL A   1      46.642  28.172  25.067  1.00  0.00     0.022 A 
BRANCH  85  89
ATOM     89  S   UNL A   1      49.272  27.312  24.815  1.00  0.00     0.124 S 
ATOM     90  O   UNL A   1      49.689  25.915  24.862  1.00  0.00    -0.237 OA
ATOM     91  O   UNL A   1      49.028  27.859  23.483  1.00  0.00    -0.237 OA
ATOM     92  O   UNL A   1      50.021  28.197  25.710  1.00  0.00    -0.744 OA
ENDBRANCH  85  89
ENDBRANCH  59  82
ENDBRANCH  33  34
ENDBRANCH  25  28
ENDBRANCH  23  24
ENDBRANCH   1  23
TORSDOF 16
ENDMDL
