MODEL 1
REMARK VINA RESULT:     -11.7      0.000      0.000
REMARK SMILES COC[C@H](C)n1c(SCC(=O)NCCCNC(=O)c2ccc(-c3c4nc(c(-c5cc(S(=O)(=O)[O-])ccc5F)c5ccc([nH]5)c(-c5cc(S(=O)(=O)[O-])ccc5F)c5nc(c(-c6cc(S(=O)(=O)[O-])ccc6F)c6ccc3[nH]6)C=C5)C=C4)cc2)nc2cc(C)cnc21
REMARK SMILES IDX 13 1 12 2 10 3 11 4 9 6 8 7 7 8 6 9 89 10 82 11 83 12 88 13
REMARK SMILES IDX 84 14 87 15 85 16 86 17 4 18 5 19 3 20 2 21 1 22 14 23 15 24
REMARK SMILES IDX 16 25 17 26 18 28 19 29 20 30 81 31 21 32 80 33 22 34 23 35
REMARK SMILES IDX 24 36 74 37 25 38 79 39 73 40 75 41 26 42 78 43 72 44 71 45
REMARK SMILES IDX 27 47 59 48 39 49 58 50 40 51 43 52 57 53 76 54 41 55 42 56
REMARK SMILES IDX 56 58 77 59 44 60 28 61 29 62 37 63 30 64 36 65 38 66 35 67
REMARK SMILES IDX 31 68 32 69 33 70 34 71 60 72 61 73 69 74 62 75 68 76 70 77
REMARK SMILES IDX 67 78 63 79 64 80 65 81 66 82 45 83 46 84 54 85 47 86 53 87
REMARK SMILES IDX 55 88 52 89 48 90 49 91 50 92 51 93
REMARK H PARENT 12 5 16 27 75 46 43 57
REMARK Flexibility Score: inf
ROOT
ATOM      1  C   UNL A   1      33.449  29.858  26.372  1.00  0.00     0.117 C 
ENDROOT
BRANCH   1   2
ATOM      2  N   UNL A   1      32.523  29.069  27.160  1.00  0.00    -0.355 N 
ATOM      3  C   UNL A   1      31.844  27.940  26.837  1.00  0.00     0.230 C 
ATOM      4  O   UNL A   1      31.042  27.508  27.665  1.00  0.00    -0.274 OA
ATOM      5  H   UNL A   1      32.360  29.406  28.071  1.00  0.00     0.163 HD
BRANCH   3   6
ATOM      6  C   UNL A   1      32.163  27.175  25.572  1.00  0.00     0.178 C 
BRANCH   6   7
ATOM      7  S   UNL A   1      32.028  25.405  25.658  1.00  0.00    -0.078 SA
BRANCH   7   8
ATOM      8  C   UNL A   1      33.485  24.553  25.262  1.00  0.00     0.171 A 
ATOM      9  N   UNL A   1      33.833  23.754  24.183  1.00  0.00    -0.298 N 
ATOM     10  C   UNL A   1      35.076  23.219  24.481  1.00  0.00     0.161 A 
ATOM     11  N   UNL A   1      34.427  24.547  26.188  1.00  0.00    -0.221 NA
ATOM     12  C   UNL A   1      35.425  23.755  25.709  1.00  0.00     0.109 A 
ATOM     13  N   UNL A   1      35.821  22.382  23.733  1.00  0.00    -0.236 NA
ATOM     14  C   UNL A   1      36.676  23.432  26.249  1.00  0.00     0.037 A 
ATOM     15  C   UNL A   1      37.045  22.138  24.266  1.00  0.00     0.117 A 
ATOM     16  C   UNL A   1      37.522  22.619  25.486  1.00  0.00    -0.030 A 
ATOM     17  C   UNL A   1      38.897  22.282  25.978  1.00  0.00     0.046 C 
BRANCH   9  18
ATOM     18  C   UNL A   1      33.124  23.537  22.926  1.00  0.00     0.114 C 
ATOM     19  C   UNL A   1      31.771  22.814  23.035  1.00  0.00     0.034 C 
BRANCH  18  20
ATOM     20  C   UNL A   1      32.998  24.828  22.096  1.00  0.00     0.185 C 
BRANCH  20  21
ATOM     21  O   UNL A   1      33.250  24.663  20.693  1.00  0.00    -0.383 OA
ATOM     22  C   UNL A   1      32.508  25.527  19.840  1.00  0.00     0.194 C 
ENDBRANCH  20  21
ENDBRANCH  18  20
ENDBRANCH   9  18
ENDBRANCH   7   8
ENDBRANCH   6   7
ENDBRANCH   3   6
ENDBRANCH   1   2
BRANCH   1  23
ATOM     23  C   UNL A   1      34.478  30.585  27.238  1.00  0.00     0.042 C 
BRANCH  23  24
ATOM     24  C   UNL A   1      35.440  29.638  27.939  1.00  0.00     0.118 C 
BRANCH  24  25
ATOM     25  N   UNL A   1      35.532  29.874  29.378  1.00  0.00    -0.352 N 
ATOM     26  C   UNL A   1      36.512  29.448  30.258  1.00  0.00     0.251 C 
ATOM     27  H   UNL A   1      34.802  30.404  29.773  1.00  0.00     0.163 HD
ATOM     28  O   UNL A   1      36.290  29.439  31.455  1.00  0.00    -0.269 OA
BRANCH  26  29
ATOM     29  C   UNL A   1      37.808  28.991  29.714  1.00  0.00     0.039 A 
ATOM     30  C   UNL A   1      38.421  29.667  28.657  1.00  0.00     0.014 A 
ATOM     31  C   UNL A   1      38.419  27.879  30.288  1.00  0.00     0.014 A 
ATOM     32  C   UNL A   1      39.684  29.252  28.239  1.00  0.00     0.010 A 
ATOM     33  C   UNL A   1      39.725  27.581  29.995  1.00  0.00     0.010 A 
ATOM     34  C   UNL A   1      40.340  28.218  28.929  1.00  0.00    -0.014 A 
BRANCH  34  35
ATOM     35  C   UNL A   1      41.712  27.850  28.604  1.00  0.00     0.031 A 
ATOM     36  C   UNL A   1      41.844  26.583  27.844  1.00  0.00     0.074 A 
ATOM     37  C   UNL A   1      42.778  28.656  28.798  1.00  0.00     0.049 A 
ATOM     38  N   UNL A   1      42.267  25.448  28.292  1.00  0.00    -0.248 NA
ATOM     39  C   UNL A   1      41.300  26.518  26.480  1.00  0.00     0.031 C 
ATOM     40  C   UNL A   1      42.807  30.044  29.273  1.00  0.00     0.029 A 
ATOM     41  N   UNL A   1      44.085  28.414  28.513  1.00  0.00    -0.354 N 
ATOM     42  C   UNL A   1      42.275  24.586  27.204  1.00  0.00     0.074 A 
ATOM     43  C   UNL A   1      41.488  25.228  26.185  1.00  0.00     0.031 C 
ATOM     44  C   UNL A   1      44.024  30.582  29.039  1.00  0.00     0.029 A 
ATOM     45  C   UNL A   1      44.911  29.533  28.570  1.00  0.00     0.049 A 
ATOM     46  H   UNL A   1      44.421  27.517  28.285  1.00  0.00     0.167 HD
ATOM     47  C   UNL A   1      43.128  23.524  27.159  1.00  0.00     0.034 A 
ATOM     48  C   UNL A   1      46.233  29.588  28.264  1.00  0.00     0.034 A 
ATOM     49  C   UNL A   1      43.692  23.255  28.464  1.00  0.00     0.049 A 
ATOM     50  C   UNL A   1      46.752  28.211  28.449  1.00  0.00     0.074 A 
ATOM     51  C   UNL A   1      43.164  22.941  29.701  1.00  0.00     0.029 A 
ATOM     52  N   UNL A   1      44.969  23.709  28.715  1.00  0.00    -0.354 N 
ATOM     53  N   UNL A   1      46.768  27.601  29.605  1.00  0.00    -0.248 NA
ATOM     54  C   UNL A   1      46.809  27.338  27.287  1.00  0.00     0.031 C 
ATOM     55  C   UNL A   1      43.938  23.697  30.633  1.00  0.00     0.029 A 
ATOM     56  C   UNL A   1      44.942  24.363  29.925  1.00  0.00     0.049 A 
ATOM     57  H   UNL A   1      45.756  23.587  28.136  1.00  0.00     0.167 HD
ATOM     58  C   UNL A   1      46.394  26.296  29.324  1.00  0.00     0.074 A 
ATOM     59  C   UNL A   1      46.531  26.170  27.873  1.00  0.00     0.031 C 
ATOM     60  C   UNL A   1      45.749  25.526  30.249  1.00  0.00     0.034 A 
BRANCH  47  61
ATOM     61  C   UNL A   1      43.720  22.949  25.896  1.00  0.00     0.023 A 
ATOM     62  C   UNL A   1      43.609  21.560  25.694  1.00  0.00     0.031 A 
ATOM     63  C   UNL A   1      44.610  23.627  25.031  1.00  0.00     0.131 A 
ATOM     64  C   UNL A   1      44.400  20.902  24.734  1.00  0.00     0.055 A 
ATOM     65  C   UNL A   1      45.346  22.980  24.036  1.00  0.00     0.041 A 
ATOM     66  F   UNL A   1      44.891  24.929  25.161  1.00  0.00    -0.206 F 
ATOM     67  C   UNL A   1      45.266  21.606  23.901  1.00  0.00     0.022 A 
BRANCH  64  68
ATOM     68  S   UNL A   1      44.389  19.092  24.698  1.00  0.00     0.124 S 
ATOM     69  O   UNL A   1      45.520  18.771  25.561  1.00  0.00    -0.237 OA
ATOM     70  O   UNL A   1      43.064  18.789  25.231  1.00  0.00    -0.237 OA
ATOM     71  O   UNL A   1      44.576  18.780  23.283  1.00  0.00    -0.744 OA
ENDBRANCH  64  68
ENDBRANCH  47  61
BRANCH  48  72
ATOM     72  C   UNL A   1      46.964  30.656  27.526  1.00  0.00     0.023 A 
ATOM     73  C   UNL A   1      46.288  31.734  26.913  1.00  0.00     0.031 A 
ATOM     74  C   UNL A   1      48.366  30.778  27.647  1.00  0.00     0.131 A 
ATOM     75  C   UNL A   1      47.004  32.872  26.476  1.00  0.00     0.055 A 
ATOM     76  C   UNL A   1      49.069  31.904  27.211  1.00  0.00     0.041 A 
ATOM     77  F   UNL A   1      49.095  29.846  28.281  1.00  0.00    -0.206 F 
ATOM     78  C   UNL A   1      48.387  32.965  26.635  1.00  0.00     0.022 A 
BRANCH  75  79
ATOM     79  S   UNL A   1      46.120  34.321  25.808  1.00  0.00     0.124 S 
ATOM     80  O   UNL A   1      45.640  34.970  27.023  1.00  0.00    -0.237 OA
ATOM     81  O   UNL A   1      47.166  35.020  25.071  1.00  0.00    -0.237 OA
ATOM     82  O   UNL A   1      45.077  33.725  24.972  1.00  0.00    -0.744 OA
ENDBRANCH  75  79
ENDBRANCH  48  72
BRANCH  60  83
ATOM     83  C   UNL A   1      45.700  26.011  31.686  1.00  0.00     0.023 A 
ATOM     84  C   UNL A   1      44.569  26.580  32.317  1.00  0.00     0.031 A 
ATOM     85  C   UNL A   1      46.826  25.744  32.484  1.00  0.00     0.131 A 
ATOM     86  C   UNL A   1      44.601  26.861  33.701  1.00  0.00     0.055 A 
ATOM     87  C   UNL A   1      46.847  26.003  33.853  1.00  0.00     0.041 A 
ATOM     88  F   UNL A   1      47.920  25.178  31.947  1.00  0.00    -0.206 F 
ATOM     89  C   UNL A   1      45.734  26.565  34.468  1.00  0.00     0.022 A 
BRANCH  86  90
ATOM     90  S   UNL A   1      43.156  27.594  34.541  1.00  0.00     0.124 S 
ATOM     91  O   UNL A   1      42.125  27.579  33.508  1.00  0.00    -0.237 OA
ATOM     92  O   UNL A   1      42.945  26.693  35.669  1.00  0.00    -0.237 OA
ATOM     93  O   UNL A   1      43.619  28.932  34.915  1.00  0.00    -0.744 OA
ENDBRANCH  86  90
ENDBRANCH  60  83
ENDBRANCH  34  35
ENDBRANCH  26  29
ENDBRANCH  24  25
ENDBRANCH  23  24
ENDBRANCH   1  23
TORSDOF 18
ENDMDL
MODEL 2
REMARK VINA RESULT:     -11.4      2.768      7.054
REMARK SMILES COC[C@H](C)n1c(SCC(=O)NCCCNC(=O)c2ccc(-c3c4nc(c(-c5cc(S(=O)(=O)[O-])ccc5F)c5ccc([nH]5)c(-c5cc(S(=O)(=O)[O-])ccc5F)c5nc(c(-c6cc(S(=O)(=O)[O-])ccc6F)c6ccc3[nH]6)C=C5)C=C4)cc2)nc2cc(C)cnc21
REMARK SMILES IDX 13 1 12 2 10 3 11 4 9 6 8 7 7 8 6 9 89 10 82 11 83 12 88 13
REMARK SMILES IDX 84 14 87 15 85 16 86 17 4 18 5 19 3 20 2 21 1 22 14 23 15 24
REMARK SMILES IDX 16 25 17 26 18 28 19 29 20 30 81 31 21 32 80 33 22 34 23 35
REMARK SMILES IDX 24 36 74 37 25 38 79 39 73 40 75 41 26 42 78 43 72 44 71 45
REMARK SMILES IDX 27 47 59 48 39 49 58 50 40 51 43 52 57 53 76 54 41 55 42 56
REMARK SMILES IDX 56 58 77 59 44 60 28 61 29 62 37 63 30 64 36 65 38 66 35 67
REMARK SMILES IDX 31 68 32 69 33 70 34 71 60 72 61 73 69 74 62 75 68 76 70 77
REMARK SMILES IDX 67 78 63 79 64 80 65 81 66 82 45 83 46 84 54 85 47 86 53 87
REMARK SMILES IDX 55 88 52 89 48 90 49 91 50 92 51 93
REMARK H PARENT 12 5 16 27 75 46 43 57
REMARK Flexibility Score: inf
ROOT
ATOM      1  C   UNL A   1      33.653  29.564  27.149  1.00  0.00     0.117 C 
ENDROOT
BRANCH   1   2
ATOM      2  N   UNL A   1      34.010  29.203  25.792  1.00  0.00    -0.355 N 
ATOM      3  C   UNL A   1      33.430  28.320  24.941  1.00  0.00     0.230 C 
ATOM      4  O   UNL A   1      33.987  28.131  23.859  1.00  0.00    -0.274 OA
ATOM      5  H   UNL A   1      34.798  29.673  25.431  1.00  0.00     0.163 HD
BRANCH   3   6
ATOM      6  C   UNL A   1      32.088  27.701  25.258  1.00  0.00     0.178 C 
BRANCH   6   7
ATOM      7  S   UNL A   1      32.092  26.322  26.378  1.00  0.00    -0.078 SA
BRANCH   7   8
ATOM      8  C   UNL A   1      33.099  24.999  25.887  1.00  0.00     0.171 A 
ATOM      9  N   UNL A   1      32.804  23.750  25.361  1.00  0.00    -0.298 N 
ATOM     10  C   UNL A   1      34.004  23.059  25.305  1.00  0.00     0.161 A 
ATOM     11  N   UNL A   1      34.388  25.118  26.149  1.00  0.00    -0.221 NA
ATOM     12  C   UNL A   1      34.963  23.945  25.768  1.00  0.00     0.109 A 
ATOM     13  N   UNL A   1      34.221  21.805  24.864  1.00  0.00    -0.236 NA
ATOM     14  C   UNL A   1      36.302  23.537  25.776  1.00  0.00     0.037 A 
ATOM     15  C   UNL A   1      35.536  21.469  24.838  1.00  0.00     0.117 A 
ATOM     16  C   UNL A   1      36.598  22.267  25.266  1.00  0.00    -0.030 A 
ATOM     17  C   UNL A   1      38.016  21.791  25.192  1.00  0.00     0.046 C 
BRANCH   9  18
ATOM     18  C   UNL A   1      31.532  23.229  24.871  1.00  0.00     0.114 C 
ATOM     19  C   UNL A   1      30.605  22.614  25.932  1.00  0.00     0.034 C 
BRANCH  18  20
ATOM     20  C   UNL A   1      30.778  24.252  24.002  1.00  0.00     0.185 C 
BRANCH  20  21
ATOM     21  O   UNL A   1      31.234  24.334  22.644  1.00  0.00    -0.383 OA
ATOM     22  C   UNL A   1      31.617  25.635  22.213  1.00  0.00     0.194 C 
ENDBRANCH  20  21
ENDBRANCH  18  20
ENDBRANCH   9  18
ENDBRANCH   7   8
ENDBRANCH   6   7
ENDBRANCH   3   6
ENDBRANCH   1   2
BRANCH   1  23
ATOM     23  C   UNL A   1      33.202  31.021  27.266  1.00  0.00     0.042 C 
BRANCH  23  24
ATOM     24  C   UNL A   1      34.348  31.974  27.568  1.00  0.00     0.118 C 
BRANCH  24  25
ATOM     25  N   UNL A   1      34.261  32.575  28.896  1.00  0.00    -0.352 N 
ATOM     26  C   UNL A   1      34.991  32.263  30.030  1.00  0.00     0.251 C 
ATOM     27  H   UNL A   1      33.597  33.295  28.999  1.00  0.00     0.163 HD
ATOM     28  O   UNL A   1      34.590  32.612  31.125  1.00  0.00    -0.269 OA
BRANCH  26  29
ATOM     29  C   UNL A   1      36.242  31.488  29.882  1.00  0.00     0.039 A 
ATOM     30  C   UNL A   1      37.473  32.132  29.747  1.00  0.00     0.014 A 
ATOM     31  C   UNL A   1      36.171  30.097  29.897  1.00  0.00     0.014 A 
ATOM     32  C   UNL A   1      38.631  31.358  29.700  1.00  0.00     0.010 A 
ATOM     33  C   UNL A   1      37.313  29.349  30.024  1.00  0.00     0.010 A 
ATOM     34  C   UNL A   1      38.544  29.965  29.860  1.00  0.00    -0.014 A 
BRANCH  34  35
ATOM     35  C   UNL A   1      39.744  29.142  29.950  1.00  0.00     0.031 A 
ATOM     36  C   UNL A   1      40.144  28.789  31.334  1.00  0.00     0.074 A 
ATOM     37  C   UNL A   1      40.355  28.579  28.886  1.00  0.00     0.049 A 
ATOM     38  N   UNL A   1      41.137  29.272  32.003  1.00  0.00    -0.248 NA
ATOM     39  C   UNL A   1      39.259  27.924  32.126  1.00  0.00     0.031 C 
ATOM     40  C   UNL A   1      39.943  28.584  27.478  1.00  0.00     0.029 A 
ATOM     41  N   UNL A   1      41.460  27.786  28.867  1.00  0.00    -0.354 N 
ATOM     42  C   UNL A   1      41.149  28.594  33.214  1.00  0.00     0.074 A 
ATOM     43  C   UNL A   1      39.871  27.939  33.313  1.00  0.00     0.031 C 
ATOM     44  C   UNL A   1      40.653  27.663  26.790  1.00  0.00     0.029 A 
ATOM     45  C   UNL A   1      41.690  27.136  27.658  1.00  0.00     0.049 A 
ATOM     46  H   UNL A   1      42.051  27.680  29.648  1.00  0.00     0.167 HD
ATOM     47  C   UNL A   1      42.305  28.441  33.918  1.00  0.00     0.034 A 
ATOM     48  C   UNL A   1      42.672  26.237  27.388  1.00  0.00     0.034 A 
ATOM     49  C   UNL A   1      43.332  29.338  33.434  1.00  0.00     0.049 A 
ATOM     50  C   UNL A   1      43.761  26.521  28.354  1.00  0.00     0.074 A 
ATOM     51  C   UNL A   1      43.439  30.710  33.310  1.00  0.00     0.029 A 
ATOM     52  N   UNL A   1      44.291  28.819  32.592  1.00  0.00    -0.354 N 
ATOM     53  N   UNL A   1      44.424  27.647  28.375  1.00  0.00    -0.248 NA
ATOM     54  C   UNL A   1      43.794  25.760  29.593  1.00  0.00     0.031 C 
ATOM     55  C   UNL A   1      44.076  30.916  32.049  1.00  0.00     0.029 A 
ATOM     56  C   UNL A   1      44.393  29.665  31.513  1.00  0.00     0.049 A 
ATOM     57  H   UNL A   1      44.809  27.994  32.737  1.00  0.00     0.167 HD
ATOM     58  C   UNL A   1      44.577  27.945  29.720  1.00  0.00     0.074 A 
ATOM     59  C   UNL A   1      44.260  26.701  30.420  1.00  0.00     0.031 C 
ATOM     60  C   UNL A   1      44.678  29.236  30.156  1.00  0.00     0.034 A 
BRANCH  47  61
ATOM     61  C   UNL A   1      42.625  27.260  34.802  1.00  0.00     0.023 A 
ATOM     62  C   UNL A   1      43.411  26.227  34.255  1.00  0.00     0.031 A 
ATOM     63  C   UNL A   1      41.990  26.965  36.030  1.00  0.00     0.131 A 
ATOM     64  C   UNL A   1      43.482  24.966  34.875  1.00  0.00     0.055 A 
ATOM     65  C   UNL A   1      42.115  25.733  36.676  1.00  0.00     0.041 A 
ATOM     66  F   UNL A   1      41.139  27.811  36.623  1.00  0.00    -0.206 F 
ATOM     67  C   UNL A   1      42.841  24.714  36.085  1.00  0.00     0.022 A 
BRANCH  64  68
ATOM     68  S   UNL A   1      44.303  23.615  33.994  1.00  0.00     0.124 S 
ATOM     69  O   UNL A   1      44.628  24.246  32.719  1.00  0.00    -0.237 OA
ATOM     70  O   UNL A   1      45.430  23.322  34.875  1.00  0.00    -0.237 OA
ATOM     71  O   UNL A   1      43.276  22.577  33.932  1.00  0.00    -0.744 OA
ENDBRANCH  64  68
ENDBRANCH  47  61
BRANCH  48  72
ATOM     72  C   UNL A   1      42.578  24.982  26.593  1.00  0.00     0.023 A 
ATOM     73  C   UNL A   1      43.614  24.571  25.725  1.00  0.00     0.031 A 
ATOM     74  C   UNL A   1      41.582  24.023  26.882  1.00  0.00     0.131 A 
ATOM     75  C   UNL A   1      43.636  23.255  25.209  1.00  0.00     0.055 A 
ATOM     76  C   UNL A   1      41.608  22.724  26.368  1.00  0.00     0.041 A 
ATOM     77  F   UNL A   1      40.595  24.284  27.754  1.00  0.00    -0.206 F 
ATOM     78  C   UNL A   1      42.646  22.329  25.538  1.00  0.00     0.022 A 
BRANCH  75  79
ATOM     79  S   UNL A   1      45.042  22.680  24.199  1.00  0.00     0.124 S 
ATOM     80  O   UNL A   1      45.660  21.690  25.073  1.00  0.00    -0.237 OA
ATOM     81  O   UNL A   1      44.386  22.167  23.001  1.00  0.00    -0.237 OA
ATOM     82  O   UNL A   1      45.828  23.897  23.990  1.00  0.00    -0.744 OA
ENDBRANCH  75  79
ENDBRANCH  48  72
BRANCH  60  83
ATOM     83  C   UNL A   1      44.911  30.329  29.129  1.00  0.00     0.023 A 
ATOM     84  C   UNL A   1      46.176  30.741  28.649  1.00  0.00     0.031 A 
ATOM     85  C   UNL A   1      43.771  30.873  28.513  1.00  0.00     0.131 A 
ATOM     86  C   UNL A   1      46.259  31.669  27.587  1.00  0.00     0.055 A 
ATOM     87  C   UNL A   1      43.857  31.773  27.452  1.00  0.00     0.041 A 
ATOM     88  F   UNL A   1      42.542  30.499  28.906  1.00  0.00    -0.206 F 
ATOM     89  C   UNL A   1      45.102  32.177  26.985  1.00  0.00     0.022 A 
BRANCH  86  90
ATOM     90  S   UNL A   1      47.878  32.217  26.947  1.00  0.00     0.124 S 
ATOM     91  O   UNL A   1      48.489  32.874  28.098  1.00  0.00    -0.237 OA
ATOM     92  O   UNL A   1      48.498  30.967  26.520  1.00  0.00    -0.237 OA
ATOM     93  O   UNL A   1      47.526  33.121  25.851  1.00  0.00    -0.744 OA
ENDBRANCH  86  90
ENDBRANCH  60  83
ENDBRANCH  34  35
ENDBRANCH  26  29
ENDBRANCH  24  25
ENDBRANCH  23  24
ENDBRANCH   1  23
TORSDOF 18
ENDMDL
MODEL 3
REMARK VINA RESULT:     -11.0      3.829      6.583
REMARK SMILES COC[C@H](C)n1c(SCC(=O)NCCCNC(=O)c2ccc(-c3c4nc(c(-c5cc(S(=O)(=O)[O-])ccc5F)c5ccc([nH]5)c(-c5cc(S(=O)(=O)[O-])ccc5F)c5nc(c(-c6cc(S(=O)(=O)[O-])ccc6F)c6ccc3[nH]6)C=C5)C=C4)cc2)nc2cc(C)cnc21
REMARK SMILES IDX 13 1 12 2 10 3 11 4 9 6 8 7 7 8 6 9 89 10 82 11 83 12 88 13
REMARK SMILES IDX 84 14 87 15 85 16 86 17 4 18 5 19 3 20 2 21 1 22 14 23 15 24
REMARK SMILES IDX 16 25 17 26 18 28 19 29 20 30 81 31 21 32 80 33 22 34 23 35
REMARK SMILES IDX 24 36 74 37 25 38 79 39 73 40 75 41 26 42 78 43 72 44 71 45
REMARK SMILES IDX 27 47 59 48 39 49 58 50 40 51 43 52 57 53 76 54 41 55 42 56
REMARK SMILES IDX 56 58 77 59 44 60 28 61 29 62 37 63 30 64 36 65 38 66 35 67
REMARK SMILES IDX 31 68 32 69 33 70 34 71 60 72 61 73 69 74 62 75 68 76 70 77
REMARK SMILES IDX 67 78 63 79 64 80 65 81 66 82 45 83 46 84 54 85 47 86 53 87
REMARK SMILES IDX 55 88 52 89 48 90 49 91 50 92 51 93
REMARK H PARENT 12 5 16 27 75 46 43 57
REMARK Flexibility Score: inf
ROOT
ATOM      1  C   UNL A   1      37.622  30.901  33.649  1.00  0.00     0.117 C 
ENDROOT
BRANCH   1   2
ATOM      2  N   UNL A   1      38.984  30.712  33.193  1.00  0.00    -0.355 N 
ATOM      3  C   UNL A   1      40.069  31.516  33.325  1.00  0.00     0.230 C 
ATOM      4  O   UNL A   1      41.106  31.160  32.764  1.00  0.00    -0.274 OA
ATOM      5  H   UNL A   1      39.148  29.868  32.712  1.00  0.00     0.163 HD
BRANCH   3   6
ATOM      6  C   UNL A   1      40.036  32.725  34.233  1.00  0.00     0.178 C 
BRANCH   6   7
ATOM      7  S   UNL A   1      39.626  34.278  33.476  1.00  0.00    -0.078 SA
BRANCH   7   8
ATOM      8  C   UNL A   1      38.036  34.345  32.787  1.00  0.00     0.171 A 
ATOM      9  N   UNL A   1      37.539  33.957  31.552  1.00  0.00    -0.298 N 
ATOM     10  C   UNL A   1      36.225  34.393  31.508  1.00  0.00     0.161 A 
ATOM     11  N   UNL A   1      37.119  34.978  33.497  1.00  0.00    -0.221 NA
ATOM     12  C   UNL A   1      35.991  34.989  32.736  1.00  0.00     0.109 A 
ATOM     13  N   UNL A   1      35.334  34.247  30.508  1.00  0.00    -0.236 NA
ATOM     14  C   UNL A   1      34.709  35.483  33.007  1.00  0.00     0.037 A 
ATOM     15  C   UNL A   1      34.092  34.690  30.831  1.00  0.00     0.117 A 
ATOM     16  C   UNL A   1      33.722  35.300  32.031  1.00  0.00    -0.030 A 
ATOM     17  C   UNL A   1      32.316  35.753  32.279  1.00  0.00     0.046 C 
BRANCH   9  18
ATOM     18  C   UNL A   1      38.183  33.179  30.498  1.00  0.00     0.114 C 
ATOM     19  C   UNL A   1      37.368  32.993  29.208  1.00  0.00     0.034 C 
BRANCH  18  20
ATOM     20  C   UNL A   1      39.605  33.681  30.188  1.00  0.00     0.185 C 
BRANCH  20  21
ATOM     21  O   UNL A   1      39.660  34.960  29.539  1.00  0.00    -0.383 OA
ATOM     22  C   UNL A   1      40.916  35.290  28.960  1.00  0.00     0.194 C 
ENDBRANCH  20  21
ENDBRANCH  18  20
ENDBRANCH   9  18
ENDBRANCH   7   8
ENDBRANCH   6   7
ENDBRANCH   3   6
ENDBRANCH   1   2
BRANCH   1  23
ATOM     23  C   UNL A   1      36.599  30.706  32.529  1.00  0.00     0.042 C 
BRANCH  23  24
ATOM     24  C   UNL A   1      37.006  29.630  31.534  1.00  0.00     0.118 C 
BRANCH  24  25
ATOM     25  N   UNL A   1      36.147  29.585  30.353  1.00  0.00    -0.352 N 
ATOM     26  C   UNL A   1      36.519  29.469  29.024  1.00  0.00     0.251 C 
ATOM     27  H   UNL A   1      35.180  29.644  30.524  1.00  0.00     0.163 HD
ATOM     28  O   UNL A   1      35.731  29.770  28.146  1.00  0.00    -0.269 OA
BRANCH  26  29
ATOM     29  C   UNL A   1      37.883  28.998  28.704  1.00  0.00     0.039 A 
ATOM     30  C   UNL A   1      38.612  29.569  27.660  1.00  0.00     0.014 A 
ATOM     31  C   UNL A   1      38.436  27.980  29.476  1.00  0.00     0.014 A 
ATOM     32  C   UNL A   1      39.926  29.152  27.454  1.00  0.00     0.010 A 
ATOM     33  C   UNL A   1      39.774  27.694  29.386  1.00  0.00     0.010 A 
ATOM     34  C   UNL A   1      40.508  28.226  28.337  1.00  0.00    -0.014 A 
BRANCH  34  35
ATOM     35  C   UNL A   1      41.917  27.870  28.231  1.00  0.00     0.031 A 
ATOM     36  C   UNL A   1      42.178  26.610  27.494  1.00  0.00     0.074 A 
ATOM     37  C   UNL A   1      42.932  28.683  28.597  1.00  0.00     0.049 A 
ATOM     38  N   UNL A   1      42.534  25.475  27.996  1.00  0.00    -0.248 NA
ATOM     39  C   UNL A   1      41.858  26.551  26.060  1.00  0.00     0.031 C 
ATOM     40  C   UNL A   1      42.874  30.067  29.080  1.00  0.00     0.029 A 
ATOM     41  N   UNL A   1      44.270  28.452  28.522  1.00  0.00    -0.354 N 
ATOM     42  C   UNL A   1      42.721  24.621  26.918  1.00  0.00     0.074 A 
ATOM     43  C   UNL A   1      42.100  25.265  25.791  1.00  0.00     0.031 C 
ATOM     44  C   UNL A   1      44.109  30.615  29.044  1.00  0.00     0.029 A 
ATOM     45  C   UNL A   1      45.067  29.576  28.716  1.00  0.00     0.049 A 
ATOM     46  H   UNL A   1      44.645  27.559  28.344  1.00  0.00     0.167 HD
ATOM     47  C   UNL A   1      43.579  23.566  27.002  1.00  0.00     0.034 A 
ATOM     48  C   UNL A   1      46.421  29.643  28.623  1.00  0.00     0.034 A 
ATOM     49  C   UNL A   1      43.932  23.291  28.378  1.00  0.00     0.049 A 
ATOM     50  C   UNL A   1      46.915  28.268  28.879  1.00  0.00     0.074 A 
ATOM     51  C   UNL A   1      43.217  22.964  29.514  1.00  0.00     0.029 A 
ATOM     52  N   UNL A   1      45.149  23.751  28.832  1.00  0.00    -0.354 N 
ATOM     53  N   UNL A   1      46.752  27.650  30.019  1.00  0.00    -0.248 NA
ATOM     54  C   UNL A   1      47.162  27.404  27.736  1.00  0.00     0.031 C 
ATOM     55  C   UNL A   1      43.828  23.718  30.562  1.00  0.00     0.029 A 
ATOM     56  C   UNL A   1      44.925  24.396  30.025  1.00  0.00     0.049 A 
ATOM     57  H   UNL A   1      46.018  23.640  28.384  1.00  0.00     0.167 HD
ATOM     58  C   UNL A   1      46.438  26.344  29.674  1.00  0.00     0.074 A 
ATOM     59  C   UNL A   1      46.805  26.229  28.263  1.00  0.00     0.031 C 
ATOM     60  C   UNL A   1      45.661  25.562  30.480  1.00  0.00     0.034 A 
BRANCH  47  61
ATOM     61  C   UNL A   1      44.369  23.004  25.845  1.00  0.00     0.023 A 
ATOM     62  C   UNL A   1      44.344  21.609  25.651  1.00  0.00     0.031 A 
ATOM     63  C   UNL A   1      45.344  23.711  25.105  1.00  0.00     0.131 A 
ATOM     64  C   UNL A   1      45.290  20.977  24.824  1.00  0.00     0.055 A 
ATOM     65  C   UNL A   1      46.240  23.086  24.235  1.00  0.00     0.041 A 
ATOM     66  F   UNL A   1      45.551  25.025  25.254  1.00  0.00    -0.206 F 
ATOM     67  C   UNL A   1      46.237  21.709  24.111  1.00  0.00     0.022 A 
BRANCH  64  68
ATOM     68  S   UNL A   1      45.358  19.168  24.815  1.00  0.00     0.124 S 
ATOM     69  O   UNL A   1      46.368  18.904  25.833  1.00  0.00    -0.237 OA
ATOM     70  O   UNL A   1      43.985  18.814  25.161  1.00  0.00    -0.237 OA
ATOM     71  O   UNL A   1      45.755  18.851  23.445  1.00  0.00    -0.744 OA
ENDBRANCH  64  68
ENDBRANCH  47  61
BRANCH  48  72
ATOM     72  C   UNL A   1      47.250  30.721  28.017  1.00  0.00     0.023 A 
ATOM     73  C   UNL A   1      46.682  31.742  27.224  1.00  0.00     0.031 A 
ATOM     74  C   UNL A   1      48.585  30.919  28.437  1.00  0.00     0.131 A 
ATOM     75  C   UNL A   1      47.428  32.900  26.905  1.00  0.00     0.055 A 
ATOM     76  C   UNL A   1      49.319  32.064  28.116  1.00  0.00     0.041 A 
ATOM     77  F   UNL A   1      49.195  30.047  29.255  1.00  0.00    -0.206 F 
ATOM     78  C   UNL A   1      48.736  33.069  27.359  1.00  0.00     0.022 A 
BRANCH  75  79
ATOM     79  S   UNL A   1      46.653  34.279  25.997  1.00  0.00     0.124 S 
ATOM     80  O   UNL A   1      45.503  33.628  25.379  1.00  0.00    -0.237 OA
ATOM     81  O   UNL A   1      46.362  35.236  27.058  1.00  0.00    -0.237 OA
ATOM     82  O   UNL A   1      47.699  34.700  25.065  1.00  0.00    -0.744 OA
ENDBRANCH  75  79
ENDBRANCH  48  72
BRANCH  60  83
ATOM     83  C   UNL A   1      45.381  26.036  31.895  1.00  0.00     0.023 A 
ATOM     84  C   UNL A   1      44.218  26.728  32.309  1.00  0.00     0.031 A 
ATOM     85  C   UNL A   1      46.288  25.631  32.890  1.00  0.00     0.131 A 
ATOM     86  C   UNL A   1      44.005  26.991  33.680  1.00  0.00     0.055 A 
ATOM     87  C   UNL A   1      46.064  25.874  34.244  1.00  0.00     0.041 A 
ATOM     88  F   UNL A   1      47.396  24.946  32.561  1.00  0.00    -0.206 F 
ATOM     89  C   UNL A   1      44.921  26.557  34.645  1.00  0.00     0.022 A 
BRANCH  86  90
ATOM     90  S   UNL A   1      42.514  27.880  34.242  1.00  0.00     0.124 S 
ATOM     91  O   UNL A   1      43.043  29.152  34.722  1.00  0.00    -0.237 OA
ATOM     92  O   UNL A   1      41.698  27.941  33.033  1.00  0.00    -0.237 OA
ATOM     93  O   UNL A   1      41.973  27.015  35.292  1.00  0.00    -0.744 OA
ENDBRANCH  86  90
ENDBRANCH  60  83
ENDBRANCH  34  35
ENDBRANCH  26  29
ENDBRANCH  24  25
ENDBRANCH  23  24
ENDBRANCH   1  23
TORSDOF 18
ENDMDL
