MODEL 1
REMARK VINA RESULT:     -12.1      0.000      0.000
REMARK SMILES O=C(NCCCNC(=O)[C@@H]1CC[C@@H](CS(=O)(=O)c2cccc(F)c2)O1)c1ccc(-c2c3nc(c(-c4cc(S(=O)(=O)[O-])ccc4F)c4ccc([nH]4)c(-c4cc(S(=O)(=O)[O-])ccc4F)c4nc(c(-c5cc(S(=O)(=O)[O-])ccc5F)c5ccc2[nH]5)C=C4)C=C3)cc1
REMARK SMILES IDX 5 1 4 2 3 3 1 4 2 5 26 7 27 8 88 9 28 10 87 11 29 12 30 13
REMARK SMILES IDX 31 14 81 15 32 16 86 17 80 18 82 19 33 20 85 21 79 22 78 23
REMARK SMILES IDX 34 25 66 26 46 27 65 28 47 29 50 30 64 31 83 32 48 33 49 34
REMARK SMILES IDX 63 36 84 37 51 38 35 39 36 40 44 41 37 42 43 43 45 44 42 45
REMARK SMILES IDX 38 46 39 47 40 48 41 49 67 50 68 51 76 52 69 53 75 54 77 55
REMARK SMILES IDX 74 56 70 57 71 58 72 59 73 60 52 61 53 62 61 63 54 64 60 65
REMARK SMILES IDX 62 66 59 67 55 68 56 69 57 70 58 71 6 72 7 73 8 74 9 76
REMARK SMILES IDX 10 77 11 78 25 79 12 80 13 81 14 82 15 83 16 84 17 85 18 86
REMARK SMILES IDX 19 87 24 88 20 89 22 90 21 91 23 92
REMARK H PARENT 3 6 82 24 50 35 7 75
REMARK Flexibility Score: inf
ROOT
ATOM      1  C   UNL A   1      34.526  22.074  26.979  1.00  0.00     0.042 C 
ENDROOT
BRANCH   1   2
ATOM      2  C   UNL A   1      35.683  22.537  26.100  1.00  0.00     0.118 C 
BRANCH   2   3
ATOM      3  N   UNL A   1      36.641  21.470  25.811  1.00  0.00    -0.352 N 
ATOM      4  O   UNL A   1      38.623  20.526  25.316  1.00  0.00    -0.269 OA
ATOM      5  C   UNL A   1      38.014  21.493  25.767  1.00  0.00     0.251 C 
ATOM      6  H   UNL A   1      36.236  20.594  25.615  1.00  0.00     0.163 HD
BRANCH   5   7
ATOM      7  C   UNL A   1      38.752  22.679  26.249  1.00  0.00     0.039 A 
ATOM      8  C   UNL A   1      38.392  23.955  25.817  1.00  0.00     0.014 A 
ATOM      9  C   UNL A   1      39.807  22.518  27.151  1.00  0.00     0.014 A 
ATOM     10  C   UNL A   1      39.192  25.042  26.136  1.00  0.00     0.010 A 
ATOM     11  C   UNL A   1      40.546  23.634  27.563  1.00  0.00     0.010 A 
ATOM     12  C   UNL A   1      40.266  24.901  27.030  1.00  0.00    -0.014 A 
BRANCH  12  13
ATOM     13  C   UNL A   1      41.032  26.112  27.426  1.00  0.00     0.031 A 
ATOM     14  C   UNL A   1      42.419  26.364  26.900  1.00  0.00     0.074 A 
ATOM     15  C   UNL A   1      40.430  27.020  28.224  1.00  0.00     0.049 A 
ATOM     16  N   UNL A   1      43.209  27.380  27.134  1.00  0.00    -0.248 NA
ATOM     17  C   UNL A   1      43.000  25.350  26.005  1.00  0.00     0.031 C 
ATOM     18  C   UNL A   1      39.083  26.879  28.786  1.00  0.00     0.029 A 
ATOM     19  N   UNL A   1      40.848  28.244  28.677  1.00  0.00    -0.354 N 
ATOM     20  C   UNL A   1      44.382  27.125  26.430  1.00  0.00     0.074 A 
ATOM     21  C   UNL A   1      44.211  25.845  25.780  1.00  0.00     0.031 C 
ATOM     22  C   UNL A   1      38.763  27.998  29.450  1.00  0.00     0.029 A 
ATOM     23  C   UNL A   1      39.909  28.899  29.440  1.00  0.00     0.049 A 
ATOM     24  H   UNL A   1      41.735  28.620  28.476  1.00  0.00     0.167 HD
ATOM     25  C   UNL A   1      45.490  27.897  26.335  1.00  0.00     0.034 A 
ATOM     26  C   UNL A   1      39.965  30.080  30.086  1.00  0.00     0.034 A 
ATOM     27  C   UNL A   1      45.634  29.184  26.970  1.00  0.00     0.049 A 
ATOM     28  C   UNL A   1      41.227  30.890  30.001  1.00  0.00     0.074 A 
ATOM     29  C   UNL A   1      46.705  30.058  26.901  1.00  0.00     0.029 A 
ATOM     30  N   UNL A   1      44.687  29.778  27.793  1.00  0.00    -0.354 N 
ATOM     31  N   UNL A   1      42.328  30.623  29.337  1.00  0.00    -0.248 NA
ATOM     32  C   UNL A   1      41.265  32.148  30.756  1.00  0.00     0.031 C 
ATOM     33  C   UNL A   1      46.437  31.145  27.736  1.00  0.00     0.029 A 
ATOM     34  C   UNL A   1      45.166  30.989  28.266  1.00  0.00     0.049 A 
ATOM     35  H   UNL A   1      43.805  29.397  28.008  1.00  0.00     0.167 HD
ATOM     36  C   UNL A   1      43.185  31.689  29.587  1.00  0.00     0.074 A 
ATOM     37  C   UNL A   1      42.471  32.608  30.450  1.00  0.00     0.031 C 
ATOM     38  C   UNL A   1      44.449  31.887  29.138  1.00  0.00     0.034 A 
BRANCH  25  39
ATOM     39  C   UNL A   1      46.661  27.376  25.541  1.00  0.00     0.023 A 
ATOM     40  C   UNL A   1      46.897  27.779  24.217  1.00  0.00     0.031 A 
ATOM     41  C   UNL A   1      47.601  26.528  26.156  1.00  0.00     0.131 A 
ATOM     42  C   UNL A   1      48.040  27.319  23.544  1.00  0.00     0.055 A 
ATOM     43  C   UNL A   1      48.762  26.118  25.499  1.00  0.00     0.041 A 
ATOM     44  F   UNL A   1      47.415  26.105  27.416  1.00  0.00    -0.206 F 
ATOM     45  C   UNL A   1      48.986  26.513  24.183  1.00  0.00     0.022 A 
BRANCH  42  46
ATOM     46  S   UNL A   1      48.261  27.757  21.797  1.00  0.00     0.124 S 
ATOM     47  O   UNL A   1      46.980  28.387  21.489  1.00  0.00    -0.237 OA
ATOM     48  O   UNL A   1      49.418  28.644  21.837  1.00  0.00    -0.237 OA
ATOM     49  O   UNL A   1      48.488  26.467  21.147  1.00  0.00    -0.744 OA
ENDBRANCH  42  46
ENDBRANCH  25  39
BRANCH  26  50
ATOM     50  C   UNL A   1      38.807  30.531  30.908  1.00  0.00     0.023 A 
ATOM     51  C   UNL A   1      37.721  31.204  30.332  1.00  0.00     0.031 A 
ATOM     52  C   UNL A   1      38.772  30.280  32.294  1.00  0.00     0.131 A 
ATOM     53  C   UNL A   1      36.652  31.622  31.141  1.00  0.00     0.055 A 
ATOM     54  C   UNL A   1      37.687  30.654  33.084  1.00  0.00     0.041 A 
ATOM     55  F   UNL A   1      39.785  29.634  32.892  1.00  0.00    -0.206 F 
ATOM     56  C   UNL A   1      36.620  31.338  32.509  1.00  0.00     0.022 A 
BRANCH  53  57
ATOM     57  S   UNL A   1      35.315  32.588  30.388  1.00  0.00     0.124 S 
ATOM     58  O   UNL A   1      34.334  32.629  31.467  1.00  0.00    -0.237 OA
ATOM     59  O   UNL A   1      35.985  33.846  30.079  1.00  0.00    -0.237 OA
ATOM     60  O   UNL A   1      34.931  31.788  29.226  1.00  0.00    -0.744 OA
ENDBRANCH  53  57
ENDBRANCH  26  50
BRANCH  38  61
ATOM     61  C   UNL A   1      45.140  33.157  29.551  1.00  0.00     0.023 A 
ATOM     62  C   UNL A   1      45.022  34.335  28.796  1.00  0.00     0.031 A 
ATOM     63  C   UNL A   1      45.875  33.202  30.750  1.00  0.00     0.131 A 
ATOM     64  C   UNL A   1      45.647  35.509  29.239  1.00  0.00     0.055 A 
ATOM     65  C   UNL A   1      46.454  34.384  31.208  1.00  0.00     0.041 A 
ATOM     66  F   UNL A   1      46.013  32.102  31.507  1.00  0.00    -0.206 F 
ATOM     67  C   UNL A   1      46.345  35.546  30.450  1.00  0.00     0.022 A 
BRANCH  64  68
ATOM     68  S   UNL A   1      45.558  36.991  28.198  1.00  0.00     0.124 S 
ATOM     69  O   UNL A   1      45.468  38.054  29.194  1.00  0.00    -0.237 OA
ATOM     70  O   UNL A   1      46.808  36.927  27.448  1.00  0.00    -0.237 OA
ATOM     71  O   UNL A   1      44.349  36.781  27.404  1.00  0.00    -0.744 OA
ENDBRANCH  64  68
ENDBRANCH  38  61
ENDBRANCH  12  13
ENDBRANCH   5   7
ENDBRANCH   2   3
ENDBRANCH   1   2
BRANCH   1  72
ATOM     72  C   UNL A   1      33.294  21.661  26.186  1.00  0.00     0.117 C 
BRANCH  72  73
ATOM     73  N   UNL A   1      32.062  22.000  26.874  1.00  0.00    -0.354 N 
ATOM     74  C   UNL A   1      31.211  23.047  26.720  1.00  0.00     0.249 C 
ATOM     75  H   UNL A   1      31.796  21.361  27.574  1.00  0.00     0.163 HD
ATOM     76  O   UNL A   1      30.223  23.088  27.464  1.00  0.00    -0.272 OA
BRANCH  74  77
ATOM     77  C   UNL A   1      31.415  24.137  25.651  1.00  0.00     0.207 C 
ATOM     78  C   UNL A   1      30.261  25.130  25.738  1.00  0.00     0.045 C 
ATOM     79  O   UNL A   1      31.527  23.803  24.276  1.00  0.00    -0.364 OA
ATOM     80  C   UNL A   1      30.342  25.852  24.419  1.00  0.00     0.036 C 
ATOM     81  C   UNL A   1      30.854  24.774  23.481  1.00  0.00     0.134 C 
BRANCH  81  82
ATOM     82  C   UNL A   1      31.662  25.224  22.275  1.00  0.00     0.174 C 
BRANCH  82  83
ATOM     83  S   UNL A   1      33.372  25.642  22.488  1.00  0.00     0.181 S 
ATOM     84  O   UNL A   1      34.121  24.424  22.736  1.00  0.00    -0.224 OA
ATOM     85  O   UNL A   1      33.725  26.507  21.377  1.00  0.00    -0.224 OA
BRANCH  83  86
ATOM     86  C   UNL A   1      33.551  26.663  23.928  1.00  0.00     0.070 A 
ATOM     87  C   UNL A   1      34.003  26.117  25.133  1.00  0.00     0.020 A 
ATOM     88  C   UNL A   1      33.185  28.009  23.851  1.00  0.00     0.059 A 
ATOM     89  C   UNL A   1      34.180  26.946  26.244  1.00  0.00     0.004 A 
ATOM     90  C   UNL A   1      33.326  28.810  24.977  1.00  0.00     0.124 A 
ATOM     91  C   UNL A   1      33.842  28.295  26.163  1.00  0.00     0.039 A 
ATOM     92  F   UNL A   1      32.961  30.096  24.927  1.00  0.00    -0.207 F 
ENDBRANCH  83  86
ENDBRANCH  82  83
ENDBRANCH  81  82
ENDBRANCH  74  77
ENDBRANCH  72  73
ENDBRANCH   1  72
TORSDOF 16
ENDMDL
MODEL 2
REMARK VINA RESULT:     -11.9      5.748     11.031
REMARK SMILES O=C(NCCCNC(=O)[C@@H]1CC[C@@H](CS(=O)(=O)c2cccc(F)c2)O1)c1ccc(-c2c3nc(c(-c4cc(S(=O)(=O)[O-])ccc4F)c4ccc([nH]4)c(-c4cc(S(=O)(=O)[O-])ccc4F)c4nc(c(-c5cc(S(=O)(=O)[O-])ccc5F)c5ccc2[nH]5)C=C4)C=C3)cc1
REMARK SMILES IDX 5 1 4 2 3 3 1 4 2 5 26 7 27 8 88 9 28 10 87 11 29 12 30 13
REMARK SMILES IDX 31 14 81 15 32 16 86 17 80 18 82 19 33 20 85 21 79 22 78 23
REMARK SMILES IDX 34 25 66 26 46 27 65 28 47 29 50 30 64 31 83 32 48 33 49 34
REMARK SMILES IDX 63 36 84 37 51 38 35 39 36 40 44 41 37 42 43 43 45 44 42 45
REMARK SMILES IDX 38 46 39 47 40 48 41 49 67 50 68 51 76 52 69 53 75 54 77 55
REMARK SMILES IDX 74 56 70 57 71 58 72 59 73 60 52 61 53 62 61 63 54 64 60 65
REMARK SMILES IDX 62 66 59 67 55 68 56 69 57 70 58 71 6 72 7 73 8 74 9 76
REMARK SMILES IDX 10 77 11 78 25 79 12 80 13 81 14 82 15 83 16 84 17 85 18 86
REMARK SMILES IDX 19 87 24 88 20 89 22 90 21 91 23 92
REMARK H PARENT 3 6 82 24 50 35 7 75
REMARK Flexibility Score: inf
ROOT
ATOM      1  C   UNL A   1      34.402  33.989  28.335  1.00  0.00     0.042 C 
ENDROOT
BRANCH   1   2
ATOM      2  C   UNL A   1      34.505  32.607  28.970  1.00  0.00     0.118 C 
BRANCH   2   3
ATOM      3  N   UNL A   1      33.868  31.563  28.169  1.00  0.00    -0.352 N 
ATOM      4  O   UNL A   1      33.721  29.747  26.848  1.00  0.00    -0.269 OA
ATOM      5  C   UNL A   1      34.380  30.394  27.658  1.00  0.00     0.251 C 
ATOM      6  H   UNL A   1      32.918  31.724  27.961  1.00  0.00     0.163 HD
BRANCH   5   7
ATOM      7  C   UNL A   1      35.718  29.927  28.073  1.00  0.00     0.039 A 
ATOM      8  C   UNL A   1      35.899  29.327  29.319  1.00  0.00     0.014 A 
ATOM      9  C   UNL A   1      36.804  30.077  27.206  1.00  0.00     0.014 A 
ATOM     10  C   UNL A   1      37.181  29.048  29.770  1.00  0.00     0.010 A 
ATOM     11  C   UNL A   1      38.084  29.689  27.620  1.00  0.00     0.010 A 
ATOM     12  C   UNL A   1      38.288  29.204  28.921  1.00  0.00    -0.014 A 
BRANCH  12  13
ATOM     13  C   UNL A   1      39.630  28.794  29.411  1.00  0.00     0.031 A 
ATOM     14  C   UNL A   1      40.299  29.516  30.549  1.00  0.00     0.074 A 
ATOM     15  C   UNL A   1      40.214  27.713  28.851  1.00  0.00     0.049 A 
ATOM     16  N   UNL A   1      41.457  29.268  31.105  1.00  0.00    -0.248 NA
ATOM     17  C   UNL A   1      39.588  30.663  31.135  1.00  0.00     0.031 C 
ATOM     18  C   UNL A   1      39.650  26.933  27.745  1.00  0.00     0.029 A 
ATOM     19  N   UNL A   1      41.385  27.063  29.146  1.00  0.00    -0.354 N 
ATOM     20  C   UNL A   1      41.622  30.232  32.094  1.00  0.00     0.074 A 
ATOM     21  C   UNL A   1      40.456  31.086  32.047  1.00  0.00     0.031 C 
ATOM     22  C   UNL A   1      40.439  25.878  27.501  1.00  0.00     0.029 A 
ATOM     23  C   UNL A   1      41.609  25.951  28.367  1.00  0.00     0.049 A 
ATOM     24  H   UNL A   1      42.007  27.363  29.848  1.00  0.00     0.167 HD
ATOM     25  C   UNL A   1      42.651  30.378  32.963  1.00  0.00     0.034 A 
ATOM     26  C   UNL A   1      42.650  25.097  28.328  1.00  0.00     0.034 A 
ATOM     27  C   UNL A   1      43.795  29.502  33.012  1.00  0.00     0.049 A 
ATOM     28  C   UNL A   1      43.799  25.316  29.271  1.00  0.00     0.074 A 
ATOM     29  C   UNL A   1      44.870  29.547  33.883  1.00  0.00     0.029 A 
ATOM     30  N   UNL A   1      44.017  28.430  32.159  1.00  0.00    -0.354 N 
ATOM     31  N   UNL A   1      43.937  26.240  30.193  1.00  0.00    -0.248 NA
ATOM     32  C   UNL A   1      44.934  24.391  29.167  1.00  0.00     0.031 C 
ATOM     33  C   UNL A   1      45.775  28.550  33.511  1.00  0.00     0.029 A 
ATOM     34  C   UNL A   1      45.230  27.831  32.459  1.00  0.00     0.049 A 
ATOM     35  H   UNL A   1      43.404  28.137  31.446  1.00  0.00     0.167 HD
ATOM     36  C   UNL A   1      45.172  26.000  30.785  1.00  0.00     0.074 A 
ATOM     37  C   UNL A   1      45.732  24.837  30.128  1.00  0.00     0.031 C 
ATOM     38  C   UNL A   1      45.782  26.681  31.785  1.00  0.00     0.034 A 
BRANCH  25  39
ATOM     39  C   UNL A   1      42.620  31.541  33.920  1.00  0.00     0.023 A 
ATOM     40  C   UNL A   1      41.948  31.471  35.151  1.00  0.00     0.031 A 
ATOM     41  C   UNL A   1      43.352  32.708  33.629  1.00  0.00     0.131 A 
ATOM     42  C   UNL A   1      42.008  32.556  36.040  1.00  0.00     0.055 A 
ATOM     43  C   UNL A   1      43.451  33.760  34.539  1.00  0.00     0.041 A 
ATOM     44  F   UNL A   1      44.002  32.829  32.461  1.00  0.00    -0.206 F 
ATOM     45  C   UNL A   1      42.775  33.689  35.753  1.00  0.00     0.022 A 
BRANCH  42  46
ATOM     46  S   UNL A   1      41.034  32.490  37.569  1.00  0.00     0.124 S 
ATOM     47  O   UNL A   1      41.901  31.694  38.433  1.00  0.00    -0.237 OA
ATOM     48  O   UNL A   1      40.900  33.899  37.920  1.00  0.00    -0.237 OA
ATOM     49  O   UNL A   1      39.796  31.830  37.158  1.00  0.00    -0.744 OA
ENDBRANCH  42  46
ENDBRANCH  25  39
BRANCH  26  50
ATOM     50  C   UNL A   1      42.668  23.995  27.326  1.00  0.00     0.023 A 
ATOM     51  C   UNL A   1      42.016  22.778  27.568  1.00  0.00     0.031 A 
ATOM     52  C   UNL A   1      43.336  24.156  26.097  1.00  0.00     0.131 A 
ATOM     53  C   UNL A   1      42.063  21.759  26.602  1.00  0.00     0.055 A 
ATOM     54  C   UNL A   1      43.339  23.161  25.122  1.00  0.00     0.041 A 
ATOM     55  F   UNL A   1      43.970  25.306  25.815  1.00  0.00    -0.206 F 
ATOM     56  C   UNL A   1      42.706  21.948  25.375  1.00  0.00     0.022 A 
BRANCH  53  57
ATOM     57  S   UNL A   1      41.307  20.157  26.989  1.00  0.00     0.124 S 
ATOM     58  O   UNL A   1      40.779  20.393  28.328  1.00  0.00    -0.237 OA
ATOM     59  O   UNL A   1      40.320  20.021  25.923  1.00  0.00    -0.237 OA
ATOM     60  O   UNL A   1      42.431  19.225  26.916  1.00  0.00    -0.744 OA
ENDBRANCH  53  57
ENDBRANCH  26  50
BRANCH  38  61
ATOM     61  C   UNL A   1      47.120  26.178  32.251  1.00  0.00     0.023 A 
ATOM     62  C   UNL A   1      47.227  25.206  33.259  1.00  0.00     0.031 A 
ATOM     63  C   UNL A   1      48.300  26.631  31.632  1.00  0.00     0.131 A 
ATOM     64  C   UNL A   1      48.492  24.731  33.634  1.00  0.00     0.055 A 
ATOM     65  C   UNL A   1      49.550  26.120  31.977  1.00  0.00     0.041 A 
ATOM     66  F   UNL A   1      48.247  27.557  30.661  1.00  0.00    -0.206 F 
ATOM     67  C   UNL A   1      49.651  25.167  32.986  1.00  0.00     0.022 A 
BRANCH  64  68
ATOM     68  S   UNL A   1      48.609  23.547  35.003  1.00  0.00     0.124 S 
ATOM     69  O   UNL A   1      49.740  22.722  34.592  1.00  0.00    -0.237 OA
ATOM     70  O   UNL A   1      48.839  24.415  36.153  1.00  0.00    -0.237 OA
ATOM     71  O   UNL A   1      47.312  22.874  34.987  1.00  0.00    -0.744 OA
ENDBRANCH  64  68
ENDBRANCH  38  61
ENDBRANCH  12  13
ENDBRANCH   5   7
ENDBRANCH   2   3
ENDBRANCH   1   2
BRANCH   1  72
ATOM     72  C   UNL A   1      33.037  34.638  28.518  1.00  0.00     0.117 C 
BRANCH  72  73
ATOM     73  N   UNL A   1      33.129  36.081  28.639  1.00  0.00    -0.354 N 
ATOM     74  C   UNL A   1      33.223  36.884  29.731  1.00  0.00     0.249 C 
ATOM     75  H   UNL A   1      33.122  36.563  27.781  1.00  0.00     0.163 HD
ATOM     76  O   UNL A   1      33.278  38.104  29.534  1.00  0.00    -0.272 OA
BRANCH  74  77
ATOM     77  C   UNL A   1      33.295  36.331  31.167  1.00  0.00     0.207 C 
ATOM     78  C   UNL A   1      33.559  37.489  32.123  1.00  0.00     0.045 C 
ATOM     79  O   UNL A   1      34.231  35.325  31.519  1.00  0.00    -0.364 OA
ATOM     80  C   UNL A   1      34.027  36.790  33.373  1.00  0.00     0.036 C 
ATOM     81  C   UNL A   1      34.750  35.574  32.822  1.00  0.00     0.134 C 
BRANCH  81  82
ATOM     82  C   UNL A   1      34.793  34.332  33.696  1.00  0.00     0.174 C 
BRANCH  82  83
ATOM     83  S   UNL A   1      35.794  32.957  33.195  1.00  0.00     0.181 S 
ATOM     84  O   UNL A   1      36.348  32.328  34.380  1.00  0.00    -0.224 OA
ATOM     85  O   UNL A   1      34.995  32.185  32.261  1.00  0.00    -0.224 OA
BRANCH  83  86
ATOM     86  C   UNL A   1      37.163  33.548  32.233  1.00  0.00     0.070 A 
ATOM     87  C   UNL A   1      38.256  34.159  32.855  1.00  0.00     0.020 A 
ATOM     88  C   UNL A   1      37.108  33.439  30.841  1.00  0.00     0.059 A 
ATOM     89  C   UNL A   1      39.344  34.578  32.086  1.00  0.00     0.004 A 
ATOM     90  C   UNL A   1      38.179  33.900  30.088  1.00  0.00     0.124 A 
ATOM     91  C   UNL A   1      39.305  34.446  30.699  1.00  0.00     0.039 A 
ATOM     92  F   UNL A   1      38.134  33.822  28.752  1.00  0.00    -0.207 F 
ENDBRANCH  83  86
ENDBRANCH  82  83
ENDBRANCH  81  82
ENDBRANCH  74  77
ENDBRANCH  72  73
ENDBRANCH   1  72
TORSDOF 16
ENDMDL
MODEL 3
REMARK VINA RESULT:     -11.7      2.107      2.658
REMARK SMILES O=C(NCCCNC(=O)[C@@H]1CC[C@@H](CS(=O)(=O)c2cccc(F)c2)O1)c1ccc(-c2c3nc(c(-c4cc(S(=O)(=O)[O-])ccc4F)c4ccc([nH]4)c(-c4cc(S(=O)(=O)[O-])ccc4F)c4nc(c(-c5cc(S(=O)(=O)[O-])ccc5F)c5ccc2[nH]5)C=C4)C=C3)cc1
REMARK SMILES IDX 5 1 4 2 3 3 1 4 2 5 26 7 27 8 88 9 28 10 87 11 29 12 30 13
REMARK SMILES IDX 31 14 81 15 32 16 86 17 80 18 82 19 33 20 85 21 79 22 78 23
REMARK SMILES IDX 34 25 66 26 46 27 65 28 47 29 50 30 64 31 83 32 48 33 49 34
REMARK SMILES IDX 63 36 84 37 51 38 35 39 36 40 44 41 37 42 43 43 45 44 42 45
REMARK SMILES IDX 38 46 39 47 40 48 41 49 67 50 68 51 76 52 69 53 75 54 77 55
REMARK SMILES IDX 74 56 70 57 71 58 72 59 73 60 52 61 53 62 61 63 54 64 60 65
REMARK SMILES IDX 62 66 59 67 55 68 56 69 57 70 58 71 6 72 7 73 8 74 9 76
REMARK SMILES IDX 10 77 11 78 25 79 12 80 13 81 14 82 15 83 16 84 17 85 18 86
REMARK SMILES IDX 19 87 24 88 20 89 22 90 21 91 23 92
REMARK H PARENT 3 6 82 24 50 35 7 75
REMARK Flexibility Score: inf
ROOT
ATOM      1  C   UNL A   1      35.525  22.619  24.250  1.00  0.00     0.042 C 
ENDROOT
BRANCH   1   2
ATOM      2  C   UNL A   1      36.073  22.293  25.635  1.00  0.00     0.118 C 
BRANCH   2   3
ATOM      3  N   UNL A   1      37.037  21.194  25.623  1.00  0.00    -0.352 N 
ATOM      4  O   UNL A   1      39.047  20.185  25.557  1.00  0.00    -0.269 OA
ATOM      5  C   UNL A   1      38.401  21.203  25.793  1.00  0.00     0.251 C 
ATOM      6  H   UNL A   1      36.645  20.304  25.467  1.00  0.00     0.163 HD
BRANCH   5   7
ATOM      7  C   UNL A   1      39.084  22.431  26.248  1.00  0.00     0.039 A 
ATOM      8  C   UNL A   1      38.654  23.681  25.803  1.00  0.00     0.014 A 
ATOM      9  C   UNL A   1      40.158  22.337  27.138  1.00  0.00     0.014 A 
ATOM     10  C   UNL A   1      39.403  24.811  26.096  1.00  0.00     0.010 A 
ATOM     11  C   UNL A   1      40.845  23.494  27.523  1.00  0.00     0.010 A 
ATOM     12  C   UNL A   1      40.494  24.738  26.976  1.00  0.00    -0.014 A 
BRANCH  12  13
ATOM     13  C   UNL A   1      41.203  25.992  27.344  1.00  0.00     0.031 A 
ATOM     14  C   UNL A   1      42.575  26.298  26.808  1.00  0.00     0.074 A 
ATOM     15  C   UNL A   1      40.561  26.886  28.126  1.00  0.00     0.049 A 
ATOM     16  N   UNL A   1      43.317  27.355  27.018  1.00  0.00    -0.248 NA
ATOM     17  C   UNL A   1      43.201  25.294  25.932  1.00  0.00     0.031 C 
ATOM     18  C   UNL A   1      39.224  26.694  28.696  1.00  0.00     0.029 A 
ATOM     19  N   UNL A   1      40.921  28.138  28.551  1.00  0.00    -0.354 N 
ATOM     20  C   UNL A   1      44.498  27.141  26.316  1.00  0.00     0.074 A 
ATOM     21  C   UNL A   1      44.386  25.840  25.692  1.00  0.00     0.031 C 
ATOM     22  C   UNL A   1      38.853  27.810  29.338  1.00  0.00     0.029 A 
ATOM     23  C   UNL A   1      39.955  28.764  29.304  1.00  0.00     0.049 A 
ATOM     24  H   UNL A   1      41.790  28.551  28.339  1.00  0.00     0.167 HD
ATOM     25  C   UNL A   1      45.569  27.962  26.200  1.00  0.00     0.034 A 
ATOM     26  C   UNL A   1      39.956  29.959  29.926  1.00  0.00     0.034 A 
ATOM     27  C   UNL A   1      45.653  29.267  26.808  1.00  0.00     0.049 A 
ATOM     28  C   UNL A   1      41.179  30.825  29.820  1.00  0.00     0.074 A 
ATOM     29  C   UNL A   1      46.682  30.189  26.717  1.00  0.00     0.029 A 
ATOM     30  N   UNL A   1      44.682  29.833  27.622  1.00  0.00    -0.354 N 
ATOM     31  N   UNL A   1      42.289  30.598  29.157  1.00  0.00    -0.248 NA
ATOM     32  C   UNL A   1      41.160  32.100  30.548  1.00  0.00     0.031 C 
ATOM     33  C   UNL A   1      46.365  31.279  27.530  1.00  0.00     0.029 A 
ATOM     34  C   UNL A   1      45.105  31.075  28.068  1.00  0.00     0.049 A 
ATOM     35  H   UNL A   1      43.819  29.415  27.848  1.00  0.00     0.167 HD
ATOM     36  C   UNL A   1      43.096  31.708  29.381  1.00  0.00     0.074 A 
ATOM     37  C   UNL A   1      42.342  32.609  30.228  1.00  0.00     0.031 C 
ATOM     38  C   UNL A   1      44.348  31.956  28.924  1.00  0.00     0.034 A 
BRANCH  25  39
ATOM     39  C   UNL A   1      46.760  27.480  25.413  1.00  0.00     0.023 A 
ATOM     40  C   UNL A   1      46.948  27.826  24.065  1.00  0.00     0.031 A 
ATOM     41  C   UNL A   1      47.767  26.734  26.053  1.00  0.00     0.131 A 
ATOM     42  C   UNL A   1      48.109  27.410  23.395  1.00  0.00     0.055 A 
ATOM     43  C   UNL A   1      48.943  26.370  25.397  1.00  0.00     0.041 A 
ATOM     44  F   UNL A   1      47.631  26.368  27.338  1.00  0.00    -0.206 F 
ATOM     45  C   UNL A   1      49.119  26.707  24.059  1.00  0.00     0.022 A 
BRANCH  42  46
ATOM     46  S   UNL A   1      48.273  27.766  21.624  1.00  0.00     0.124 S 
ATOM     47  O   UNL A   1      49.313  28.790  21.626  1.00  0.00    -0.237 OA
ATOM     48  O   UNL A   1      48.652  26.470  21.074  1.00  0.00    -0.237 OA
ATOM     49  O   UNL A   1      46.942  28.237  21.245  1.00  0.00    -0.744 OA
ENDBRANCH  42  46
ENDBRANCH  25  39
BRANCH  26  50
ATOM     50  C   UNL A   1      38.781  30.372  30.743  1.00  0.00     0.023 A 
ATOM     51  C   UNL A   1      37.741  31.133  30.192  1.00  0.00     0.031 A 
ATOM     52  C   UNL A   1      38.682  29.995  32.096  1.00  0.00     0.131 A 
ATOM     53  C   UNL A   1      36.654  31.511  30.997  1.00  0.00     0.055 A 
ATOM     54  C   UNL A   1      37.578  30.332  32.877  1.00  0.00     0.041 A 
ATOM     55  F   UNL A   1      39.650  29.261  32.668  1.00  0.00    -0.206 F 
ATOM     56  C   UNL A   1      36.558  31.102  32.330  1.00  0.00     0.022 A 
BRANCH  53  57
ATOM     57  S   UNL A   1      35.379  32.589  30.288  1.00  0.00     0.124 S 
ATOM     58  O   UNL A   1      34.975  31.833  29.107  1.00  0.00    -0.237 OA
ATOM     59  O   UNL A   1      34.403  32.659  31.370  1.00  0.00    -0.237 OA
ATOM     60  O   UNL A   1      36.097  33.833  30.018  1.00  0.00    -0.744 OA
ENDBRANCH  53  57
ENDBRANCH  26  50
BRANCH  38  61
ATOM     61  C   UNL A   1      44.980  33.265  29.308  1.00  0.00     0.023 A 
ATOM     62  C   UNL A   1      44.742  34.438  28.572  1.00  0.00     0.031 A 
ATOM     63  C   UNL A   1      45.778  33.351  30.463  1.00  0.00     0.131 A 
ATOM     64  C   UNL A   1      45.315  35.647  28.989  1.00  0.00     0.055 A 
ATOM     65  C   UNL A   1      46.307  34.565  30.898  1.00  0.00     0.041 A 
ATOM     66  F   UNL A   1      46.031  32.257  31.200  1.00  0.00    -0.206 F 
ATOM     67  C   UNL A   1      46.080  35.722  30.158  1.00  0.00     0.022 A 
BRANCH  64  68
ATOM     68  S   UNL A   1      45.071  37.126  27.969  1.00  0.00     0.124 S 
ATOM     69  O   UNL A   1      46.325  37.191  27.226  1.00  0.00    -0.237 OA
ATOM     70  O   UNL A   1      43.887  36.780  27.189  1.00  0.00    -0.237 OA
ATOM     71  O   UNL A   1      44.875  38.191  28.951  1.00  0.00    -0.744 OA
ENDBRANCH  64  68
ENDBRANCH  38  61
ENDBRANCH  12  13
ENDBRANCH   5   7
ENDBRANCH   2   3
ENDBRANCH   1   2
BRANCH   1  72
ATOM     72  C   UNL A   1      34.606  23.832  24.235  1.00  0.00     0.117 C 
BRANCH  72  73
ATOM     73  N   UNL A   1      33.270  23.513  24.703  1.00  0.00    -0.354 N 
ATOM     74  C   UNL A   1      32.211  24.310  24.999  1.00  0.00     0.249 C 
ATOM     75  H   UNL A   1      33.101  22.551  24.827  1.00  0.00     0.163 HD
ATOM     76  O   UNL A   1      31.177  23.756  25.393  1.00  0.00    -0.272 OA
BRANCH  74  77
ATOM     77  C   UNL A   1      32.248  25.841  24.831  1.00  0.00     0.207 C 
ATOM     78  C   UNL A   1      32.760  26.462  26.125  1.00  0.00     0.045 C 
ATOM     79  O   UNL A   1      31.077  26.569  24.495  1.00  0.00    -0.364 OA
ATOM     80  C   UNL A   1      32.345  27.904  25.990  1.00  0.00     0.036 C 
ATOM     81  C   UNL A   1      31.051  27.805  25.204  1.00  0.00     0.134 C 
BRANCH  81  82
ATOM     82  C   UNL A   1      30.673  28.988  24.328  1.00  0.00     0.174 C 
BRANCH  82  83
ATOM     83  S   UNL A   1      29.570  28.736  22.963  1.00  0.00     0.181 S 
ATOM     84  O   UNL A   1      30.312  28.131  21.872  1.00  0.00    -0.224 OA
ATOM     85  O   UNL A   1      28.393  28.080  23.502  1.00  0.00    -0.224 OA
BRANCH  83  86
ATOM     86  C   UNL A   1      28.984  30.307  22.384  1.00  0.00     0.070 A 
ATOM     87  C   UNL A   1      28.412  30.427  21.114  1.00  0.00     0.020 A 
ATOM     88  C   UNL A   1      29.152  31.432  23.196  1.00  0.00     0.059 A 
ATOM     89  C   UNL A   1      27.916  31.663  20.693  1.00  0.00     0.004 A 
ATOM     90  C   UNL A   1      28.692  32.662  22.744  1.00  0.00     0.124 A 
ATOM     91  C   UNL A   1      28.056  32.782  21.512  1.00  0.00     0.039 A 
ATOM     92  F   UNL A   1      28.862  33.753  23.501  1.00  0.00    -0.207 F 
ENDBRANCH  83  86
ENDBRANCH  82  83
ENDBRANCH  81  82
ENDBRANCH  74  77
ENDBRANCH  72  73
ENDBRANCH   1  72
TORSDOF 16
ENDMDL
