MODEL 1
REMARK VINA RESULT:     -13.6      0.000      0.000
REMARK SMILES O=C(CCC(=O)Nc1cccc2c1C(=O)c1ccccc1C2=O)NCCCNC(=O)c1ccc(-c2c3nc(c(-c4cc(S(=O)(=O)[O-])ccc4F)c4ccc([nH]4)c(-c4cc(S(=O)(=O)[O-])ccc4F)c4nc(c(-c5cc(S(=O)(=O)[O-])ccc5F)c5ccc2[nH]5)C=C4)C=C3)cc1
REMARK SMILES IDX 26 1 25 2 24 3 1 4 2 5 3 7 4 8 5 9 6 10 7 11 8 13 9 14 13 15
REMARK SMILES IDX 10 16 12 17 14 18 11 19 22 20 15 21 16 22 21 23 23 24 17 25
REMARK SMILES IDX 20 26 18 27 19 28 27 29 28 30 29 31 30 33 31 34 32 35 93 36
REMARK SMILES IDX 33 37 92 38 34 39 35 40 36 41 86 42 37 43 91 44 85 45 87 46
REMARK SMILES IDX 38 47 90 48 84 49 83 50 39 52 71 53 51 54 70 55 52 56 55 57
REMARK SMILES IDX 69 58 88 59 53 60 54 61 68 63 89 64 56 65 40 66 41 67 49 68
REMARK SMILES IDX 42 69 48 70 50 71 47 72 43 73 44 74 45 75 46 76 72 77 73 78
REMARK SMILES IDX 81 79 74 80 80 81 82 82 79 83 75 84 76 85 77 86 78 87 57 88
REMARK SMILES IDX 58 89 66 90 59 91 65 92 67 93 64 94 60 95 61 96 62 97 63 98
REMARK H PARENT 24 6 7 12 28 32 87 51 55 62
REMARK Flexibility Score: inf
ROOT
ATOM      1  C   UNL A   1      36.055  21.562  24.451  1.00  0.00     0.042 C 
ENDROOT
BRANCH   1   2
ATOM      2  C   UNL A   1      34.745  21.201  25.113  1.00  0.00     0.117 C 
BRANCH   2   3
ATOM      3  N   UNL A   1      33.774  20.465  24.335  1.00  0.00    -0.356 N 
ATOM      4  O   UNL A   1      31.708  20.987  25.219  1.00  0.00    -0.275 OA
ATOM      5  C   UNL A   1      32.485  20.953  24.274  1.00  0.00     0.220 C 
ATOM      6  H   UNL A   1      34.026  19.638  23.862  1.00  0.00     0.163 HD
BRANCH   5   7
ATOM      7  C   UNL A   1      32.159  21.675  22.991  1.00  0.00     0.110 C 
BRANCH   7   8
ATOM      8  C   UNL A   1      31.878  23.150  23.332  1.00  0.00     0.110 C 
BRANCH   8   9
ATOM      9  C   UNL A   1      32.844  24.032  22.594  1.00  0.00     0.224 C 
ATOM     10  O   UNL A   1      33.374  23.603  21.557  1.00  0.00    -0.275 OA
ATOM     11  N   UNL A   1      33.177  25.302  22.926  1.00  0.00    -0.325 N 
ATOM     12  H   UNL A   1      33.806  25.660  22.258  1.00  0.00     0.169 HD
BRANCH  11  13
ATOM     13  C   UNL A   1      32.925  26.290  23.913  1.00  0.00     0.053 A 
ATOM     14  C   UNL A   1      33.823  26.147  24.995  1.00  0.00     0.027 A 
ATOM     15  C   UNL A   1      32.001  27.357  23.988  1.00  0.00     0.057 A 
ATOM     16  C   UNL A   1      33.898  27.071  26.035  1.00  0.00     0.003 A 
ATOM     17  C   UNL A   1      32.179  28.361  24.963  1.00  0.00     0.036 A 
ATOM     18  C   UNL A   1      30.566  27.280  23.611  1.00  0.00     0.196 C 
ATOM     19  C   UNL A   1      33.114  28.211  25.990  1.00  0.00     0.013 A 
ATOM     20  C   UNL A   1      31.328  29.581  24.957  1.00  0.00     0.194 C 
ATOM     21  O   UNL A   1      29.926  26.267  23.857  1.00  0.00    -0.288 OA
ATOM     22  C   UNL A   1      29.808  28.510  23.346  1.00  0.00     0.034 A 
ATOM     23  C   UNL A   1      30.206  29.665  24.005  1.00  0.00     0.034 A 
ATOM     24  O   UNL A   1      31.569  30.512  25.716  1.00  0.00    -0.289 OA
ATOM     25  C   UNL A   1      28.631  28.506  22.592  1.00  0.00     0.013 A 
ATOM     26  C   UNL A   1      29.482  30.851  23.842  1.00  0.00     0.013 A 
ATOM     27  C   UNL A   1      27.915  29.689  22.412  1.00  0.00     0.001 A 
ATOM     28  C   UNL A   1      28.348  30.865  23.025  1.00  0.00     0.001 A 
ENDBRANCH  11  13
ENDBRANCH   8   9
ENDBRANCH   7   8
ENDBRANCH   5   7
ENDBRANCH   2   3
ENDBRANCH   1   2
BRANCH   1  29
ATOM     29  C   UNL A   1      37.135  21.769  25.480  1.00  0.00     0.118 C 
BRANCH  29  30
ATOM     30  N   UNL A   1      38.140  20.702  25.501  1.00  0.00    -0.352 N 
ATOM     31  C   UNL A   1      39.393  20.735  26.078  1.00  0.00     0.251 C 
ATOM     32  H   UNL A   1      37.893  19.863  25.050  1.00  0.00     0.163 HD
ATOM     33  O   UNL A   1      40.159  19.793  25.973  1.00  0.00    -0.269 OA
BRANCH  31  34
ATOM     34  C   UNL A   1      39.793  21.991  26.744  1.00  0.00     0.039 A 
ATOM     35  C   UNL A   1      40.806  21.953  27.703  1.00  0.00     0.014 A 
ATOM     36  C   UNL A   1      39.310  23.204  26.259  1.00  0.00     0.014 A 
ATOM     37  C   UNL A   1      41.410  23.148  28.096  1.00  0.00     0.010 A 
ATOM     38  C   UNL A   1      40.016  24.362  26.531  1.00  0.00     0.010 A 
ATOM     39  C   UNL A   1      41.065  24.353  27.463  1.00  0.00    -0.014 A 
BRANCH  39  40
ATOM     40  C   UNL A   1      41.737  25.640  27.769  1.00  0.00     0.031 A 
ATOM     41  C   UNL A   1      40.978  26.681  28.549  1.00  0.00     0.074 A 
ATOM     42  C   UNL A   1      42.953  25.917  27.257  1.00  0.00     0.049 A 
ATOM     43  N   UNL A   1      41.251  27.944  28.737  1.00  0.00    -0.248 NA
ATOM     44  C   UNL A   1      39.694  26.253  29.131  1.00  0.00     0.031 C 
ATOM     45  C   UNL A   1      43.760  25.011  26.436  1.00  0.00     0.029 A 
ATOM     46  N   UNL A   1      43.719  27.053  27.342  1.00  0.00    -0.354 N 
ATOM     47  C   UNL A   1      40.148  28.470  29.402  1.00  0.00     0.074 A 
ATOM     48  C   UNL A   1      39.173  27.408  29.507  1.00  0.00     0.031 C 
ATOM     49  C   UNL A   1      44.921  25.613  26.124  1.00  0.00     0.029 A 
ATOM     50  C   UNL A   1      44.917  26.965  26.671  1.00  0.00     0.049 A 
ATOM     51  H   UNL A   1      43.436  27.856  27.835  1.00  0.00     0.167 HD
ATOM     52  C   UNL A   1      39.980  29.714  29.910  1.00  0.00     0.034 A 
ATOM     53  C   UNL A   1      45.894  27.880  26.507  1.00  0.00     0.034 A 
ATOM     54  C   UNL A   1      40.999  30.729  29.857  1.00  0.00     0.049 A 
ATOM     55  C   UNL A   1      45.710  29.244  27.124  1.00  0.00     0.074 A 
ATOM     56  C   UNL A   1      40.986  31.998  30.405  1.00  0.00     0.029 A 
ATOM     57  N   UNL A   1      42.229  30.580  29.226  1.00  0.00    -0.354 N 
ATOM     58  N   UNL A   1      44.677  29.720  27.782  1.00  0.00    -0.248 NA
ATOM     59  C   UNL A   1      46.823  30.192  26.986  1.00  0.00     0.031 C 
ATOM     60  C   UNL A   1      42.187  32.632  30.069  1.00  0.00     0.029 A 
ATOM     61  C   UNL A   1      42.977  31.736  29.365  1.00  0.00     0.049 A 
ATOM     62  H   UNL A   1      42.524  29.770  28.750  1.00  0.00     0.167 HD
ATOM     63  C   UNL A   1      45.032  31.009  28.165  1.00  0.00     0.074 A 
ATOM     64  C   UNL A   1      46.375  31.235  27.669  1.00  0.00     0.031 C 
ATOM     65  C   UNL A   1      44.318  31.925  28.869  1.00  0.00     0.034 A 
BRANCH  52  66
ATOM     66  C   UNL A   1      38.650  30.027  30.555  1.00  0.00     0.023 A 
ATOM     67  C   UNL A   1      37.616  30.664  29.846  1.00  0.00     0.031 A 
ATOM     68  C   UNL A   1      38.432  29.741  31.914  1.00  0.00     0.131 A 
ATOM     69  C   UNL A   1      36.461  31.088  30.518  1.00  0.00     0.055 A 
ATOM     70  C   UNL A   1      37.238  30.078  32.554  1.00  0.00     0.041 A 
ATOM     71  F   UNL A   1      39.387  29.152  32.651  1.00  0.00    -0.206 F 
ATOM     72  C   UNL A   1      36.251  30.774  31.861  1.00  0.00     0.022 A 
BRANCH  69  73
ATOM     73  S   UNL A   1      35.319  32.200  29.652  1.00  0.00     0.124 S 
ATOM     74  O   UNL A   1      36.225  33.253  29.197  1.00  0.00    -0.237 OA
ATOM     75  O   UNL A   1      34.766  31.340  28.612  1.00  0.00    -0.237 OA
ATOM     76  O   UNL A   1      34.379  32.605  30.694  1.00  0.00    -0.744 OA
ENDBRANCH  69  73
ENDBRANCH  52  66
BRANCH  53  77
ATOM     77  C   UNL A   1      47.127  27.547  25.740  1.00  0.00     0.023 A 
ATOM     78  C   UNL A   1      47.226  27.846  24.371  1.00  0.00     0.031 A 
ATOM     79  C   UNL A   1      48.214  26.897  26.352  1.00  0.00     0.131 A 
ATOM     80  C   UNL A   1      48.364  27.455  23.648  1.00  0.00     0.055 A 
ATOM     81  C   UNL A   1      49.366  26.555  25.639  1.00  0.00     0.041 A 
ATOM     82  F   UNL A   1      48.177  26.595  27.659  1.00  0.00    -0.206 F 
ATOM     83  C   UNL A   1      49.439  26.822  24.275  1.00  0.00     0.022 A 
BRANCH  80  84
ATOM     84  S   UNL A   1      48.384  27.717  21.853  1.00  0.00     0.124 S 
ATOM     85  O   UNL A   1      47.061  28.285  21.621  1.00  0.00    -0.237 OA
ATOM     86  O   UNL A   1      49.512  28.629  21.692  1.00  0.00    -0.237 OA
ATOM     87  O   UNL A   1      48.589  26.374  21.315  1.00  0.00    -0.744 OA
ENDBRANCH  80  84
ENDBRANCH  53  77
BRANCH  65  88
ATOM     88  C   UNL A   1      45.005  33.223  29.200  1.00  0.00     0.023 A 
ATOM     89  C   UNL A   1      44.884  34.356  28.378  1.00  0.00     0.031 A 
ATOM     90  C   UNL A   1      45.771  33.328  30.375  1.00  0.00     0.131 A 
ATOM     91  C   UNL A   1      45.551  35.539  28.725  1.00  0.00     0.055 A 
ATOM     92  C   UNL A   1      46.391  34.521  30.740  1.00  0.00     0.041 A 
ATOM     93  F   UNL A   1      45.914  32.273  31.193  1.00  0.00    -0.206 F 
ATOM     94  C   UNL A   1      46.290  35.634  29.909  1.00  0.00     0.022 A 
BRANCH  91  95
ATOM     95  S   UNL A   1      45.487  36.943  27.581  1.00  0.00     0.124 S 
ATOM     96  O   UNL A   1      45.705  38.074  28.476  1.00  0.00    -0.237 OA
ATOM     97  O   UNL A   1      46.574  36.643  26.654  1.00  0.00    -0.237 OA
ATOM     98  O   UNL A   1      44.145  36.856  27.005  1.00  0.00    -0.744 OA
ENDBRANCH  91  95
ENDBRANCH  65  88
ENDBRANCH  39  40
ENDBRANCH  31  34
ENDBRANCH  29  30
ENDBRANCH   1  29
TORSDOF 16
ENDMDL
MODEL 2
REMARK VINA RESULT:     -13.4      4.933      8.378
REMARK SMILES O=C(CCC(=O)Nc1cccc2c1C(=O)c1ccccc1C2=O)NCCCNC(=O)c1ccc(-c2c3nc(c(-c4cc(S(=O)(=O)[O-])ccc4F)c4ccc([nH]4)c(-c4cc(S(=O)(=O)[O-])ccc4F)c4nc(c(-c5cc(S(=O)(=O)[O-])ccc5F)c5ccc2[nH]5)C=C4)C=C3)cc1
REMARK SMILES IDX 26 1 25 2 24 3 1 4 2 5 3 7 4 8 5 9 6 10 7 11 8 13 9 14 13 15
REMARK SMILES IDX 10 16 12 17 14 18 11 19 22 20 15 21 16 22 21 23 23 24 17 25
REMARK SMILES IDX 20 26 18 27 19 28 27 29 28 30 29 31 30 33 31 34 32 35 93 36
REMARK SMILES IDX 33 37 92 38 34 39 35 40 36 41 86 42 37 43 91 44 85 45 87 46
REMARK SMILES IDX 38 47 90 48 84 49 83 50 39 52 71 53 51 54 70 55 52 56 55 57
REMARK SMILES IDX 69 58 88 59 53 60 54 61 68 63 89 64 56 65 40 66 41 67 49 68
REMARK SMILES IDX 42 69 48 70 50 71 47 72 43 73 44 74 45 75 46 76 72 77 73 78
REMARK SMILES IDX 81 79 74 80 80 81 82 82 79 83 75 84 76 85 77 86 78 87 57 88
REMARK SMILES IDX 58 89 66 90 59 91 65 92 67 93 64 94 60 95 61 96 62 97 63 98
REMARK H PARENT 24 6 7 12 28 32 87 51 55 62
REMARK Flexibility Score: inf
ROOT
ATOM      1  C   UNL A   1      31.749  29.139  25.943  1.00  0.00     0.042 C 
ENDROOT
BRANCH   1   2
ATOM      2  C   UNL A   1      31.244  28.894  24.540  1.00  0.00     0.117 C 
BRANCH   2   3
ATOM      3  N   UNL A   1      30.530  27.664  24.282  1.00  0.00    -0.356 N 
ATOM      4  O   UNL A   1      30.617  27.331  22.001  1.00  0.00    -0.275 OA
ATOM      5  C   UNL A   1      30.848  26.955  23.143  1.00  0.00     0.220 C 
ATOM      6  H   UNL A   1      29.837  27.341  24.903  1.00  0.00     0.163 HD
BRANCH   5   7
ATOM      7  C   UNL A   1      31.729  25.756  23.387  1.00  0.00     0.110 C 
BRANCH   7   8
ATOM      8  C   UNL A   1      30.856  24.637  23.985  1.00  0.00     0.110 C 
BRANCH   8   9
ATOM      9  C   UNL A   1      31.142  24.504  25.454  1.00  0.00     0.224 C 
ATOM     10  O   UNL A   1      30.279  24.868  26.267  1.00  0.00    -0.275 OA
ATOM     11  N   UNL A   1      32.261  23.974  26.003  1.00  0.00    -0.325 N 
ATOM     12  H   UNL A   1      32.178  23.981  26.985  1.00  0.00     0.169 HD
BRANCH  11  13
ATOM     13  C   UNL A   1      33.513  23.414  25.640  1.00  0.00     0.053 A 
ATOM     14  C   UNL A   1      34.536  24.384  25.740  1.00  0.00     0.027 A 
ATOM     15  C   UNL A   1      33.903  22.114  25.245  1.00  0.00     0.057 A 
ATOM     16  C   UNL A   1      35.885  24.071  25.585  1.00  0.00     0.003 A 
ATOM     17  C   UNL A   1      35.274  21.775  25.232  1.00  0.00     0.036 A 
ATOM     18  C   UNL A   1      33.169  21.250  24.285  1.00  0.00     0.196 C 
ATOM     19  C   UNL A   1      36.259  22.753  25.387  1.00  0.00     0.013 A 
ATOM     20  C   UNL A   1      35.704  20.373  24.988  1.00  0.00     0.194 C 
ATOM     21  O   UNL A   1      32.632  21.749  23.306  1.00  0.00    -0.288 OA
ATOM     22  C   UNL A   1      33.426  19.804  24.252  1.00  0.00     0.034 A 
ATOM     23  C   UNL A   1      34.689  19.367  24.625  1.00  0.00     0.034 A 
ATOM     24  O   UNL A   1      36.880  20.052  25.110  1.00  0.00    -0.289 OA
ATOM     25  C   UNL A   1      32.505  18.902  23.713  1.00  0.00     0.013 A 
ATOM     26  C   UNL A   1      35.012  18.008  24.550  1.00  0.00     0.013 A 
ATOM     27  C   UNL A   1      32.814  17.543  23.652  1.00  0.00     0.001 A 
ATOM     28  C   UNL A   1      34.063  17.094  24.084  1.00  0.00     0.001 A 
ENDBRANCH  11  13
ENDBRANCH   8   9
ENDBRANCH   7   8
ENDBRANCH   5   7
ENDBRANCH   2   3
ENDBRANCH   1   2
BRANCH   1  29
ATOM     29  C   UNL A   1      32.926  30.078  25.931  1.00  0.00     0.118 C 
BRANCH  29  30
ATOM     30  N   UNL A   1      32.649  31.378  26.551  1.00  0.00    -0.352 N 
ATOM     31  C   UNL A   1      33.465  32.100  27.396  1.00  0.00     0.251 C 
ATOM     32  H   UNL A   1      31.777  31.783  26.339  1.00  0.00     0.163 HD
ATOM     33  O   UNL A   1      33.088  33.148  27.892  1.00  0.00    -0.269 OA
BRANCH  31  34
ATOM     34  C   UNL A   1      34.770  31.503  27.744  1.00  0.00     0.039 A 
ATOM     35  C   UNL A   1      35.852  32.345  28.001  1.00  0.00     0.014 A 
ATOM     36  C   UNL A   1      34.846  30.138  28.013  1.00  0.00     0.014 A 
ATOM     37  C   UNL A   1      36.980  31.825  28.635  1.00  0.00     0.010 A 
ATOM     38  C   UNL A   1      35.894  29.664  28.780  1.00  0.00     0.010 A 
ATOM     39  C   UNL A   1      36.981  30.496  29.089  1.00  0.00    -0.014 A 
BRANCH  39  40
ATOM     40  C   UNL A   1      38.112  29.911  29.853  1.00  0.00     0.031 A 
ATOM     41  C   UNL A   1      38.324  30.356  31.276  1.00  0.00     0.074 A 
ATOM     42  C   UNL A   1      38.997  29.094  29.249  1.00  0.00     0.049 A 
ATOM     43  N   UNL A   1      39.354  30.175  32.060  1.00  0.00    -0.248 NA
ATOM     44  C   UNL A   1      37.260  31.184  31.868  1.00  0.00     0.031 C 
ATOM     45  C   UNL A   1      38.930  28.641  27.858  1.00  0.00     0.029 A 
ATOM     46  N   UNL A   1      40.142  28.509  29.730  1.00  0.00    -0.354 N 
ATOM     47  C   UNL A   1      39.085  30.917  33.206  1.00  0.00     0.074 A 
ATOM     48  C   UNL A   1      37.838  31.612  32.977  1.00  0.00     0.031 C 
ATOM     49  C   UNL A   1      39.965  27.821  27.609  1.00  0.00     0.029 A 
ATOM     50  C   UNL A   1      40.801  27.735  28.802  1.00  0.00     0.049 A 
ATOM     51  H   UNL A   1      40.462  28.631  30.652  1.00  0.00     0.167 HD
ATOM     52  C   UNL A   1      39.795  30.983  34.358  1.00  0.00     0.034 A 
ATOM     53  C   UNL A   1      41.957  27.048  28.902  1.00  0.00     0.034 A 
ATOM     54  C   UNL A   1      40.994  30.219  34.586  1.00  0.00     0.049 A 
ATOM     55  C   UNL A   1      42.707  27.093  30.210  1.00  0.00     0.074 A 
ATOM     56  C   UNL A   1      41.758  30.133  35.735  1.00  0.00     0.029 A 
ATOM     57  N   UNL A   1      41.595  29.394  33.643  1.00  0.00    -0.354 N 
ATOM     58  N   UNL A   1      42.425  27.769  31.300  1.00  0.00    -0.248 NA
ATOM     59  C   UNL A   1      43.924  26.277  30.306  1.00  0.00     0.031 C 
ATOM     60  C   UNL A   1      42.844  29.291  35.474  1.00  0.00     0.029 A 
ATOM     61  C   UNL A   1      42.724  28.802  34.182  1.00  0.00     0.049 A 
ATOM     62  H   UNL A   1      41.266  29.251  32.726  1.00  0.00     0.167 HD
ATOM     63  C   UNL A   1      43.411  27.432  32.222  1.00  0.00     0.074 A 
ATOM     64  C   UNL A   1      44.292  26.489  31.562  1.00  0.00     0.031 C 
ATOM     65  C   UNL A   1      43.574  27.856  33.501  1.00  0.00     0.034 A 
BRANCH  52  66
ATOM     66  C   UNL A   1      39.285  31.910  35.436  1.00  0.00     0.023 A 
ATOM     67  C   UNL A   1      39.731  33.239  35.540  1.00  0.00     0.031 A 
ATOM     68  C   UNL A   1      38.387  31.442  36.412  1.00  0.00     0.131 A 
ATOM     69  C   UNL A   1      39.366  34.018  36.647  1.00  0.00     0.055 A 
ATOM     70  C   UNL A   1      37.948  32.256  37.458  1.00  0.00     0.041 A 
ATOM     71  F   UNL A   1      37.938  30.178  36.379  1.00  0.00    -0.206 F 
ATOM     72  C   UNL A   1      38.455  33.546  37.593  1.00  0.00     0.022 A 
BRANCH  69  73
ATOM     73  S   UNL A   1      40.231  35.589  36.919  1.00  0.00     0.124 S 
ATOM     74  O   UNL A   1      39.864  35.889  38.302  1.00  0.00    -0.237 OA
ATOM     75  O   UNL A   1      41.626  35.226  36.693  1.00  0.00    -0.237 OA
ATOM     76  O   UNL A   1      39.647  36.480  35.920  1.00  0.00    -0.744 OA
ENDBRANCH  69  73
ENDBRANCH  52  66
BRANCH  53  77
ATOM     77  C   UNL A   1      42.475  26.259  27.749  1.00  0.00     0.023 A 
ATOM     78  C   UNL A   1      42.015  24.954  27.505  1.00  0.00     0.031 A 
ATOM     79  C   UNL A   1      43.458  26.780  26.891  1.00  0.00     0.131 A 
ATOM     80  C   UNL A   1      42.570  24.198  26.461  1.00  0.00     0.055 A 
ATOM     81  C   UNL A   1      43.972  26.042  25.822  1.00  0.00     0.041 A 
ATOM     82  F   UNL A   1      43.928  28.025  27.072  1.00  0.00    -0.206 F 
ATOM     83  C   UNL A   1      43.537  24.737  25.611  1.00  0.00     0.022 A 
BRANCH  80  84
ATOM     84  S   UNL A   1      42.063  22.465  26.280  1.00  0.00     0.124 S 
ATOM     85  O   UNL A   1      42.664  21.855  27.460  1.00  0.00    -0.237 OA
ATOM     86  O   UNL A   1      40.608  22.572  26.283  1.00  0.00    -0.237 OA
ATOM     87  O   UNL A   1      42.655  22.069  25.003  1.00  0.00    -0.744 OA
ENDBRANCH  80  84
ENDBRANCH  53  77
BRANCH  65  88
ATOM     88  C   UNL A   1      44.707  27.249  34.286  1.00  0.00     0.023 A 
ATOM     89  C   UNL A   1      44.590  25.994  34.905  1.00  0.00     0.031 A 
ATOM     90  C   UNL A   1      45.931  27.934  34.388  1.00  0.00     0.131 A 
ATOM     91  C   UNL A   1      45.670  25.476  35.632  1.00  0.00     0.055 A 
ATOM     92  C   UNL A   1      47.017  27.392  35.072  1.00  0.00     0.041 A 
ATOM     93  F   UNL A   1      46.091  29.136  33.813  1.00  0.00    -0.206 F 
ATOM     94  C   UNL A   1      46.888  26.159  35.706  1.00  0.00     0.022 A 
BRANCH  91  95
ATOM     95  S   UNL A   1      45.448  23.917  36.531  1.00  0.00     0.124 S 
ATOM     96  O   UNL A   1      45.276  24.380  37.903  1.00  0.00    -0.237 OA
ATOM     97  O   UNL A   1      44.262  23.354  35.894  1.00  0.00    -0.237 OA
ATOM     98  O   UNL A   1      46.691  23.192  36.271  1.00  0.00    -0.744 OA
ENDBRANCH  91  95
ENDBRANCH  65  88
ENDBRANCH  39  40
ENDBRANCH  31  34
ENDBRANCH  29  30
ENDBRANCH   1  29
TORSDOF 16
ENDMDL
MODEL 3
REMARK VINA RESULT:     -13.4      5.126     10.637
REMARK SMILES O=C(CCC(=O)Nc1cccc2c1C(=O)c1ccccc1C2=O)NCCCNC(=O)c1ccc(-c2c3nc(c(-c4cc(S(=O)(=O)[O-])ccc4F)c4ccc([nH]4)c(-c4cc(S(=O)(=O)[O-])ccc4F)c4nc(c(-c5cc(S(=O)(=O)[O-])ccc5F)c5ccc2[nH]5)C=C4)C=C3)cc1
REMARK SMILES IDX 26 1 25 2 24 3 1 4 2 5 3 7 4 8 5 9 6 10 7 11 8 13 9 14 13 15
REMARK SMILES IDX 10 16 12 17 14 18 11 19 22 20 15 21 16 22 21 23 23 24 17 25
REMARK SMILES IDX 20 26 18 27 19 28 27 29 28 30 29 31 30 33 31 34 32 35 93 36
REMARK SMILES IDX 33 37 92 38 34 39 35 40 36 41 86 42 37 43 91 44 85 45 87 46
REMARK SMILES IDX 38 47 90 48 84 49 83 50 39 52 71 53 51 54 70 55 52 56 55 57
REMARK SMILES IDX 69 58 88 59 53 60 54 61 68 63 89 64 56 65 40 66 41 67 49 68
REMARK SMILES IDX 42 69 48 70 50 71 47 72 43 73 44 74 45 75 46 76 72 77 73 78
REMARK SMILES IDX 81 79 74 80 80 81 82 82 79 83 75 84 76 85 77 86 78 87 57 88
REMARK SMILES IDX 58 89 66 90 59 91 65 92 67 93 64 94 60 95 61 96 62 97 63 98
REMARK H PARENT 24 6 7 12 28 32 87 51 55 62
REMARK Flexibility Score: inf
ROOT
ATOM      1  C   UNL A   1      31.482  29.277  27.077  1.00  0.00     0.042 C 
ENDROOT
BRANCH   1   2
ATOM      2  C   UNL A   1      31.974  27.849  27.052  1.00  0.00     0.117 C 
BRANCH   2   3
ATOM      3  N   UNL A   1      31.040  26.817  26.660  1.00  0.00    -0.356 N 
ATOM      4  O   UNL A   1      30.310  27.376  24.544  1.00  0.00    -0.275 OA
ATOM      5  C   UNL A   1      30.850  26.591  25.312  1.00  0.00     0.220 C 
ATOM      6  H   UNL A   1      30.554  26.290  27.336  1.00  0.00     0.163 HD
BRANCH   5   7
ATOM      7  C   UNL A   1      31.573  25.379  24.782  1.00  0.00     0.110 C 
BRANCH   7   8
ATOM      8  C   UNL A   1      30.718  24.138  25.095  1.00  0.00     0.110 C 
BRANCH   8   9
ATOM      9  C   UNL A   1      31.064  23.618  26.461  1.00  0.00     0.224 C 
ATOM     10  O   UNL A   1      30.234  23.738  27.375  1.00  0.00    -0.275 OA
ATOM     11  N   UNL A   1      32.205  22.974  26.803  1.00  0.00    -0.325 N 
ATOM     12  H   UNL A   1      32.163  22.714  27.752  1.00  0.00     0.169 HD
BRANCH  11  13
ATOM     13  C   UNL A   1      33.442  22.548  26.254  1.00  0.00     0.053 A 
ATOM     14  C   UNL A   1      34.421  23.556  26.400  1.00  0.00     0.027 A 
ATOM     15  C   UNL A   1      33.856  21.342  25.644  1.00  0.00     0.057 A 
ATOM     16  C   UNL A   1      35.762  23.353  26.082  1.00  0.00     0.003 A 
ATOM     17  C   UNL A   1      35.233  21.094  25.460  1.00  0.00     0.036 A 
ATOM     18  C   UNL A   1      33.075  20.574  24.639  1.00  0.00     0.196 C 
ATOM     19  C   UNL A   1      36.180  22.100  25.665  1.00  0.00     0.013 A 
ATOM     20  C   UNL A   1      35.707  19.768  24.981  1.00  0.00     0.194 C 
ATOM     21  O   UNL A   1      32.422  21.168  23.793  1.00  0.00    -0.288 OA
ATOM     22  C   UNL A   1      33.399  19.165  24.377  1.00  0.00     0.034 A 
ATOM     23  C   UNL A   1      34.712  18.760  24.570  1.00  0.00     0.034 A 
ATOM     24  O   UNL A   1      36.903  19.507  24.951  1.00  0.00    -0.289 OA
ATOM     25  C   UNL A   1      32.475  18.290  23.799  1.00  0.00     0.013 A 
ATOM     26  C   UNL A   1      35.092  17.447  24.273  1.00  0.00     0.013 A 
ATOM     27  C   UNL A   1      32.844  16.974  23.517  1.00  0.00     0.001 A 
ATOM     28  C   UNL A   1      34.149  16.549  23.768  1.00  0.00     0.001 A 
ENDBRANCH  11  13
ENDBRANCH   8   9
ENDBRANCH   7   8
ENDBRANCH   5   7
ENDBRANCH   2   3
ENDBRANCH   1   2
BRANCH   1  29
ATOM     29  C   UNL A   1      32.567  30.224  26.637  1.00  0.00     0.118 C 
BRANCH  29  30
ATOM     30  N   UNL A   1      32.288  31.628  26.956  1.00  0.00    -0.352 N 
ATOM     31  C   UNL A   1      33.146  32.552  27.513  1.00  0.00     0.251 C 
ATOM     32  H   UNL A   1      31.380  31.948  26.749  1.00  0.00     0.163 HD
ATOM     33  O   UNL A   1      32.769  33.680  27.782  1.00  0.00    -0.269 OA
BRANCH  31  34
ATOM     34  C   UNL A   1      34.507  32.089  27.850  1.00  0.00     0.039 A 
ATOM     35  C   UNL A   1      35.526  33.031  27.991  1.00  0.00     0.014 A 
ATOM     36  C   UNL A   1      34.703  30.761  28.224  1.00  0.00     0.014 A 
ATOM     37  C   UNL A   1      36.715  32.654  28.616  1.00  0.00     0.010 A 
ATOM     38  C   UNL A   1      35.813  30.435  28.981  1.00  0.00     0.010 A 
ATOM     39  C   UNL A   1      36.840  31.371  29.174  1.00  0.00    -0.014 A 
BRANCH  39  40
ATOM     40  C   UNL A   1      38.042  30.941  29.933  1.00  0.00     0.031 A 
ATOM     41  C   UNL A   1      38.981  29.952  29.294  1.00  0.00     0.074 A 
ATOM     42  C   UNL A   1      38.223  31.335  31.210  1.00  0.00     0.049 A 
ATOM     43  N   UNL A   1      39.949  29.258  29.829  1.00  0.00    -0.248 NA
ATOM     44  C   UNL A   1      38.741  29.649  27.873  1.00  0.00     0.031 C 
ATOM     45  C   UNL A   1      37.348  32.242  31.956  1.00  0.00     0.029 A 
ATOM     46  N   UNL A   1      39.202  31.005  32.114  1.00  0.00    -0.354 N 
ATOM     47  C   UNL A   1      40.388  28.397  28.828  1.00  0.00     0.074 A 
ATOM     48  C   UNL A   1      39.525  28.601  27.687  1.00  0.00     0.031 C 
ATOM     49  C   UNL A   1      37.850  32.425  33.189  1.00  0.00     0.029 A 
ATOM     50  C   UNL A   1      39.046  31.605  33.342  1.00  0.00     0.049 A 
ATOM     51  H   UNL A   1      39.945  30.396  31.903  1.00  0.00     0.167 HD
ATOM     52  C   UNL A   1      41.438  27.542  28.848  1.00  0.00     0.034 A 
ATOM     53  C   UNL A   1      39.781  31.491  34.467  1.00  0.00     0.034 A 
ATOM     54  C   UNL A   1      42.327  27.415  29.973  1.00  0.00     0.049 A 
ATOM     55  C   UNL A   1      40.977  30.572  34.454  1.00  0.00     0.074 A 
ATOM     56  C   UNL A   1      43.472  26.650  30.089  1.00  0.00     0.029 A 
ATOM     57  N   UNL A   1      42.175  28.091  31.179  1.00  0.00    -0.354 N 
ATOM     58  N   UNL A   1      41.404  29.788  33.490  1.00  0.00    -0.248 NA
ATOM     59  C   UNL A   1      41.794  30.526  35.673  1.00  0.00     0.031 C 
ATOM     60  C   UNL A   1      43.988  26.827  31.377  1.00  0.00     0.029 A 
ATOM     61  C   UNL A   1      43.200  27.753  32.044  1.00  0.00     0.049 A 
ATOM     62  H   UNL A   1      41.445  28.718  31.386  1.00  0.00     0.167 HD
ATOM     63  C   UNL A   1      42.560  29.185  33.976  1.00  0.00     0.074 A 
ATOM     64  C   UNL A   1      42.764  29.698  35.315  1.00  0.00     0.031 C 
ATOM     65  C   UNL A   1      43.383  28.291  33.370  1.00  0.00     0.034 A 
BRANCH  52  66
ATOM     66  C   UNL A   1      41.663  26.690  27.622  1.00  0.00     0.023 A 
ATOM     67  C   UNL A   1      41.206  25.362  27.549  1.00  0.00     0.031 A 
ATOM     68  C   UNL A   1      42.399  27.189  26.532  1.00  0.00     0.131 A 
ATOM     69  C   UNL A   1      41.576  24.550  26.468  1.00  0.00     0.055 A 
ATOM     70  C   UNL A   1      42.679  26.404  25.412  1.00  0.00     0.041 A 
ATOM     71  F   UNL A   1      42.879  28.443  26.547  1.00  0.00    -0.206 F 
ATOM     72  C   UNL A   1      42.285  25.069  25.384  1.00  0.00     0.022 A 
BRANCH  69  73
ATOM     73  S   UNL A   1      41.261  22.767  26.581  1.00  0.00     0.124 S 
ATOM     74  O   UNL A   1      42.115  22.251  25.513  1.00  0.00    -0.237 OA
ATOM     75  O   UNL A   1      41.684  22.457  27.942  1.00  0.00    -0.237 OA
ATOM     76  O   UNL A   1      39.826  22.655  26.332  1.00  0.00    -0.744 OA
ENDBRANCH  69  73
ENDBRANCH  52  66
BRANCH  53  77
ATOM     77  C   UNL A   1      39.421  32.262  35.691  1.00  0.00     0.023 A 
ATOM     78  C   UNL A   1      38.637  31.682  36.702  1.00  0.00     0.031 A 
ATOM     79  C   UNL A   1      39.827  33.597  35.859  1.00  0.00     0.131 A 
ATOM     80  C   UNL A   1      38.244  32.447  37.812  1.00  0.00     0.055 A 
ATOM     81  C   UNL A   1      39.475  34.340  36.989  1.00  0.00     0.041 A 
ATOM     82  F   UNL A   1      40.585  34.198  34.928  1.00  0.00    -0.206 F 
ATOM     83  C   UNL A   1      38.667  33.768  37.967  1.00  0.00     0.022 A 
BRANCH  80  84
ATOM     84  S   UNL A   1      37.101  31.711  39.013  1.00  0.00     0.124 S 
ATOM     85  O   UNL A   1      36.921  30.370  38.469  1.00  0.00    -0.237 OA
ATOM     86  O   UNL A   1      37.863  31.803  40.253  1.00  0.00    -0.237 OA
ATOM     87  O   UNL A   1      35.926  32.576  38.940  1.00  0.00    -0.744 OA
ENDBRANCH  80  84
ENDBRANCH  53  77
BRANCH  65  88
ATOM     88  C   UNL A   1      44.614  27.870  34.128  1.00  0.00     0.023 A 
ATOM     89  C   UNL A   1      44.623  26.733  34.953  1.00  0.00     0.031 A 
ATOM     90  C   UNL A   1      45.803  28.610  33.996  1.00  0.00     0.131 A 
ATOM     91  C   UNL A   1      45.792  26.388  35.645  1.00  0.00     0.055 A 
ATOM     92  C   UNL A   1      46.975  28.233  34.648  1.00  0.00     0.041 A 
ATOM     93  F   UNL A   1      45.843  29.703  33.218  1.00  0.00    -0.206 F 
ATOM     94  C   UNL A   1      46.972  27.121  35.485  1.00  0.00     0.022 A 
BRANCH  91  95
ATOM     95  S   UNL A   1      45.739  24.995  36.805  1.00  0.00     0.124 S 
ATOM     96  O   UNL A   1      44.336  24.600  36.740  1.00  0.00    -0.237 OA
ATOM     97  O   UNL A   1      46.693  24.061  36.216  1.00  0.00    -0.237 OA
ATOM     98  O   UNL A   1      46.159  25.589  38.073  1.00  0.00    -0.744 OA
ENDBRANCH  91  95
ENDBRANCH  65  88
ENDBRANCH  39  40
ENDBRANCH  31  34
ENDBRANCH  29  30
ENDBRANCH   1  29
TORSDOF 16
ENDMDL
