MODEL 1
REMARK VINA RESULT:     -12.9      0.000      0.000
REMARK SMILES O=C(NCCCNC(=O)c1ccc(-c2c3nc(c(-c4cc(S(=O)(=O)[O-])ccc4F)c4ccc([nH]4)c(-c4cc(S(=O)(=O)[O-])ccc4F)c4nc(c(-c5cc(S(=O)(=O)[O-])ccc5F)c5ccc2[nH]5)C=C4)C=C3)cc1)C1=Cc2c(Cl)ccc(Cl)c2O[C@@H]1C(F)(F)F
REMARK SMILES IDX 6 1 5 2 4 3 3 4 1 5 2 6 73 8 74 9 84 10 75 11 83 12 76 13
REMARK SMILES IDX 82 14 77 15 78 16 80 17 79 18 81 19 85 20 86 21 87 22 88 23
REMARK SMILES IDX 7 24 8 25 9 27 10 28 11 29 72 30 12 31 71 32 13 33 14 34
REMARK SMILES IDX 15 35 65 36 16 37 70 38 64 39 66 40 17 41 69 42 63 43 62 44
REMARK SMILES IDX 18 46 50 47 30 48 49 49 31 50 34 51 48 52 67 53 32 54 33 55
REMARK SMILES IDX 47 57 68 58 35 59 19 60 20 61 28 62 21 63 27 64 29 65 26 66
REMARK SMILES IDX 22 67 23 68 24 69 25 70 51 71 52 72 60 73 53 74 59 75 61 76
REMARK SMILES IDX 58 77 54 78 55 79 56 80 57 81 36 82 37 83 45 84 38 85 44 86
REMARK SMILES IDX 46 87 43 88 39 89 40 90 41 91 42 92
REMARK H PARENT 3 7 7 26 66 45 34 56
REMARK Flexibility Score: inf
ROOT
ATOM      1  C   UNL A   1      36.575  21.784  25.265  1.00  0.00     0.118 C 
ENDROOT
BRANCH   1   2
ATOM      2  C   UNL A   1      35.364  21.447  26.131  1.00  0.00     0.042 C 
BRANCH   2   3
ATOM      3  C   UNL A   1      34.101  22.181  25.695  1.00  0.00     0.118 C 
BRANCH   3   4
ATOM      4  N   UNL A   1      34.275  22.991  24.487  1.00  0.00    -0.352 N 
ATOM      5  O   UNL A   1      34.286  24.883  23.245  1.00  0.00    -0.270 OA
ATOM      6  C   UNL A   1      33.817  24.253  24.185  1.00  0.00     0.251 C 
ATOM      7  H   UNL A   1      34.805  22.564  23.778  1.00  0.00     0.163 HD
BRANCH   6   8
ATOM      8  C   UNL A   1      32.855  24.880  25.116  1.00  0.00     0.067 C 
ATOM      9  C   UNL A   1      33.205  25.886  25.928  1.00  0.00     0.027 C 
ATOM     10  C   UNL A   1      31.415  24.556  24.903  1.00  0.00     0.314 C 
ATOM     11  C   UNL A   1      32.376  27.094  25.677  1.00  0.00     0.037 A 
ATOM     12  O   UNL A   1      30.645  25.732  24.580  1.00  0.00    -0.474 OA
ATOM     13  C   UNL A   1      32.917  28.388  25.839  1.00  0.00     0.052 A 
ATOM     14  C   UNL A   1      31.183  26.957  24.921  1.00  0.00     0.148 A 
ATOM     15  Cl  UNL A   1      34.414  28.672  26.661  1.00  0.00    -0.084 Cl
ATOM     16  C   UNL A   1      32.318  29.497  25.228  1.00  0.00     0.023 A 
ATOM     17  C   UNL A   1      30.587  28.081  24.324  1.00  0.00     0.083 A 
ATOM     18  C   UNL A   1      31.164  29.341  24.460  1.00  0.00     0.026 A 
ATOM     19  Cl  UNL A   1      29.208  27.921  23.294  1.00  0.00    -0.080 Cl
BRANCH  10  20
ATOM     20  C   UNL A   1      30.833  23.842  26.138  1.00  0.00     0.429 C 
ATOM     21  F   UNL A   1      30.513  22.555  25.856  1.00  0.00    -0.167 F 
ATOM     22  F   UNL A   1      31.712  23.807  27.168  1.00  0.00    -0.167 F 
ATOM     23  F   UNL A   1      29.705  24.438  26.597  1.00  0.00    -0.167 F 
ENDBRANCH  10  20
ENDBRANCH   6   8
ENDBRANCH   3   4
ENDBRANCH   2   3
ENDBRANCH   1   2
BRANCH   1  24
ATOM     24  N   UNL A   1      37.658  20.809  25.363  1.00  0.00    -0.352 N 
ATOM     25  C   UNL A   1      38.950  20.907  25.847  1.00  0.00     0.251 C 
ATOM     26  H   UNL A   1      37.425  19.916  25.021  1.00  0.00     0.163 HD
ATOM     27  O   UNL A   1      39.706  19.963  25.703  1.00  0.00    -0.269 OA
BRANCH  25  28
ATOM     28  C   UNL A   1      39.434  22.160  26.480  1.00  0.00     0.039 A 
ATOM     29  C   UNL A   1      40.457  22.084  27.432  1.00  0.00     0.014 A 
ATOM     30  C   UNL A   1      38.913  23.404  26.136  1.00  0.00     0.014 A 
ATOM     31  C   UNL A   1      41.042  23.257  27.922  1.00  0.00     0.010 A 
ATOM     32  C   UNL A   1      39.575  24.563  26.523  1.00  0.00     0.010 A 
ATOM     33  C   UNL A   1      40.661  24.505  27.408  1.00  0.00    -0.014 A 
BRANCH  33  34
ATOM     34  C   UNL A   1      41.395  25.758  27.742  1.00  0.00     0.031 A 
ATOM     35  C   UNL A   1      40.718  26.840  28.545  1.00  0.00     0.074 A 
ATOM     36  C   UNL A   1      42.622  25.972  27.221  1.00  0.00     0.049 A 
ATOM     37  N   UNL A   1      41.113  28.064  28.786  1.00  0.00    -0.248 NA
ATOM     38  C   UNL A   1      39.400  26.514  29.108  1.00  0.00     0.031 C 
ATOM     39  C   UNL A   1      43.361  25.030  26.375  1.00  0.00     0.029 A 
ATOM     40  N   UNL A   1      43.459  27.057  27.308  1.00  0.00    -0.354 N 
ATOM     41  C   UNL A   1      40.077  28.664  29.495  1.00  0.00     0.074 A 
ATOM     42  C   UNL A   1      39.014  27.687  29.585  1.00  0.00     0.031 C 
ATOM     43  C   UNL A   1      44.549  25.563  26.050  1.00  0.00     0.029 A 
ATOM     44  C   UNL A   1      44.635  26.908  26.608  1.00  0.00     0.049 A 
ATOM     45  H   UNL A   1      43.239  27.867  27.822  1.00  0.00     0.167 HD
ATOM     46  C   UNL A   1      40.027  29.905  30.041  1.00  0.00     0.034 A 
ATOM     47  C   UNL A   1      45.660  27.762  26.417  1.00  0.00     0.034 A 
ATOM     48  C   UNL A   1      41.113  30.851  29.974  1.00  0.00     0.049 A 
ATOM     49  C   UNL A   1      45.585  29.132  27.037  1.00  0.00     0.074 A 
ATOM     50  C   UNL A   1      41.206  32.101  30.562  1.00  0.00     0.029 A 
ATOM     51  N   UNL A   1      42.299  30.653  29.276  1.00  0.00    -0.354 N 
ATOM     52  N   UNL A   1      44.618  29.664  27.749  1.00  0.00    -0.248 NA
ATOM     53  C   UNL A   1      46.741  30.015  26.833  1.00  0.00     0.031 C 
ATOM     54  C   UNL A   1      42.418  32.682  30.169  1.00  0.00     0.029 A 
ATOM     55  C   UNL A   1      43.114  31.769  29.393  1.00  0.00     0.049 A 
ATOM     56  H   UNL A   1      42.526  29.839  28.771  1.00  0.00     0.167 HD
ATOM     57  C   UNL A   1      45.060  30.939  28.093  1.00  0.00     0.074 A 
ATOM     58  C   UNL A   1      46.387  31.084  27.529  1.00  0.00     0.031 C 
ATOM     59  C   UNL A   1      44.427  31.903  28.808  1.00  0.00     0.034 A 
BRANCH  46  60
ATOM     60  C   UNL A   1      38.750  30.304  30.743  1.00  0.00     0.023 A 
ATOM     61  C   UNL A   1      37.688  30.915  30.053  1.00  0.00     0.031 A 
ATOM     62  C   UNL A   1      38.603  30.104  32.127  1.00  0.00     0.131 A 
ATOM     63  C   UNL A   1      36.570  31.384  30.759  1.00  0.00     0.055 A 
ATOM     64  C   UNL A   1      37.448  30.494  32.810  1.00  0.00     0.041 A 
ATOM     65  F   UNL A   1      39.588  29.542  32.845  1.00  0.00    -0.206 F 
ATOM     66  C   UNL A   1      36.430  31.155  32.128  1.00  0.00     0.022 A 
BRANCH  63  67
ATOM     67  S   UNL A   1      35.377  32.435  29.884  1.00  0.00     0.124 S 
ATOM     68  O   UNL A   1      36.207  33.581  29.521  1.00  0.00    -0.237 OA
ATOM     69  O   UNL A   1      34.951  31.579  28.783  1.00  0.00    -0.237 OA
ATOM     70  O   UNL A   1      34.356  32.709  30.895  1.00  0.00    -0.744 OA
ENDBRANCH  63  67
ENDBRANCH  46  60
BRANCH  47  71
ATOM     71  C   UNL A   1      46.838  27.361  25.594  1.00  0.00     0.023 A 
ATOM     72  C   UNL A   1      46.987  27.827  24.279  1.00  0.00     0.031 A 
ATOM     73  C   UNL A   1      47.813  26.482  26.098  1.00  0.00     0.131 A 
ATOM     74  C   UNL A   1      48.061  27.378  23.494  1.00  0.00     0.055 A 
ATOM     75  C   UNL A   1      48.908  26.077  25.331  1.00  0.00     0.041 A 
ATOM     76  F   UNL A   1      47.723  26.014  27.352  1.00  0.00    -0.206 F 
ATOM     77  C   UNL A   1      49.029  26.516  24.016  1.00  0.00     0.022 A 
BRANCH  74  78
ATOM     78  S   UNL A   1      48.133  27.879  21.753  1.00  0.00     0.124 S 
ATOM     79  O   UNL A   1      46.826  28.500  21.569  1.00  0.00    -0.237 OA
ATOM     80  O   UNL A   1      49.279  28.780  21.745  1.00  0.00    -0.237 OA
ATOM     81  O   UNL A   1      48.330  26.616  21.044  1.00  0.00    -0.744 OA
ENDBRANCH  74  78
ENDBRANCH  47  71
BRANCH  59  82
ATOM     82  C   UNL A   1      45.186  33.185  29.041  1.00  0.00     0.023 A 
ATOM     83  C   UNL A   1      45.100  34.263  28.143  1.00  0.00     0.031 A 
ATOM     84  C   UNL A   1      46.018  33.323  30.166  1.00  0.00     0.131 A 
ATOM     85  C   UNL A   1      45.876  35.411  28.355  1.00  0.00     0.055 A 
ATOM     86  C   UNL A   1      46.743  34.490  30.403  1.00  0.00     0.041 A 
ATOM     87  F   UNL A   1      46.138  32.322  31.053  1.00  0.00    -0.206 F 
ATOM     88  C   UNL A   1      46.685  35.538  29.489  1.00  0.00     0.022 A 
BRANCH  85  89
ATOM     89  S   UNL A   1      45.884  36.704  27.084  1.00  0.00     0.124 S 
ATOM     90  O   UNL A   1      46.803  37.684  27.655  1.00  0.00    -0.237 OA
ATOM     91  O   UNL A   1      46.370  35.986  25.910  1.00  0.00    -0.237 OA
ATOM     92  O   UNL A   1      44.488  37.128  27.016  1.00  0.00    -0.744 OA
ENDBRANCH  85  89
ENDBRANCH  59  82
ENDBRANCH  33  34
ENDBRANCH  25  28
ENDBRANCH   1  24
TORSDOF 14
ENDMDL
MODEL 2
REMARK VINA RESULT:     -12.9      5.305     10.090
REMARK SMILES O=C(NCCCNC(=O)c1ccc(-c2c3nc(c(-c4cc(S(=O)(=O)[O-])ccc4F)c4ccc([nH]4)c(-c4cc(S(=O)(=O)[O-])ccc4F)c4nc(c(-c5cc(S(=O)(=O)[O-])ccc5F)c5ccc2[nH]5)C=C4)C=C3)cc1)C1=Cc2c(Cl)ccc(Cl)c2O[C@@H]1C(F)(F)F
REMARK SMILES IDX 6 1 5 2 4 3 3 4 1 5 2 6 73 8 74 9 84 10 75 11 83 12 76 13
REMARK SMILES IDX 82 14 77 15 78 16 80 17 79 18 81 19 85 20 86 21 87 22 88 23
REMARK SMILES IDX 7 24 8 25 9 27 10 28 11 29 72 30 12 31 71 32 13 33 14 34
REMARK SMILES IDX 15 35 65 36 16 37 70 38 64 39 66 40 17 41 69 42 63 43 62 44
REMARK SMILES IDX 18 46 50 47 30 48 49 49 31 50 34 51 48 52 67 53 32 54 33 55
REMARK SMILES IDX 47 57 68 58 35 59 19 60 20 61 28 62 21 63 27 64 29 65 26 66
REMARK SMILES IDX 22 67 23 68 24 69 25 70 51 71 52 72 60 73 53 74 59 75 61 76
REMARK SMILES IDX 58 77 54 78 55 79 56 80 57 81 36 82 37 83 45 84 38 85 44 86
REMARK SMILES IDX 46 87 43 88 39 89 40 90 41 91 42 92
REMARK H PARENT 3 7 7 26 66 45 34 56
REMARK Flexibility Score: inf
ROOT
ATOM      1  C   UNL A   1      32.588  29.712  25.820  1.00  0.00     0.118 C 
ENDROOT
BRANCH   1   2
ATOM      2  C   UNL A   1      31.572  28.663  26.263  1.00  0.00     0.042 C 
BRANCH   2   3
ATOM      3  C   UNL A   1      32.186  27.279  26.438  1.00  0.00     0.118 C 
BRANCH   3   4
ATOM      4  N   UNL A   1      31.239  26.267  26.914  1.00  0.00    -0.352 N 
ATOM      5  O   UNL A   1      30.019  24.363  26.821  1.00  0.00    -0.270 OA
ATOM      6  C   UNL A   1      30.553  25.292  26.227  1.00  0.00     0.251 C 
ATOM      7  H   UNL A   1      31.065  26.290  27.882  1.00  0.00     0.163 HD
BRANCH   6   8
ATOM      8  C   UNL A   1      30.611  25.318  24.750  1.00  0.00     0.067 C 
ATOM      9  C   UNL A   1      29.677  25.934  24.014  1.00  0.00     0.027 C 
ATOM     10  C   UNL A   1      31.898  24.896  24.127  1.00  0.00     0.314 C 
ATOM     11  C   UNL A   1      30.276  26.994  23.161  1.00  0.00     0.037 A 
ATOM     12  O   UNL A   1      32.502  25.967  23.371  1.00  0.00    -0.474 OA
ATOM     13  C   UNL A   1      29.554  28.168  22.854  1.00  0.00     0.052 A 
ATOM     14  C   UNL A   1      31.683  27.004  22.974  1.00  0.00     0.148 A 
ATOM     15  Cl  UNL A   1      27.850  28.309  23.128  1.00  0.00    -0.084 Cl
ATOM     16  C   UNL A   1      30.218  29.325  22.425  1.00  0.00     0.023 A 
ATOM     17  C   UNL A   1      32.332  28.168  22.530  1.00  0.00     0.083 A 
ATOM     18  C   UNL A   1      31.605  29.329  22.277  1.00  0.00     0.026 A 
ATOM     19  Cl  UNL A   1      34.055  28.243  22.417  1.00  0.00    -0.080 Cl
BRANCH  10  20
ATOM     20  C   UNL A   1      31.688  23.652  23.242  1.00  0.00     0.429 C 
ATOM     21  F   UNL A   1      32.223  23.830  22.009  1.00  0.00    -0.167 F 
ATOM     22  F   UNL A   1      32.278  22.550  23.765  1.00  0.00    -0.167 F 
ATOM     23  F   UNL A   1      30.377  23.357  23.065  1.00  0.00    -0.167 F 
ENDBRANCH  10  20
ENDBRANCH   6   8
ENDBRANCH   3   4
ENDBRANCH   2   3
ENDBRANCH   1   2
BRANCH   1  24
ATOM     24  N   UNL A   1      32.351  31.037  26.385  1.00  0.00    -0.352 N 
ATOM     25  C   UNL A   1      33.100  31.826  27.239  1.00  0.00     0.251 C 
ATOM     26  H   UNL A   1      31.499  31.445  26.106  1.00  0.00     0.163 HD
ATOM     27  O   UNL A   1      32.615  32.860  27.663  1.00  0.00    -0.269 OA
BRANCH  25  28
ATOM     28  C   UNL A   1      34.451  31.399  27.684  1.00  0.00     0.039 A 
ATOM     29  C   UNL A   1      35.457  32.364  27.807  1.00  0.00     0.014 A 
ATOM     30  C   UNL A   1      34.732  30.073  28.001  1.00  0.00     0.014 A 
ATOM     31  C   UNL A   1      36.688  32.019  28.377  1.00  0.00     0.010 A 
ATOM     32  C   UNL A   1      35.903  29.759  28.682  1.00  0.00     0.010 A 
ATOM     33  C   UNL A   1      36.890  30.731  28.896  1.00  0.00    -0.014 A 
BRANCH  33  34
ATOM     34  C   UNL A   1      38.097  30.379  29.695  1.00  0.00     0.031 A 
ATOM     35  C   UNL A   1      39.099  29.390  29.156  1.00  0.00     0.074 A 
ATOM     36  C   UNL A   1      38.228  30.853  30.952  1.00  0.00     0.049 A 
ATOM     37  N   UNL A   1      40.109  28.818  29.761  1.00  0.00    -0.248 NA
ATOM     38  C   UNL A   1      38.906  28.950  27.767  1.00  0.00     0.031 C 
ATOM     39  C   UNL A   1      37.294  31.770  31.614  1.00  0.00     0.029 A 
ATOM     40  N   UNL A   1      39.186  30.620  31.907  1.00  0.00    -0.354 N 
ATOM     41  C   UNL A   1      40.647  27.926  28.839  1.00  0.00     0.074 A 
ATOM     42  C   UNL A   1      39.810  27.988  27.661  1.00  0.00     0.031 C 
ATOM     43  C   UNL A   1      37.741  32.043  32.850  1.00  0.00     0.029 A 
ATOM     44  C   UNL A   1      38.958  31.277  33.095  1.00  0.00     0.049 A 
ATOM     45  H   UNL A   1      39.965  30.036  31.756  1.00  0.00     0.167 HD
ATOM     46  C   UNL A   1      41.752  27.146  28.955  1.00  0.00     0.034 A 
ATOM     47  C   UNL A   1      39.637  31.252  34.259  1.00  0.00     0.034 A 
ATOM     48  C   UNL A   1      42.596  27.127  30.124  1.00  0.00     0.049 A 
ATOM     49  C   UNL A   1      40.863  30.383  34.363  1.00  0.00     0.074 A 
ATOM     50  C   UNL A   1      43.783  26.443  30.319  1.00  0.00     0.029 A 
ATOM     51  N   UNL A   1      42.345  27.826  31.299  1.00  0.00    -0.354 N 
ATOM     52  N   UNL A   1      41.387  29.584  33.462  1.00  0.00    -0.248 NA
ATOM     53  C   UNL A   1      41.590  30.416  35.638  1.00  0.00     0.031 C 
ATOM     54  C   UNL A   1      44.216  26.678  31.630  1.00  0.00     0.029 A 
ATOM     55  C   UNL A   1      43.337  27.564  32.231  1.00  0.00     0.049 A 
ATOM     56  H   UNL A   1      41.574  28.420  31.447  1.00  0.00     0.167 HD
ATOM     57  C   UNL A   1      42.519  29.034  34.058  1.00  0.00     0.074 A 
ATOM     58  C   UNL A   1      42.610  29.610  35.385  1.00  0.00     0.031 C 
ATOM     59  C   UNL A   1      43.401  28.134  33.557  1.00  0.00     0.034 A 
BRANCH  46  60
ATOM     60  C   UNL A   1      42.092  26.245  27.791  1.00  0.00     0.023 A 
ATOM     61  C   UNL A   1      41.595  24.933  27.703  1.00  0.00     0.031 A 
ATOM     62  C   UNL A   1      42.951  26.689  26.771  1.00  0.00     0.131 A 
ATOM     63  C   UNL A   1      42.030  24.084  26.675  1.00  0.00     0.055 A 
ATOM     64  C   UNL A   1      43.311  25.867  25.700  1.00  0.00     0.041 A 
ATOM     65  F   UNL A   1      43.473  27.925  26.807  1.00  0.00    -0.206 F 
ATOM     66  C   UNL A   1      42.864  24.550  25.657  1.00  0.00     0.022 A 
BRANCH  63  67
ATOM     67  S   UNL A   1      41.612  22.321  26.775  1.00  0.00     0.124 S 
ATOM     68  O   UNL A   1      41.959  21.861  25.432  1.00  0.00    -0.237 OA
ATOM     69  O   UNL A   1      42.475  21.853  27.853  1.00  0.00    -0.237 OA
ATOM     70  O   UNL A   1      40.182  22.325  27.075  1.00  0.00    -0.744 OA
ENDBRANCH  63  67
ENDBRANCH  46  60
BRANCH  47  71
ATOM     71  C   UNL A   1      39.173  32.058  35.425  1.00  0.00     0.023 A 
ATOM     72  C   UNL A   1      38.511  31.449  36.501  1.00  0.00     0.031 A 
ATOM     73  C   UNL A   1      39.354  33.452  35.465  1.00  0.00     0.131 A 
ATOM     74  C   UNL A   1      38.013  32.234  37.553  1.00  0.00     0.055 A 
ATOM     75  C   UNL A   1      38.903  34.224  36.538  1.00  0.00     0.041 A 
ATOM     76  F   UNL A   1      39.989  34.084  34.466  1.00  0.00    -0.206 F 
ATOM     77  C   UNL A   1      38.216  33.616  37.585  1.00  0.00     0.022 A 
BRANCH  74  78
ATOM     78  S   UNL A   1      37.028  31.430  38.846  1.00  0.00     0.124 S 
ATOM     79  O   UNL A   1      36.890  30.078  38.316  1.00  0.00    -0.237 OA
ATOM     80  O   UNL A   1      37.886  31.578  40.016  1.00  0.00    -0.237 OA
ATOM     81  O   UNL A   1      35.797  32.218  38.875  1.00  0.00    -0.744 OA
ENDBRANCH  74  78
ENDBRANCH  47  71
BRANCH  59  82
ATOM     82  C   UNL A   1      44.557  27.748  34.445  1.00  0.00     0.023 A 
ATOM     83  C   UNL A   1      44.455  26.690  35.364  1.00  0.00     0.031 A 
ATOM     84  C   UNL A   1      45.768  28.460  34.383  1.00  0.00     0.131 A 
ATOM     85  C   UNL A   1      45.527  26.407  36.224  1.00  0.00     0.055 A 
ATOM     86  C   UNL A   1      46.851  28.137  35.200  1.00  0.00     0.041 A 
ATOM     87  F   UNL A   1      45.916  29.482  33.525  1.00  0.00    -0.206 F 
ATOM     88  C   UNL A   1      46.731  27.113  36.136  1.00  0.00     0.022 A 
BRANCH  85  89
ATOM     89  S   UNL A   1      45.297  25.161  37.521  1.00  0.00     0.124 S 
ATOM     90  O   UNL A   1      43.883  24.828  37.373  1.00  0.00    -0.237 OA
ATOM     91  O   UNL A   1      46.240  24.119  37.125  1.00  0.00    -0.237 OA
ATOM     92  O   UNL A   1      45.642  25.874  38.748  1.00  0.00    -0.744 OA
ENDBRANCH  85  89
ENDBRANCH  59  82
ENDBRANCH  33  34
ENDBRANCH  25  28
ENDBRANCH   1  24
TORSDOF 14
ENDMDL
MODEL 3
REMARK VINA RESULT:     -12.9      5.243     10.063
REMARK SMILES O=C(NCCCNC(=O)c1ccc(-c2c3nc(c(-c4cc(S(=O)(=O)[O-])ccc4F)c4ccc([nH]4)c(-c4cc(S(=O)(=O)[O-])ccc4F)c4nc(c(-c5cc(S(=O)(=O)[O-])ccc5F)c5ccc2[nH]5)C=C4)C=C3)cc1)C1=Cc2c(Cl)ccc(Cl)c2O[C@@H]1C(F)(F)F
REMARK SMILES IDX 6 1 5 2 4 3 3 4 1 5 2 6 73 8 74 9 84 10 75 11 83 12 76 13
REMARK SMILES IDX 82 14 77 15 78 16 80 17 79 18 81 19 85 20 86 21 87 22 88 23
REMARK SMILES IDX 7 24 8 25 9 27 10 28 11 29 72 30 12 31 71 32 13 33 14 34
REMARK SMILES IDX 15 35 65 36 16 37 70 38 64 39 66 40 17 41 69 42 63 43 62 44
REMARK SMILES IDX 18 46 50 47 30 48 49 49 31 50 34 51 48 52 67 53 32 54 33 55
REMARK SMILES IDX 47 57 68 58 35 59 19 60 20 61 28 62 21 63 27 64 29 65 26 66
REMARK SMILES IDX 22 67 23 68 24 69 25 70 51 71 52 72 60 73 53 74 59 75 61 76
REMARK SMILES IDX 58 77 54 78 55 79 56 80 57 81 36 82 37 83 45 84 38 85 44 86
REMARK SMILES IDX 46 87 43 88 39 89 40 90 41 91 42 92
REMARK H PARENT 3 7 7 26 66 45 34 56
REMARK Flexibility Score: inf
ROOT
ATOM      1  C   UNL A   1      32.720  29.725  25.621  1.00  0.00     0.118 C 
ENDROOT
BRANCH   1   2
ATOM      2  C   UNL A   1      31.572  28.720  25.649  1.00  0.00     0.042 C 
BRANCH   2   3
ATOM      3  C   UNL A   1      31.790  27.599  26.660  1.00  0.00     0.118 C 
BRANCH   3   4
ATOM      4  N   UNL A   1      30.770  26.549  26.608  1.00  0.00    -0.352 N 
ATOM      5  O   UNL A   1      29.977  24.435  26.442  1.00  0.00    -0.270 OA
ATOM      6  C   UNL A   1      30.846  25.251  26.158  1.00  0.00     0.251 C 
ATOM      7  H   UNL A   1      29.887  26.816  26.950  1.00  0.00     0.163 HD
BRANCH   6   8
ATOM      8  C   UNL A   1      32.077  24.836  25.452  1.00  0.00     0.067 C 
ATOM      9  C   UNL A   1      33.042  24.134  26.061  1.00  0.00     0.027 C 
ATOM     10  C   UNL A   1      32.068  24.964  23.967  1.00  0.00     0.314 C 
ATOM     11  C   UNL A   1      33.283  22.839  25.371  1.00  0.00     0.037 A 
ATOM     12  O   UNL A   1      32.222  23.685  23.319  1.00  0.00    -0.474 OA
ATOM     13  C   UNL A   1      33.673  21.695  26.100  1.00  0.00     0.052 A 
ATOM     14  C   UNL A   1      32.763  22.657  24.064  1.00  0.00     0.148 A 
ATOM     15  Cl  UNL A   1      34.235  21.780  27.735  1.00  0.00    -0.084 Cl
ATOM     16  C   UNL A   1      33.503  20.412  25.563  1.00  0.00     0.023 A 
ATOM     17  C   UNL A   1      32.610  21.364  23.535  1.00  0.00     0.083 A 
ATOM     18  C   UNL A   1      32.959  20.246  24.289  1.00  0.00     0.026 A 
ATOM     19  Cl  UNL A   1      31.861  21.110  21.997  1.00  0.00    -0.080 Cl
BRANCH  10  20
ATOM     20  C   UNL A   1      33.160  25.948  23.503  1.00  0.00     0.429 C 
ATOM     21  F   UNL A   1      32.616  27.082  22.998  1.00  0.00    -0.167 F 
ATOM     22  F   UNL A   1      33.971  26.326  24.520  1.00  0.00    -0.167 F 
ATOM     23  F   UNL A   1      33.952  25.425  22.536  1.00  0.00    -0.167 F 
ENDBRANCH  10  20
ENDBRANCH   6   8
ENDBRANCH   3   4
ENDBRANCH   2   3
ENDBRANCH   1   2
BRANCH   1  24
ATOM     24  N   UNL A   1      32.409  30.990  26.282  1.00  0.00    -0.352 N 
ATOM     25  C   UNL A   1      33.104  31.743  27.212  1.00  0.00     0.251 C 
ATOM     26  H   UNL A   1      31.545  31.379  26.016  1.00  0.00     0.163 HD
ATOM     27  O   UNL A   1      32.563  32.718  27.703  1.00  0.00    -0.269 OA
BRANCH  25  28
ATOM     28  C   UNL A   1      34.465  31.344  27.653  1.00  0.00     0.039 A 
ATOM     29  C   UNL A   1      35.450  32.330  27.776  1.00  0.00     0.014 A 
ATOM     30  C   UNL A   1      34.775  30.024  27.966  1.00  0.00     0.014 A 
ATOM     31  C   UNL A   1      36.689  32.010  28.343  1.00  0.00     0.010 A 
ATOM     32  C   UNL A   1      35.954  29.733  28.644  1.00  0.00     0.010 A 
ATOM     33  C   UNL A   1      36.920  30.726  28.859  1.00  0.00    -0.014 A 
BRANCH  33  34
ATOM     34  C   UNL A   1      38.136  30.398  29.655  1.00  0.00     0.031 A 
ATOM     35  C   UNL A   1      39.149  29.419  29.118  1.00  0.00     0.074 A 
ATOM     36  C   UNL A   1      38.266  30.885  30.906  1.00  0.00     0.049 A 
ATOM     37  N   UNL A   1      40.171  28.867  29.724  1.00  0.00    -0.248 NA
ATOM     38  C   UNL A   1      38.956  28.964  27.734  1.00  0.00     0.031 C 
ATOM     39  C   UNL A   1      37.322  31.793  31.566  1.00  0.00     0.029 A 
ATOM     40  N   UNL A   1      39.232  30.673  31.859  1.00  0.00    -0.354 N 
ATOM     41  C   UNL A   1      40.717  27.974  28.806  1.00  0.00     0.074 A 
ATOM     42  C   UNL A   1      39.873  28.014  27.632  1.00  0.00     0.031 C 
ATOM     43  C   UNL A   1      37.772  32.083  32.796  1.00  0.00     0.029 A 
ATOM     44  C   UNL A   1      39.001  31.337  33.042  1.00  0.00     0.049 A 
ATOM     45  H   UNL A   1      40.019  30.099  31.709  1.00  0.00     0.167 HD
ATOM     46  C   UNL A   1      41.833  27.212  28.924  1.00  0.00     0.034 A 
ATOM     47  C   UNL A   1      39.686  31.332  34.203  1.00  0.00     0.034 A 
ATOM     48  C   UNL A   1      42.684  27.215  30.088  1.00  0.00     0.049 A 
ATOM     49  C   UNL A   1      40.925  30.482  34.308  1.00  0.00     0.074 A 
ATOM     50  C   UNL A   1      43.882  26.549  30.283  1.00  0.00     0.029 A 
ATOM     51  N   UNL A   1      42.428  27.920  31.258  1.00  0.00    -0.354 N 
ATOM     52  N   UNL A   1      41.456  29.683  33.411  1.00  0.00    -0.248 NA
ATOM     53  C   UNL A   1      41.658  30.536  35.579  1.00  0.00     0.031 C 
ATOM     54  C   UNL A   1      44.317  26.802  31.590  1.00  0.00     0.029 A 
ATOM     55  C   UNL A   1      43.428  27.680  32.188  1.00  0.00     0.049 A 
ATOM     56  H   UNL A   1      41.649  28.504  31.405  1.00  0.00     0.167 HD
ATOM     57  C   UNL A   1      42.598  29.154  34.007  1.00  0.00     0.074 A 
ATOM     58  C   UNL A   1      42.688  29.743  35.327  1.00  0.00     0.031 C 
ATOM     59  C   UNL A   1      43.491  28.262  33.508  1.00  0.00     0.034 A 
BRANCH  46  60
ATOM     60  C   UNL A   1      42.180  26.305  27.765  1.00  0.00     0.023 A 
ATOM     61  C   UNL A   1      41.690  24.990  27.684  1.00  0.00     0.031 A 
ATOM     62  C   UNL A   1      43.040  26.748  26.745  1.00  0.00     0.131 A 
ATOM     63  C   UNL A   1      42.132  24.138  26.662  1.00  0.00     0.055 A 
ATOM     64  C   UNL A   1      43.406  25.922  25.679  1.00  0.00     0.041 A 
ATOM     65  F   UNL A   1      43.555  27.987  26.774  1.00  0.00    -0.206 F 
ATOM     66  C   UNL A   1      42.966  24.602  25.643  1.00  0.00     0.022 A 
BRANCH  63  67
ATOM     67  S   UNL A   1      41.723  22.373  26.771  1.00  0.00     0.124 S 
ATOM     68  O   UNL A   1      42.511  21.962  27.932  1.00  0.00    -0.237 OA
ATOM     69  O   UNL A   1      40.277  22.395  26.956  1.00  0.00    -0.237 OA
ATOM     70  O   UNL A   1      42.183  21.835  25.493  1.00  0.00    -0.744 OA
ENDBRANCH  63  67
ENDBRANCH  46  60
BRANCH  47  71
ATOM     71  C   UNL A   1      39.216  32.141  35.364  1.00  0.00     0.023 A 
ATOM     72  C   UNL A   1      39.668  33.456  35.554  1.00  0.00     0.031 A 
ATOM     73  C   UNL A   1      38.335  31.602  36.319  1.00  0.00     0.131 A 
ATOM     74  C   UNL A   1      39.275  34.175  36.694  1.00  0.00     0.055 A 
ATOM     75  C   UNL A   1      37.906  32.338  37.425  1.00  0.00     0.041 A 
ATOM     76  F   UNL A   1      37.866  30.352  36.181  1.00  0.00    -0.206 F 
ATOM     77  C   UNL A   1      38.387  33.629  37.624  1.00  0.00     0.022 A 
BRANCH  74  78
ATOM     78  S   UNL A   1      40.003  35.810  36.983  1.00  0.00     0.124 S 
ATOM     79  O   UNL A   1      39.653  36.512  35.754  1.00  0.00    -0.237 OA
ATOM     80  O   UNL A   1      39.308  36.241  38.191  1.00  0.00    -0.237 OA
ATOM     81  O   UNL A   1      41.426  35.523  37.155  1.00  0.00    -0.744 OA
ENDBRANCH  74  78
ENDBRANCH  47  71
BRANCH  59  82
ATOM     82  C   UNL A   1      44.657  27.901  34.394  1.00  0.00     0.023 A 
ATOM     83  C   UNL A   1      44.600  26.805  35.272  1.00  0.00     0.031 A 
ATOM     84  C   UNL A   1      45.831  28.673  34.372  1.00  0.00     0.131 A 
ATOM     85  C   UNL A   1      45.676  26.543  36.132  1.00  0.00     0.055 A 
ATOM     86  C   UNL A   1      46.922  28.374  35.187  1.00  0.00     0.041 A 
ATOM     87  F   UNL A   1      45.936  29.733  33.554  1.00  0.00    -0.206 F 
ATOM     88  C   UNL A   1      46.844  27.311  36.083  1.00  0.00     0.022 A 
BRANCH  85  89
ATOM     89  S   UNL A   1      45.497  25.239  37.379  1.00  0.00     0.124 S 
ATOM     90  O   UNL A   1      44.575  25.853  38.329  1.00  0.00    -0.237 OA
ATOM     91  O   UNL A   1      44.960  24.129  36.597  1.00  0.00    -0.237 OA
ATOM     92  O   UNL A   1      46.859  25.046  37.872  1.00  0.00    -0.744 OA
ENDBRANCH  85  89
ENDBRANCH  59  82
ENDBRANCH  33  34
ENDBRANCH  25  28
ENDBRANCH   1  24
TORSDOF 14
ENDMDL
