MODEL 1
REMARK VINA RESULT:     -10.4      0.000      0.000
REMARK SMILES C[NH2+]C[C@H](C)C(=O)N1CC[C@@](C(=O)NCCCNC(=O)c2ccc(-c3c4nc(c(-c5cc(S(=O)(=O)[O-])ccc5F)c5ccc([nH]5)c(-c5cc(S(=O)(=O)[O-])ccc5F)c5nc(c(-c6cc(S(=O)(=O)[O-])ccc6F)c6ccc3[nH]6)C=C5)C=C4)cc2)(C(F)(F)F)C1
REMARK SMILES IDX 15 1 14 2 12 3 13 4 11 6 8 7 9 8 88 9 10 10 6 11 7 12 4 13
REMARK SMILES IDX 5 14 3 15 2 16 1 17 84 20 85 21 86 22 87 23 16 24 17 25
REMARK SMILES IDX 18 26 19 27 20 29 21 30 22 31 83 32 23 33 82 34 24 35 25 36
REMARK SMILES IDX 26 37 76 38 27 39 81 40 75 41 77 42 28 43 80 44 74 45 73 46
REMARK SMILES IDX 29 48 61 49 41 50 60 51 42 52 45 53 59 54 78 55 43 56 44 57
REMARK SMILES IDX 58 59 79 60 46 61 30 62 31 63 39 64 32 65 38 66 40 67 37 68
REMARK SMILES IDX 33 69 34 70 35 71 36 72 62 73 63 74 71 75 64 76 70 77 72 78
REMARK SMILES IDX 69 79 65 80 66 81 67 82 68 83 47 84 48 85 56 86 49 87 55 88
REMARK SMILES IDX 57 89 54 90 50 91 51 92 52 93 53 94
REMARK H PARENT 14 5 2 18 2 19 18 28 77 47 45 58
REMARK Flexibility Score: inf
ROOT
ATOM      1  C   UNL A   1      32.886  28.710  24.779  1.00  0.00     0.117 C 
ENDROOT
BRANCH   1   2
ATOM      2  N   UNL A   1      33.510  28.373  23.520  1.00  0.00    -0.355 N 
ATOM      3  C   UNL A   1      33.501  27.202  22.815  1.00  0.00     0.237 C 
ATOM      4  O   UNL A   1      33.918  27.292  21.658  1.00  0.00    -0.274 OA
ATOM      5  H   UNL A   1      34.023  29.103  23.104  1.00  0.00     0.163 HD
BRANCH   3   6
ATOM      6  C   UNL A   1      33.057  25.860  23.412  1.00  0.00     0.163 C 
ATOM      7  N   UNL A   1      34.250  24.267  24.770  1.00  0.00    -0.341 N 
ATOM      8  C   UNL A   1      33.918  23.575  23.545  1.00  0.00     0.121 C 
ATOM      9  C   UNL A   1      33.573  25.569  24.828  1.00  0.00     0.146 C 
ATOM     10  C   UNL A   1      33.535  24.668  22.558  1.00  0.00     0.050 C 
BRANCH   7  11
ATOM     11  C   UNL A   1      34.750  23.696  25.928  1.00  0.00     0.231 C 
ATOM     12  O   UNL A   1      35.975  23.633  26.095  1.00  0.00    -0.274 OA
BRANCH  11  13
ATOM     13  C   UNL A   1      33.825  22.979  26.935  1.00  0.00     0.130 C 
ATOM     14  C   UNL A   1      32.330  23.236  26.772  1.00  0.00     0.024 C 
BRANCH  13  15
ATOM     15  C   UNL A   1      34.115  21.471  27.156  1.00  0.00     0.273 C 
BRANCH  15  16
ATOM     16  N   UNL A   1      34.723  20.740  26.049  1.00  0.00    -0.348 N 
ATOM     17  C   UNL A   1      33.759  20.175  25.115  1.00  0.00     0.330 C 
ATOM     18  H   UNL A   1      35.331  21.379  25.537  1.00  0.00     0.346 HD
ATOM     19  H   UNL A   1      35.235  19.957  26.457  1.00  0.00     0.346 HD
ENDBRANCH  15  16
ENDBRANCH  13  15
ENDBRANCH  11  13
ENDBRANCH   7  11
BRANCH   6  20
ATOM     20  C   UNL A   1      31.538  25.883  23.481  1.00  0.00     0.404 C 
ATOM     21  F   UNL A   1      31.023  24.737  22.960  1.00  0.00    -0.170 F 
ATOM     22  F   UNL A   1      31.081  25.962  24.750  1.00  0.00    -0.170 F 
ATOM     23  F   UNL A   1      30.996  26.892  22.766  1.00  0.00    -0.170 F 
ENDBRANCH   6  20
ENDBRANCH   3   6
ENDBRANCH   1   2
BRANCH   1  24
ATOM     24  C   UNL A   1      33.811  28.678  25.987  1.00  0.00     0.042 C 
BRANCH  24  25
ATOM     25  C   UNL A   1      33.167  29.151  27.282  1.00  0.00     0.118 C 
BRANCH  25  26
ATOM     26  N   UNL A   1      33.361  30.574  27.532  1.00  0.00    -0.352 N 
ATOM     27  C   UNL A   1      34.402  31.246  28.125  1.00  0.00     0.251 C 
ATOM     28  H   UNL A   1      32.623  31.148  27.226  1.00  0.00     0.163 HD
ATOM     29  O   UNL A   1      34.277  32.450  28.352  1.00  0.00    -0.269 OA
BRANCH  27  30
ATOM     30  C   UNL A   1      35.647  30.546  28.514  1.00  0.00     0.039 A 
ATOM     31  C   UNL A   1      36.783  30.692  27.713  1.00  0.00     0.014 A 
ATOM     32  C   UNL A   1      35.705  29.738  29.652  1.00  0.00     0.014 A 
ATOM     33  C   UNL A   1      37.989  30.096  28.095  1.00  0.00     0.010 A 
ATOM     34  C   UNL A   1      36.928  29.230  30.084  1.00  0.00     0.010 A 
ATOM     35  C   UNL A   1      38.085  29.399  29.309  1.00  0.00    -0.014 A 
BRANCH  35  36
ATOM     36  C   UNL A   1      39.380  28.843  29.787  1.00  0.00     0.031 A 
ATOM     37  C   UNL A   1      40.131  29.531  30.899  1.00  0.00     0.074 A 
ATOM     38  C   UNL A   1      39.912  27.768  29.170  1.00  0.00     0.049 A 
ATOM     39  N   UNL A   1      41.312  29.256  31.390  1.00  0.00    -0.248 NA
ATOM     40  C   UNL A   1      39.485  30.699  31.518  1.00  0.00     0.031 C 
ATOM     41  C   UNL A   1      39.301  27.048  28.049  1.00  0.00     0.029 A 
ATOM     42  N   UNL A   1      41.092  27.097  29.384  1.00  0.00    -0.354 N 
ATOM     43  C   UNL A   1      41.560  30.229  32.354  1.00  0.00     0.074 A 
ATOM     44  C   UNL A   1      40.427  31.128  32.345  1.00  0.00     0.031 C 
ATOM     45  C   UNL A   1      40.097  26.028  27.690  1.00  0.00     0.029 A 
ATOM     46  C   UNL A   1      41.303  26.051  28.512  1.00  0.00     0.049 A 
ATOM     47  H   UNL A   1      41.728  27.342  30.093  1.00  0.00     0.167 HD
ATOM     48  C   UNL A   1      42.628  30.349  33.179  1.00  0.00     0.034 A 
ATOM     49  C   UNL A   1      42.355  25.217  28.376  1.00  0.00     0.034 A 
ATOM     50  C   UNL A   1      43.732  29.422  33.198  1.00  0.00     0.049 A 
ATOM     51  C   UNL A   1      43.529  25.377  29.313  1.00  0.00     0.074 A 
ATOM     52  C   UNL A   1      44.818  29.400  34.057  1.00  0.00     0.029 A 
ATOM     53  N   UNL A   1      43.900  28.362  32.318  1.00  0.00    -0.354 N 
ATOM     54  N   UNL A   1      43.706  26.257  30.273  1.00  0.00    -0.248 NA
ATOM     55  C   UNL A   1      44.637  24.425  29.160  1.00  0.00     0.031 C 
ATOM     56  C   UNL A   1      45.682  28.382  33.643  1.00  0.00     0.029 A 
ATOM     57  C   UNL A   1      45.092  27.708  32.587  1.00  0.00     0.049 A 
ATOM     58  H   UNL A   1      43.266  28.112  31.607  1.00  0.00     0.167 HD
ATOM     59  C   UNL A   1      44.930  25.937  30.857  1.00  0.00     0.074 A 
ATOM     60  C   UNL A   1      45.432  24.774  30.159  1.00  0.00     0.031 C 
ATOM     61  C   UNL A   1      45.580  26.548  31.880  1.00  0.00     0.034 A 
BRANCH  48  62
ATOM     62  C   UNL A   1      42.676  31.534  34.113  1.00  0.00     0.023 A 
ATOM     63  C   UNL A   1      42.115  31.494  35.400  1.00  0.00     0.031 A 
ATOM     64  C   UNL A   1      43.329  32.715  33.715  1.00  0.00     0.131 A 
ATOM     65  C   UNL A   1      42.180  32.627  36.227  1.00  0.00     0.055 A 
ATOM     66  C   UNL A   1      43.453  33.812  34.568  1.00  0.00     0.041 A 
ATOM     67  F   UNL A   1      43.864  32.818  32.488  1.00  0.00    -0.206 F 
ATOM     68  C   UNL A   1      42.869  33.776  35.829  1.00  0.00     0.022 A 
BRANCH  65  69
ATOM     69  S   UNL A   1      41.262  32.617  37.791  1.00  0.00     0.124 S 
ATOM     70  O   UNL A   1      41.233  34.039  38.126  1.00  0.00    -0.237 OA
ATOM     71  O   UNL A   1      39.986  32.026  37.405  1.00  0.00    -0.237 OA
ATOM     72  O   UNL A   1      42.091  31.793  38.669  1.00  0.00    -0.744 OA
ENDBRANCH  65  69
ENDBRANCH  48  62
BRANCH  49  73
ATOM     73  C   UNL A   1      42.378  24.178  27.303  1.00  0.00     0.023 A 
ATOM     74  C   UNL A   1      41.770  22.926  27.490  1.00  0.00     0.031 A 
ATOM     75  C   UNL A   1      43.086  24.389  26.105  1.00  0.00     0.131 A 
ATOM     76  C   UNL A   1      41.945  21.911  26.537  1.00  0.00     0.055 A 
ATOM     77  C   UNL A   1      43.195  23.400  25.126  1.00  0.00     0.041 A 
ATOM     78  F   UNL A   1      43.688  25.566  25.868  1.00  0.00    -0.206 F 
ATOM     79  C   UNL A   1      42.640  22.143  25.349  1.00  0.00     0.022 A 
BRANCH  76  80
ATOM     80  S   UNL A   1      41.371  20.237  26.938  1.00  0.00     0.124 S 
ATOM     81  O   UNL A   1      40.779  20.437  28.256  1.00  0.00    -0.237 OA
ATOM     82  O   UNL A   1      40.439  19.969  25.848  1.00  0.00    -0.237 OA
ATOM     83  O   UNL A   1      42.599  19.444  26.918  1.00  0.00    -0.744 OA
ENDBRANCH  76  80
ENDBRANCH  49  73
BRANCH  61  84
ATOM     84  C   UNL A   1      46.880  25.930  32.337  1.00  0.00     0.023 A 
ATOM     85  C   UNL A   1      46.934  25.024  33.410  1.00  0.00     0.031 A 
ATOM     86  C   UNL A   1      48.083  26.262  31.690  1.00  0.00     0.131 A 
ATOM     87  C   UNL A   1      48.173  24.530  33.845  1.00  0.00     0.055 A 
ATOM     88  C   UNL A   1      49.304  25.712  32.082  1.00  0.00     0.041 A 
ATOM     89  F   UNL A   1      48.092  27.124  30.660  1.00  0.00    -0.206 F 
ATOM     90  C   UNL A   1      49.356  24.852  33.174  1.00  0.00     0.022 A 
BRANCH  87  91
ATOM     91  S   UNL A   1      48.230  23.540  35.363  1.00  0.00     0.124 S 
ATOM     92  O   UNL A   1      49.346  22.637  35.093  1.00  0.00    -0.237 OA
ATOM     93  O   UNL A   1      48.464  24.551  36.388  1.00  0.00    -0.237 OA
ATOM     94  O   UNL A   1      46.915  22.904  35.407  1.00  0.00    -0.744 OA
ENDBRANCH  87  91
ENDBRANCH  61  84
ENDBRANCH  35  36
ENDBRANCH  27  30
ENDBRANCH  25  26
ENDBRANCH  24  25
ENDBRANCH   1  24
TORSDOF 18
ENDMDL
MODEL 2
REMARK VINA RESULT:     -10.3      2.204      7.812
REMARK SMILES C[NH2+]C[C@H](C)C(=O)N1CC[C@@](C(=O)NCCCNC(=O)c2ccc(-c3c4nc(c(-c5cc(S(=O)(=O)[O-])ccc5F)c5ccc([nH]5)c(-c5cc(S(=O)(=O)[O-])ccc5F)c5nc(c(-c6cc(S(=O)(=O)[O-])ccc6F)c6ccc3[nH]6)C=C5)C=C4)cc2)(C(F)(F)F)C1
REMARK SMILES IDX 15 1 14 2 12 3 13 4 11 6 8 7 9 8 88 9 10 10 6 11 7 12 4 13
REMARK SMILES IDX 5 14 3 15 2 16 1 17 84 20 85 21 86 22 87 23 16 24 17 25
REMARK SMILES IDX 18 26 19 27 20 29 21 30 22 31 83 32 23 33 82 34 24 35 25 36
REMARK SMILES IDX 26 37 76 38 27 39 81 40 75 41 77 42 28 43 80 44 74 45 73 46
REMARK SMILES IDX 29 48 61 49 41 50 60 51 42 52 45 53 59 54 78 55 43 56 44 57
REMARK SMILES IDX 58 59 79 60 46 61 30 62 31 63 39 64 32 65 38 66 40 67 37 68
REMARK SMILES IDX 33 69 34 70 35 71 36 72 62 73 63 74 71 75 64 76 70 77 72 78
REMARK SMILES IDX 69 79 65 80 66 81 67 82 68 83 47 84 48 85 56 86 49 87 55 88
REMARK SMILES IDX 57 89 54 90 50 91 51 92 52 93 53 94
REMARK H PARENT 14 5 2 18 2 19 18 28 77 47 45 58
REMARK Flexibility Score: inf
ROOT
ATOM      1  C   UNL A   1      33.322  27.724  24.596  1.00  0.00     0.117 C 
ENDROOT
BRANCH   1   2
ATOM      2  N   UNL A   1      33.692  27.409  23.235  1.00  0.00    -0.355 N 
ATOM      3  C   UNL A   1      33.417  26.302  22.479  1.00  0.00     0.237 C 
ATOM      4  O   UNL A   1      33.656  26.427  21.276  1.00  0.00    -0.274 OA
ATOM      5  H   UNL A   1      34.225  28.099  22.780  1.00  0.00     0.163 HD
BRANCH   3   6
ATOM      6  C   UNL A   1      32.899  24.984  23.068  1.00  0.00     0.163 C 
ATOM      7  N   UNL A   1      34.063  23.179  24.158  1.00  0.00    -0.341 N 
ATOM      8  C   UNL A   1      33.481  22.612  22.962  1.00  0.00     0.121 C 
ATOM      9  C   UNL A   1      33.567  24.543  24.378  1.00  0.00     0.146 C 
ATOM     10  C   UNL A   1      33.103  23.804  22.097  1.00  0.00     0.050 C 
BRANCH   7  11
ATOM     11  C   UNL A   1      34.646  22.478  25.201  1.00  0.00     0.231 C 
ATOM     12  O   UNL A   1      35.880  22.420  25.280  1.00  0.00    -0.274 OA
BRANCH  11  13
ATOM     13  C   UNL A   1      33.799  21.624  26.168  1.00  0.00     0.130 C 
ATOM     14  C   UNL A   1      32.644  22.342  26.860  1.00  0.00     0.024 C 
BRANCH  13  15
ATOM     15  C   UNL A   1      33.355  20.240  25.626  1.00  0.00     0.273 C 
BRANCH  15  16
ATOM     16  N   UNL A   1      34.307  19.515  24.792  1.00  0.00    -0.348 N 
ATOM     17  C   UNL A   1      34.006  18.097  24.650  1.00  0.00     0.330 C 
ATOM     18  H   UNL A   1      34.309  19.937  23.864  1.00  0.00     0.346 HD
ATOM     19  H   UNL A   1      35.215  19.580  25.253  1.00  0.00     0.346 HD
ENDBRANCH  15  16
ENDBRANCH  13  15
ENDBRANCH  11  13
ENDBRANCH   7  11
BRANCH   6  20
ATOM     20  C   UNL A   1      31.418  25.177  23.360  1.00  0.00     0.404 C 
ATOM     21  F   UNL A   1      30.947  26.274  22.709  1.00  0.00    -0.170 F 
ATOM     22  F   UNL A   1      30.670  24.134  22.938  1.00  0.00    -0.170 F 
ATOM     23  F   UNL A   1      31.165  25.384  24.670  1.00  0.00    -0.170 F 
ENDBRANCH   6  20
ENDBRANCH   3   6
ENDBRANCH   1   2
BRANCH   1  24
ATOM     24  C   UNL A   1      33.200  29.210  24.903  1.00  0.00     0.042 C 
BRANCH  24  25
ATOM     25  C   UNL A   1      32.633  29.519  26.281  1.00  0.00     0.118 C 
BRANCH  25  26
ATOM     26  N   UNL A   1      32.475  30.947  26.527  1.00  0.00    -0.352 N 
ATOM     27  C   UNL A   1      33.232  31.818  27.273  1.00  0.00     0.251 C 
ATOM     28  H   UNL A   1      31.696  31.356  26.086  1.00  0.00     0.163 HD
ATOM     29  O   UNL A   1      32.817  32.964  27.447  1.00  0.00    -0.269 OA
BRANCH  27  30
ATOM     30  C   UNL A   1      34.511  31.393  27.885  1.00  0.00     0.039 A 
ATOM     31  C   UNL A   1      35.534  32.335  28.035  1.00  0.00     0.014 A 
ATOM     32  C   UNL A   1      34.720  30.077  28.303  1.00  0.00     0.014 A 
ATOM     33  C   UNL A   1      36.726  31.976  28.671  1.00  0.00     0.010 A 
ATOM     34  C   UNL A   1      35.864  29.748  29.025  1.00  0.00     0.010 A 
ATOM     35  C   UNL A   1      36.884  30.692  29.215  1.00  0.00    -0.014 A 
BRANCH  35  36
ATOM     36  C   UNL A   1      38.100  30.318  29.986  1.00  0.00     0.031 A 
ATOM     37  C   UNL A   1      39.077  29.321  29.415  1.00  0.00     0.074 A 
ATOM     38  C   UNL A   1      38.284  30.816  31.226  1.00  0.00     0.049 A 
ATOM     39  N   UNL A   1      40.142  28.799  29.968  1.00  0.00    -0.248 NA
ATOM     40  C   UNL A   1      38.804  28.821  28.057  1.00  0.00     0.031 C 
ATOM     41  C   UNL A   1      37.380  31.750  31.904  1.00  0.00     0.029 A 
ATOM     42  N   UNL A   1      39.281  30.600  32.147  1.00  0.00    -0.354 N 
ATOM     43  C   UNL A   1      40.649  27.894  29.040  1.00  0.00     0.074 A 
ATOM     44  C   UNL A   1      39.748  27.904  27.908  1.00  0.00     0.031 C 
ATOM     45  C   UNL A   1      37.874  32.042  33.118  1.00  0.00     0.029 A 
ATOM     46  C   UNL A   1      39.098  31.276  33.334  1.00  0.00     0.049 A 
ATOM     47  H   UNL A   1      40.054  30.017  31.974  1.00  0.00     0.167 HD
ATOM     48  C   UNL A   1      41.771  27.138  29.122  1.00  0.00     0.034 A 
ATOM     49  C   UNL A   1      39.820  31.265  34.473  1.00  0.00     0.034 A 
ATOM     50  C   UNL A   1      42.676  27.168  30.243  1.00  0.00     0.049 A 
ATOM     51  C   UNL A   1      41.066  30.412  34.531  1.00  0.00     0.074 A 
ATOM     52  C   UNL A   1      43.887  26.513  30.385  1.00  0.00     0.029 A 
ATOM     53  N   UNL A   1      42.469  27.881  31.416  1.00  0.00    -0.354 N 
ATOM     54  N   UNL A   1      41.570  29.624  33.608  1.00  0.00    -0.248 NA
ATOM     55  C   UNL A   1      41.846  30.458  35.774  1.00  0.00     0.031 C 
ATOM     56  C   UNL A   1      44.369  26.761  31.673  1.00  0.00     0.029 A 
ATOM     57  C   UNL A   1      43.509  27.645  32.302  1.00  0.00     0.049 A 
ATOM     58  H   UNL A   1      41.698  28.467  31.593  1.00  0.00     0.167 HD
ATOM     59  C   UNL A   1      42.746  29.111  34.152  1.00  0.00     0.074 A 
ATOM     60  C   UNL A   1      42.885  29.696  35.468  1.00  0.00     0.031 C 
ATOM     61  C   UNL A   1      43.633  28.237  33.613  1.00  0.00     0.034 A 
BRANCH  48  62
ATOM     62  C   UNL A   1      42.076  26.193  27.984  1.00  0.00     0.023 A 
ATOM     63  C   UNL A   1      41.672  24.848  28.002  1.00  0.00     0.031 A 
ATOM     64  C   UNL A   1      42.754  26.663  26.845  1.00  0.00     0.131 A 
ATOM     65  C   UNL A   1      41.988  24.008  26.922  1.00  0.00     0.055 A 
ATOM     66  C   UNL A   1      43.001  25.843  25.744  1.00  0.00     0.041 A 
ATOM     67  F   UNL A   1      43.183  27.933  26.781  1.00  0.00    -0.206 F 
ATOM     68  C   UNL A   1      42.625  24.504  25.781  1.00  0.00     0.022 A 
BRANCH  65  69
ATOM     69  S   UNL A   1      41.645  22.234  27.070  1.00  0.00     0.124 S 
ATOM     70  O   UNL A   1      42.651  21.819  28.046  1.00  0.00    -0.237 OA
ATOM     71  O   UNL A   1      40.263  22.216  27.532  1.00  0.00    -0.237 OA
ATOM     72  O   UNL A   1      41.857  21.730  25.714  1.00  0.00    -0.744 OA
ENDBRANCH  65  69
ENDBRANCH  48  62
BRANCH  49  73
ATOM     73  C   UNL A   1      39.383  32.050  35.667  1.00  0.00     0.023 A 
ATOM     74  C   UNL A   1      38.684  31.440  36.722  1.00  0.00     0.031 A 
ATOM     75  C   UNL A   1      39.581  33.441  35.732  1.00  0.00     0.131 A 
ATOM     76  C   UNL A   1      38.142  32.225  37.751  1.00  0.00     0.055 A 
ATOM     77  C   UNL A   1      39.103  34.208  36.797  1.00  0.00     0.041 A 
ATOM     78  F   UNL A   1      40.244  34.081  34.755  1.00  0.00    -0.206 F 
ATOM     79  C   UNL A   1      38.359  33.602  37.805  1.00  0.00     0.022 A 
BRANCH  76  80
ATOM     80  S   UNL A   1      37.025  31.436  38.946  1.00  0.00     0.124 S 
ATOM     81  O   UNL A   1      35.854  32.301  38.869  1.00  0.00    -0.237 OA
ATOM     82  O   UNL A   1      36.876  30.099  38.382  1.00  0.00    -0.237 OA
ATOM     83  O   UNL A   1      37.771  31.504  40.201  1.00  0.00    -0.744 OA
ENDBRANCH  76  80
ENDBRANCH  49  73
BRANCH  61  84
ATOM     84  C   UNL A   1      44.859  27.907  34.430  1.00  0.00     0.023 A 
ATOM     85  C   UNL A   1      44.891  26.812  35.312  1.00  0.00     0.031 A 
ATOM     86  C   UNL A   1      46.010  28.708  34.327  1.00  0.00     0.131 A 
ATOM     87  C   UNL A   1      46.027  26.587  36.102  1.00  0.00     0.055 A 
ATOM     88  C   UNL A   1      47.163  28.435  35.064  1.00  0.00     0.041 A 
ATOM     89  F   UNL A   1      46.036  29.768  33.503  1.00  0.00    -0.206 F 
ATOM     90  C   UNL A   1      47.171  27.379  35.969  1.00  0.00     0.022 A 
BRANCH  87  91
ATOM     91  S   UNL A   1      45.955  25.304  37.382  1.00  0.00     0.124 S 
ATOM     92  O   UNL A   1      44.740  25.666  38.105  1.00  0.00    -0.237 OA
ATOM     93  O   UNL A   1      45.884  24.078  36.593  1.00  0.00    -0.237 OA
ATOM     94  O   UNL A   1      47.198  25.492  38.126  1.00  0.00    -0.744 OA
ENDBRANCH  87  91
ENDBRANCH  61  84
ENDBRANCH  35  36
ENDBRANCH  27  30
ENDBRANCH  25  26
ENDBRANCH  24  25
ENDBRANCH   1  24
TORSDOF 18
ENDMDL
MODEL 3
REMARK VINA RESULT:     -10.2      2.281      3.022
REMARK SMILES C[NH2+]C[C@H](C)C(=O)N1CC[C@@](C(=O)NCCCNC(=O)c2ccc(-c3c4nc(c(-c5cc(S(=O)(=O)[O-])ccc5F)c5ccc([nH]5)c(-c5cc(S(=O)(=O)[O-])ccc5F)c5nc(c(-c6cc(S(=O)(=O)[O-])ccc6F)c6ccc3[nH]6)C=C5)C=C4)cc2)(C(F)(F)F)C1
REMARK SMILES IDX 15 1 14 2 12 3 13 4 11 6 8 7 9 8 88 9 10 10 6 11 7 12 4 13
REMARK SMILES IDX 5 14 3 15 2 16 1 17 84 20 85 21 86 22 87 23 16 24 17 25
REMARK SMILES IDX 18 26 19 27 20 29 21 30 22 31 83 32 23 33 82 34 24 35 25 36
REMARK SMILES IDX 26 37 76 38 27 39 81 40 75 41 77 42 28 43 80 44 74 45 73 46
REMARK SMILES IDX 29 48 61 49 41 50 60 51 42 52 45 53 59 54 78 55 43 56 44 57
REMARK SMILES IDX 58 59 79 60 46 61 30 62 31 63 39 64 32 65 38 66 40 67 37 68
REMARK SMILES IDX 33 69 34 70 35 71 36 72 62 73 63 74 71 75 64 76 70 77 72 78
REMARK SMILES IDX 69 79 65 80 66 81 67 82 68 83 47 84 48 85 56 86 49 87 55 88
REMARK SMILES IDX 57 89 54 90 50 91 51 92 52 93 53 94
REMARK H PARENT 14 5 2 18 2 19 18 28 77 47 45 58
REMARK Flexibility Score: inf
ROOT
ATOM      1  C   UNL A   1      32.147  27.694  24.292  1.00  0.00     0.117 C 
ENDROOT
BRANCH   1   2
ATOM      2  N   UNL A   1      32.944  27.190  23.197  1.00  0.00    -0.355 N 
ATOM      3  C   UNL A   1      33.290  25.908  22.873  1.00  0.00     0.237 C 
ATOM      4  O   UNL A   1      33.772  25.772  21.747  1.00  0.00    -0.274 OA
ATOM      5  H   UNL A   1      33.294  27.880  22.588  1.00  0.00     0.163 HD
BRANCH   3   6
ATOM      6  C   UNL A   1      33.143  24.724  23.838  1.00  0.00     0.163 C 
ATOM      7  N   UNL A   1      32.243  22.515  23.500  1.00  0.00    -0.341 N 
ATOM      8  C   UNL A   1      31.401  23.140  24.496  1.00  0.00     0.121 C 
ATOM      9  C   UNL A   1      33.425  23.343  23.231  1.00  0.00     0.146 C 
ATOM     10  C   UNL A   1      31.715  24.626  24.412  1.00  0.00     0.050 C 
BRANCH   7  11
ATOM     11  C   UNL A   1      32.238  21.178  23.140  1.00  0.00     0.231 C 
ATOM     12  O   UNL A   1      31.871  20.857  22.003  1.00  0.00    -0.274 OA
BRANCH  11  13
ATOM     13  C   UNL A   1      32.511  20.067  24.175  1.00  0.00     0.130 C 
ATOM     14  C   UNL A   1      32.596  18.646  23.627  1.00  0.00     0.024 C 
BRANCH  13  15
ATOM     15  C   UNL A   1      33.661  20.352  25.177  1.00  0.00     0.273 C 
BRANCH  15  16
ATOM     16  N   UNL A   1      33.302  20.474  26.586  1.00  0.00    -0.348 N 
ATOM     17  C   UNL A   1      34.013  21.534  27.286  1.00  0.00     0.330 C 
ATOM     18  H   UNL A   1      32.302  20.662  26.648  1.00  0.00     0.346 HD
ATOM     19  H   UNL A   1      33.563  19.595  27.035  1.00  0.00     0.346 HD
ENDBRANCH  15  16
ENDBRANCH  13  15
ENDBRANCH  11  13
ENDBRANCH   7  11
BRANCH   6  20
ATOM     20  C   UNL A   1      34.149  24.937  24.960  1.00  0.00     0.404 C 
ATOM     21  F   UNL A   1      33.521  24.926  26.166  1.00  0.00    -0.170 F 
ATOM     22  F   UNL A   1      35.081  23.959  25.009  1.00  0.00    -0.170 F 
ATOM     23  F   UNL A   1      34.779  26.128  24.879  1.00  0.00    -0.170 F 
ENDBRANCH   6  20
ENDBRANCH   3   6
ENDBRANCH   1   2
BRANCH   1  24
ATOM     24  C   UNL A   1      32.349  29.168  24.613  1.00  0.00     0.042 C 
BRANCH  24  25
ATOM     25  C   UNL A   1      32.658  29.453  26.075  1.00  0.00     0.118 C 
BRANCH  25  26
ATOM     26  N   UNL A   1      32.537  30.864  26.421  1.00  0.00    -0.352 N 
ATOM     27  C   UNL A   1      33.324  31.665  27.214  1.00  0.00     0.251 C 
ATOM     28  H   UNL A   1      31.762  31.320  26.019  1.00  0.00     0.163 HD
ATOM     29  O   UNL A   1      32.938  32.805  27.471  1.00  0.00    -0.269 OA
BRANCH  27  30
ATOM     30  C   UNL A   1      34.600  31.170  27.778  1.00  0.00     0.039 A 
ATOM     31  C   UNL A   1      35.646  32.076  27.978  1.00  0.00     0.014 A 
ATOM     32  C   UNL A   1      34.783  29.823  28.101  1.00  0.00     0.014 A 
ATOM     33  C   UNL A   1      36.837  31.647  28.571  1.00  0.00     0.010 A 
ATOM     34  C   UNL A   1      35.928  29.420  28.782  1.00  0.00     0.010 A 
ATOM     35  C   UNL A   1      36.972  30.325  29.023  1.00  0.00    -0.014 A 
BRANCH  35  36
ATOM     36  C   UNL A   1      38.189  29.871  29.749  1.00  0.00     0.031 A 
ATOM     37  C   UNL A   1      38.492  30.411  31.123  1.00  0.00     0.074 A 
ATOM     38  C   UNL A   1      39.055  29.035  29.140  1.00  0.00     0.049 A 
ATOM     39  N   UNL A   1      39.544  30.209  31.875  1.00  0.00    -0.248 NA
ATOM     40  C   UNL A   1      37.500  31.321  31.717  1.00  0.00     0.031 C 
ATOM     41  C   UNL A   1      38.893  28.485  27.790  1.00  0.00     0.029 A 
ATOM     42  N   UNL A   1      40.251  28.508  29.564  1.00  0.00    -0.354 N 
ATOM     43  C   UNL A   1      39.352  30.984  33.015  1.00  0.00     0.074 A 
ATOM     44  C   UNL A   1      38.106  31.696  32.834  1.00  0.00     0.031 C 
ATOM     45  C   UNL A   1      39.935  27.686  27.509  1.00  0.00     0.029 A 
ATOM     46  C   UNL A   1      40.869  27.707  28.629  1.00  0.00     0.049 A 
ATOM     47  H   UNL A   1      40.631  28.687  30.454  1.00  0.00     0.167 HD
ATOM     48  C   UNL A   1      40.138  31.080  34.115  1.00  0.00     0.034 A 
ATOM     49  C   UNL A   1      42.063  27.078  28.661  1.00  0.00     0.034 A 
ATOM     50  C   UNL A   1      41.359  30.335  34.293  1.00  0.00     0.049 A 
ATOM     51  C   UNL A   1      42.913  27.203  29.903  1.00  0.00     0.074 A 
ATOM     52  C   UNL A   1      42.180  30.288  35.407  1.00  0.00     0.029 A 
ATOM     53  N   UNL A   1      41.941  29.517  33.335  1.00  0.00    -0.354 N 
ATOM     54  N   UNL A   1      42.672  27.880  31.003  1.00  0.00    -0.248 NA
ATOM     55  C   UNL A   1      44.186  26.471  29.914  1.00  0.00     0.031 C 
ATOM     56  C   UNL A   1      43.299  29.512  35.093  1.00  0.00     0.029 A 
ATOM     57  C   UNL A   1      43.132  28.997  33.818  1.00  0.00     0.049 A 
ATOM     58  H   UNL A   1      41.565  29.334  32.444  1.00  0.00     0.167 HD
ATOM     59  C   UNL A   1      43.750  27.622  31.848  1.00  0.00     0.074 A 
ATOM     60  C   UNL A   1      44.625  26.713  31.139  1.00  0.00     0.031 C 
ATOM     61  C   UNL A   1      43.995  28.091  33.098  1.00  0.00     0.034 A 
BRANCH  48  62
ATOM     62  C   UNL A   1      39.722  32.039  35.205  1.00  0.00     0.023 A 
ATOM     63  C   UNL A   1      40.244  33.340  35.294  1.00  0.00     0.031 A 
ATOM     64  C   UNL A   1      38.756  31.650  36.150  1.00  0.00     0.131 A 
ATOM     65  C   UNL A   1      39.830  34.190  36.332  1.00  0.00     0.055 A 
ATOM     66  C   UNL A   1      38.295  32.524  37.136  1.00  0.00     0.041 A 
ATOM     67  F   UNL A   1      38.238  30.412  36.128  1.00  0.00    -0.206 F 
ATOM     68  C   UNL A   1      38.839  33.800  37.236  1.00  0.00     0.022 A 
BRANCH  65  69
ATOM     69  S   UNL A   1      40.679  35.777  36.547  1.00  0.00     0.124 S 
ATOM     70  O   UNL A   1      39.704  36.711  35.988  1.00  0.00    -0.237 OA
ATOM     71  O   UNL A   1      40.869  35.842  37.991  1.00  0.00    -0.237 OA
ATOM     72  O   UNL A   1      41.903  35.622  35.762  1.00  0.00    -0.744 OA
ENDBRANCH  65  69
ENDBRANCH  48  62
BRANCH  49  73
ATOM     73  C   UNL A   1      42.552  26.300  27.483  1.00  0.00     0.023 A 
ATOM     74  C   UNL A   1      42.388  24.907  27.413  1.00  0.00     0.031 A 
ATOM     75  C   UNL A   1      43.271  26.926  26.449  1.00  0.00     0.131 A 
ATOM     76  C   UNL A   1      42.998  24.179  26.380  1.00  0.00     0.055 A 
ATOM     77  C   UNL A   1      43.815  26.206  25.383  1.00  0.00     0.041 A 
ATOM     78  F   UNL A   1      43.461  28.256  26.459  1.00  0.00    -0.206 F 
ATOM     79  C   UNL A   1      43.698  24.820  25.355  1.00  0.00     0.022 A 
BRANCH  76  80
ATOM     80  S   UNL A   1      42.985  22.366  26.472  1.00  0.00     0.124 S 
ATOM     81  O   UNL A   1      42.004  22.027  25.448  1.00  0.00    -0.237 OA
ATOM     82  O   UNL A   1      44.374  22.039  26.166  1.00  0.00    -0.237 OA
ATOM     83  O   UNL A   1      42.570  22.101  27.848  1.00  0.00    -0.744 OA
ENDBRANCH  76  80
ENDBRANCH  49  73
BRANCH  61  84
ATOM     84  C   UNL A   1      45.234  27.582  33.795  1.00  0.00     0.023 A 
ATOM     85  C   UNL A   1      45.240  26.369  34.506  1.00  0.00     0.031 A 
ATOM     86  C   UNL A   1      46.424  28.329  33.751  1.00  0.00     0.131 A 
ATOM     87  C   UNL A   1      46.394  25.971  35.197  1.00  0.00     0.055 A 
ATOM     88  C   UNL A   1      47.589  27.892  34.381  1.00  0.00     0.041 A 
ATOM     89  F   UNL A   1      46.475  29.497  33.089  1.00  0.00    -0.206 F 
ATOM     90  C   UNL A   1      47.575  26.715  35.122  1.00  0.00     0.022 A 
BRANCH  87  91
ATOM     91  S   UNL A   1      46.302  24.519  36.278  1.00  0.00     0.124 S 
ATOM     92  O   UNL A   1      45.021  23.934  35.893  1.00  0.00    -0.237 OA
ATOM     93  O   UNL A   1      47.489  23.764  35.890  1.00  0.00    -0.237 OA
ATOM     94  O   UNL A   1      46.344  25.090  37.623  1.00  0.00    -0.744 OA
ENDBRANCH  87  91
ENDBRANCH  61  84
ENDBRANCH  35  36
ENDBRANCH  27  30
ENDBRANCH  25  26
ENDBRANCH  24  25
ENDBRANCH   1  24
TORSDOF 18
ENDMDL
