MODEL 1
REMARK VINA RESULT:     -11.1      0.000      0.000
REMARK SMILES O=C(NCCCNC(=O)[C@@]1(Cl)C[C@@H]2CC[C@H]1C2)c1ccc(-c2c3nc(c(-c4cc(S(=O)(=O)[O-])ccc4F)c4ccc([nH]4)c(-c4cc(S(=O)(=O)[O-])ccc4F)c4nc(c(-c5cc(S(=O)(=O)[O-])ccc5F)c5ccc2[nH]5)C=C4)C=C3)cc1
REMARK SMILES IDX 1 1 2 2 3 3 18 5 19 6 80 7 20 8 79 9 21 10 22 11 23 12 73 13
REMARK SMILES IDX 24 14 78 15 72 16 74 17 25 18 77 19 71 20 70 21 26 23 58 24
REMARK SMILES IDX 38 25 57 26 39 27 42 28 56 29 75 30 40 31 41 32 55 34 76 35
REMARK SMILES IDX 43 36 27 37 28 38 36 39 29 40 35 41 37 42 34 43 30 44 31 45
REMARK SMILES IDX 32 46 33 47 59 48 60 49 68 50 61 51 67 52 69 53 66 54 62 55
REMARK SMILES IDX 63 56 64 57 65 58 44 59 45 60 53 61 46 62 52 63 54 64 51 65
REMARK SMILES IDX 47 66 48 67 49 68 50 69 4 70 5 71 6 72 7 73 8 74 9 76 10 77
REMARK SMILES IDX 12 78 16 79 11 80 13 81 15 82 17 83 14 84
REMARK H PARENT 3 4 74 22 42 33 7 75
REMARK Flexibility Score: inf
ROOT
ATOM      1  O   UNL A   1      32.919  32.495  27.190  1.00  0.00    -0.269 OA
ATOM      2  C   UNL A   1      33.801  33.197  27.682  1.00  0.00     0.251 C 
ATOM      3  N   UNL A   1      33.681  34.564  27.636  1.00  0.00    -0.352 N 
ATOM      4  H   UNL A   1      32.802  34.899  27.345  1.00  0.00     0.163 HD
ENDROOT
BRANCH   2   5
ATOM      5  C   UNL A   1      34.985  32.572  28.310  1.00  0.00     0.039 A 
ATOM      6  C   UNL A   1      36.244  33.167  28.213  1.00  0.00     0.014 A 
ATOM      7  C   UNL A   1      34.826  31.390  29.042  1.00  0.00     0.014 A 
ATOM      8  C   UNL A   1      37.361  32.522  28.736  1.00  0.00     0.010 A 
ATOM      9  C   UNL A   1      35.937  30.787  29.640  1.00  0.00     0.010 A 
ATOM     10  C   UNL A   1      37.218  31.338  29.476  1.00  0.00    -0.014 A 
BRANCH  10  11
ATOM     11  C   UNL A   1      38.411  30.739  30.130  1.00  0.00     0.031 A 
ATOM     12  C   UNL A   1      38.812  31.128  31.525  1.00  0.00     0.074 A 
ATOM     13  C   UNL A   1      39.122  29.816  29.450  1.00  0.00     0.049 A 
ATOM     14  N   UNL A   1      39.822  30.703  32.240  1.00  0.00    -0.248 NA
ATOM     15  C   UNL A   1      37.976  32.130  32.203  1.00  0.00     0.031 C 
ATOM     16  C   UNL A   1      38.825  29.365  28.086  1.00  0.00     0.029 A 
ATOM     17  N   UNL A   1      40.224  29.082  29.805  1.00  0.00    -0.354 N 
ATOM     18  C   UNL A   1      39.754  31.390  33.447  1.00  0.00     0.074 A 
ATOM     19  C   UNL A   1      38.620  32.286  33.353  1.00  0.00     0.031 C 
ATOM     20  C   UNL A   1      39.696  28.407  27.740  1.00  0.00     0.029 A 
ATOM     21  C   UNL A   1      40.658  28.226  28.820  1.00  0.00     0.049 A 
ATOM     22  H   UNL A   1      40.664  29.161  30.683  1.00  0.00     0.167 HD
ATOM     23  C   UNL A   1      40.560  31.276  34.533  1.00  0.00     0.034 A 
ATOM     24  C   UNL A   1      41.725  27.405  28.776  1.00  0.00     0.034 A 
ATOM     25  C   UNL A   1      41.689  30.375  34.605  1.00  0.00     0.049 A 
ATOM     26  C   UNL A   1      42.632  27.338  29.977  1.00  0.00     0.074 A 
ATOM     27  C   UNL A   1      42.550  30.158  35.668  1.00  0.00     0.029 A 
ATOM     28  N   UNL A   1      42.123  29.553  33.572  1.00  0.00    -0.354 N 
ATOM     29  N   UNL A   1      42.535  27.977  31.120  1.00  0.00    -0.248 NA
ATOM     30  C   UNL A   1      43.786  26.437  29.883  1.00  0.00     0.031 C 
ATOM     31  C   UNL A   1      43.543  29.265  35.255  1.00  0.00     0.029 A 
ATOM     32  C   UNL A   1      43.258  28.856  33.962  1.00  0.00     0.049 A 
ATOM     33  H   UNL A   1      41.688  29.476  32.693  1.00  0.00     0.167 HD
ATOM     34  C   UNL A   1      43.604  27.530  31.892  1.00  0.00     0.074 A 
ATOM     35  C   UNL A   1      44.315  26.555  31.091  1.00  0.00     0.031 C 
ATOM     36  C   UNL A   1      43.965  27.894  33.149  1.00  0.00     0.034 A 
BRANCH  23  37
ATOM     37  C   UNL A   1      40.282  32.175  35.714  1.00  0.00     0.023 A 
ATOM     38  C   UNL A   1      39.248  31.905  36.628  1.00  0.00     0.031 A 
ATOM     39  C   UNL A   1      41.072  33.319  35.935  1.00  0.00     0.131 A 
ATOM     40  C   UNL A   1      38.998  32.793  37.686  1.00  0.00     0.055 A 
ATOM     41  C   UNL A   1      40.864  34.158  37.031  1.00  0.00     0.041 A 
ATOM     42  F   UNL A   1      42.060  33.641  35.085  1.00  0.00    -0.206 F 
ATOM     43  C   UNL A   1      39.816  33.904  37.908  1.00  0.00     0.022 A 
BRANCH  40  44
ATOM     44  S   UNL A   1      37.515  32.541  38.699  1.00  0.00     0.124 S 
ATOM     45  O   UNL A   1      37.526  31.093  38.888  1.00  0.00    -0.237 OA
ATOM     46  O   UNL A   1      37.802  33.341  39.884  1.00  0.00    -0.237 OA
ATOM     47  O   UNL A   1      36.432  33.043  37.855  1.00  0.00    -0.744 OA
ENDBRANCH  40  44
ENDBRANCH  23  37
BRANCH  24  48
ATOM     48  C   UNL A   1      42.021  26.616  27.546  1.00  0.00     0.023 A 
ATOM     49  C   UNL A   1      41.702  25.252  27.465  1.00  0.00     0.031 A 
ATOM     50  C   UNL A   1      42.673  27.206  26.448  1.00  0.00     0.131 A 
ATOM     51  C   UNL A   1      42.082  24.512  26.335  1.00  0.00     0.055 A 
ATOM     52  C   UNL A   1      42.991  26.479  25.300  1.00  0.00     0.041 A 
ATOM     53  F   UNL A   1      43.001  28.508  26.471  1.00  0.00    -0.206 F 
ATOM     54  C   UNL A   1      42.710  25.119  25.246  1.00  0.00     0.022 A 
BRANCH  51  55
ATOM     55  S   UNL A   1      41.841  22.714  26.357  1.00  0.00     0.124 S 
ATOM     56  O   UNL A   1      40.387  22.609  26.366  1.00  0.00    -0.237 OA
ATOM     57  O   UNL A   1      42.508  22.305  25.125  1.00  0.00    -0.237 OA
ATOM     58  O   UNL A   1      42.506  22.298  27.591  1.00  0.00    -0.744 OA
ENDBRANCH  51  55
ENDBRANCH  24  48
BRANCH  36  59
ATOM     59  C   UNL A   1      45.160  27.190  33.745  1.00  0.00     0.023 A 
ATOM     60  C   UNL A   1      45.038  25.957  34.408  1.00  0.00     0.031 A 
ATOM     61  C   UNL A   1      46.435  27.776  33.666  1.00  0.00     0.131 A 
ATOM     62  C   UNL A   1      46.160  25.379  35.022  1.00  0.00     0.055 A 
ATOM     63  C   UNL A   1      47.560  27.165  34.221  1.00  0.00     0.041 A 
ATOM     64  F   UNL A   1      46.610  28.955  33.048  1.00  0.00    -0.206 F 
ATOM     65  C   UNL A   1      47.423  25.967  34.916  1.00  0.00     0.022 A 
BRANCH  62  66
ATOM     66  S   UNL A   1      45.928  23.900  36.045  1.00  0.00     0.124 S 
ATOM     67  O   UNL A   1      46.029  24.446  37.394  1.00  0.00    -0.237 OA
ATOM     68  O   UNL A   1      44.604  23.443  35.639  1.00  0.00    -0.237 OA
ATOM     69  O   UNL A   1      47.033  23.030  35.644  1.00  0.00    -0.744 OA
ENDBRANCH  62  66
ENDBRANCH  36  59
ENDBRANCH  10  11
ENDBRANCH   2   5
BRANCH   3  70
ATOM     70  C   UNL A   1      34.664  35.590  27.953  1.00  0.00     0.118 C 
BRANCH  70  71
ATOM     71  C   UNL A   1      34.021  36.927  28.302  1.00  0.00     0.042 C 
BRANCH  71  72
ATOM     72  C   UNL A   1      32.947  36.831  29.383  1.00  0.00     0.117 C 
BRANCH  72  73
ATOM     73  N   UNL A   1      33.321  37.590  30.562  1.00  0.00    -0.354 N 
ATOM     74  C   UNL A   1      33.540  37.214  31.852  1.00  0.00     0.241 C 
ATOM     75  H   UNL A   1      33.436  38.554  30.399  1.00  0.00     0.163 HD
ATOM     76  O   UNL A   1      33.827  38.133  32.628  1.00  0.00    -0.273 OA
BRANCH  74  77
ATOM     77  C   UNL A   1      33.513  35.731  32.310  1.00  0.00     0.126 C 
ATOM     78  C   UNL A   1      33.868  34.775  31.132  1.00  0.00     0.037 C 
ATOM     79  C   UNL A   1      34.588  35.334  33.361  1.00  0.00     0.020 C 
ATOM     80  Cl  UNL A   1      31.825  35.431  32.858  1.00  0.00    -0.108 Cl
ATOM     81  C   UNL A   1      35.115  34.025  31.642  1.00  0.00    -0.009 C 
ATOM     82  C   UNL A   1      34.364  33.911  33.916  1.00  0.00     0.006 C 
ATOM     83  C   UNL A   1      35.815  35.096  32.473  1.00  0.00     0.009 C 
ATOM     84  C   UNL A   1      34.679  33.015  32.714  1.00  0.00     0.004 C 
ENDBRANCH  74  77
ENDBRANCH  72  73
ENDBRANCH  71  72
ENDBRANCH  70  71
ENDBRANCH   3  70
TORSDOF 13
ENDMDL
MODEL 2
REMARK VINA RESULT:     -11.1      6.193     13.409
REMARK SMILES O=C(NCCCNC(=O)[C@@]1(Cl)C[C@@H]2CC[C@H]1C2)c1ccc(-c2c3nc(c(-c4cc(S(=O)(=O)[O-])ccc4F)c4ccc([nH]4)c(-c4cc(S(=O)(=O)[O-])ccc4F)c4nc(c(-c5cc(S(=O)(=O)[O-])ccc5F)c5ccc2[nH]5)C=C4)C=C3)cc1
REMARK SMILES IDX 1 1 2 2 3 3 18 5 19 6 80 7 20 8 79 9 21 10 22 11 23 12 73 13
REMARK SMILES IDX 24 14 78 15 72 16 74 17 25 18 77 19 71 20 70 21 26 23 58 24
REMARK SMILES IDX 38 25 57 26 39 27 42 28 56 29 75 30 40 31 41 32 55 34 76 35
REMARK SMILES IDX 43 36 27 37 28 38 36 39 29 40 35 41 37 42 34 43 30 44 31 45
REMARK SMILES IDX 32 46 33 47 59 48 60 49 68 50 61 51 67 52 69 53 66 54 62 55
REMARK SMILES IDX 63 56 64 57 65 58 44 59 45 60 53 61 46 62 52 63 54 64 51 65
REMARK SMILES IDX 47 66 48 67 49 68 50 69 4 70 5 71 6 72 7 73 8 74 9 76 10 77
REMARK SMILES IDX 12 78 16 79 11 80 13 81 15 82 17 83 14 84
REMARK H PARENT 3 4 74 22 42 33 7 75
REMARK Flexibility Score: inf
ROOT
ATOM      1  O   UNL A   1      38.965  20.430  25.917  1.00  0.00    -0.269 OA
ATOM      2  C   UNL A   1      40.017  20.616  26.526  1.00  0.00     0.251 C 
ATOM      3  N   UNL A   1      40.762  19.537  26.934  1.00  0.00    -0.352 N 
ATOM      4  H   UNL A   1      40.479  18.668  26.567  1.00  0.00     0.163 HD
ENDROOT
BRANCH   2   5
ATOM      5  C   UNL A   1      40.471  21.992  26.823  1.00  0.00     0.039 A 
ATOM      6  C   UNL A   1      41.328  22.247  27.895  1.00  0.00     0.014 A 
ATOM      7  C   UNL A   1      40.063  23.040  25.992  1.00  0.00     0.014 A 
ATOM      8  C   UNL A   1      41.676  23.556  28.212  1.00  0.00     0.010 A 
ATOM      9  C   UNL A   1      40.482  24.347  26.261  1.00  0.00     0.010 A 
ATOM     10  C   UNL A   1      41.278  24.619  27.385  1.00  0.00    -0.014 A 
BRANCH  10  11
ATOM     11  C   UNL A   1      41.768  25.992  27.676  1.00  0.00     0.031 A 
ATOM     12  C   UNL A   1      43.106  26.463  27.177  1.00  0.00     0.074 A 
ATOM     13  C   UNL A   1      40.975  26.821  28.385  1.00  0.00     0.049 A 
ATOM     14  N   UNL A   1      43.683  27.626  27.341  1.00  0.00    -0.248 NA
ATOM     15  C   UNL A   1      43.902  25.502  26.399  1.00  0.00     0.031 C 
ATOM     16  C   UNL A   1      39.658  26.467  28.923  1.00  0.00     0.029 A 
ATOM     17  N   UNL A   1      41.146  28.128  28.766  1.00  0.00    -0.354 N 
ATOM     18  C   UNL A   1      44.913  27.537  26.700  1.00  0.00     0.074 A 
ATOM     19  C   UNL A   1      45.012  26.192  26.172  1.00  0.00     0.031 C 
ATOM     20  C   UNL A   1      39.126  27.540  29.526  1.00  0.00     0.029 A 
ATOM     21  C   UNL A   1      40.088  28.634  29.487  1.00  0.00     0.049 A 
ATOM     22  H   UNL A   1      41.948  28.653  28.545  1.00  0.00     0.167 HD
ATOM     23  C   UNL A   1      45.866  28.494  26.562  1.00  0.00     0.034 A 
ATOM     24  C   UNL A   1      39.920  29.834  30.074  1.00  0.00     0.034 A 
ATOM     25  C   UNL A   1      45.747  29.831  27.099  1.00  0.00     0.049 A 
ATOM     26  C   UNL A   1      41.017  30.859  29.946  1.00  0.00     0.074 A 
ATOM     27  C   UNL A   1      46.638  30.885  26.987  1.00  0.00     0.029 A 
ATOM     28  N   UNL A   1      44.680  30.296  27.858  1.00  0.00    -0.354 N 
ATOM     29  N   UNL A   1      42.163  30.765  29.313  1.00  0.00    -0.248 NA
ATOM     30  C   UNL A   1      40.796  32.149  30.608  1.00  0.00     0.031 C 
ATOM     31  C   UNL A   1      46.147  31.959  27.738  1.00  0.00     0.029 A 
ATOM     32  C   UNL A   1      44.908  31.607  28.250  1.00  0.00     0.049 A 
ATOM     33  H   UNL A   1      43.879  29.771  28.085  1.00  0.00     0.167 HD
ATOM     34  C   UNL A   1      42.786  31.998  29.478  1.00  0.00     0.074 A 
ATOM     35  C   UNL A   1      41.879  32.822  30.251  1.00  0.00     0.031 C 
ATOM     36  C   UNL A   1      44.000  32.413  29.031  1.00  0.00     0.034 A 
BRANCH  23  37
ATOM     37  C   UNL A   1      47.138  28.120  25.840  1.00  0.00     0.023 A 
ATOM     38  C   UNL A   1      47.253  28.204  24.441  1.00  0.00     0.031 A 
ATOM     39  C   UNL A   1      48.262  27.681  26.566  1.00  0.00     0.131 A 
ATOM     40  C   UNL A   1      48.442  27.804  23.809  1.00  0.00     0.055 A 
ATOM     41  C   UNL A   1      49.465  27.354  25.937  1.00  0.00     0.041 A 
ATOM     42  F   UNL A   1      48.206  27.560  27.902  1.00  0.00    -0.206 F 
ATOM     43  C   UNL A   1      49.557  27.404  24.551  1.00  0.00     0.022 A 
BRANCH  40  44
ATOM     44  S   UNL A   1      48.471  27.700  21.999  1.00  0.00     0.124 S 
ATOM     45  O   UNL A   1      48.690  26.271  21.787  1.00  0.00    -0.237 OA
ATOM     46  O   UNL A   1      47.153  28.204  21.632  1.00  0.00    -0.237 OA
ATOM     47  O   UNL A   1      49.594  28.557  21.623  1.00  0.00    -0.744 OA
ENDBRANCH  40  44
ENDBRANCH  23  37
BRANCH  24  48
ATOM     48  C   UNL A   1      38.691  30.121  30.868  1.00  0.00     0.023 A 
ATOM     49  C   UNL A   1      37.649  30.896  30.337  1.00  0.00     0.031 A 
ATOM     50  C   UNL A   1      38.563  29.662  32.192  1.00  0.00     0.131 A 
ATOM     51  C   UNL A   1      36.550  31.233  31.142  1.00  0.00     0.055 A 
ATOM     52  C   UNL A   1      37.438  29.947  32.967  1.00  0.00     0.041 A 
ATOM     53  F   UNL A   1      39.530  28.916  32.749  1.00  0.00    -0.206 F 
ATOM     54  C   UNL A   1      36.430  30.751  32.447  1.00  0.00     0.022 A 
BRANCH  51  55
ATOM     55  S   UNL A   1      35.329  32.407  30.492  1.00  0.00     0.124 S 
ATOM     56  O   UNL A   1      34.392  32.508  31.605  1.00  0.00    -0.237 OA
ATOM     57  O   UNL A   1      36.150  33.585  30.234  1.00  0.00    -0.237 OA
ATOM     58  O   UNL A   1      34.814  31.735  29.301  1.00  0.00    -0.744 OA
ENDBRANCH  51  55
ENDBRANCH  24  48
BRANCH  36  59
ATOM     59  C   UNL A   1      44.384  33.841  29.333  1.00  0.00     0.023 A 
ATOM     60  C   UNL A   1      44.024  34.901  28.483  1.00  0.00     0.031 A 
ATOM     61  C   UNL A   1      45.144  34.140  30.478  1.00  0.00     0.131 A 
ATOM     62  C   UNL A   1      44.475  36.201  28.756  1.00  0.00     0.055 A 
ATOM     63  C   UNL A   1      45.535  35.445  30.780  1.00  0.00     0.041 A 
ATOM     64  F   UNL A   1      45.520  33.167  31.323  1.00  0.00    -0.206 F 
ATOM     65  C   UNL A   1      45.213  36.482  29.910  1.00  0.00     0.022 A 
BRANCH  62  66
ATOM     66  S   UNL A   1      44.170  37.505  27.533  1.00  0.00     0.124 S 
ATOM     67  O   UNL A   1      45.456  37.586  26.850  1.00  0.00    -0.237 OA
ATOM     68  O   UNL A   1      43.067  36.951  26.754  1.00  0.00    -0.237 OA
ATOM     69  O   UNL A   1      43.827  38.668  28.350  1.00  0.00    -0.744 OA
ENDBRANCH  62  66
ENDBRANCH  36  59
ENDBRANCH  10  11
ENDBRANCH   2   5
BRANCH   3  70
ATOM     70  C   UNL A   1      41.908  19.490  27.829  1.00  0.00     0.118 C 
BRANCH  70  71
ATOM     71  C   UNL A   1      42.759  18.242  27.625  1.00  0.00     0.042 C 
BRANCH  71  72
ATOM     72  C   UNL A   1      43.252  18.060  26.192  1.00  0.00     0.117 C 
BRANCH  72  73
ATOM     73  N   UNL A   1      44.701  18.103  26.126  1.00  0.00    -0.354 N 
ATOM     74  C   UNL A   1      45.556  18.921  25.453  1.00  0.00     0.241 C 
ATOM     75  H   UNL A   1      45.147  17.412  26.667  1.00  0.00     0.163 HD
ATOM     76  O   UNL A   1      46.757  18.666  25.600  1.00  0.00    -0.273 OA
BRANCH  74  77
ATOM     77  C   UNL A   1      45.072  20.139  24.622  1.00  0.00     0.126 C 
ATOM     78  C   UNL A   1      43.698  20.660  25.140  1.00  0.00     0.037 C 
ATOM     79  C   UNL A   1      45.947  21.419  24.735  1.00  0.00     0.020 C 
ATOM     80  Cl  UNL A   1      44.903  19.531  22.936  1.00  0.00    -0.108 Cl
ATOM     81  C   UNL A   1      43.993  22.121  25.532  1.00  0.00    -0.009 C 
ATOM     82  C   UNL A   1      45.522  22.508  23.727  1.00  0.00     0.006 C 
ATOM     83  C   UNL A   1      45.428  22.032  26.041  1.00  0.00     0.009 C 
ATOM     84  C   UNL A   1      44.153  22.953  24.251  1.00  0.00     0.004 C 
ENDBRANCH  74  77
ENDBRANCH  72  73
ENDBRANCH  71  72
ENDBRANCH  70  71
ENDBRANCH   3  70
TORSDOF 13
ENDMDL
MODEL 3
REMARK VINA RESULT:     -10.9      0.497      7.934
REMARK SMILES O=C(NCCCNC(=O)[C@@]1(Cl)C[C@@H]2CC[C@H]1C2)c1ccc(-c2c3nc(c(-c4cc(S(=O)(=O)[O-])ccc4F)c4ccc([nH]4)c(-c4cc(S(=O)(=O)[O-])ccc4F)c4nc(c(-c5cc(S(=O)(=O)[O-])ccc5F)c5ccc2[nH]5)C=C4)C=C3)cc1
REMARK SMILES IDX 1 1 2 2 3 3 18 5 19 6 80 7 20 8 79 9 21 10 22 11 23 12 73 13
REMARK SMILES IDX 24 14 78 15 72 16 74 17 25 18 77 19 71 20 70 21 26 23 58 24
REMARK SMILES IDX 38 25 57 26 39 27 42 28 56 29 75 30 40 31 41 32 55 34 76 35
REMARK SMILES IDX 43 36 27 37 28 38 36 39 29 40 35 41 37 42 34 43 30 44 31 45
REMARK SMILES IDX 32 46 33 47 59 48 60 49 68 50 61 51 67 52 69 53 66 54 62 55
REMARK SMILES IDX 63 56 64 57 65 58 44 59 45 60 53 61 46 62 52 63 54 64 51 65
REMARK SMILES IDX 47 66 48 67 49 68 50 69 4 70 5 71 6 72 7 73 8 74 9 76 10 77
REMARK SMILES IDX 12 78 16 79 11 80 13 81 15 82 17 83 14 84
REMARK H PARENT 3 4 74 22 42 33 7 75
REMARK Flexibility Score: inf
ROOT
ATOM      1  O   UNL A   1      32.951  32.483  27.115  1.00  0.00    -0.269 OA
ATOM      2  C   UNL A   1      33.809  33.179  27.655  1.00  0.00     0.251 C 
ATOM      3  N   UNL A   1      33.685  34.547  27.626  1.00  0.00    -0.352 N 
ATOM      4  H   UNL A   1      32.818  34.884  27.305  1.00  0.00     0.163 HD
ENDROOT
BRANCH   2   5
ATOM      5  C   UNL A   1      34.968  32.548  28.321  1.00  0.00     0.039 A 
ATOM      6  C   UNL A   1      36.230  33.145  28.277  1.00  0.00     0.014 A 
ATOM      7  C   UNL A   1      34.783  31.359  29.034  1.00  0.00     0.014 A 
ATOM      8  C   UNL A   1      37.326  32.495  28.835  1.00  0.00     0.010 A 
ATOM      9  C   UNL A   1      35.870  30.750  29.667  1.00  0.00     0.010 A 
ATOM     10  C   UNL A   1      37.156  31.303  29.558  1.00  0.00    -0.014 A 
BRANCH  10  11
ATOM     11  C   UNL A   1      38.324  30.697  30.250  1.00  0.00     0.031 A 
ATOM     12  C   UNL A   1      39.198  29.687  29.561  1.00  0.00     0.074 A 
ATOM     13  C   UNL A   1      38.600  31.089  31.510  1.00  0.00     0.049 A 
ATOM     14  N   UNL A   1      40.254  29.063  30.020  1.00  0.00    -0.248 NA
ATOM     15  C   UNL A   1      38.839  29.324  28.182  1.00  0.00     0.031 C 
ATOM     16  C   UNL A   1      37.815  32.062  32.278  1.00  0.00     0.029 A 
ATOM     17  N   UNL A   1      39.612  30.737  32.365  1.00  0.00    -0.354 N 
ATOM     18  C   UNL A   1      40.679  28.225  28.995  1.00  0.00     0.074 A 
ATOM     19  C   UNL A   1      39.746  28.397  27.901  1.00  0.00     0.031 C 
ATOM     20  C   UNL A   1      38.398  32.257  33.469  1.00  0.00     0.029 A 
ATOM     21  C   UNL A   1      39.551  31.373  33.584  1.00  0.00     0.049 A 
ATOM     22  H   UNL A   1      40.316  30.091  32.130  1.00  0.00     0.167 HD
ATOM     23  C   UNL A   1      41.753  27.395  28.971  1.00  0.00     0.034 A 
ATOM     24  C   UNL A   1      40.318  31.241  34.683  1.00  0.00     0.034 A 
ATOM     25  C   UNL A   1      42.672  27.237  30.076  1.00  0.00     0.049 A 
ATOM     26  C   UNL A   1      41.473  30.276  34.644  1.00  0.00     0.074 A 
ATOM     27  C   UNL A   1      43.809  26.450  30.143  1.00  0.00     0.029 A 
ATOM     28  N   UNL A   1      42.555  27.866  31.310  1.00  0.00    -0.354 N 
ATOM     29  N   UNL A   1      41.875  29.511  33.655  1.00  0.00    -0.248 NA
ATOM     30  C   UNL A   1      42.278  30.158  35.865  1.00  0.00     0.031 C 
ATOM     31  C   UNL A   1      44.335  26.545  31.436  1.00  0.00     0.029 A 
ATOM     32  C   UNL A   1      43.578  27.457  32.153  1.00  0.00     0.049 A 
ATOM     33  H   UNL A   1      41.849  28.509  31.549  1.00  0.00     0.167 HD
ATOM     34  C   UNL A   1      43.000  28.843  34.130  1.00  0.00     0.074 A 
ATOM     35  C   UNL A   1      43.222  29.312  35.483  1.00  0.00     0.031 C 
ATOM     36  C   UNL A   1      43.780  27.924  33.505  1.00  0.00     0.034 A 
BRANCH  23  37
ATOM     37  C   UNL A   1      41.971  26.562  27.730  1.00  0.00     0.023 A 
ATOM     38  C   UNL A   1      41.576  25.215  27.660  1.00  0.00     0.031 A 
ATOM     39  C   UNL A   1      42.575  27.130  26.593  1.00  0.00     0.131 A 
ATOM     40  C   UNL A   1      41.838  24.467  26.501  1.00  0.00     0.055 A 
ATOM     41  C   UNL A   1      42.767  26.401  25.418  1.00  0.00     0.041 A 
ATOM     42  F   UNL A   1      42.992  28.406  26.607  1.00  0.00    -0.206 F 
ATOM     43  C   UNL A   1      42.408  25.058  25.370  1.00  0.00     0.022 A 
BRANCH  40  44
ATOM     44  S   UNL A   1      41.534  22.679  26.533  1.00  0.00     0.124 S 
ATOM     45  O   UNL A   1      42.093  22.305  27.830  1.00  0.00    -0.237 OA
ATOM     46  O   UNL A   1      40.082  22.604  26.420  1.00  0.00    -0.237 OA
ATOM     47  O   UNL A   1      42.276  22.182  25.376  1.00  0.00    -0.744 OA
ENDBRANCH  40  44
ENDBRANCH  23  37
BRANCH  24  48
ATOM     48  C   UNL A   1      40.000  32.007  35.922  1.00  0.00     0.023 A 
ATOM     49  C   UNL A   1      38.994  31.580  36.802  1.00  0.00     0.031 A 
ATOM     50  C   UNL A   1      40.668  33.209  36.220  1.00  0.00     0.131 A 
ATOM     51  C   UNL A   1      38.648  32.374  37.906  1.00  0.00     0.055 A 
ATOM     52  C   UNL A   1      40.364  33.962  37.355  1.00  0.00     0.041 A 
ATOM     53  F   UNL A   1      41.640  33.665  35.413  1.00  0.00    -0.206 F 
ATOM     54  C   UNL A   1      39.337  33.553  38.197  1.00  0.00     0.022 A 
BRANCH  51  55
ATOM     55  S   UNL A   1      37.206  31.896  38.897  1.00  0.00     0.124 S 
ATOM     56  O   UNL A   1      37.027  30.502  38.508  1.00  0.00    -0.237 OA
ATOM     57  O   UNL A   1      37.685  32.127  40.256  1.00  0.00    -0.237 OA
ATOM     58  O   UNL A   1      36.163  32.812  38.441  1.00  0.00    -0.744 OA
ENDBRANCH  51  55
ENDBRANCH  24  48
BRANCH  36  59
ATOM     59  C   UNL A   1      44.973  27.408  34.272  1.00  0.00     0.023 A 
ATOM     60  C   UNL A   1      44.885  26.281  35.109  1.00  0.00     0.031 A 
ATOM     61  C   UNL A   1      46.210  28.070  34.182  1.00  0.00     0.131 A 
ATOM     62  C   UNL A   1      45.995  25.887  35.870  1.00  0.00     0.055 A 
ATOM     63  C   UNL A   1      47.330  27.634  34.892  1.00  0.00     0.041 A 
ATOM     64  F   UNL A   1      46.351  29.153  33.402  1.00  0.00    -0.206 F 
ATOM     65  C   UNL A   1      47.222  26.546  35.753  1.00  0.00     0.022 A 
BRANCH  62  66
ATOM     66  S   UNL A   1      45.788  24.563  37.092  1.00  0.00     0.124 S 
ATOM     67  O   UNL A   1      46.863  24.851  38.035  1.00  0.00    -0.237 OA
ATOM     68  O   UNL A   1      44.433  24.796  37.579  1.00  0.00    -0.237 OA
ATOM     69  O   UNL A   1      45.962  23.342  36.307  1.00  0.00    -0.744 OA
ENDBRANCH  62  66
ENDBRANCH  36  59
ENDBRANCH  10  11
ENDBRANCH   2   5
BRANCH   3  70
ATOM     70  C   UNL A   1      34.650  35.571  28.000  1.00  0.00     0.118 C 
BRANCH  70  71
ATOM     71  C   UNL A   1      33.989  36.906  28.323  1.00  0.00     0.042 C 
BRANCH  71  72
ATOM     72  C   UNL A   1      32.910  36.815  29.399  1.00  0.00     0.117 C 
BRANCH  72  73
ATOM     73  N   UNL A   1      33.279  37.578  30.577  1.00  0.00    -0.354 N 
ATOM     74  C   UNL A   1      33.495  37.207  31.869  1.00  0.00     0.241 C 
ATOM     75  H   UNL A   1      33.392  38.542  30.412  1.00  0.00     0.163 HD
ATOM     76  O   UNL A   1      33.777  38.128  32.644  1.00  0.00    -0.273 OA
BRANCH  74  77
ATOM     77  C   UNL A   1      33.470  35.725  32.332  1.00  0.00     0.126 C 
ATOM     78  C   UNL A   1      33.828  34.766  31.158  1.00  0.00     0.037 C 
ATOM     79  C   UNL A   1      34.542  35.333  33.387  1.00  0.00     0.020 C 
ATOM     80  Cl  UNL A   1      31.781  35.424  32.878  1.00  0.00    -0.108 Cl
ATOM     81  C   UNL A   1      35.076  34.020  31.673  1.00  0.00    -0.009 C 
ATOM     82  C   UNL A   1      34.320  33.912  33.946  1.00  0.00     0.006 C 
ATOM     83  C   UNL A   1      35.771  35.095  32.502  1.00  0.00     0.009 C 
ATOM     84  C   UNL A   1      34.639  33.012  32.747  1.00  0.00     0.004 C 
ENDBRANCH  74  77
ENDBRANCH  72  73
ENDBRANCH  71  72
ENDBRANCH  70  71
ENDBRANCH   3  70
TORSDOF 13
ENDMDL
