MODEL 1
REMARK VINA RESULT:     -12.8      0.000      0.000
REMARK SMILES O=C(NCCCNC(=O)c1cc(Br)ccc1N1CC2(CCCCC2)C1)c1ccc(-c2c3nc(c(-c4cc(S(=O)(=O)[O-])ccc4F)c4ccc([nH]4)c(-c4cc(S(=O)(=O)[O-])ccc4F)c4nc(c(-c5cc(S(=O)(=O)[O-])ccc5F)c5ccc2[nH]5)C=C4)C=C3)cc1
REMARK SMILES IDX 4 1 3 2 1 3 2 4 26 6 27 7 88 8 28 9 87 10 29 11 30 12 31 13
REMARK SMILES IDX 81 14 32 15 86 16 80 17 82 18 33 19 85 20 79 21 78 22 34 24
REMARK SMILES IDX 66 25 46 26 65 27 47 28 50 29 64 30 83 31 48 32 49 33 63 35
REMARK SMILES IDX 84 36 51 37 35 38 36 39 44 40 37 41 43 42 45 43 42 44 38 45
REMARK SMILES IDX 39 46 40 47 41 48 67 49 68 50 76 51 69 52 75 53 77 54 74 55
REMARK SMILES IDX 70 56 71 57 72 58 73 59 52 60 53 61 61 62 54 63 60 64 62 65
REMARK SMILES IDX 59 66 55 67 56 68 57 69 58 70 5 71 6 72 7 73 8 74 9 76 10 77
REMARK SMILES IDX 11 78 16 79 12 80 15 81 13 82 14 83 17 84 18 85 25 86 19 87
REMARK SMILES IDX 20 88 24 89 21 90 23 91 22 92
REMARK H PARENT 3 5 82 23 50 34 7 75
REMARK Flexibility Score: inf
ROOT
ATOM      1  C   UNL A   1      32.982  30.033  26.316  1.00  0.00     0.118 C 
ENDROOT
BRANCH   1   2
ATOM      2  N   UNL A   1      32.915  31.417  26.767  1.00  0.00    -0.352 N 
ATOM      3  O   UNL A   1      33.370  33.272  27.938  1.00  0.00    -0.269 OA
ATOM      4  C   UNL A   1      33.724  32.140  27.608  1.00  0.00     0.251 C 
ATOM      5  H   UNL A   1      32.152  31.923  26.405  1.00  0.00     0.163 HD
BRANCH   4   6
ATOM      6  C   UNL A   1      34.989  31.586  28.143  1.00  0.00     0.039 A 
ATOM      7  C   UNL A   1      35.060  30.305  28.691  1.00  0.00     0.014 A 
ATOM      8  C   UNL A   1      36.153  32.359  28.046  1.00  0.00     0.014 A 
ATOM      9  C   UNL A   1      36.244  29.862  29.278  1.00  0.00     0.010 A 
ATOM     10  C   UNL A   1      37.361  31.882  28.566  1.00  0.00     0.010 A 
ATOM     11  C   UNL A   1      37.406  30.647  29.228  1.00  0.00    -0.014 A 
BRANCH  11  12
ATOM     12  C   UNL A   1      38.654  30.153  29.871  1.00  0.00     0.031 A 
ATOM     13  C   UNL A   1      39.018  30.577  31.268  1.00  0.00     0.074 A 
ATOM     14  C   UNL A   1      39.439  29.286  29.206  1.00  0.00     0.049 A 
ATOM     15  N   UNL A   1      40.035  30.205  32.007  1.00  0.00    -0.248 NA
ATOM     16  C   UNL A   1      38.136  31.558  31.915  1.00  0.00     0.031 C 
ATOM     17  C   UNL A   1      39.207  28.815  27.838  1.00  0.00     0.029 A 
ATOM     18  N   UNL A   1      40.576  28.625  29.596  1.00  0.00    -0.354 N 
ATOM     19  C   UNL A   1      39.926  30.919  33.195  1.00  0.00     0.074 A 
ATOM     20  C   UNL A   1      38.762  31.772  33.062  1.00  0.00     0.031 C 
ATOM     21  C   UNL A   1      40.140  27.904  27.523  1.00  0.00     0.029 A 
ATOM     22  C   UNL A   1      41.057  27.755  28.647  1.00  0.00     0.049 A 
ATOM     23  H   UNL A   1      41.004  28.760  30.471  1.00  0.00     0.167 HD
ATOM     24  C   UNL A   1      40.714  30.863  34.300  1.00  0.00     0.034 A 
ATOM     25  C   UNL A   1      42.118  26.927  28.678  1.00  0.00     0.034 A 
ATOM     26  C   UNL A   1      41.862  29.999  34.430  1.00  0.00     0.049 A 
ATOM     27  C   UNL A   1      42.971  26.872  29.912  1.00  0.00     0.074 A 
ATOM     28  C   UNL A   1      42.701  29.833  35.520  1.00  0.00     0.029 A 
ATOM     29  N   UNL A   1      42.337  29.154  33.436  1.00  0.00    -0.354 N 
ATOM     30  N   UNL A   1      42.846  27.545  31.032  1.00  0.00    -0.248 NA
ATOM     31  C   UNL A   1      44.110  25.946  29.886  1.00  0.00     0.031 C 
ATOM     32  C   UNL A   1      43.707  28.924  35.168  1.00  0.00     0.029 A 
ATOM     33  C   UNL A   1      43.468  28.484  33.876  1.00  0.00     0.049 A 
ATOM     34  H   UNL A   1      41.929  29.047  32.546  1.00  0.00     0.167 HD
ATOM     35  C   UNL A   1      43.888  27.119  31.847  1.00  0.00     0.074 A 
ATOM     36  C   UNL A   1      44.623  26.120  31.096  1.00  0.00     0.031 C 
ATOM     37  C   UNL A   1      44.207  27.515  33.104  1.00  0.00     0.034 A 
BRANCH  24  38
ATOM     38  C   UNL A   1      40.374  31.800  35.431  1.00  0.00     0.023 A 
ATOM     39  C   UNL A   1      39.411  31.470  36.401  1.00  0.00     0.031 A 
ATOM     40  C   UNL A   1      40.985  33.064  35.514  1.00  0.00     0.131 A 
ATOM     41  C   UNL A   1      39.032  32.417  37.365  1.00  0.00     0.055 A 
ATOM     42  C   UNL A   1      40.655  33.977  36.518  1.00  0.00     0.041 A 
ATOM     43  F   UNL A   1      41.898  33.441  34.604  1.00  0.00    -0.206 F 
ATOM     44  C   UNL A   1      39.662  33.662  37.440  1.00  0.00     0.022 A 
BRANCH  41  45
ATOM     45  S   UNL A   1      37.602  32.056  38.420  1.00  0.00     0.124 S 
ATOM     46  O   UNL A   1      36.653  33.085  38.000  1.00  0.00    -0.237 OA
ATOM     47  O   UNL A   1      37.270  30.688  38.043  1.00  0.00    -0.237 OA
ATOM     48  O   UNL A   1      38.125  32.221  39.775  1.00  0.00    -0.744 OA
ENDBRANCH  41  45
ENDBRANCH  24  38
BRANCH  25  49
ATOM     49  C   UNL A   1      42.435  26.089  27.493  1.00  0.00     0.023 A 
ATOM     50  C   UNL A   1      42.060  24.739  27.443  1.00  0.00     0.031 A 
ATOM     51  C   UNL A   1      43.114  26.636  26.391  1.00  0.00     0.131 A 
ATOM     52  C   UNL A   1      42.384  23.970  26.314  1.00  0.00     0.055 A 
ATOM     53  C   UNL A   1      43.408  25.876  25.260  1.00  0.00     0.041 A 
ATOM     54  F   UNL A   1      43.479  27.928  26.394  1.00  0.00    -0.206 F 
ATOM     55  C   UNL A   1      43.047  24.532  25.220  1.00  0.00     0.022 A 
BRANCH  52  56
ATOM     56  S   UNL A   1      41.940  22.212  26.304  1.00  0.00     0.124 S 
ATOM     57  O   UNL A   1      42.326  21.798  27.647  1.00  0.00    -0.237 OA
ATOM     58  O   UNL A   1      40.507  22.262  26.034  1.00  0.00    -0.237 OA
ATOM     59  O   UNL A   1      42.754  21.662  25.222  1.00  0.00    -0.744 OA
ENDBRANCH  52  56
ENDBRANCH  25  49
BRANCH  37  60
ATOM     60  C   UNL A   1      45.397  26.846  33.736  1.00  0.00     0.023 A 
ATOM     61  C   UNL A   1      45.265  25.641  34.447  1.00  0.00     0.031 A 
ATOM     62  C   UNL A   1      46.668  27.439  33.657  1.00  0.00     0.131 A 
ATOM     63  C   UNL A   1      46.381  25.088  35.093  1.00  0.00     0.055 A 
ATOM     64  C   UNL A   1      47.783  26.865  34.269  1.00  0.00     0.041 A 
ATOM     65  F   UNL A   1      46.843  28.593  32.992  1.00  0.00    -0.206 F 
ATOM     66  C   UNL A   1      47.640  25.688  35.001  1.00  0.00     0.022 A 
BRANCH  63  67
ATOM     67  S   UNL A   1      46.151  23.612  36.122  1.00  0.00     0.124 S 
ATOM     68  O   UNL A   1      46.190  24.171  37.471  1.00  0.00    -0.237 OA
ATOM     69  O   UNL A   1      44.852  23.119  35.674  1.00  0.00    -0.237 OA
ATOM     70  O   UNL A   1      47.289  22.767  35.770  1.00  0.00    -0.744 OA
ENDBRANCH  63  67
ENDBRANCH  37  60
ENDBRANCH  11  12
ENDBRANCH   4   6
ENDBRANCH   1   2
BRANCH   1  71
ATOM     71  C   UNL A   1      32.079  29.089  27.105  1.00  0.00     0.042 C 
BRANCH  71  72
ATOM     72  C   UNL A   1      32.283  27.606  26.821  1.00  0.00     0.118 C 
BRANCH  72  73
ATOM     73  N   UNL A   1      31.054  26.833  26.912  1.00  0.00    -0.352 N 
ATOM     74  C   UNL A   1      30.450  26.005  26.001  1.00  0.00     0.253 C 
ATOM     75  H   UNL A   1      30.578  26.918  27.769  1.00  0.00     0.163 HD
ATOM     76  O   UNL A   1      29.397  25.447  26.304  1.00  0.00    -0.269 OA
BRANCH  74  77
ATOM     77  C   UNL A   1      31.088  25.720  24.700  1.00  0.00     0.064 A 
ATOM     78  C   UNL A   1      31.653  24.439  24.551  1.00  0.00     0.031 A 
ATOM     79  C   UNL A   1      30.961  26.582  23.594  1.00  0.00     0.050 A 
ATOM     80  C   UNL A   1      32.152  24.034  23.319  1.00  0.00     0.018 A 
ATOM     81  C   UNL A   1      31.455  26.127  22.355  1.00  0.00     0.028 A 
ATOM     82  Br  UNL A   1      32.931  22.323  23.137  1.00  0.00    -0.051 Br
ATOM     83  C   UNL A   1      32.059  24.875  22.217  1.00  0.00     0.018 A 
BRANCH  79  84
ATOM     84  N   UNL A   1      30.370  27.854  23.621  1.00  0.00    -0.370 N 
ATOM     85  C   UNL A   1      29.056  28.339  23.372  1.00  0.00     0.125 C 
ATOM     86  C   UNL A   1      31.013  29.124  23.530  1.00  0.00     0.125 C 
ATOM     87  C   UNL A   1      29.669  29.729  23.067  1.00  0.00     0.005 C 
ATOM     88  C   UNL A   1      29.214  30.900  23.943  1.00  0.00     0.011 C 
ATOM     89  C   UNL A   1      29.645  30.111  21.579  1.00  0.00     0.011 C 
ATOM     90  C   UNL A   1      27.819  31.366  23.531  1.00  0.00     0.001 C 
ATOM     91  C   UNL A   1      28.238  30.553  21.177  1.00  0.00     0.001 C 
ATOM     92  C   UNL A   1      27.753  31.712  22.044  1.00  0.00     0.000 C 
ENDBRANCH  79  84
ENDBRANCH  74  77
ENDBRANCH  72  73
ENDBRANCH  71  72
ENDBRANCH   1  71
TORSDOF 14
ENDMDL
MODEL 2
REMARK VINA RESULT:     -12.8      5.512     10.797
REMARK SMILES O=C(NCCCNC(=O)c1cc(Br)ccc1N1CC2(CCCCC2)C1)c1ccc(-c2c3nc(c(-c4cc(S(=O)(=O)[O-])ccc4F)c4ccc([nH]4)c(-c4cc(S(=O)(=O)[O-])ccc4F)c4nc(c(-c5cc(S(=O)(=O)[O-])ccc5F)c5ccc2[nH]5)C=C4)C=C3)cc1
REMARK SMILES IDX 4 1 3 2 1 3 2 4 26 6 27 7 88 8 28 9 87 10 29 11 30 12 31 13
REMARK SMILES IDX 81 14 32 15 86 16 80 17 82 18 33 19 85 20 79 21 78 22 34 24
REMARK SMILES IDX 66 25 46 26 65 27 47 28 50 29 64 30 83 31 48 32 49 33 63 35
REMARK SMILES IDX 84 36 51 37 35 38 36 39 44 40 37 41 43 42 45 43 42 44 38 45
REMARK SMILES IDX 39 46 40 47 41 48 67 49 68 50 76 51 69 52 75 53 77 54 74 55
REMARK SMILES IDX 70 56 71 57 72 58 73 59 52 60 53 61 61 62 54 63 60 64 62 65
REMARK SMILES IDX 59 66 55 67 56 68 57 69 58 70 5 71 6 72 7 73 8 74 9 76 10 77
REMARK SMILES IDX 11 78 16 79 12 80 15 81 13 82 14 83 17 84 18 85 25 86 19 87
REMARK SMILES IDX 20 88 24 89 21 90 23 91 22 92
REMARK H PARENT 3 5 82 23 50 34 7 75
REMARK Flexibility Score: inf
ROOT
ATOM      1  C   UNL A   1      36.877  21.853  25.603  1.00  0.00     0.118 C 
ENDROOT
BRANCH   1   2
ATOM      2  N   UNL A   1      37.959  20.896  25.797  1.00  0.00    -0.352 N 
ATOM      3  O   UNL A   1      40.021  20.094  26.148  1.00  0.00    -0.269 OA
ATOM      4  C   UNL A   1      39.263  21.063  26.192  1.00  0.00     0.251 C 
ATOM      5  H   UNL A   1      37.710  19.962  25.609  1.00  0.00     0.163 HD
BRANCH   4   6
ATOM      6  C   UNL A   1      39.780  22.376  26.641  1.00  0.00     0.039 A 
ATOM      7  C   UNL A   1      39.266  23.578  26.155  1.00  0.00     0.014 A 
ATOM      8  C   UNL A   1      40.781  22.402  27.622  1.00  0.00     0.014 A 
ATOM      9  C   UNL A   1      39.852  24.788  26.524  1.00  0.00     0.010 A 
ATOM     10  C   UNL A   1      41.315  23.621  28.051  1.00  0.00     0.010 A 
ATOM     11  C   UNL A   1      40.886  24.824  27.471  1.00  0.00    -0.014 A 
BRANCH  11  12
ATOM     12  C   UNL A   1      41.499  26.128  27.840  1.00  0.00     0.031 A 
ATOM     13  C   UNL A   1      42.869  26.502  27.343  1.00  0.00     0.074 A 
ATOM     14  C   UNL A   1      40.797  26.996  28.592  1.00  0.00     0.049 A 
ATOM     15  N   UNL A   1      43.537  27.617  27.517  1.00  0.00    -0.248 NA
ATOM     16  C   UNL A   1      43.591  25.488  26.563  1.00  0.00     0.031 C 
ATOM     17  C   UNL A   1      39.468  26.743  29.154  1.00  0.00     0.029 A 
ATOM     18  N   UNL A   1      41.089  28.275  28.994  1.00  0.00    -0.354 N 
ATOM     19  C   UNL A   1      44.762  27.431  26.886  1.00  0.00     0.074 A 
ATOM     20  C   UNL A   1      44.756  26.082  26.356  1.00  0.00     0.031 C 
ATOM     21  C   UNL A   1      39.040  27.849  29.783  1.00  0.00     0.029 A 
ATOM     22  C   UNL A   1      40.075  28.873  29.703  1.00  0.00     0.049 A 
ATOM     23  H   UNL A   1      41.943  28.720  28.793  1.00  0.00     0.167 HD
ATOM     24  C   UNL A   1      45.793  28.304  26.750  1.00  0.00     0.034 A 
ATOM     25  C   UNL A   1      39.987  30.108  30.229  1.00  0.00     0.034 A 
ATOM     26  C   UNL A   1      45.784  29.651  27.267  1.00  0.00     0.049 A 
ATOM     27  C   UNL A   1      41.133  31.063  30.060  1.00  0.00     0.074 A 
ATOM     28  C   UNL A   1      46.757  30.630  27.148  1.00  0.00     0.029 A 
ATOM     29  N   UNL A   1      44.751  30.211  28.007  1.00  0.00    -0.354 N 
ATOM     30  N   UNL A   1      42.279  30.875  29.448  1.00  0.00    -0.248 NA
ATOM     31  C   UNL A   1      40.973  32.397  30.652  1.00  0.00     0.031 C 
ATOM     32  C   UNL A   1      46.330  31.764  27.852  1.00  0.00     0.029 A 
ATOM     33  C   UNL A   1      45.070  31.510  28.370  1.00  0.00     0.049 A 
ATOM     34  H   UNL A   1      43.912  29.751  28.240  1.00  0.00     0.167 HD
ATOM     35  C   UNL A   1      42.976  32.070  29.578  1.00  0.00     0.074 A 
ATOM     36  C   UNL A   1      42.116  32.977  30.312  1.00  0.00     0.031 C 
ATOM     37  C   UNL A   1      44.215  32.390  29.129  1.00  0.00     0.034 A 
BRANCH  24  38
ATOM     38  C   UNL A   1      47.028  27.801  26.048  1.00  0.00     0.023 A 
ATOM     39  C   UNL A   1      47.256  28.050  24.683  1.00  0.00     0.031 A 
ATOM     40  C   UNL A   1      47.968  27.017  26.741  1.00  0.00     0.131 A 
ATOM     41  C   UNL A   1      48.353  27.460  24.036  1.00  0.00     0.055 A 
ATOM     42  C   UNL A   1      49.096  26.491  26.107  1.00  0.00     0.041 A 
ATOM     43  F   UNL A   1      47.793  26.731  28.040  1.00  0.00    -0.206 F 
ATOM     44  C   UNL A   1      49.285  26.697  24.744  1.00  0.00     0.022 A 
BRANCH  41  45
ATOM     45  S   UNL A   1      48.460  27.578  22.229  1.00  0.00     0.124 S 
ATOM     46  O   UNL A   1      47.150  28.127  21.887  1.00  0.00    -0.237 OA
ATOM     47  O   UNL A   1      49.597  28.471  22.039  1.00  0.00    -0.237 OA
ATOM     48  O   UNL A   1      48.674  26.195  21.807  1.00  0.00    -0.744 OA
ENDBRANCH  41  45
ENDBRANCH  24  38
BRANCH  25  49
ATOM     49  C   UNL A   1      38.766  30.507  30.976  1.00  0.00     0.023 A 
ATOM     50  C   UNL A   1      37.722  31.192  30.338  1.00  0.00     0.031 A 
ATOM     51  C   UNL A   1      38.628  30.196  32.339  1.00  0.00     0.131 A 
ATOM     52  C   UNL A   1      36.586  31.566  31.073  1.00  0.00     0.055 A 
ATOM     53  C   UNL A   1      37.485  30.544  33.058  1.00  0.00     0.041 A 
ATOM     54  F   UNL A   1      39.598  29.530  32.984  1.00  0.00    -0.206 F 
ATOM     55  C   UNL A   1      36.457  31.238  32.425  1.00  0.00     0.022 A 
BRANCH  52  56
ATOM     56  S   UNL A   1      35.280  32.505  30.237  1.00  0.00     0.124 S 
ATOM     57  O   UNL A   1      35.987  33.719  29.849  1.00  0.00    -0.237 OA
ATOM     58  O   UNL A   1      34.906  31.605  29.151  1.00  0.00    -0.237 OA
ATOM     59  O   UNL A   1      34.266  32.676  31.276  1.00  0.00    -0.744 OA
ENDBRANCH  52  56
ENDBRANCH  25  49
BRANCH  37  60
ATOM     60  C   UNL A   1      44.691  33.788  29.414  1.00  0.00     0.023 A 
ATOM     61  C   UNL A   1      44.514  34.825  28.482  1.00  0.00     0.031 A 
ATOM     62  C   UNL A   1      45.362  34.077  30.615  1.00  0.00     0.131 A 
ATOM     63  C   UNL A   1      45.043  36.097  28.747  1.00  0.00     0.055 A 
ATOM     64  C   UNL A   1      45.852  35.353  30.890  1.00  0.00     0.041 A 
ATOM     65  F   UNL A   1      45.559  33.118  31.534  1.00  0.00    -0.206 F 
ATOM     66  C   UNL A   1      45.704  36.369  29.949  1.00  0.00     0.022 A 
BRANCH  63  67
ATOM     67  S   UNL A   1      44.925  37.375  27.465  1.00  0.00     0.124 S 
ATOM     68  O   UNL A   1      45.186  38.594  28.225  1.00  0.00    -0.237 OA
ATOM     69  O   UNL A   1      45.969  36.973  26.527  1.00  0.00    -0.237 OA
ATOM     70  O   UNL A   1      43.559  37.236  26.967  1.00  0.00    -0.744 OA
ENDBRANCH  63  67
ENDBRANCH  37  60
ENDBRANCH  11  12
ENDBRANCH   4   6
ENDBRANCH   1   2
BRANCH   1  71
ATOM     71  C   UNL A   1      36.573  22.141  24.135  1.00  0.00     0.042 C 
BRANCH  71  72
ATOM     72  C   UNL A   1      35.661  23.335  23.883  1.00  0.00     0.118 C 
BRANCH  72  73
ATOM     73  N   UNL A   1      34.796  23.160  22.726  1.00  0.00    -0.352 N 
ATOM     74  C   UNL A   1      33.435  23.016  22.642  1.00  0.00     0.253 C 
ATOM     75  H   UNL A   1      35.266  23.140  21.862  1.00  0.00     0.163 HD
ATOM     76  O   UNL A   1      32.914  22.880  21.536  1.00  0.00    -0.269 OA
BRANCH  74  77
ATOM     77  C   UNL A   1      32.590  23.101  23.850  1.00  0.00     0.064 A 
ATOM     78  C   UNL A   1      31.888  24.307  24.035  1.00  0.00     0.031 A 
ATOM     79  C   UNL A   1      32.323  21.983  24.663  1.00  0.00     0.050 A 
ATOM     80  C   UNL A   1      30.965  24.427  25.067  1.00  0.00     0.018 A 
ATOM     81  C   UNL A   1      31.362  22.135  25.682  1.00  0.00     0.028 A 
ATOM     82  Br  UNL A   1      30.047  26.059  25.321  1.00  0.00    -0.051 Br
ATOM     83  C   UNL A   1      30.699  23.346  25.897  1.00  0.00     0.018 A 
BRANCH  79  84
ATOM     84  N   UNL A   1      32.927  20.723  24.532  1.00  0.00    -0.370 N 
ATOM     85  C   UNL A   1      32.576  19.524  23.850  1.00  0.00     0.125 C 
ATOM     86  C   UNL A   1      33.908  20.127  25.378  1.00  0.00     0.125 C 
ATOM     87  C   UNL A   1      33.476  18.744  24.841  1.00  0.00     0.005 C 
ATOM     88  C   UNL A   1      34.643  17.950  24.245  1.00  0.00     0.011 C 
ATOM     89  C   UNL A   1      32.699  17.901  25.863  1.00  0.00     0.011 C 
ATOM     90  C   UNL A   1      34.139  16.659  23.604  1.00  0.00     0.001 C 
ATOM     91  C   UNL A   1      32.182  16.624  25.200  1.00  0.00     0.001 C 
ATOM     92  C   UNL A   1      33.324  15.819  24.586  1.00  0.00     0.000 C 
ENDBRANCH  79  84
ENDBRANCH  74  77
ENDBRANCH  72  73
ENDBRANCH  71  72
ENDBRANCH   1  71
TORSDOF 14
ENDMDL
MODEL 3
REMARK VINA RESULT:     -12.7      1.378      1.607
REMARK SMILES O=C(NCCCNC(=O)c1cc(Br)ccc1N1CC2(CCCCC2)C1)c1ccc(-c2c3nc(c(-c4cc(S(=O)(=O)[O-])ccc4F)c4ccc([nH]4)c(-c4cc(S(=O)(=O)[O-])ccc4F)c4nc(c(-c5cc(S(=O)(=O)[O-])ccc5F)c5ccc2[nH]5)C=C4)C=C3)cc1
REMARK SMILES IDX 4 1 3 2 1 3 2 4 26 6 27 7 88 8 28 9 87 10 29 11 30 12 31 13
REMARK SMILES IDX 81 14 32 15 86 16 80 17 82 18 33 19 85 20 79 21 78 22 34 24
REMARK SMILES IDX 66 25 46 26 65 27 47 28 50 29 64 30 83 31 48 32 49 33 63 35
REMARK SMILES IDX 84 36 51 37 35 38 36 39 44 40 37 41 43 42 45 43 42 44 38 45
REMARK SMILES IDX 39 46 40 47 41 48 67 49 68 50 76 51 69 52 75 53 77 54 74 55
REMARK SMILES IDX 70 56 71 57 72 58 73 59 52 60 53 61 61 62 54 63 60 64 62 65
REMARK SMILES IDX 59 66 55 67 56 68 57 69 58 70 5 71 6 72 7 73 8 74 9 76 10 77
REMARK SMILES IDX 11 78 16 79 12 80 15 81 13 82 14 83 17 84 18 85 25 86 19 87
REMARK SMILES IDX 20 88 24 89 21 90 23 91 22 92
REMARK H PARENT 3 5 82 23 50 34 7 75
REMARK Flexibility Score: inf
ROOT
ATOM      1  C   UNL A   1      32.625  29.977  26.115  1.00  0.00     0.118 C 
ENDROOT
BRANCH   1   2
ATOM      2  N   UNL A   1      32.516  31.386  26.472  1.00  0.00    -0.352 N 
ATOM      3  O   UNL A   1      32.888  33.321  27.538  1.00  0.00    -0.269 OA
ATOM      4  C   UNL A   1      33.275  32.177  27.298  1.00  0.00     0.251 C 
ATOM      5  H   UNL A   1      31.762  31.854  26.045  1.00  0.00     0.163 HD
BRANCH   4   6
ATOM      6  C   UNL A   1      34.523  31.683  27.923  1.00  0.00     0.039 A 
ATOM      7  C   UNL A   1      34.661  30.363  28.353  1.00  0.00     0.014 A 
ATOM      8  C   UNL A   1      35.610  32.560  28.034  1.00  0.00     0.014 A 
ATOM      9  C   UNL A   1      35.813  29.966  29.031  1.00  0.00     0.010 A 
ATOM     10  C   UNL A   1      36.796  32.139  28.644  1.00  0.00     0.010 A 
ATOM     11  C   UNL A   1      36.891  30.850  29.189  1.00  0.00    -0.014 A 
BRANCH  11  12
ATOM     12  C   UNL A   1      38.105  30.403  29.924  1.00  0.00     0.031 A 
ATOM     13  C   UNL A   1      38.337  30.820  31.351  1.00  0.00     0.074 A 
ATOM     14  C   UNL A   1      38.980  29.583  29.312  1.00  0.00     0.049 A 
ATOM     15  N   UNL A   1      39.307  30.482  32.165  1.00  0.00    -0.248 NA
ATOM     16  C   UNL A   1      37.361  31.749  31.937  1.00  0.00     0.031 C 
ATOM     17  C   UNL A   1      38.880  29.125  27.925  1.00  0.00     0.029 A 
ATOM     18  N   UNL A   1      40.111  28.968  29.784  1.00  0.00    -0.354 N 
ATOM     19  C   UNL A   1      39.071  31.171  33.349  1.00  0.00     0.074 A 
ATOM     20  C   UNL A   1      37.883  31.972  33.134  1.00  0.00     0.031 C 
ATOM     21  C   UNL A   1      39.877  28.263  27.674  1.00  0.00     0.029 A 
ATOM     22  C   UNL A   1      40.707  28.136  28.866  1.00  0.00     0.049 A 
ATOM     23  H   UNL A   1      40.462  29.108  30.693  1.00  0.00     0.167 HD
ATOM     24  C   UNL A   1      39.770  31.132  34.513  1.00  0.00     0.034 A 
ATOM     25  C   UNL A   1      41.799  27.357  28.972  1.00  0.00     0.034 A 
ATOM     26  C   UNL A   1      40.943  30.318  34.724  1.00  0.00     0.049 A 
ATOM     27  C   UNL A   1      42.553  27.321  30.270  1.00  0.00     0.074 A 
ATOM     28  C   UNL A   1      41.699  30.173  35.875  1.00  0.00     0.029 A 
ATOM     29  N   UNL A   1      41.534  29.513  33.760  1.00  0.00    -0.354 N 
ATOM     30  N   UNL A   1      42.307  27.968  31.384  1.00  0.00    -0.248 NA
ATOM     31  C   UNL A   1      43.732  26.447  30.323  1.00  0.00     0.031 C 
ATOM     32  C   UNL A   1      42.771  29.316  35.594  1.00  0.00     0.029 A 
ATOM     33  C   UNL A   1      42.656  28.887  34.281  1.00  0.00     0.049 A 
ATOM     34  H   UNL A   1      41.204  29.402  32.839  1.00  0.00     0.167 HD
ATOM     35  C   UNL A   1      43.300  27.576  32.275  1.00  0.00     0.074 A 
ATOM     36  C   UNL A   1      44.138  26.624  31.572  1.00  0.00     0.031 C 
ATOM     37  C   UNL A   1      43.500  27.966  33.559  1.00  0.00     0.034 A 
BRANCH  24  38
ATOM     38  C   UNL A   1      39.298  32.033  35.625  1.00  0.00     0.023 A 
ATOM     39  C   UNL A   1      39.706  33.376  35.712  1.00  0.00     0.031 A 
ATOM     40  C   UNL A   1      38.467  31.529  36.642  1.00  0.00     0.131 A 
ATOM     41  C   UNL A   1      39.346  34.147  36.829  1.00  0.00     0.055 A 
ATOM     42  C   UNL A   1      38.055  32.322  37.716  1.00  0.00     0.041 A 
ATOM     43  F   UNL A   1      38.063  30.250  36.621  1.00  0.00    -0.206 F 
ATOM     44  C   UNL A   1      38.508  33.634  37.822  1.00  0.00     0.022 A 
BRANCH  41  45
ATOM     45  S   UNL A   1      40.113  35.777  37.040  1.00  0.00     0.124 S 
ATOM     46  O   UNL A   1      39.541  36.215  38.311  1.00  0.00    -0.237 OA
ATOM     47  O   UNL A   1      41.535  35.457  37.055  1.00  0.00    -0.237 OA
ATOM     48  O   UNL A   1      39.653  36.526  35.871  1.00  0.00    -0.744 OA
ENDBRANCH  41  45
ENDBRANCH  24  38
BRANCH  25  49
ATOM     49  C   UNL A   1      42.249  26.554  27.805  1.00  0.00     0.023 A 
ATOM     50  C   UNL A   1      41.918  25.196  27.694  1.00  0.00     0.031 A 
ATOM     51  C   UNL A   1      43.010  27.144  26.782  1.00  0.00     0.131 A 
ATOM     52  C   UNL A   1      42.367  24.461  26.586  1.00  0.00     0.055 A 
ATOM     53  C   UNL A   1      43.429  26.416  25.668  1.00  0.00     0.041 A 
ATOM     54  F   UNL A   1      43.337  28.444  26.844  1.00  0.00    -0.206 F 
ATOM     55  C   UNL A   1      43.112  25.065  25.569  1.00  0.00     0.022 A 
BRANCH  52  56
ATOM     56  S   UNL A   1      41.977  22.693  26.500  1.00  0.00     0.124 S 
ATOM     57  O   UNL A   1      42.614  22.187  27.709  1.00  0.00    -0.237 OA
ATOM     58  O   UNL A   1      40.517  22.703  26.500  1.00  0.00    -0.237 OA
ATOM     59  O   UNL A   1      42.592  22.269  25.244  1.00  0.00    -0.744 OA
ENDBRANCH  52  56
ENDBRANCH  25  49
BRANCH  37  60
ATOM     60  C   UNL A   1      44.665  27.340  34.276  1.00  0.00     0.023 A 
ATOM     61  C   UNL A   1      44.523  26.139  34.991  1.00  0.00     0.031 A 
ATOM     62  C   UNL A   1      45.920  27.973  34.274  1.00  0.00     0.131 A 
ATOM     63  C   UNL A   1      45.610  25.628  35.715  1.00  0.00     0.055 A 
ATOM     64  C   UNL A   1      47.008  27.440  34.964  1.00  0.00     0.041 A 
ATOM     65  F   UNL A   1      46.102  29.125  33.608  1.00  0.00    -0.206 F 
ATOM     66  C   UNL A   1      46.854  26.267  35.699  1.00  0.00     0.022 A 
BRANCH  63  67
ATOM     67  S   UNL A   1      45.358  24.155  36.744  1.00  0.00     0.124 S 
ATOM     68  O   UNL A   1      46.729  23.758  37.050  1.00  0.00    -0.237 OA
ATOM     69  O   UNL A   1      44.583  24.685  37.862  1.00  0.00    -0.237 OA
ATOM     70  O   UNL A   1      44.631  23.243  35.865  1.00  0.00    -0.744 OA
ENDBRANCH  63  67
ENDBRANCH  37  60
ENDBRANCH  11  12
ENDBRANCH   4   6
ENDBRANCH   1   2
BRANCH   1  71
ATOM     71  C   UNL A   1      31.815  29.054  27.021  1.00  0.00     0.042 C 
BRANCH  71  72
ATOM     72  C   UNL A   1      32.070  27.565  26.825  1.00  0.00     0.118 C 
BRANCH  72  73
ATOM     73  N   UNL A   1      30.856  26.766  26.875  1.00  0.00    -0.352 N 
ATOM     74  C   UNL A   1      30.301  25.924  25.945  1.00  0.00     0.253 C 
ATOM     75  H   UNL A   1      30.348  26.841  27.715  1.00  0.00     0.163 HD
ATOM     76  O   UNL A   1      29.250  25.345  26.212  1.00  0.00    -0.269 OA
BRANCH  74  77
ATOM     77  C   UNL A   1      30.989  25.653  24.667  1.00  0.00     0.064 A 
ATOM     78  C   UNL A   1      31.545  24.368  24.520  1.00  0.00     0.031 A 
ATOM     79  C   UNL A   1      30.918  26.534  23.571  1.00  0.00     0.050 A 
ATOM     80  C   UNL A   1      32.090  23.977  23.303  1.00  0.00     0.018 A 
ATOM     81  C   UNL A   1      31.459  26.093  22.346  1.00  0.00     0.028 A 
ATOM     82  Br  UNL A   1      32.856  22.259  23.125  1.00  0.00    -0.051 Br
ATOM     83  C   UNL A   1      32.053  24.836  22.212  1.00  0.00     0.018 A 
BRANCH  79  84
ATOM     84  N   UNL A   1      30.342  27.813  23.595  1.00  0.00    -0.370 N 
ATOM     85  C   UNL A   1      29.017  28.303  23.423  1.00  0.00     0.125 C 
ATOM     86  C   UNL A   1      30.988  29.072  23.413  1.00  0.00     0.125 C 
ATOM     87  C   UNL A   1      29.620  29.675  23.025  1.00  0.00     0.005 C 
ATOM     88  C   UNL A   1      29.238  30.881  23.889  1.00  0.00     0.011 C 
ATOM     89  C   UNL A   1      29.493  30.005  21.530  1.00  0.00     0.011 C 
ATOM     90  C   UNL A   1      27.821  31.348  23.561  1.00  0.00     0.001 C 
ATOM     91  C   UNL A   1      28.064  30.448  21.214  1.00  0.00     0.001 C 
ATOM     92  C   UNL A   1      27.652  31.642  22.071  1.00  0.00     0.000 C 
ENDBRANCH  79  84
ENDBRANCH  74  77
ENDBRANCH  72  73
ENDBRANCH  71  72
ENDBRANCH   1  71
TORSDOF 14
ENDMDL
