MODEL 1
REMARK VINA RESULT:     -11.3      0.000      0.000
REMARK SMILES C[C@@H]1C[N@@H+](CC(C)(C)C(=O)NCCCNC(=O)c2ccc(-c3c4nc(c(-c5cc(S(=O)(=O)[O-])ccc5F)c5ccc([nH]5)c(-c5cc(S(=O)(=O)[O-])ccc5F)c5nc(c(-c6cc(S(=O)(=O)[O-])ccc6F)c6ccc3[nH]6)C=C5)C=C4)cc2)CC[C@@H]1[NH3+]
REMARK SMILES IDX 13 1 12 2 11 3 9 4 10 5 6 7 7 8 8 9 5 10 4 11 1 12 2 13 3 14
REMARK SMILES IDX 83 15 82 16 81 17 84 19 14 23 15 24 16 25 17 27 18 28 19 29
REMARK SMILES IDX 80 30 20 31 79 32 21 33 22 34 23 35 73 36 24 37 78 38 72 39
REMARK SMILES IDX 74 40 25 41 77 42 71 43 70 44 26 46 58 47 38 48 57 49 39 50
REMARK SMILES IDX 42 51 56 52 75 53 40 54 41 55 55 57 76 58 43 59 27 60 28 61
REMARK SMILES IDX 36 62 29 63 35 64 37 65 34 66 30 67 31 68 32 69 33 70 59 71
REMARK SMILES IDX 60 72 68 73 61 74 67 75 69 76 66 77 62 78 63 79 64 80 65 81
REMARK SMILES IDX 44 82 45 83 53 84 46 85 52 86 54 87 51 88 47 89 48 90 49 91
REMARK SMILES IDX 50 92
REMARK H PARENT 11 6 4 18 84 20 84 21 84 22 15 26 74 45 42 56
REMARK Flexibility Score: inf
ROOT
ATOM      1  C   UNL A   1      34.593  21.916  25.402  1.00  0.00     0.042 C 
ENDROOT
BRANCH   1   2
ATOM      2  C   UNL A   1      34.013  21.966  23.996  1.00  0.00     0.117 C 
BRANCH   2   3
ATOM      3  N   UNL A   1      34.279  23.249  23.377  1.00  0.00    -0.355 N 
ATOM      4  C   UNL A   1      33.449  24.238  22.968  1.00  0.00     0.231 C 
ATOM      5  O   UNL A   1      33.875  24.915  22.024  1.00  0.00    -0.274 OA
ATOM      6  H   UNL A   1      35.234  23.435  23.226  1.00  0.00     0.163 HD
BRANCH   4   7
ATOM      7  C   UNL A   1      32.057  24.490  23.572  1.00  0.00     0.092 C 
ATOM      8  C   UNL A   1      31.057  23.328  23.479  1.00  0.00     0.027 C 
ATOM      9  C   UNL A   1      31.476  25.681  22.780  1.00  0.00     0.027 C 
BRANCH   7  10
ATOM     10  C   UNL A   1      32.234  24.931  25.081  1.00  0.00     0.278 C 
BRANCH  10  11
ATOM     11  N   UNL A   1      32.287  26.354  25.510  1.00  0.00    -0.333 N 
ATOM     12  C   UNL A   1      33.277  29.219  24.711  1.00  0.00     0.020 C 
ATOM     13  C   UNL A   1      33.727  28.384  25.915  1.00  0.00     0.099 C 
ATOM     14  C   UNL A   1      33.656  26.877  25.612  1.00  0.00     0.271 C 
ATOM     15  C   UNL A   1      32.924  28.647  27.201  1.00  0.00     0.194 C 
ATOM     16  C   UNL A   1      31.478  28.178  27.028  1.00  0.00     0.126 C 
ATOM     17  C   UNL A   1      31.454  26.691  26.661  1.00  0.00     0.268 C 
ATOM     18  H   UNL A   1      31.847  26.856  24.739  1.00  0.00     0.348 HD
BRANCH  15  19
ATOM     19  N   UNL A   1      32.980  30.047  27.626  1.00  0.00    -0.355 N 
ATOM     20  H   UNL A   1      33.924  30.407  27.487  1.00  0.00     0.344 HD
ATOM     21  H   UNL A   1      32.734  30.112  28.614  1.00  0.00     0.344 HD
ATOM     22  H   UNL A   1      32.322  30.597  27.074  1.00  0.00     0.344 HD
ENDBRANCH  15  19
ENDBRANCH  10  11
ENDBRANCH   7  10
ENDBRANCH   4   7
ENDBRANCH   2   3
ENDBRANCH   1   2
BRANCH   1  23
ATOM     23  C   UNL A   1      36.062  22.311  25.462  1.00  0.00     0.118 C 
BRANCH  23  24
ATOM     24  N   UNL A   1      36.946  21.152  25.450  1.00  0.00    -0.352 N 
ATOM     25  C   UNL A   1      38.305  21.093  25.658  1.00  0.00     0.251 C 
ATOM     26  H   UNL A   1      36.508  20.289  25.268  1.00  0.00     0.163 HD
ATOM     27  O   UNL A   1      38.922  20.077  25.376  1.00  0.00    -0.269 OA
BRANCH  25  28
ATOM     28  C   UNL A   1      39.000  22.280  26.200  1.00  0.00     0.039 A 
ATOM     29  C   UNL A   1      40.087  22.107  27.060  1.00  0.00     0.014 A 
ATOM     30  C   UNL A   1      38.589  23.563  25.831  1.00  0.00     0.014 A 
ATOM     31  C   UNL A   1      40.807  23.224  27.490  1.00  0.00     0.010 A 
ATOM     32  C   UNL A   1      39.365  24.660  26.178  1.00  0.00     0.010 A 
ATOM     33  C   UNL A   1      40.478  24.506  27.020  1.00  0.00    -0.014 A 
BRANCH  33  34
ATOM     34  C   UNL A   1      41.246  25.714  27.412  1.00  0.00     0.031 A 
ATOM     35  C   UNL A   1      40.582  26.763  28.265  1.00  0.00     0.074 A 
ATOM     36  C   UNL A   1      42.489  25.914  26.930  1.00  0.00     0.049 A 
ATOM     37  N   UNL A   1      40.999  27.962  28.582  1.00  0.00    -0.248 NA
ATOM     38  C   UNL A   1      39.251  26.429  28.795  1.00  0.00     0.031 C 
ATOM     39  C   UNL A   1      43.224  24.985  26.069  1.00  0.00     0.029 A 
ATOM     40  N   UNL A   1      43.347  26.974  27.079  1.00  0.00    -0.354 N 
ATOM     41  C   UNL A   1      39.969  28.535  29.321  1.00  0.00     0.074 A 
ATOM     42  C   UNL A   1      38.887  27.575  29.347  1.00  0.00     0.031 C 
ATOM     43  C   UNL A   1      44.428  25.508  25.784  1.00  0.00     0.029 A 
ATOM     44  C   UNL A   1      44.530  26.831  26.391  1.00  0.00     0.049 A 
ATOM     45  H   UNL A   1      43.136  27.765  27.627  1.00  0.00     0.167 HD
ATOM     46  C   UNL A   1      39.940  29.740  29.941  1.00  0.00     0.034 A 
ATOM     47  C   UNL A   1      45.568  27.679  26.248  1.00  0.00     0.034 A 
ATOM     48  C   UNL A   1      41.039  30.672  29.923  1.00  0.00     0.049 A 
ATOM     49  C   UNL A   1      45.507  29.024  26.930  1.00  0.00     0.074 A 
ATOM     50  C   UNL A   1      41.142  31.898  30.556  1.00  0.00     0.029 A 
ATOM     51  N   UNL A   1      42.230  30.482  29.232  1.00  0.00    -0.354 N 
ATOM     52  N   UNL A   1      44.540  29.539  27.653  1.00  0.00    -0.248 NA
ATOM     53  C   UNL A   1      46.679  29.896  26.782  1.00  0.00     0.031 C 
ATOM     54  C   UNL A   1      42.363  32.476  30.195  1.00  0.00     0.029 A 
ATOM     55  C   UNL A   1      43.061  31.578  29.404  1.00  0.00     0.049 A 
ATOM     56  H   UNL A   1      42.451  29.685  28.697  1.00  0.00     0.167 HD
ATOM     57  C   UNL A   1      45.007  30.780  28.081  1.00  0.00     0.074 A 
ATOM     58  C   UNL A   1      46.341  30.929  27.539  1.00  0.00     0.031 C 
ATOM     59  C   UNL A   1      44.391  31.709  28.857  1.00  0.00     0.034 A 
BRANCH  46  60
ATOM     60  C   UNL A   1      38.668  30.117  30.665  1.00  0.00     0.023 A 
ATOM     61  C   UNL A   1      37.643  30.842  30.030  1.00  0.00     0.031 A 
ATOM     62  C   UNL A   1      38.490  29.780  32.018  1.00  0.00     0.131 A 
ATOM     63  C   UNL A   1      36.534  31.281  30.768  1.00  0.00     0.055 A 
ATOM     64  C   UNL A   1      37.340  30.143  32.724  1.00  0.00     0.041 A 
ATOM     65  F   UNL A   1      39.442  29.108  32.687  1.00  0.00    -0.206 F 
ATOM     66  C   UNL A   1      36.361  30.912  32.103  1.00  0.00     0.022 A 
BRANCH  63  67
ATOM     67  S   UNL A   1      35.402  32.472  29.998  1.00  0.00     0.124 S 
ATOM     68  O   UNL A   1      34.964  31.738  28.814  1.00  0.00    -0.237 OA
ATOM     69  O   UNL A   1      34.397  32.670  31.036  1.00  0.00    -0.237 OA
ATOM     70  O   UNL A   1      36.255  33.627  29.726  1.00  0.00    -0.744 OA
ENDBRANCH  63  67
ENDBRANCH  46  60
BRANCH  47  71
ATOM     71  C   UNL A   1      46.749  27.298  25.420  1.00  0.00     0.023 A 
ATOM     72  C   UNL A   1      46.924  27.821  24.130  1.00  0.00     0.031 A 
ATOM     73  C   UNL A   1      47.699  26.371  25.889  1.00  0.00     0.131 A 
ATOM     74  C   UNL A   1      47.992  27.378  23.332  1.00  0.00     0.055 A 
ATOM     75  C   UNL A   1      48.790  25.976  25.113  1.00  0.00     0.041 A 
ATOM     76  F   UNL A   1      47.584  25.844  27.118  1.00  0.00    -0.206 F 
ATOM     77  C   UNL A   1      48.933  26.470  23.820  1.00  0.00     0.022 A 
BRANCH  74  78
ATOM     78  S   UNL A   1      48.080  27.942  21.610  1.00  0.00     0.124 S 
ATOM     79  O   UNL A   1      48.283  26.687  20.898  1.00  0.00    -0.237 OA
ATOM     80  O   UNL A   1      46.779  28.578  21.434  1.00  0.00    -0.237 OA
ATOM     81  O   UNL A   1      49.223  28.854  21.610  1.00  0.00    -0.744 OA
ENDBRANCH  74  78
ENDBRANCH  47  71
BRANCH  59  82
ATOM     82  C   UNL A   1      45.186  32.938  29.221  1.00  0.00     0.023 A 
ATOM     83  C   UNL A   1      45.099  34.129  28.481  1.00  0.00     0.031 A 
ATOM     84  C   UNL A   1      46.045  32.912  30.335  1.00  0.00     0.131 A 
ATOM     85  C   UNL A   1      45.895  35.230  28.833  1.00  0.00     0.055 A 
ATOM     86  C   UNL A   1      46.787  34.029  30.718  1.00  0.00     0.041 A 
ATOM     87  F   UNL A   1      46.168  31.801  31.077  1.00  0.00    -0.206 F 
ATOM     88  C   UNL A   1      46.724  35.194  29.958  1.00  0.00     0.022 A 
BRANCH  85  89
ATOM     89  S   UNL A   1      45.898  36.686  27.752  1.00  0.00     0.124 S 
ATOM     90  O   UNL A   1      45.746  37.776  28.709  1.00  0.00    -0.237 OA
ATOM     91  O   UNL A   1      47.199  36.587  27.099  1.00  0.00    -0.237 OA
ATOM     92  O   UNL A   1      44.748  36.466  26.875  1.00  0.00    -0.744 OA
ENDBRANCH  85  89
ENDBRANCH  59  82
ENDBRANCH  33  34
ENDBRANCH  25  28
ENDBRANCH  23  24
ENDBRANCH   1  23
TORSDOF 16
ENDMDL
MODEL 2
REMARK VINA RESULT:     -11.1      5.794     11.050
REMARK SMILES C[C@@H]1C[N@@H+](CC(C)(C)C(=O)NCCCNC(=O)c2ccc(-c3c4nc(c(-c5cc(S(=O)(=O)[O-])ccc5F)c5ccc([nH]5)c(-c5cc(S(=O)(=O)[O-])ccc5F)c5nc(c(-c6cc(S(=O)(=O)[O-])ccc6F)c6ccc3[nH]6)C=C5)C=C4)cc2)CC[C@@H]1[NH3+]
REMARK SMILES IDX 13 1 12 2 11 3 9 4 10 5 6 7 7 8 8 9 5 10 4 11 1 12 2 13 3 14
REMARK SMILES IDX 83 15 82 16 81 17 84 19 14 23 15 24 16 25 17 27 18 28 19 29
REMARK SMILES IDX 80 30 20 31 79 32 21 33 22 34 23 35 73 36 24 37 78 38 72 39
REMARK SMILES IDX 74 40 25 41 77 42 71 43 70 44 26 46 58 47 38 48 57 49 39 50
REMARK SMILES IDX 42 51 56 52 75 53 40 54 41 55 55 57 76 58 43 59 27 60 28 61
REMARK SMILES IDX 36 62 29 63 35 64 37 65 34 66 30 67 31 68 32 69 33 70 59 71
REMARK SMILES IDX 60 72 68 73 61 74 67 75 69 76 66 77 62 78 63 79 64 80 65 81
REMARK SMILES IDX 44 82 45 83 53 84 46 85 52 86 54 87 51 88 47 89 48 90 49 91
REMARK SMILES IDX 50 92
REMARK H PARENT 11 6 4 18 84 20 84 21 84 22 15 26 74 45 42 56
REMARK Flexibility Score: inf
ROOT
ATOM      1  C   UNL A   1      31.782  31.640  26.764  1.00  0.00     0.042 C 
ENDROOT
BRANCH   1   2
ATOM      2  C   UNL A   1      32.170  30.387  25.992  1.00  0.00     0.117 C 
BRANCH   2   3
ATOM      3  N   UNL A   1      32.092  29.216  26.842  1.00  0.00    -0.355 N 
ATOM      4  C   UNL A   1      31.544  27.994  26.640  1.00  0.00     0.231 C 
ATOM      5  O   UNL A   1      31.146  27.428  27.665  1.00  0.00    -0.274 OA
ATOM      6  H   UNL A   1      32.512  29.330  27.725  1.00  0.00     0.163 HD
BRANCH   4   7
ATOM      7  C   UNL A   1      31.366  27.357  25.251  1.00  0.00     0.092 C 
ATOM      8  C   UNL A   1      30.540  28.162  24.237  1.00  0.00     0.027 C 
ATOM      9  C   UNL A   1      30.635  26.021  25.503  1.00  0.00     0.027 C 
BRANCH   7  10
ATOM     10  C   UNL A   1      32.796  27.040  24.654  1.00  0.00     0.278 C 
BRANCH  10  11
ATOM     11  N   UNL A   1      33.359  25.665  24.582  1.00  0.00    -0.333 N 
ATOM     12  C   UNL A   1      33.780  22.999  26.177  1.00  0.00     0.020 C 
ATOM     13  C   UNL A   1      34.864  23.943  25.643  1.00  0.00     0.099 C 
ATOM     14  C   UNL A   1      34.374  25.401  25.610  1.00  0.00     0.271 C 
ATOM     15  C   UNL A   1      35.377  23.584  24.237  1.00  0.00     0.194 C 
ATOM     16  C   UNL A   1      34.267  23.779  23.203  1.00  0.00     0.126 C 
ATOM     17  C   UNL A   1      33.761  25.224  23.249  1.00  0.00     0.268 C 
ATOM     18  H   UNL A   1      32.565  25.066  24.805  1.00  0.00     0.348 HD
BRANCH  15  19
ATOM     19  N   UNL A   1      35.936  22.232  24.167  1.00  0.00    -0.355 N 
ATOM     20  H   UNL A   1      35.997  21.841  25.107  1.00  0.00     0.344 HD
ATOM     21  H   UNL A   1      36.867  22.271  23.754  1.00  0.00     0.344 HD
ATOM     22  H   UNL A   1      35.332  21.644  23.593  1.00  0.00     0.344 HD
ENDBRANCH  15  19
ENDBRANCH  10  11
ENDBRANCH   7  10
ENDBRANCH   4   7
ENDBRANCH   2   3
ENDBRANCH   1   2
BRANCH   1  23
ATOM     23  C   UNL A   1      32.977  32.395  27.327  1.00  0.00     0.118 C 
BRANCH  23  24
ATOM     24  N   UNL A   1      32.674  33.798  27.579  1.00  0.00    -0.352 N 
ATOM     25  C   UNL A   1      33.160  34.630  28.563  1.00  0.00     0.251 C 
ATOM     26  H   UNL A   1      32.030  34.209  26.958  1.00  0.00     0.163 HD
ATOM     27  O   UNL A   1      32.622  35.706  28.774  1.00  0.00    -0.269 OA
BRANCH  25  28
ATOM     28  C   UNL A   1      34.320  34.189  29.367  1.00  0.00     0.039 A 
ATOM     29  C   UNL A   1      34.107  33.463  30.540  1.00  0.00     0.014 A 
ATOM     30  C   UNL A   1      35.619  34.474  28.939  1.00  0.00     0.014 A 
ATOM     31  C   UNL A   1      35.203  32.958  31.244  1.00  0.00     0.010 A 
ATOM     32  C   UNL A   1      36.700  33.889  29.584  1.00  0.00     0.010 A 
ATOM     33  C   UNL A   1      36.506  33.132  30.750  1.00  0.00    -0.014 A 
BRANCH  33  34
ATOM     34  C   UNL A   1      37.695  32.571  31.440  1.00  0.00     0.031 A 
ATOM     35  C   UNL A   1      38.441  31.426  30.807  1.00  0.00     0.074 A 
ATOM     36  C   UNL A   1      38.043  33.018  32.663  1.00  0.00     0.049 A 
ATOM     37  N   UNL A   1      39.391  30.677  31.304  1.00  0.00    -0.248 NA
ATOM     38  C   UNL A   1      38.028  31.049  29.446  1.00  0.00     0.031 C 
ATOM     39  C   UNL A   1      37.378  34.100  33.390  1.00  0.00     0.029 A 
ATOM     40  N   UNL A   1      39.033  32.605  33.519  1.00  0.00    -0.354 N 
ATOM     41  C   UNL A   1      39.667  29.723  30.329  1.00  0.00     0.074 A 
ATOM     42  C   UNL A   1      38.739  29.951  29.244  1.00  0.00     0.031 C 
ATOM     43  C   UNL A   1      37.990  34.276  34.573  1.00  0.00     0.029 A 
ATOM     44  C   UNL A   1      39.052  33.285  34.714  1.00  0.00     0.049 A 
ATOM     45  H   UNL A   1      39.670  31.887  33.299  1.00  0.00     0.167 HD
ATOM     46  C   UNL A   1      40.624  28.763  30.331  1.00  0.00     0.034 A 
ATOM     47  C   UNL A   1      39.824  33.116  35.806  1.00  0.00     0.034 A 
ATOM     48  C   UNL A   1      41.555  28.568  31.414  1.00  0.00     0.049 A 
ATOM     49  C   UNL A   1      40.869  32.027  35.795  1.00  0.00     0.074 A 
ATOM     50  C   UNL A   1      42.597  27.662  31.504  1.00  0.00     0.029 A 
ATOM     51  N   UNL A   1      41.557  29.292  32.600  1.00  0.00    -0.354 N 
ATOM     52  N   UNL A   1      41.141  31.153  34.854  1.00  0.00    -0.248 NA
ATOM     53  C   UNL A   1      41.715  31.908  36.990  1.00  0.00     0.031 C 
ATOM     54  C   UNL A   1      43.184  27.793  32.766  1.00  0.00     0.029 A 
ATOM     55  C   UNL A   1      42.565  28.837  33.435  1.00  0.00     0.049 A 
ATOM     56  H   UNL A   1      40.932  30.022  32.816  1.00  0.00     0.167 HD
ATOM     57  C   UNL A   1      42.217  30.408  35.328  1.00  0.00     0.074 A 
ATOM     58  C   UNL A   1      42.546  30.940  36.634  1.00  0.00     0.031 C 
ATOM     59  C   UNL A   1      42.880  29.381  34.735  1.00  0.00     0.034 A 
BRANCH  46  60
ATOM     60  C   UNL A   1      40.684  27.841  29.135  1.00  0.00     0.023 A 
ATOM     61  C   UNL A   1      41.634  28.018  28.113  1.00  0.00     0.031 A 
ATOM     62  C   UNL A   1      39.757  26.794  28.994  1.00  0.00     0.131 A 
ATOM     63  C   UNL A   1      41.580  27.221  26.959  1.00  0.00     0.055 A 
ATOM     64  C   UNL A   1      39.765  25.945  27.884  1.00  0.00     0.041 A 
ATOM     65  F   UNL A   1      38.810  26.588  29.924  1.00  0.00    -0.206 F 
ATOM     66  C   UNL A   1      40.670  26.167  26.850  1.00  0.00     0.022 A 
BRANCH  63  67
ATOM     67  S   UNL A   1      42.611  27.684  25.541  1.00  0.00     0.124 S 
ATOM     68  O   UNL A   1      42.507  26.494  24.700  1.00  0.00    -0.237 OA
ATOM     69  O   UNL A   1      41.944  28.881  25.042  1.00  0.00    -0.237 OA
ATOM     70  O   UNL A   1      43.929  27.905  26.134  1.00  0.00    -0.744 OA
ENDBRANCH  63  67
ENDBRANCH  46  60
BRANCH  47  71
ATOM     71  C   UNL A   1      39.638  33.980  37.008  1.00  0.00     0.023 A 
ATOM     72  C   UNL A   1      39.055  33.472  38.179  1.00  0.00     0.031 A 
ATOM     73  C   UNL A   1      39.999  35.340  36.989  1.00  0.00     0.131 A 
ATOM     74  C   UNL A   1      38.804  34.325  39.265  1.00  0.00     0.055 A 
ATOM     75  C   UNL A   1      39.798  36.172  38.092  1.00  0.00     0.041 A 
ATOM     76  F   UNL A   1      40.565  35.877  35.898  1.00  0.00    -0.206 F 
ATOM     77  C   UNL A   1      39.183  35.668  39.235  1.00  0.00     0.022 A 
BRANCH  74  78
ATOM     78  S   UNL A   1      37.888  33.672  40.688  1.00  0.00     0.124 S 
ATOM     79  O   UNL A   1      37.686  34.874  41.487  1.00  0.00    -0.237 OA
ATOM     80  O   UNL A   1      36.699  33.115  40.052  1.00  0.00    -0.237 OA
ATOM     81  O   UNL A   1      38.806  32.688  41.259  1.00  0.00    -0.744 OA
ENDBRANCH  74  78
ENDBRANCH  47  71
BRANCH  59  82
ATOM     82  C   UNL A   1      44.070  28.814  35.468  1.00  0.00     0.023 A 
ATOM     83  C   UNL A   1      43.951  27.740  36.366  1.00  0.00     0.031 A 
ATOM     84  C   UNL A   1      45.349  29.363  35.258  1.00  0.00     0.131 A 
ATOM     85  C   UNL A   1      45.081  27.280  37.059  1.00  0.00     0.055 A 
ATOM     86  C   UNL A   1      46.479  28.861  35.902  1.00  0.00     0.041 A 
ATOM     87  F   UNL A   1      45.520  30.391  34.412  1.00  0.00    -0.206 F 
ATOM     88  C   UNL A   1      46.348  27.822  36.818  1.00  0.00     0.022 A 
BRANCH  85  89
ATOM     89  S   UNL A   1      44.864  26.020  38.345  1.00  0.00     0.124 S 
ATOM     90  O   UNL A   1      44.501  26.828  39.504  1.00  0.00    -0.237 OA
ATOM     91  O   UNL A   1      43.802  25.188  37.790  1.00  0.00    -0.237 OA
ATOM     92  O   UNL A   1      46.176  25.379  38.423  1.00  0.00    -0.744 OA
ENDBRANCH  85  89
ENDBRANCH  59  82
ENDBRANCH  33  34
ENDBRANCH  25  28
ENDBRANCH  23  24
ENDBRANCH   1  23
TORSDOF 16
ENDMDL
MODEL 3
REMARK VINA RESULT:     -11.1      1.868      2.352
REMARK SMILES C[C@@H]1C[N@@H+](CC(C)(C)C(=O)NCCCNC(=O)c2ccc(-c3c4nc(c(-c5cc(S(=O)(=O)[O-])ccc5F)c5ccc([nH]5)c(-c5cc(S(=O)(=O)[O-])ccc5F)c5nc(c(-c6cc(S(=O)(=O)[O-])ccc6F)c6ccc3[nH]6)C=C5)C=C4)cc2)CC[C@@H]1[NH3+]
REMARK SMILES IDX 13 1 12 2 11 3 9 4 10 5 6 7 7 8 8 9 5 10 4 11 1 12 2 13 3 14
REMARK SMILES IDX 83 15 82 16 81 17 84 19 14 23 15 24 16 25 17 27 18 28 19 29
REMARK SMILES IDX 80 30 20 31 79 32 21 33 22 34 23 35 73 36 24 37 78 38 72 39
REMARK SMILES IDX 74 40 25 41 77 42 71 43 70 44 26 46 58 47 38 48 57 49 39 50
REMARK SMILES IDX 42 51 56 52 75 53 40 54 41 55 55 57 76 58 43 59 27 60 28 61
REMARK SMILES IDX 36 62 29 63 35 64 37 65 34 66 30 67 31 68 32 69 33 70 59 71
REMARK SMILES IDX 60 72 68 73 61 74 67 75 69 76 66 77 62 78 63 79 64 80 65 81
REMARK SMILES IDX 44 82 45 83 53 84 46 85 52 86 54 87 51 88 47 89 48 90 49 91
REMARK SMILES IDX 50 92
REMARK H PARENT 11 6 4 18 84 20 84 21 84 22 15 26 74 45 42 56
REMARK Flexibility Score: inf
ROOT
ATOM      1  C   UNL A   1      34.679  21.601  26.725  1.00  0.00     0.042 C 
ENDROOT
BRANCH   1   2
ATOM      2  C   UNL A   1      34.024  22.563  27.708  1.00  0.00     0.117 C 
BRANCH   2   3
ATOM      3  N   UNL A   1      32.586  22.577  27.530  1.00  0.00    -0.355 N 
ATOM      4  C   UNL A   1      31.781  23.370  26.783  1.00  0.00     0.231 C 
ATOM      5  O   UNL A   1      30.639  23.520  27.232  1.00  0.00    -0.274 OA
ATOM      6  H   UNL A   1      32.109  21.888  28.045  1.00  0.00     0.163 HD
BRANCH   4   7
ATOM      7  C   UNL A   1      32.240  24.087  25.502  1.00  0.00     0.092 C 
ATOM      8  C   UNL A   1      32.736  23.186  24.361  1.00  0.00     0.027 C 
ATOM      9  C   UNL A   1      33.414  24.991  25.936  1.00  0.00     0.027 C 
BRANCH   7  10
ATOM     10  C   UNL A   1      31.062  25.008  24.989  1.00  0.00     0.278 C 
BRANCH  10  11
ATOM     11  N   UNL A   1      31.285  26.325  24.336  1.00  0.00    -0.333 N 
ATOM     12  C   UNL A   1      31.419  29.419  24.822  1.00  0.00     0.020 C 
ATOM     13  C   UNL A   1      30.419  28.660  23.942  1.00  0.00     0.099 C 
ATOM     14  C   UNL A   1      30.152  27.246  24.486  1.00  0.00     0.271 C 
ATOM     15  C   UNL A   1      30.849  28.528  22.471  1.00  0.00     0.194 C 
ATOM     16  C   UNL A   1      32.089  27.640  22.358  1.00  0.00     0.126 C 
ATOM     17  C   UNL A   1      31.802  26.266  22.971  1.00  0.00     0.268 C 
ATOM     18  H   UNL A   1      32.055  26.731  24.868  1.00  0.00     0.348 HD
BRANCH  15  19
ATOM     19  N   UNL A   1      31.065  29.825  21.826  1.00  0.00    -0.355 N 
ATOM     20  H   UNL A   1      30.859  29.748  20.830  1.00  0.00     0.344 HD
ATOM     21  H   UNL A   1      32.037  30.108  21.951  1.00  0.00     0.344 HD
ATOM     22  H   UNL A   1      30.451  30.522  22.247  1.00  0.00     0.344 HD
ENDBRANCH  15  19
ENDBRANCH  10  11
ENDBRANCH   7  10
ENDBRANCH   4   7
ENDBRANCH   2   3
ENDBRANCH   1   2
BRANCH   1  23
ATOM     23  C   UNL A   1      35.975  22.135  26.132  1.00  0.00     0.118 C 
BRANCH  23  24
ATOM     24  N   UNL A   1      36.923  21.070  25.830  1.00  0.00    -0.352 N 
ATOM     25  C   UNL A   1      38.298  21.118  25.782  1.00  0.00     0.251 C 
ATOM     26  H   UNL A   1      36.523  20.192  25.632  1.00  0.00     0.163 HD
ATOM     27  O   UNL A   1      38.923  20.196  25.280  1.00  0.00    -0.269 OA
BRANCH  25  28
ATOM     28  C   UNL A   1      38.994  22.305  26.322  1.00  0.00     0.039 A 
ATOM     29  C   UNL A   1      40.092  22.133  27.167  1.00  0.00     0.014 A 
ATOM     30  C   UNL A   1      38.572  23.588  25.965  1.00  0.00     0.014 A 
ATOM     31  C   UNL A   1      40.813  23.251  27.593  1.00  0.00     0.010 A 
ATOM     32  C   UNL A   1      39.347  24.687  26.308  1.00  0.00     0.010 A 
ATOM     33  C   UNL A   1      40.471  24.533  27.134  1.00  0.00    -0.014 A 
BRANCH  33  34
ATOM     34  C   UNL A   1      41.238  25.744  27.523  1.00  0.00     0.031 A 
ATOM     35  C   UNL A   1      40.566  26.806  28.353  1.00  0.00     0.074 A 
ATOM     36  C   UNL A   1      42.489  25.932  27.058  1.00  0.00     0.049 A 
ATOM     37  N   UNL A   1      40.982  28.007  28.661  1.00  0.00    -0.248 NA
ATOM     38  C   UNL A   1      39.225  26.484  28.866  1.00  0.00     0.031 C 
ATOM     39  C   UNL A   1      43.233  24.989  26.220  1.00  0.00     0.029 A 
ATOM     40  N   UNL A   1      43.349  26.991  27.207  1.00  0.00    -0.354 N 
ATOM     41  C   UNL A   1      39.943  28.593  29.377  1.00  0.00     0.074 A 
ATOM     42  C   UNL A   1      38.857  27.638  29.399  1.00  0.00     0.031 C 
ATOM     43  C   UNL A   1      44.443  25.504  25.947  1.00  0.00     0.029 A 
ATOM     44  C   UNL A   1      44.542  26.835  26.539  1.00  0.00     0.049 A 
ATOM     45  H   UNL A   1      43.134  27.789  27.742  1.00  0.00     0.167 HD
ATOM     46  C   UNL A   1      39.910  29.806  29.982  1.00  0.00     0.034 A 
ATOM     47  C   UNL A   1      45.586  27.676  26.401  1.00  0.00     0.034 A 
ATOM     48  C   UNL A   1      41.014  30.734  29.969  1.00  0.00     0.049 A 
ATOM     49  C   UNL A   1      45.519  29.030  27.065  1.00  0.00     0.074 A 
ATOM     50  C   UNL A   1      41.113  31.967  30.588  1.00  0.00     0.029 A 
ATOM     51  N   UNL A   1      42.214  30.530  29.298  1.00  0.00    -0.354 N 
ATOM     52  N   UNL A   1      44.544  29.558  27.768  1.00  0.00    -0.248 NA
ATOM     53  C   UNL A   1      46.698  29.895  26.925  1.00  0.00     0.031 C 
ATOM     54  C   UNL A   1      42.341  32.536  30.239  1.00  0.00     0.029 A 
ATOM     55  C   UNL A   1      43.047  31.624  29.470  1.00  0.00     0.049 A 
ATOM     56  H   UNL A   1      42.440  29.726  28.777  1.00  0.00     0.167 HD
ATOM     57  C   UNL A   1      45.009  30.802  28.187  1.00  0.00     0.074 A 
ATOM     58  C   UNL A   1      46.353  30.940  27.664  1.00  0.00     0.031 C 
ATOM     59  C   UNL A   1      44.386  31.743  28.942  1.00  0.00     0.034 A 
BRANCH  46  60
ATOM     60  C   UNL A   1      38.629  30.198  30.681  1.00  0.00     0.023 A 
ATOM     61  C   UNL A   1      37.590  30.860  30.003  1.00  0.00     0.031 A 
ATOM     62  C   UNL A   1      38.457  29.939  32.052  1.00  0.00     0.131 A 
ATOM     63  C   UNL A   1      36.469  31.318  30.713  1.00  0.00     0.055 A 
ATOM     64  C   UNL A   1      37.298  30.317  32.735  1.00  0.00     0.041 A 
ATOM     65  F   UNL A   1      39.422  29.330  32.761  1.00  0.00    -0.206 F 
ATOM     66  C   UNL A   1      36.303  31.026  32.069  1.00  0.00     0.022 A 
BRANCH  63  67
ATOM     67  S   UNL A   1      35.312  32.434  29.873  1.00  0.00     0.124 S 
ATOM     68  O   UNL A   1      34.816  31.584  28.794  1.00  0.00    -0.237 OA
ATOM     69  O   UNL A   1      34.357  32.752  30.928  1.00  0.00    -0.237 OA
ATOM     70  O   UNL A   1      36.161  33.544  29.443  1.00  0.00    -0.744 OA
ENDBRANCH  63  67
ENDBRANCH  46  60
BRANCH  47  71
ATOM     71  C   UNL A   1      46.778  27.280  25.597  1.00  0.00     0.023 A 
ATOM     72  C   UNL A   1      46.964  27.771  24.295  1.00  0.00     0.031 A 
ATOM     73  C   UNL A   1      47.727  26.371  26.099  1.00  0.00     0.131 A 
ATOM     74  C   UNL A   1      48.043  27.313  23.521  1.00  0.00     0.055 A 
ATOM     75  C   UNL A   1      48.828  25.962  25.346  1.00  0.00     0.041 A 
ATOM     76  F   UNL A   1      47.601  25.876  27.340  1.00  0.00    -0.206 F 
ATOM     77  C   UNL A   1      48.983  26.423  24.042  1.00  0.00     0.022 A 
BRANCH  74  78
ATOM     78  S   UNL A   1      48.147  27.832  21.785  1.00  0.00     0.124 S 
ATOM     79  O   UNL A   1      46.842  28.449  21.582  1.00  0.00    -0.237 OA
ATOM     80  O   UNL A   1      49.289  28.739  21.810  1.00  0.00    -0.237 OA
ATOM     81  O   UNL A   1      48.364  26.577  21.069  1.00  0.00    -0.744 OA
ENDBRANCH  74  78
ENDBRANCH  47  71
BRANCH  59  82
ATOM     82  C   UNL A   1      45.180  32.974  29.303  1.00  0.00     0.023 A 
ATOM     83  C   UNL A   1      45.954  33.046  30.473  1.00  0.00     0.031 A 
ATOM     84  C   UNL A   1      45.159  34.095  28.452  1.00  0.00     0.131 A 
ATOM     85  C   UNL A   1      46.637  34.231  30.787  1.00  0.00     0.055 A 
ATOM     86  C   UNL A   1      45.890  35.248  28.738  1.00  0.00     0.041 A 
ATOM     87  F   UNL A   1      44.436  34.082  27.322  1.00  0.00    -0.206 F 
ATOM     88  C   UNL A   1      46.625  35.326  29.918  1.00  0.00     0.022 A 
BRANCH  85  89
ATOM     89  S   UNL A   1      47.474  34.357  32.391  1.00  0.00     0.124 S 
ATOM     90  O   UNL A   1      46.418  34.892  33.243  1.00  0.00    -0.237 OA
ATOM     91  O   UNL A   1      47.863  32.975  32.649  1.00  0.00    -0.237 OA
ATOM     92  O   UNL A   1      48.583  35.274  32.128  1.00  0.00    -0.744 OA
ENDBRANCH  85  89
ENDBRANCH  59  82
ENDBRANCH  33  34
ENDBRANCH  25  28
ENDBRANCH  23  24
ENDBRANCH   1  23
TORSDOF 16
ENDMDL
