MODEL 1
REMARK VINA RESULT:     -11.2      0.000      0.000
REMARK SMILES CC(C)=CC[N@H+]1CCCC[C@H]1C(=O)NCCCNC(=O)c1ccc(-c2c3nc(c(-c4cc(S(=O)(=O)[O-])ccc4F)c4ccc([nH]4)c(-c4cc(S(=O)(=O)[O-])ccc4F)c4nc(c(-c5cc(S(=O)(=O)[O-])ccc5F)c5ccc2[nH]5)C=C4)C=C3)cc1
REMARK SMILES IDX 16 1 15 2 14 3 12 4 13 5 11 7 6 8 7 9 8 11 10 12 9 13 5 14
REMARK SMILES IDX 4 15 1 16 2 17 3 18 17 19 18 20 19 21 20 23 21 24 22 25
REMARK SMILES IDX 83 26 23 27 82 28 24 29 25 30 26 31 76 32 27 33 81 34 75 35
REMARK SMILES IDX 77 36 28 37 80 38 74 39 73 40 29 42 61 43 41 44 60 45 42 46
REMARK SMILES IDX 45 47 59 48 78 49 43 50 44 51 58 53 79 54 46 55 30 56 31 57
REMARK SMILES IDX 39 58 32 59 38 60 40 61 37 62 33 63 34 64 35 65 36 66 62 67
REMARK SMILES IDX 63 68 71 69 64 70 70 71 72 72 69 73 65 74 66 75 67 76 68 77
REMARK SMILES IDX 47 78 48 79 56 80 49 81 55 82 57 83 54 84 50 85 51 86 52 87
REMARK SMILES IDX 53 88
REMARK H PARENT 14 6 6 10 18 22 77 41 45 52
REMARK Flexibility Score: inf
ROOT
ATOM      1  C   UNL A   1      31.334  31.972  26.560  1.00  0.00     0.042 C 
ENDROOT
BRANCH   1   2
ATOM      2  C   UNL A   1      31.472  30.573  26.004  1.00  0.00     0.118 C 
BRANCH   2   3
ATOM      3  N   UNL A   1      32.729  29.899  26.217  1.00  0.00    -0.351 N 
ATOM      4  C   UNL A   1      33.134  28.638  25.882  1.00  0.00     0.278 C 
ATOM      5  O   UNL A   1      34.344  28.438  26.062  1.00  0.00    -0.268 OA
ATOM      6  H   UNL A   1      33.408  30.438  26.682  1.00  0.00     0.163 HD
BRANCH   4   7
ATOM      7  C   UNL A   1      32.173  27.478  25.432  1.00  0.00     0.274 C 
ATOM      8  N   UNL A   1      32.056  27.176  23.966  1.00  0.00    -0.321 N 
ATOM      9  C   UNL A   1      33.365  26.902  23.375  1.00  0.00     0.263 C 
ATOM     10  H   UNL A   1      31.522  26.312  23.869  1.00  0.00     0.349 HD
ATOM     11  C   UNL A   1      33.936  25.616  23.977  1.00  0.00     0.062 C 
ATOM     12  C   UNL A   1      32.618  26.148  26.085  1.00  0.00     0.076 C 
ATOM     13  C   UNL A   1      33.932  25.610  25.504  1.00  0.00     0.012 C 
BRANCH   8  14
ATOM     14  C   UNL A   1      31.265  28.154  23.250  1.00  0.00     0.291 C 
BRANCH  14  15
ATOM     15  C   UNL A   1      29.819  28.404  23.567  1.00  0.00     0.032 C 
ATOM     16  C   UNL A   1      29.615  30.122  21.721  1.00  0.00     0.039 C 
ATOM     17  C   UNL A   1      29.056  29.233  22.812  1.00  0.00    -0.075 C 
ATOM     18  C   UNL A   1      27.559  29.266  22.934  1.00  0.00     0.039 C 
ENDBRANCH  14  15
ENDBRANCH   8  14
ENDBRANCH   4   7
ENDBRANCH   2   3
ENDBRANCH   1   2
BRANCH   1  19
ATOM     19  C   UNL A   1      32.643  32.653  26.899  1.00  0.00     0.118 C 
BRANCH  19  20
ATOM     20  N   UNL A   1      32.489  33.903  27.635  1.00  0.00    -0.352 N 
ATOM     21  C   UNL A   1      33.198  34.451  28.683  1.00  0.00     0.251 C 
ATOM     22  H   UNL A   1      31.737  34.460  27.326  1.00  0.00     0.163 HD
ATOM     23  O   UNL A   1      32.778  35.485  29.204  1.00  0.00    -0.269 OA
BRANCH  21  24
ATOM     24  C   UNL A   1      34.412  33.794  29.221  1.00  0.00     0.039 A 
ATOM     25  C   UNL A   1      35.668  34.360  28.974  1.00  0.00     0.014 A 
ATOM     26  C   UNL A   1      34.333  32.626  29.971  1.00  0.00     0.014 A 
ATOM     27  C   UNL A   1      36.811  33.813  29.569  1.00  0.00     0.010 A 
ATOM     28  C   UNL A   1      35.437  32.177  30.684  1.00  0.00     0.010 A 
ATOM     29  C   UNL A   1      36.698  32.753  30.482  1.00  0.00    -0.014 A 
BRANCH  29  30
ATOM     30  C   UNL A   1      37.871  32.196  31.211  1.00  0.00     0.031 A 
ATOM     31  C   UNL A   1      38.681  31.086  30.588  1.00  0.00     0.074 A 
ATOM     32  C   UNL A   1      38.148  32.612  32.464  1.00  0.00     0.049 A 
ATOM     33  N   UNL A   1      39.636  30.360  31.110  1.00  0.00    -0.248 NA
ATOM     34  C   UNL A   1      38.333  30.708  29.209  1.00  0.00     0.031 C 
ATOM     35  C   UNL A   1      37.406  33.639  33.202  1.00  0.00     0.029 A 
ATOM     36  N   UNL A   1      39.123  32.217  33.347  1.00  0.00    -0.354 N 
ATOM     37  C   UNL A   1      39.971  29.419  30.140  1.00  0.00     0.074 A 
ATOM     38  C   UNL A   1      39.063  29.620  29.032  1.00  0.00     0.031 C 
ATOM     39  C   UNL A   1      37.974  33.816  34.406  1.00  0.00     0.029 A 
ATOM     40  C   UNL A   1      39.085  32.882  34.552  1.00  0.00     0.049 A 
ATOM     41  H   UNL A   1      39.787  31.523  33.137  1.00  0.00     0.167 HD
ATOM     42  C   UNL A   1      40.965  28.497  30.153  1.00  0.00     0.034 A 
ATOM     43  C   UNL A   1      39.849  32.745  35.653  1.00  0.00     0.034 A 
ATOM     44  C   UNL A   1      41.891  28.343  31.247  1.00  0.00     0.049 A 
ATOM     45  C   UNL A   1      40.956  31.721  35.644  1.00  0.00     0.074 A 
ATOM     46  C   UNL A   1      42.982  27.496  31.342  1.00  0.00     0.029 A 
ATOM     47  N   UNL A   1      41.838  29.056  32.439  1.00  0.00    -0.354 N 
ATOM     48  N   UNL A   1      41.291  30.874  34.698  1.00  0.00    -0.248 NA
ATOM     49  C   UNL A   1      41.794  31.642  36.848  1.00  0.00     0.031 C 
ATOM     50  C   UNL A   1      43.548  27.652  32.612  1.00  0.00     0.029 A 
ATOM     51  C   UNL A   1      42.859  28.650  33.283  1.00  0.00     0.049 A 
ATOM     52  H   UNL A   1      41.171  29.748  32.652  1.00  0.00     0.167 HD
ATOM     53  C   UNL A   1      42.401  30.186  35.181  1.00  0.00     0.074 A 
ATOM     54  C   UNL A   1      42.684  30.726  36.494  1.00  0.00     0.031 C 
ATOM     55  C   UNL A   1      43.123  29.197  34.592  1.00  0.00     0.034 A 
BRANCH  42  56
ATOM     56  C   UNL A   1      41.087  27.584  28.954  1.00  0.00     0.023 A 
ATOM     57  C   UNL A   1      42.078  27.777  27.975  1.00  0.00     0.031 A 
ATOM     58  C   UNL A   1      40.176  26.530  28.764  1.00  0.00     0.131 A 
ATOM     59  C   UNL A   1      42.078  26.993  26.811  1.00  0.00     0.055 A 
ATOM     60  C   UNL A   1      40.240  25.693  27.647  1.00  0.00     0.041 A 
ATOM     61  F   UNL A   1      39.195  26.305  29.652  1.00  0.00    -0.206 F 
ATOM     62  C   UNL A   1      41.184  25.934  26.654  1.00  0.00     0.022 A 
BRANCH  59  63
ATOM     63  S   UNL A   1      43.161  27.483  25.441  1.00  0.00     0.124 S 
ATOM     64  O   UNL A   1      44.184  28.259  26.140  1.00  0.00    -0.237 OA
ATOM     65  O   UNL A   1      43.590  26.199  24.901  1.00  0.00    -0.237 OA
ATOM     66  O   UNL A   1      42.282  28.265  24.573  1.00  0.00    -0.744 OA
ENDBRANCH  59  63
ENDBRANCH  42  56
BRANCH  43  67
ATOM     67  C   UNL A   1      39.605  33.593  36.857  1.00  0.00     0.023 A 
ATOM     68  C   UNL A   1      39.006  33.055  38.008  1.00  0.00     0.031 A 
ATOM     69  C   UNL A   1      39.930  34.961  36.862  1.00  0.00     0.131 A 
ATOM     70  C   UNL A   1      38.705  33.889  39.096  1.00  0.00     0.055 A 
ATOM     71  C   UNL A   1      39.678  35.775  37.968  1.00  0.00     0.041 A 
ATOM     72  F   UNL A   1      40.512  35.525  35.792  1.00  0.00    -0.206 F 
ATOM     73  C   UNL A   1      39.049  35.242  39.089  1.00  0.00     0.022 A 
BRANCH  70  74
ATOM     74  S   UNL A   1      37.776  33.194  40.491  1.00  0.00     0.124 S 
ATOM     75  O   UNL A   1      36.456  33.002  39.902  1.00  0.00    -0.237 OA
ATOM     76  O   UNL A   1      38.533  31.981  40.783  1.00  0.00    -0.237 OA
ATOM     77  O   UNL A   1      37.861  34.239  41.509  1.00  0.00    -0.744 OA
ENDBRANCH  70  74
ENDBRANCH  43  67
BRANCH  55  78
ATOM     78  C   UNL A   1      44.318  28.678  35.351  1.00  0.00     0.023 A 
ATOM     79  C   UNL A   1      44.191  27.711  36.363  1.00  0.00     0.031 A 
ATOM     80  C   UNL A   1      45.605  29.166  35.059  1.00  0.00     0.131 A 
ATOM     81  C   UNL A   1      45.322  27.303  37.085  1.00  0.00     0.055 A 
ATOM     82  C   UNL A   1      46.735  28.711  35.738  1.00  0.00     0.041 A 
ATOM     83  F   UNL A   1      45.784  30.093  34.102  1.00  0.00    -0.206 F 
ATOM     84  C   UNL A   1      46.595  27.784  36.767  1.00  0.00     0.022 A 
BRANCH  81  85
ATOM     85  S   UNL A   1      45.095  26.203  38.508  1.00  0.00     0.124 S 
ATOM     86  O   UNL A   1      43.680  26.388  38.811  1.00  0.00    -0.237 OA
ATOM     87  O   UNL A   1      45.465  24.903  37.960  1.00  0.00    -0.237 OA
ATOM     88  O   UNL A   1      46.019  26.740  39.507  1.00  0.00    -0.744 OA
ENDBRANCH  81  85
ENDBRANCH  55  78
ENDBRANCH  29  30
ENDBRANCH  21  24
ENDBRANCH  19  20
ENDBRANCH   1  19
TORSDOF 15
ENDMDL
MODEL 2
REMARK VINA RESULT:     -11.2      5.760      8.803
REMARK SMILES CC(C)=CC[N@H+]1CCCC[C@H]1C(=O)NCCCNC(=O)c1ccc(-c2c3nc(c(-c4cc(S(=O)(=O)[O-])ccc4F)c4ccc([nH]4)c(-c4cc(S(=O)(=O)[O-])ccc4F)c4nc(c(-c5cc(S(=O)(=O)[O-])ccc5F)c5ccc2[nH]5)C=C4)C=C3)cc1
REMARK SMILES IDX 16 1 15 2 14 3 12 4 13 5 11 7 6 8 7 9 8 11 10 12 9 13 5 14
REMARK SMILES IDX 4 15 1 16 2 17 3 18 17 19 18 20 19 21 20 23 21 24 22 25
REMARK SMILES IDX 83 26 23 27 82 28 24 29 25 30 26 31 76 32 27 33 81 34 75 35
REMARK SMILES IDX 77 36 28 37 80 38 74 39 73 40 29 42 61 43 41 44 60 45 42 46
REMARK SMILES IDX 45 47 59 48 78 49 43 50 44 51 58 53 79 54 46 55 30 56 31 57
REMARK SMILES IDX 39 58 32 59 38 60 40 61 37 62 33 63 34 64 35 65 36 66 62 67
REMARK SMILES IDX 63 68 71 69 64 70 70 71 72 72 69 73 65 74 66 75 67 76 68 77
REMARK SMILES IDX 47 78 48 79 56 80 49 81 55 82 57 83 54 84 50 85 51 86 52 87
REMARK SMILES IDX 53 88
REMARK H PARENT 14 6 6 10 18 22 77 41 45 52
REMARK Flexibility Score: inf
ROOT
ATOM      1  C   UNL A   1      35.898  21.638  25.691  1.00  0.00     0.042 C 
ENDROOT
BRANCH   1   2
ATOM      2  C   UNL A   1      34.776  20.759  25.185  1.00  0.00     0.118 C 
BRANCH   2   3
ATOM      3  N   UNL A   1      33.724  21.398  24.435  1.00  0.00    -0.351 N 
ATOM      4  C   UNL A   1      33.082  22.588  24.633  1.00  0.00     0.278 C 
ATOM      5  O   UNL A   1      32.341  22.918  23.696  1.00  0.00    -0.268 OA
ATOM      6  H   UNL A   1      33.416  20.893  23.649  1.00  0.00     0.163 HD
BRANCH   4   7
ATOM      7  C   UNL A   1      33.144  23.430  25.959  1.00  0.00     0.274 C 
ATOM      8  N   UNL A   1      32.854  24.902  25.886  1.00  0.00    -0.321 N 
ATOM      9  C   UNL A   1      31.549  25.154  25.278  1.00  0.00     0.263 C 
ATOM     10  H   UNL A   1      32.787  25.253  26.841  1.00  0.00     0.349 HD
ATOM     11  C   UNL A   1      30.448  24.602  26.186  1.00  0.00     0.062 C 
ATOM     12  C   UNL A   1      32.129  22.868  26.982  1.00  0.00     0.076 C 
ATOM     13  C   UNL A   1      30.672  23.146  26.589  1.00  0.00     0.012 C 
BRANCH   8  14
ATOM     14  C   UNL A   1      33.943  25.663  25.313  1.00  0.00     0.291 C 
BRANCH  14  15
ATOM     15  C   UNL A   1      33.760  26.547  24.113  1.00  0.00     0.032 C 
ATOM     16  C   UNL A   1      33.807  28.642  25.532  1.00  0.00     0.039 C 
ATOM     17  C   UNL A   1      33.788  27.899  24.212  1.00  0.00    -0.075 C 
ATOM     18  C   UNL A   1      33.901  28.781  23.001  1.00  0.00     0.039 C 
ENDBRANCH  14  15
ENDBRANCH   8  14
ENDBRANCH   4   7
ENDBRANCH   2   3
ENDBRANCH   1   2
BRANCH   1  19
ATOM     19  C   UNL A   1      37.169  21.582  24.870  1.00  0.00     0.118 C 
BRANCH  19  20
ATOM     20  N   UNL A   1      38.156  20.632  25.367  1.00  0.00    -0.352 N 
ATOM     21  C   UNL A   1      39.332  20.804  26.068  1.00  0.00     0.251 C 
ATOM     22  H   UNL A   1      37.945  19.691  25.165  1.00  0.00     0.163 HD
ATOM     23  O   UNL A   1      40.050  19.823  26.266  1.00  0.00    -0.269 OA
BRANCH  21  24
ATOM     24  C   UNL A   1      39.766  22.142  26.533  1.00  0.00     0.039 A 
ATOM     25  C   UNL A   1      40.845  22.246  27.417  1.00  0.00     0.014 A 
ATOM     26  C   UNL A   1      39.124  23.301  26.109  1.00  0.00     0.014 A 
ATOM     27  C   UNL A   1      41.335  23.508  27.776  1.00  0.00     0.010 A 
ATOM     28  C   UNL A   1      39.702  24.542  26.338  1.00  0.00     0.010 A 
ATOM     29  C   UNL A   1      40.808  24.668  27.188  1.00  0.00    -0.014 A 
BRANCH  29  30
ATOM     30  C   UNL A   1      41.354  26.026  27.466  1.00  0.00     0.031 A 
ATOM     31  C   UNL A   1      42.722  26.401  26.951  1.00  0.00     0.074 A 
ATOM     32  C   UNL A   1      40.673  26.880  28.256  1.00  0.00     0.049 A 
ATOM     33  N   UNL A   1      43.444  27.462  27.206  1.00  0.00    -0.248 NA
ATOM     34  C   UNL A   1      43.388  25.425  26.074  1.00  0.00     0.031 C 
ATOM     35  C   UNL A   1      39.365  26.617  28.864  1.00  0.00     0.029 A 
ATOM     36  N   UNL A   1      40.988  28.142  28.696  1.00  0.00    -0.354 N 
ATOM     37  C   UNL A   1      44.658  27.260  26.554  1.00  0.00     0.074 A 
ATOM     38  C   UNL A   1      44.600  25.942  25.961  1.00  0.00     0.031 C 
ATOM     39  C   UNL A   1      38.977  27.695  29.564  1.00  0.00     0.029 A 
ATOM     40  C   UNL A   1      40.026  28.706  29.503  1.00  0.00     0.049 A 
ATOM     41  H   UNL A   1      41.824  28.601  28.455  1.00  0.00     0.167 HD
ATOM     42  C   UNL A   1      45.710  28.106  26.430  1.00  0.00     0.034 A 
ATOM     43  C   UNL A   1      39.999  29.897  30.134  1.00  0.00     0.034 A 
ATOM     44  C   UNL A   1      45.730  29.435  26.989  1.00  0.00     0.049 A 
ATOM     45  C   UNL A   1      41.174  30.828  29.974  1.00  0.00     0.074 A 
ATOM     46  C   UNL A   1      46.708  30.408  26.866  1.00  0.00     0.029 A 
ATOM     47  N   UNL A   1      44.724  29.981  27.777  1.00  0.00    -0.354 N 
ATOM     48  N   UNL A   1      42.293  30.642  29.312  1.00  0.00    -0.248 NA
ATOM     49  C   UNL A   1      41.079  32.134  30.640  1.00  0.00     0.031 C 
ATOM     50  C   UNL A   1      46.321  31.515  27.629  1.00  0.00     0.029 A 
ATOM     51  C   UNL A   1      45.069  31.265  28.167  1.00  0.00     0.049 A 
ATOM     52  H   UNL A   1      43.889  29.522  28.022  1.00  0.00     0.167 HD
ATOM     53  C   UNL A   1      43.018  31.822  29.454  1.00  0.00     0.074 A 
ATOM     54  C   UNL A   1      42.205  32.715  30.252  1.00  0.00     0.031 C 
ATOM     55  C   UNL A   1      44.246  32.141  28.968  1.00  0.00     0.034 A 
BRANCH  42  56
ATOM     56  C   UNL A   1      46.920  27.610  25.672  1.00  0.00     0.023 A 
ATOM     57  C   UNL A   1      47.171  27.997  24.343  1.00  0.00     0.031 A 
ATOM     58  C   UNL A   1      47.814  26.704  26.269  1.00  0.00     0.131 A 
ATOM     59  C   UNL A   1      48.228  27.414  23.629  1.00  0.00     0.055 A 
ATOM     60  C   UNL A   1      48.920  26.198  25.581  1.00  0.00     0.041 A 
ATOM     61  F   UNL A   1      47.620  26.279  27.527  1.00  0.00    -0.206 F 
ATOM     62  C   UNL A   1      49.122  26.539  24.248  1.00  0.00     0.022 A 
BRANCH  59  63
ATOM     63  S   UNL A   1      48.320  27.697  21.840  1.00  0.00     0.124 S 
ATOM     64  O   UNL A   1      47.024  28.318  21.575  1.00  0.00    -0.237 OA
ATOM     65  O   UNL A   1      49.483  28.566  21.715  1.00  0.00    -0.237 OA
ATOM     66  O   UNL A   1      48.481  26.352  21.289  1.00  0.00    -0.744 OA
ENDBRANCH  59  63
ENDBRANCH  42  56
BRANCH  43  67
ATOM     67  C   UNL A   1      38.826  30.287  30.971  1.00  0.00     0.023 A 
ATOM     68  C   UNL A   1      37.760  31.018  30.423  1.00  0.00     0.031 A 
ATOM     69  C   UNL A   1      38.771  29.968  32.339  1.00  0.00     0.131 A 
ATOM     70  C   UNL A   1      36.710  31.450  31.247  1.00  0.00     0.055 A 
ATOM     71  C   UNL A   1      37.697  30.354  33.144  1.00  0.00     0.041 A 
ATOM     72  F   UNL A   1      39.759  29.264  32.914  1.00  0.00    -0.206 F 
ATOM     73  C   UNL A   1      36.664  31.112  32.600  1.00  0.00     0.022 A 
BRANCH  70  74
ATOM     74  S   UNL A   1      35.442  32.538  30.539  1.00  0.00     0.124 S 
ATOM     75  O   UNL A   1      36.137  33.820  30.504  1.00  0.00    -0.237 OA
ATOM     76  O   UNL A   1      35.191  31.908  29.247  1.00  0.00    -0.237 OA
ATOM     77  O   UNL A   1      34.344  32.449  31.498  1.00  0.00    -0.744 OA
ENDBRANCH  70  74
ENDBRANCH  43  67
BRANCH  55  78
ATOM     78  C   UNL A   1      44.753  33.533  29.247  1.00  0.00     0.023 A 
ATOM     79  C   UNL A   1      44.488  34.606  28.378  1.00  0.00     0.031 A 
ATOM     80  C   UNL A   1      45.519  33.786  30.398  1.00  0.00     0.131 A 
ATOM     81  C   UNL A   1      45.032  35.870  28.645  1.00  0.00     0.055 A 
ATOM     82  C   UNL A   1      46.005  35.060  30.691  1.00  0.00     0.041 A 
ATOM     83  F   UNL A   1      45.803  32.797  31.262  1.00  0.00    -0.206 F 
ATOM     84  C   UNL A   1      45.774  36.109  29.805  1.00  0.00     0.022 A 
BRANCH  81  85
ATOM     85  S   UNL A   1      44.835  37.181  27.407  1.00  0.00     0.124 S 
ATOM     86  O   UNL A   1      44.947  38.386  28.222  1.00  0.00    -0.237 OA
ATOM     87  O   UNL A   1      45.946  36.921  26.498  1.00  0.00    -0.237 OA
ATOM     88  O   UNL A   1      43.507  36.930  26.850  1.00  0.00    -0.744 OA
ENDBRANCH  81  85
ENDBRANCH  55  78
ENDBRANCH  29  30
ENDBRANCH  21  24
ENDBRANCH  19  20
ENDBRANCH   1  19
TORSDOF 15
ENDMDL
MODEL 3
REMARK VINA RESULT:     -11.2      2.081      2.634
REMARK SMILES CC(C)=CC[N@H+]1CCCC[C@H]1C(=O)NCCCNC(=O)c1ccc(-c2c3nc(c(-c4cc(S(=O)(=O)[O-])ccc4F)c4ccc([nH]4)c(-c4cc(S(=O)(=O)[O-])ccc4F)c4nc(c(-c5cc(S(=O)(=O)[O-])ccc5F)c5ccc2[nH]5)C=C4)C=C3)cc1
REMARK SMILES IDX 16 1 15 2 14 3 12 4 13 5 11 7 6 8 7 9 8 11 10 12 9 13 5 14
REMARK SMILES IDX 4 15 1 16 2 17 3 18 17 19 18 20 19 21 20 23 21 24 22 25
REMARK SMILES IDX 83 26 23 27 82 28 24 29 25 30 26 31 76 32 27 33 81 34 75 35
REMARK SMILES IDX 77 36 28 37 80 38 74 39 73 40 29 42 61 43 41 44 60 45 42 46
REMARK SMILES IDX 45 47 59 48 78 49 43 50 44 51 58 53 79 54 46 55 30 56 31 57
REMARK SMILES IDX 39 58 32 59 38 60 40 61 37 62 33 63 34 64 35 65 36 66 62 67
REMARK SMILES IDX 63 68 71 69 64 70 70 71 72 72 69 73 65 74 66 75 67 76 68 77
REMARK SMILES IDX 47 78 48 79 56 80 49 81 55 82 57 83 54 84 50 85 51 86 52 87
REMARK SMILES IDX 53 88
REMARK H PARENT 14 6 6 10 18 22 77 41 45 52
REMARK Flexibility Score: inf
ROOT
ATOM      1  C   UNL A   1      31.418  29.167  25.853  1.00  0.00     0.042 C 
ENDROOT
BRANCH   1   2
ATOM      2  C   UNL A   1      31.550  27.929  26.711  1.00  0.00     0.118 C 
BRANCH   2   3
ATOM      3  N   UNL A   1      32.460  26.907  26.257  1.00  0.00    -0.351 N 
ATOM      4  C   UNL A   1      32.223  25.708  25.646  1.00  0.00     0.278 C 
ATOM      5  O   UNL A   1      33.248  25.147  25.233  1.00  0.00    -0.268 OA
ATOM      6  H   UNL A   1      33.410  27.106  26.414  1.00  0.00     0.163 HD
BRANCH   4   7
ATOM      7  C   UNL A   1      30.819  25.004  25.567  1.00  0.00     0.274 C 
ATOM      8  N   UNL A   1      30.032  25.122  24.293  1.00  0.00    -0.321 N 
ATOM      9  C   UNL A   1      30.810  24.658  23.146  1.00  0.00     0.263 C 
ATOM     10  H   UNL A   1      29.235  24.490  24.362  1.00  0.00     0.349 HD
ATOM     11  C   UNL A   1      31.075  23.157  23.284  1.00  0.00     0.062 C 
ATOM     12  C   UNL A   1      30.982  23.485  25.803  1.00  0.00     0.076 C 
ATOM     13  C   UNL A   1      31.674  22.772  24.634  1.00  0.00     0.012 C 
BRANCH   8  14
ATOM     14  C   UNL A   1      29.426  26.425  24.123  1.00  0.00     0.291 C 
BRANCH  14  15
ATOM     15  C   UNL A   1      29.973  27.446  23.168  1.00  0.00     0.032 C 
ATOM     16  C   UNL A   1      27.783  28.712  23.120  1.00  0.00     0.039 C 
ATOM     17  C   UNL A   1      29.250  28.528  22.788  1.00  0.00    -0.075 C 
ATOM     18  C   UNL A   1      29.877  29.694  22.079  1.00  0.00     0.039 C 
ENDBRANCH  14  15
ENDBRANCH   8  14
ENDBRANCH   4   7
ENDBRANCH   2   3
ENDBRANCH   1   2
BRANCH   1  19
ATOM     19  C   UNL A   1      32.632  30.071  25.850  1.00  0.00     0.118 C 
BRANCH  19  20
ATOM     20  N   UNL A   1      32.376  31.412  26.363  1.00  0.00    -0.352 N 
ATOM     21  C   UNL A   1      33.069  32.209  27.250  1.00  0.00     0.251 C 
ATOM     22  H   UNL A   1      31.554  31.826  26.011  1.00  0.00     0.163 HD
ATOM     23  O   UNL A   1      32.562  33.273  27.607  1.00  0.00    -0.269 OA
BRANCH  21  24
ATOM     24  C   UNL A   1      34.371  31.786  27.815  1.00  0.00     0.039 A 
ATOM     25  C   UNL A   1      35.383  32.734  27.998  1.00  0.00     0.014 A 
ATOM     26  C   UNL A   1      34.612  30.463  28.171  1.00  0.00     0.014 A 
ATOM     27  C   UNL A   1      36.577  32.370  28.632  1.00  0.00     0.010 A 
ATOM     28  C   UNL A   1      35.724  30.137  28.937  1.00  0.00     0.010 A 
ATOM     29  C   UNL A   1      36.733  31.081  29.166  1.00  0.00    -0.014 A 
BRANCH  29  30
ATOM     30  C   UNL A   1      37.944  30.672  29.930  1.00  0.00     0.031 A 
ATOM     31  C   UNL A   1      38.927  29.706  29.314  1.00  0.00     0.074 A 
ATOM     32  C   UNL A   1      38.111  31.084  31.204  1.00  0.00     0.049 A 
ATOM     33  N   UNL A   1      39.953  29.105  29.858  1.00  0.00    -0.248 NA
ATOM     34  C   UNL A   1      38.688  29.326  27.912  1.00  0.00     0.031 C 
ATOM     35  C   UNL A   1      37.204  31.972  31.935  1.00  0.00     0.029 A 
ATOM     36  N   UNL A   1      39.097  30.802  32.117  1.00  0.00    -0.354 N 
ATOM     37  C   UNL A   1      40.455  28.252  28.879  1.00  0.00     0.074 A 
ATOM     38  C   UNL A   1      39.571  28.357  27.738  1.00  0.00     0.031 C 
ATOM     39  C   UNL A   1      37.695  32.190  33.166  1.00  0.00     0.029 A 
ATOM     40  C   UNL A   1      38.919  31.417  33.335  1.00  0.00     0.049 A 
ATOM     41  H   UNL A   1      39.861  30.214  31.917  1.00  0.00     0.167 HD
ATOM     42  C   UNL A   1      41.568  27.478  28.911  1.00  0.00     0.034 A 
ATOM     43  C   UNL A   1      39.652  31.355  34.465  1.00  0.00     0.034 A 
ATOM     44  C   UNL A   1      42.464  27.422  30.039  1.00  0.00     0.049 A 
ATOM     45  C   UNL A   1      40.893  30.497  34.476  1.00  0.00     0.074 A 
ATOM     46  C   UNL A   1      43.659  26.733  30.158  1.00  0.00     0.029 A 
ATOM     47  N   UNL A   1      42.264  28.083  31.245  1.00  0.00    -0.354 N 
ATOM     48  N   UNL A   1      41.380  29.735  33.524  1.00  0.00    -0.248 NA
ATOM     49  C   UNL A   1      41.687  30.498  35.712  1.00  0.00     0.031 C 
ATOM     50  C   UNL A   1      44.148  26.928  31.454  1.00  0.00     0.029 A 
ATOM     51  C   UNL A   1      43.300  27.797  32.121  1.00  0.00     0.049 A 
ATOM     52  H   UNL A   1      41.499  28.667  31.447  1.00  0.00     0.167 HD
ATOM     53  C   UNL A   1      42.557  29.194  34.036  1.00  0.00     0.074 A 
ATOM     54  C   UNL A   1      42.710  29.728  35.373  1.00  0.00     0.031 C 
ATOM     55  C   UNL A   1      43.434  28.336  33.454  1.00  0.00     0.034 A 
BRANCH  42  56
ATOM     56  C   UNL A   1      41.864  26.629  27.695  1.00  0.00     0.023 A 
ATOM     57  C   UNL A   1      41.510  25.268  27.639  1.00  0.00     0.031 A 
ATOM     58  C   UNL A   1      42.545  27.173  26.593  1.00  0.00     0.131 A 
ATOM     59  C   UNL A   1      41.918  24.480  26.552  1.00  0.00     0.055 A 
ATOM     60  C   UNL A   1      42.865  26.405  25.471  1.00  0.00     0.041 A 
ATOM     61  F   UNL A   1      42.928  28.460  26.592  1.00  0.00    -0.206 F 
ATOM     62  C   UNL A   1      42.568  25.046  25.454  1.00  0.00     0.022 A 
BRANCH  59  63
ATOM     63  S   UNL A   1      41.724  22.681  26.670  1.00  0.00     0.124 S 
ATOM     64  O   UNL A   1      42.591  22.367  27.804  1.00  0.00    -0.237 OA
ATOM     65  O   UNL A   1      40.293  22.531  26.899  1.00  0.00    -0.237 OA
ATOM     66  O   UNL A   1      42.205  22.199  25.376  1.00  0.00    -0.744 OA
ENDBRANCH  59  63
ENDBRANCH  42  56
BRANCH  43  67
ATOM     67  C   UNL A   1      39.245  32.122  35.678  1.00  0.00     0.023 A 
ATOM     68  C   UNL A   1      38.504  31.511  36.702  1.00  0.00     0.031 A 
ATOM     69  C   UNL A   1      39.556  33.486  35.815  1.00  0.00     0.131 A 
ATOM     70  C   UNL A   1      38.055  32.272  37.793  1.00  0.00     0.055 A 
ATOM     71  C   UNL A   1      39.153  34.227  36.928  1.00  0.00     0.041 A 
ATOM     72  F   UNL A   1      40.269  34.119  34.869  1.00  0.00    -0.206 F 
ATOM     73  C   UNL A   1      38.386  33.622  37.919  1.00  0.00     0.022 A 
BRANCH  70  74
ATOM     74  S   UNL A   1      36.956  31.488  39.004  1.00  0.00     0.124 S 
ATOM     75  O   UNL A   1      36.806  30.149  38.447  1.00  0.00    -0.237 OA
ATOM     76  O   UNL A   1      37.739  31.590  40.232  1.00  0.00    -0.237 OA
ATOM     77  O   UNL A   1      35.756  32.321  38.962  1.00  0.00    -0.744 OA
ENDBRANCH  70  74
ENDBRANCH  43  67
BRANCH  55  78
ATOM     78  C   UNL A   1      44.660  27.966  34.249  1.00  0.00     0.023 A 
ATOM     79  C   UNL A   1      44.693  26.830  35.076  1.00  0.00     0.031 A 
ATOM     80  C   UNL A   1      45.813  28.769  34.181  1.00  0.00     0.131 A 
ATOM     81  C   UNL A   1      45.833  26.560  35.846  1.00  0.00     0.055 A 
ATOM     82  C   UNL A   1      46.967  28.460  34.901  1.00  0.00     0.041 A 
ATOM     83  F   UNL A   1      45.836  29.868  33.407  1.00  0.00    -0.206 F 
ATOM     84  C   UNL A   1      46.977  27.357  35.750  1.00  0.00     0.022 A 
BRANCH  81  85
ATOM     85  S   UNL A   1      45.771  25.202  37.046  1.00  0.00     0.124 S 
ATOM     86  O   UNL A   1      45.726  24.031  36.176  1.00  0.00    -0.237 OA
ATOM     87  O   UNL A   1      47.009  25.391  37.795  1.00  0.00    -0.237 OA
ATOM     88  O   UNL A   1      44.545  25.464  37.797  1.00  0.00    -0.744 OA
ENDBRANCH  81  85
ENDBRANCH  55  78
ENDBRANCH  29  30
ENDBRANCH  21  24
ENDBRANCH  19  20
ENDBRANCH   1  19
TORSDOF 15
ENDMDL
