MODEL 1
REMARK VINA RESULT:     -12.1      0.000      0.000
REMARK SMILES CCC1(C(=O)N[C@H]2C=C[C@H](C(=O)NCCCNC(=O)c3ccc(-c4c5nc(c(-c6cc(S(=O)(=O)[O-])ccc6F)c6ccc([nH]6)c(-c6cc(S(=O)(=O)[O-])ccc6F)c6nc(c(-c7cc(S(=O)(=O)[O-])ccc7F)c7ccc4[nH]7)C=C6)C=C5)cc3)C2)CC[NH2+]CC1
REMARK SMILES IDX 15 1 14 2 13 3 11 4 12 5 10 7 7 8 8 9 83 10 9 11 6 12 4 13
REMARK SMILES IDX 5 14 3 16 84 17 88 18 85 19 87 20 86 21 2 24 1 25 16 26
REMARK SMILES IDX 17 27 18 28 19 30 20 31 21 32 82 33 22 34 81 35 23 36 24 37
REMARK SMILES IDX 25 38 75 39 26 40 80 41 74 42 76 43 27 44 79 45 73 46 72 47
REMARK SMILES IDX 28 49 60 50 40 51 59 52 41 53 44 54 58 55 77 56 42 57 43 58
REMARK SMILES IDX 57 60 78 61 45 62 29 63 30 64 38 65 31 66 37 67 39 68 36 69
REMARK SMILES IDX 32 70 33 71 34 72 35 73 61 74 62 75 70 76 63 77 69 78 71 79
REMARK SMILES IDX 68 80 64 81 65 82 66 83 67 84 46 85 47 86 55 87 48 88 54 89
REMARK SMILES IDX 56 90 53 91 49 92 50 93 51 94 52 95
REMARK H PARENT 13 6 6 15 86 22 86 23 17 29 76 48 44 59
REMARK Flexibility Score: inf
ROOT
ATOM      1  C   UNL A   1      31.804  31.726  26.503  1.00  0.00     0.042 C 
ENDROOT
BRANCH   1   2
ATOM      2  C   UNL A   1      31.941  30.222  26.377  1.00  0.00     0.117 C 
BRANCH   2   3
ATOM      3  N   UNL A   1      32.296  29.781  25.044  1.00  0.00    -0.356 N 
ATOM      4  C   UNL A   1      31.798  28.804  24.240  1.00  0.00     0.227 C 
ATOM      5  O   UNL A   1      32.329  28.688  23.128  1.00  0.00    -0.274 OA
ATOM      6  H   UNL A   1      33.041  30.284  24.643  1.00  0.00     0.163 HD
BRANCH   4   7
ATOM      7  C   UNL A   1      30.592  27.912  24.594  1.00  0.00     0.103 C 
ATOM      8  C   UNL A   1      30.983  25.506  24.802  1.00  0.00     0.106 C 
ATOM      9  C   UNL A   1      30.113  25.830  23.622  1.00  0.00    -0.006 C 
ATOM     10  C   UNL A   1      30.920  26.809  25.610  1.00  0.00     0.047 C 
ATOM     11  C   UNL A   1      29.939  27.152  23.483  1.00  0.00    -0.016 C 
BRANCH   8  12
ATOM     12  N   UNL A   1      30.488  24.317  25.446  1.00  0.00    -0.349 N 
ATOM     13  C   UNL A   1      31.059  23.093  25.656  1.00  0.00     0.227 C 
ATOM     14  O   UNL A   1      30.292  22.249  26.126  1.00  0.00    -0.274 OA
ATOM     15  H   UNL A   1      29.573  24.401  25.801  1.00  0.00     0.164 HD
BRANCH  13  16
ATOM     16  C   UNL A   1      32.565  22.771  25.356  1.00  0.00     0.060 C 
ATOM     17  C   UNL A   1      33.512  23.556  26.315  1.00  0.00     0.078 C 
ATOM     18  C   UNL A   1      32.740  21.232  25.486  1.00  0.00     0.078 C 
ATOM     19  C   UNL A   1      34.883  22.898  26.521  1.00  0.00     0.261 C 
ATOM     20  C   UNL A   1      34.170  20.767  25.701  1.00  0.00     0.261 C 
ATOM     21  N   UNL A   1      34.765  21.474  26.831  1.00  0.00    -0.346 N 
ATOM     22  H   UNL A   1      34.172  21.356  27.652  1.00  0.00     0.346 HD
ATOM     23  H   UNL A   1      35.692  21.093  27.016  1.00  0.00     0.346 HD
BRANCH  16  24
ATOM     24  C   UNL A   1      33.001  23.119  23.882  1.00  0.00     0.014 C 
ATOM     25  C   UNL A   1      32.535  22.215  22.747  1.00  0.00     0.005 C 
ENDBRANCH  16  24
ENDBRANCH  13  16
ENDBRANCH   8  12
ENDBRANCH   4   7
ENDBRANCH   2   3
ENDBRANCH   1   2
BRANCH   1  26
ATOM     26  C   UNL A   1      32.911  32.353  27.328  1.00  0.00     0.118 C 
BRANCH  26  27
ATOM     27  N   UNL A   1      32.665  33.765  27.604  1.00  0.00    -0.352 N 
ATOM     28  C   UNL A   1      33.194  34.588  28.569  1.00  0.00     0.251 C 
ATOM     29  H   UNL A   1      32.018  34.197  27.002  1.00  0.00     0.163 HD
ATOM     30  O   UNL A   1      32.686  35.692  28.760  1.00  0.00    -0.269 OA
BRANCH  28  31
ATOM     31  C   UNL A   1      34.339  34.138  29.390  1.00  0.00     0.039 A 
ATOM     32  C   UNL A   1      34.098  33.430  30.569  1.00  0.00     0.014 A 
ATOM     33  C   UNL A   1      35.651  34.408  28.997  1.00  0.00     0.014 A 
ATOM     34  C   UNL A   1      35.175  32.925  31.305  1.00  0.00     0.010 A 
ATOM     35  C   UNL A   1      36.712  33.807  29.663  1.00  0.00     0.010 A 
ATOM     36  C   UNL A   1      36.489  33.067  30.832  1.00  0.00    -0.014 A 
BRANCH  36  37
ATOM     37  C   UNL A   1      37.649  32.477  31.551  1.00  0.00     0.031 A 
ATOM     38  C   UNL A   1      38.427  31.354  30.917  1.00  0.00     0.074 A 
ATOM     39  C   UNL A   1      37.959  32.905  32.792  1.00  0.00     0.049 A 
ATOM     40  N   UNL A   1      39.399  30.634  31.418  1.00  0.00    -0.248 NA
ATOM     41  C   UNL A   1      38.039  30.966  29.551  1.00  0.00     0.031 C 
ATOM     42  C   UNL A   1      37.255  33.961  33.525  1.00  0.00     0.029 A 
ATOM     43  N   UNL A   1      38.941  32.501  33.661  1.00  0.00    -0.354 N 
ATOM     44  C   UNL A   1      39.730  29.708  30.434  1.00  0.00     0.074 A 
ATOM     45  C   UNL A   1      38.805  29.907  29.340  1.00  0.00     0.031 C 
ATOM     46  C   UNL A   1      37.849  34.143  34.715  1.00  0.00     0.029 A 
ATOM     47  C   UNL A   1      38.937  33.181  34.859  1.00  0.00     0.049 A 
ATOM     48  H   UNL A   1      39.588  31.791  33.449  1.00  0.00     0.167 HD
ATOM     49  C   UNL A   1      40.733  28.796  30.429  1.00  0.00     0.034 A 
ATOM     50  C   UNL A   1      39.711  33.035  35.952  1.00  0.00     0.034 A 
ATOM     51  C   UNL A   1      41.659  28.621  31.520  1.00  0.00     0.049 A 
ATOM     52  C   UNL A   1      40.794  31.982  35.936  1.00  0.00     0.074 A 
ATOM     53  C   UNL A   1      42.733  27.752  31.606  1.00  0.00     0.029 A 
ATOM     54  N   UNL A   1      41.622  29.327  32.714  1.00  0.00    -0.354 N 
ATOM     55  N   UNL A   1      41.116  31.141  34.980  1.00  0.00    -0.248 NA
ATOM     56  C   UNL A   1      41.625  31.867  37.142  1.00  0.00     0.031 C 
ATOM     57  C   UNL A   1      43.304  27.886  32.876  1.00  0.00     0.029 A 
ATOM     58  C   UNL A   1      42.638  28.897  33.553  1.00  0.00     0.049 A 
ATOM     59  H   UNL A   1      40.970  30.031  32.935  1.00  0.00     0.167 HD
ATOM     60  C   UNL A   1      42.214  30.428  35.457  1.00  0.00     0.074 A 
ATOM     61  C   UNL A   1      42.507  30.950  36.776  1.00  0.00     0.031 C 
ATOM     62  C   UNL A   1      42.919  29.433  34.862  1.00  0.00     0.034 A 
BRANCH  49  63
ATOM     63  C   UNL A   1      40.871  27.917  29.210  1.00  0.00     0.023 A 
ATOM     64  C   UNL A   1      41.897  28.119  28.270  1.00  0.00     0.031 A 
ATOM     65  C   UNL A   1      39.967  26.865  28.981  1.00  0.00     0.131 A 
ATOM     66  C   UNL A   1      41.958  27.325  27.116  1.00  0.00     0.055 A 
ATOM     67  C   UNL A   1      40.081  26.026  27.870  1.00  0.00     0.041 A 
ATOM     68  F   UNL A   1      38.953  26.638  29.830  1.00  0.00    -0.206 F 
ATOM     69  C   UNL A   1      41.073  26.262  26.923  1.00  0.00     0.022 A 
BRANCH  66  70
ATOM     70  S   UNL A   1      43.129  27.783  25.810  1.00  0.00     0.124 S 
ATOM     71  O   UNL A   1      44.084  26.679  25.872  1.00  0.00    -0.237 OA
ATOM     72  O   UNL A   1      42.281  27.828  24.625  1.00  0.00    -0.237 OA
ATOM     73  O   UNL A   1      43.650  29.073  26.255  1.00  0.00    -0.744 OA
ENDBRANCH  66  70
ENDBRANCH  49  63
BRANCH  50  74
ATOM     74  C   UNL A   1      39.502  33.884  37.162  1.00  0.00     0.023 A 
ATOM     75  C   UNL A   1      38.898  33.358  38.316  1.00  0.00     0.031 A 
ATOM     76  C   UNL A   1      39.823  35.253  37.158  1.00  0.00     0.131 A 
ATOM     77  C   UNL A   1      38.567  34.205  39.384  1.00  0.00     0.055 A 
ATOM     78  C   UNL A   1      39.554  36.079  38.252  1.00  0.00     0.041 A 
ATOM     79  F   UNL A   1      40.403  35.813  36.083  1.00  0.00    -0.206 F 
ATOM     80  C   UNL A   1      38.903  35.560  39.366  1.00  0.00     0.022 A 
BRANCH  77  81
ATOM     81  S   UNL A   1      37.565  33.535  40.741  1.00  0.00     0.124 S 
ATOM     82  O   UNL A   1      38.490  32.586  41.349  1.00  0.00    -0.237 OA
ATOM     83  O   UNL A   1      37.270  34.734  41.518  1.00  0.00    -0.237 OA
ATOM     84  O   UNL A   1      36.420  32.939  40.055  1.00  0.00    -0.744 OA
ENDBRANCH  77  81
ENDBRANCH  50  74
BRANCH  62  85
ATOM     85  C   UNL A   1      44.112  28.892  35.612  1.00  0.00     0.023 A 
ATOM     86  C   UNL A   1      44.014  27.775  36.458  1.00  0.00     0.031 A 
ATOM     87  C   UNL A   1      45.367  29.515  35.480  1.00  0.00     0.131 A 
ATOM     88  C   UNL A   1      45.135  27.351  37.187  1.00  0.00     0.055 A 
ATOM     89  C   UNL A   1      46.495  29.047  36.157  1.00  0.00     0.041 A 
ATOM     90  F   UNL A   1      45.519  30.587  34.687  1.00  0.00    -0.206 F 
ATOM     91  C   UNL A   1      46.378  27.968  37.027  1.00  0.00     0.022 A 
BRANCH  88  92
ATOM     92  S   UNL A   1      44.923  26.041  38.423  1.00  0.00     0.124 S 
ATOM     93  O   UNL A   1      46.305  25.718  38.763  1.00  0.00    -0.237 OA
ATOM     94  O   UNL A   1      44.151  26.713  39.462  1.00  0.00    -0.237 OA
ATOM     95  O   UNL A   1      44.204  24.996  37.695  1.00  0.00    -0.744 OA
ENDBRANCH  88  92
ENDBRANCH  62  85
ENDBRANCH  36  37
ENDBRANCH  28  31
ENDBRANCH  26  27
ENDBRANCH   1  26
TORSDOF 16
ENDMDL
MODEL 2
REMARK VINA RESULT:     -12.1      1.931      7.887
REMARK SMILES CCC1(C(=O)N[C@H]2C=C[C@H](C(=O)NCCCNC(=O)c3ccc(-c4c5nc(c(-c6cc(S(=O)(=O)[O-])ccc6F)c6ccc([nH]6)c(-c6cc(S(=O)(=O)[O-])ccc6F)c6nc(c(-c7cc(S(=O)(=O)[O-])ccc7F)c7ccc4[nH]7)C=C6)C=C5)cc3)C2)CC[NH2+]CC1
REMARK SMILES IDX 15 1 14 2 13 3 11 4 12 5 10 7 7 8 8 9 83 10 9 11 6 12 4 13
REMARK SMILES IDX 5 14 3 16 84 17 88 18 85 19 87 20 86 21 2 24 1 25 16 26
REMARK SMILES IDX 17 27 18 28 19 30 20 31 21 32 82 33 22 34 81 35 23 36 24 37
REMARK SMILES IDX 25 38 75 39 26 40 80 41 74 42 76 43 27 44 79 45 73 46 72 47
REMARK SMILES IDX 28 49 60 50 40 51 59 52 41 53 44 54 58 55 77 56 42 57 43 58
REMARK SMILES IDX 57 60 78 61 45 62 29 63 30 64 38 65 31 66 37 67 39 68 36 69
REMARK SMILES IDX 32 70 33 71 34 72 35 73 61 74 62 75 70 76 63 77 69 78 71 79
REMARK SMILES IDX 68 80 64 81 65 82 66 83 67 84 46 85 47 86 55 87 48 88 54 89
REMARK SMILES IDX 56 90 53 91 49 92 50 93 51 94 52 95
REMARK H PARENT 13 6 6 15 86 22 86 23 17 29 76 48 44 59
REMARK Flexibility Score: inf
ROOT
ATOM      1  C   UNL A   1      31.215  32.406  26.387  1.00  0.00     0.042 C 
ENDROOT
BRANCH   1   2
ATOM      2  C   UNL A   1      31.037  31.022  25.796  1.00  0.00     0.117 C 
BRANCH   2   3
ATOM      3  N   UNL A   1      32.285  30.318  25.583  1.00  0.00    -0.356 N 
ATOM      4  C   UNL A   1      32.597  28.994  25.565  1.00  0.00     0.227 C 
ATOM      5  O   UNL A   1      33.782  28.715  25.339  1.00  0.00    -0.274 OA
ATOM      6  H   UNL A   1      33.054  30.910  25.421  1.00  0.00     0.163 HD
BRANCH   4   7
ATOM      7  C   UNL A   1      31.574  27.853  25.725  1.00  0.00     0.103 C 
ATOM      8  C   UNL A   1      32.317  25.581  25.203  1.00  0.00     0.106 C 
ATOM      9  C   UNL A   1      31.285  26.069  24.227  1.00  0.00    -0.006 C 
ATOM     10  C   UNL A   1      32.162  26.584  26.355  1.00  0.00     0.047 C 
ATOM     11  C   UNL A   1      30.914  27.331  24.488  1.00  0.00    -0.016 C 
BRANCH   8  12
ATOM     12  N   UNL A   1      32.067  24.197  25.508  1.00  0.00    -0.349 N 
ATOM     13  C   UNL A   1      32.817  23.072  25.304  1.00  0.00     0.227 C 
ATOM     14  O   UNL A   1      32.232  22.018  25.567  1.00  0.00    -0.274 OA
ATOM     15  H   UNL A   1      31.200  24.029  25.943  1.00  0.00     0.164 HD
BRANCH  13  16
ATOM     16  C   UNL A   1      34.304  23.094  24.806  1.00  0.00     0.060 C 
ATOM     17  C   UNL A   1      35.174  24.062  25.666  1.00  0.00     0.078 C 
ATOM     18  C   UNL A   1      34.828  21.632  24.855  1.00  0.00     0.078 C 
ATOM     19  C   UNL A   1      36.670  23.722  25.673  1.00  0.00     0.261 C 
ATOM     20  C   UNL A   1      36.340  21.494  24.870  1.00  0.00     0.261 C 
ATOM     21  N   UNL A   1      36.908  22.305  25.941  1.00  0.00    -0.346 N 
ATOM     22  H   UNL A   1      36.469  22.051  26.826  1.00  0.00     0.346 HD
ATOM     23  H   UNL A   1      37.912  22.138  25.994  1.00  0.00     0.346 HD
BRANCH  16  24
ATOM     24  C   UNL A   1      34.456  23.543  23.303  1.00  0.00     0.014 C 
ATOM     25  C   UNL A   1      33.412  23.084  22.292  1.00  0.00     0.005 C 
ENDBRANCH  16  24
ENDBRANCH  13  16
ENDBRANCH   8  12
ENDBRANCH   4   7
ENDBRANCH   2   3
ENDBRANCH   1   2
BRANCH   1  26
ATOM     26  C   UNL A   1      32.563  32.594  27.055  1.00  0.00     0.118 C 
BRANCH  26  27
ATOM     27  N   UNL A   1      32.715  33.926  27.631  1.00  0.00    -0.352 N 
ATOM     28  C   UNL A   1      33.592  34.389  28.582  1.00  0.00     0.251 C 
ATOM     29  H   UNL A   1      32.089  34.601  27.283  1.00  0.00     0.163 HD
ATOM     30  O   UNL A   1      33.406  35.498  29.082  1.00  0.00    -0.269 OA
BRANCH  28  31
ATOM     31  C   UNL A   1      34.729  33.550  29.023  1.00  0.00     0.039 A 
ATOM     32  C   UNL A   1      36.030  33.930  28.685  1.00  0.00     0.014 A 
ATOM     33  C   UNL A   1      34.516  32.393  29.773  1.00  0.00     0.014 A 
ATOM     34  C   UNL A   1      37.114  33.194  29.171  1.00  0.00     0.010 A 
ATOM     35  C   UNL A   1      35.594  31.733  30.351  1.00  0.00     0.010 A 
ATOM     36  C   UNL A   1      36.906  32.118  30.048  1.00  0.00    -0.014 A 
BRANCH  36  37
ATOM     37  C   UNL A   1      38.040  31.361  30.642  1.00  0.00     0.031 A 
ATOM     38  C   UNL A   1      38.505  31.686  32.038  1.00  0.00     0.074 A 
ATOM     39  C   UNL A   1      38.688  30.434  29.908  1.00  0.00     0.049 A 
ATOM     40  N   UNL A   1      39.535  31.222  32.697  1.00  0.00    -0.248 NA
ATOM     41  C   UNL A   1      37.726  32.692  32.779  1.00  0.00     0.031 C 
ATOM     42  C   UNL A   1      38.353  30.058  28.532  1.00  0.00     0.029 A 
ATOM     43  N   UNL A   1      39.767  29.642  30.211  1.00  0.00    -0.354 N 
ATOM     44  C   UNL A   1      39.532  31.883  33.921  1.00  0.00     0.074 A 
ATOM     45  C   UNL A   1      38.444  32.835  33.882  1.00  0.00     0.031 C 
ATOM     46  C   UNL A   1      39.187  29.088  28.124  1.00  0.00     0.029 A 
ATOM     47  C   UNL A   1      40.153  28.811  29.183  1.00  0.00     0.049 A 
ATOM     48  H   UNL A   1      40.224  29.667  31.082  1.00  0.00     0.167 HD
ATOM     49  C   UNL A   1      40.341  31.692  34.991  1.00  0.00     0.034 A 
ATOM     50  C   UNL A   1      41.175  27.937  29.099  1.00  0.00     0.034 A 
ATOM     51  C   UNL A   1      41.411  30.727  35.023  1.00  0.00     0.049 A 
ATOM     52  C   UNL A   1      42.088  27.775  30.292  1.00  0.00     0.074 A 
ATOM     53  C   UNL A   1      42.270  30.427  36.065  1.00  0.00     0.029 A 
ATOM     54  N   UNL A   1      41.770  29.904  33.963  1.00  0.00    -0.354 N 
ATOM     55  N   UNL A   1      42.045  28.383  31.455  1.00  0.00    -0.248 NA
ATOM     56  C   UNL A   1      43.181  26.802  30.163  1.00  0.00     0.031 C 
ATOM     57  C   UNL A   1      43.188  29.472  35.616  1.00  0.00     0.029 A 
ATOM     58  C   UNL A   1      42.852  29.116  34.319  1.00  0.00     0.049 A 
ATOM     59  H   UNL A   1      41.322  29.884  33.086  1.00  0.00     0.167 HD
ATOM     60  C   UNL A   1      43.079  27.832  32.209  1.00  0.00     0.074 A 
ATOM     61  C   UNL A   1      43.715  26.834  31.374  1.00  0.00     0.031 C 
ATOM     62  C   UNL A   1      43.470  28.121  33.476  1.00  0.00     0.034 A 
BRANCH  49  63
ATOM     63  C   UNL A   1      40.102  32.551  36.209  1.00  0.00     0.023 A 
ATOM     64  C   UNL A   1      39.153  32.196  37.184  1.00  0.00     0.031 A 
ATOM     65  C   UNL A   1      40.827  33.740  36.399  1.00  0.00     0.131 A 
ATOM     66  C   UNL A   1      38.910  33.050  38.270  1.00  0.00     0.055 A 
ATOM     67  C   UNL A   1      40.638  34.545  37.525  1.00  0.00     0.041 A 
ATOM     68  F   UNL A   1      41.730  34.144  35.491  1.00  0.00    -0.206 F 
ATOM     69  C   UNL A   1      39.666  34.209  38.462  1.00  0.00     0.022 A 
BRANCH  66  70
ATOM     70  S   UNL A   1      37.506  32.689  39.358  1.00  0.00     0.124 S 
ATOM     71  O   UNL A   1      36.389  32.722  38.417  1.00  0.00    -0.237 OA
ATOM     72  O   UNL A   1      37.850  31.378  39.895  1.00  0.00    -0.237 OA
ATOM     73  O   UNL A   1      37.530  33.785  40.324  1.00  0.00    -0.744 OA
ENDBRANCH  66  70
ENDBRANCH  49  63
BRANCH  50  74
ATOM     74  C   UNL A   1      41.415  27.151  27.853  1.00  0.00     0.023 A 
ATOM     75  C   UNL A   1      41.110  25.781  27.795  1.00  0.00     0.031 A 
ATOM     76  C   UNL A   1      42.029  27.733  26.730  1.00  0.00     0.131 A 
ATOM     77  C   UNL A   1      41.485  25.026  26.674  1.00  0.00     0.055 A 
ATOM     78  C   UNL A   1      42.338  26.990  25.588  1.00  0.00     0.041 A 
ATOM     79  F   UNL A   1      42.344  29.039  26.726  1.00  0.00    -0.206 F 
ATOM     80  C   UNL A   1      42.084  25.623  25.564  1.00  0.00     0.022 A 
BRANCH  77  81
ATOM     81  S   UNL A   1      41.301  23.221  26.747  1.00  0.00     0.124 S 
ATOM     82  O   UNL A   1      41.805  22.927  28.084  1.00  0.00    -0.237 OA
ATOM     83  O   UNL A   1      39.866  23.056  26.549  1.00  0.00    -0.237 OA
ATOM     84  O   UNL A   1      42.141  22.750  25.646  1.00  0.00    -0.744 OA
ENDBRANCH  77  81
ENDBRANCH  50  74
BRANCH  62  85
ATOM     85  C   UNL A   1      44.598  27.300  34.052  1.00  0.00     0.023 A 
ATOM     86  C   UNL A   1      44.371  26.065  34.682  1.00  0.00     0.031 A 
ATOM     87  C   UNL A   1      45.921  27.770  33.975  1.00  0.00     0.131 A 
ATOM     88  C   UNL A   1      45.442  25.371  35.264  1.00  0.00     0.055 A 
ATOM     89  C   UNL A   1      46.992  27.043  34.496  1.00  0.00     0.041 A 
ATOM     90  F   UNL A   1      46.196  28.945  33.385  1.00  0.00    -0.206 F 
ATOM     91  C   UNL A   1      46.753  25.843  35.158  1.00  0.00     0.022 A 
BRANCH  88  92
ATOM     92  S   UNL A   1      45.086  23.889  36.247  1.00  0.00     0.124 S 
ATOM     93  O   UNL A   1      46.385  23.225  36.275  1.00  0.00    -0.237 OA
ATOM     94  O   UNL A   1      44.633  24.455  37.513  1.00  0.00    -0.237 OA
ATOM     95  O   UNL A   1      44.054  23.203  35.472  1.00  0.00    -0.744 OA
ENDBRANCH  88  92
ENDBRANCH  62  85
ENDBRANCH  36  37
ENDBRANCH  28  31
ENDBRANCH  26  27
ENDBRANCH   1  26
TORSDOF 16
ENDMDL
MODEL 3
REMARK VINA RESULT:     -12.0      2.349      8.098
REMARK SMILES CCC1(C(=O)N[C@H]2C=C[C@H](C(=O)NCCCNC(=O)c3ccc(-c4c5nc(c(-c6cc(S(=O)(=O)[O-])ccc6F)c6ccc([nH]6)c(-c6cc(S(=O)(=O)[O-])ccc6F)c6nc(c(-c7cc(S(=O)(=O)[O-])ccc7F)c7ccc4[nH]7)C=C6)C=C5)cc3)C2)CC[NH2+]CC1
REMARK SMILES IDX 15 1 14 2 13 3 11 4 12 5 10 7 7 8 8 9 83 10 9 11 6 12 4 13
REMARK SMILES IDX 5 14 3 16 84 17 88 18 85 19 87 20 86 21 2 24 1 25 16 26
REMARK SMILES IDX 17 27 18 28 19 30 20 31 21 32 82 33 22 34 81 35 23 36 24 37
REMARK SMILES IDX 25 38 75 39 26 40 80 41 74 42 76 43 27 44 79 45 73 46 72 47
REMARK SMILES IDX 28 49 60 50 40 51 59 52 41 53 44 54 58 55 77 56 42 57 43 58
REMARK SMILES IDX 57 60 78 61 45 62 29 63 30 64 38 65 31 66 37 67 39 68 36 69
REMARK SMILES IDX 32 70 33 71 34 72 35 73 61 74 62 75 70 76 63 77 69 78 71 79
REMARK SMILES IDX 68 80 64 81 65 82 66 83 67 84 46 85 47 86 55 87 48 88 54 89
REMARK SMILES IDX 56 90 53 91 49 92 50 93 51 94 52 95
REMARK H PARENT 13 6 6 15 86 22 86 23 17 29 76 48 44 59
REMARK Flexibility Score: inf
ROOT
ATOM      1  C   UNL A   1      31.770  30.071  25.618  1.00  0.00     0.042 C 
ENDROOT
BRANCH   1   2
ATOM      2  C   UNL A   1      32.642  29.235  24.703  1.00  0.00     0.117 C 
BRANCH   2   3
ATOM      3  N   UNL A   1      31.902  28.263  23.926  1.00  0.00    -0.356 N 
ATOM      4  C   UNL A   1      31.366  27.054  24.243  1.00  0.00     0.227 C 
ATOM      5  O   UNL A   1      30.773  26.463  23.331  1.00  0.00    -0.274 OA
ATOM      6  H   UNL A   1      31.762  28.526  22.988  1.00  0.00     0.163 HD
BRANCH   4   7
ATOM      7  C   UNL A   1      31.384  26.433  25.653  1.00  0.00     0.103 C 
ATOM      8  C   UNL A   1      32.217  24.143  25.874  1.00  0.00     0.106 C 
ATOM      9  C   UNL A   1      30.749  24.234  26.176  1.00  0.00    -0.006 C 
ATOM     10  C   UNL A   1      32.648  25.614  25.949  1.00  0.00     0.047 C 
ATOM     11  C   UNL A   1      30.285  25.482  26.008  1.00  0.00    -0.016 C 
BRANCH   8  12
ATOM     12  N   UNL A   1      32.838  23.236  26.803  1.00  0.00    -0.349 N 
ATOM     13  C   UNL A   1      33.904  22.389  26.670  1.00  0.00     0.227 C 
ATOM     14  O   UNL A   1      34.084  21.646  27.639  1.00  0.00    -0.274 OA
ATOM     15  H   UNL A   1      32.422  23.223  27.695  1.00  0.00     0.164 HD
BRANCH  13  16
ATOM     16  C   UNL A   1      34.846  22.363  25.417  1.00  0.00     0.060 C 
ATOM     17  C   UNL A   1      35.613  23.713  25.259  1.00  0.00     0.078 C 
ATOM     18  C   UNL A   1      35.810  21.157  25.592  1.00  0.00     0.078 C 
ATOM     19  C   UNL A   1      36.935  23.597  24.489  1.00  0.00     0.261 C 
ATOM     20  C   UNL A   1      37.078  21.225  24.758  1.00  0.00     0.261 C 
ATOM     21  N   UNL A   1      37.760  22.495  24.982  1.00  0.00    -0.346 N 
ATOM     22  H   UNL A   1      37.924  22.618  25.981  1.00  0.00     0.346 HD
ATOM     23  H   UNL A   1      38.649  22.493  24.483  1.00  0.00     0.346 HD
BRANCH  16  24
ATOM     24  C   UNL A   1      34.084  22.099  24.064  1.00  0.00     0.014 C 
ATOM     25  C   UNL A   1      33.025  21.003  24.021  1.00  0.00     0.005 C 
ENDBRANCH  16  24
ENDBRANCH  13  16
ENDBRANCH   8  12
ENDBRANCH   4   7
ENDBRANCH   2   3
ENDBRANCH   1   2
BRANCH   1  26
ATOM     26  C   UNL A   1      32.478  30.485  26.893  1.00  0.00     0.118 C 
BRANCH  26  27
ATOM     27  N   UNL A   1      32.619  31.933  27.004  1.00  0.00    -0.352 N 
ATOM     28  C   UNL A   1      33.582  32.688  27.629  1.00  0.00     0.251 C 
ATOM     29  H   UNL A   1      31.912  32.453  26.559  1.00  0.00     0.163 HD
ATOM     30  O   UNL A   1      33.393  33.894  27.785  1.00  0.00    -0.269 OA
BRANCH  28  31
ATOM     31  C   UNL A   1      34.818  32.052  28.137  1.00  0.00     0.039 A 
ATOM     32  C   UNL A   1      35.989  32.808  28.225  1.00  0.00     0.014 A 
ATOM     33  C   UNL A   1      34.824  30.714  28.531  1.00  0.00     0.014 A 
ATOM     34  C   UNL A   1      37.137  32.242  28.785  1.00  0.00     0.010 A 
ATOM     35  C   UNL A   1      35.928  30.190  29.194  1.00  0.00     0.010 A 
ATOM     36  C   UNL A   1      37.103  30.944  29.320  1.00  0.00    -0.014 A 
BRANCH  36  37
ATOM     37  C   UNL A   1      38.285  30.341  29.990  1.00  0.00     0.031 A 
ATOM     38  C   UNL A   1      38.685  30.811  31.364  1.00  0.00     0.074 A 
ATOM     39  C   UNL A   1      39.029  29.422  29.341  1.00  0.00     0.049 A 
ATOM     40  N   UNL A   1      39.736  30.493  32.074  1.00  0.00    -0.248 NA
ATOM     41  C   UNL A   1      37.802  31.797  32.011  1.00  0.00     0.031 C 
ATOM     42  C   UNL A   1      38.762  28.914  27.993  1.00  0.00     0.029 A 
ATOM     43  N   UNL A   1      40.167  28.757  29.723  1.00  0.00    -0.354 N 
ATOM     44  C   UNL A   1      39.646  31.243  33.243  1.00  0.00     0.074 A 
ATOM     45  C   UNL A   1      38.478  32.087  33.111  1.00  0.00     0.031 C 
ATOM     46  C   UNL A   1      39.689  27.995  27.676  1.00  0.00     0.029 A 
ATOM     47  C   UNL A   1      40.649  27.888  28.770  1.00  0.00     0.049 A 
ATOM     48  H   UNL A   1      40.599  28.889  30.597  1.00  0.00     0.167 HD
ATOM     49  C   UNL A   1      40.443  31.208  34.338  1.00  0.00     0.034 A 
ATOM     50  C   UNL A   1      41.747  27.106  28.772  1.00  0.00     0.034 A 
ATOM     51  C   UNL A   1      41.593  30.349  34.463  1.00  0.00     0.049 A 
ATOM     52  C   UNL A   1      42.642  27.119  29.988  1.00  0.00     0.074 A 
ATOM     53  C   UNL A   1      42.450  30.207  35.540  1.00  0.00     0.029 A 
ATOM     54  N   UNL A   1      42.049  29.484  33.477  1.00  0.00    -0.354 N 
ATOM     55  N   UNL A   1      42.517  27.807  31.100  1.00  0.00    -0.248 NA
ATOM     56  C   UNL A   1      43.819  26.241  29.955  1.00  0.00     0.031 C 
ATOM     57  C   UNL A   1      43.459  29.308  35.183  1.00  0.00     0.029 A 
ATOM     58  C   UNL A   1      43.188  28.825  33.912  1.00  0.00     0.049 A 
ATOM     59  H   UNL A   1      41.625  29.356  32.597  1.00  0.00     0.167 HD
ATOM     60  C   UNL A   1      43.577  27.410  31.912  1.00  0.00     0.074 A 
ATOM     61  C   UNL A   1      44.319  26.413  31.169  1.00  0.00     0.031 C 
ATOM     62  C   UNL A   1      43.911  27.829  33.159  1.00  0.00     0.034 A 
BRANCH  49  63
ATOM     63  C   UNL A   1      40.099  32.132  35.481  1.00  0.00     0.023 A 
ATOM     64  C   UNL A   1      39.128  31.789  36.438  1.00  0.00     0.031 A 
ATOM     65  C   UNL A   1      40.747  33.372  35.618  1.00  0.00     0.131 A 
ATOM     66  C   UNL A   1      38.787  32.698  37.449  1.00  0.00     0.055 A 
ATOM     67  C   UNL A   1      40.461  34.239  36.674  1.00  0.00     0.041 A 
ATOM     68  F   UNL A   1      41.666  33.766  34.722  1.00  0.00    -0.206 F 
ATOM     69  C   UNL A   1      39.466  33.910  37.591  1.00  0.00     0.022 A 
BRANCH  66  70
ATOM     70  S   UNL A   1      37.356  32.329  38.500  1.00  0.00     0.124 S 
ATOM     71  O   UNL A   1      37.794  32.859  39.790  1.00  0.00    -0.237 OA
ATOM     72  O   UNL A   1      36.282  33.061  37.840  1.00  0.00    -0.237 OA
ATOM     73  O   UNL A   1      37.251  30.874  38.436  1.00  0.00    -0.744 OA
ENDBRANCH  66  70
ENDBRANCH  49  63
BRANCH  50  74
ATOM     74  C   UNL A   1      42.085  26.252  27.595  1.00  0.00     0.023 A 
ATOM     75  C   UNL A   1      41.670  24.912  27.534  1.00  0.00     0.031 A 
ATOM     76  C   UNL A   1      42.898  26.734  26.553  1.00  0.00     0.131 A 
ATOM     77  C   UNL A   1      42.128  24.082  26.499  1.00  0.00     0.055 A 
ATOM     78  C   UNL A   1      43.293  25.922  25.488  1.00  0.00     0.041 A 
ATOM     79  F   UNL A   1      43.325  28.008  26.556  1.00  0.00    -0.206 F 
ATOM     80  C   UNL A   1      42.925  24.581  25.468  1.00  0.00     0.022 A 
BRANCH  77  81
ATOM     81  S   UNL A   1      41.776  22.304  26.597  1.00  0.00     0.124 S 
ATOM     82  O   UNL A   1      42.479  21.931  27.819  1.00  0.00    -0.237 OA
ATOM     83  O   UNL A   1      40.319  22.288  26.663  1.00  0.00    -0.237 OA
ATOM     84  O   UNL A   1      42.350  21.776  25.360  1.00  0.00    -0.744 OA
ENDBRANCH  77  81
ENDBRANCH  50  74
BRANCH  62  85
ATOM     85  C   UNL A   1      45.093  27.160  33.816  1.00  0.00     0.023 A 
ATOM     86  C   UNL A   1      44.957  25.976  34.561  1.00  0.00     0.031 A 
ATOM     87  C   UNL A   1      46.376  27.725  33.700  1.00  0.00     0.131 A 
ATOM     88  C   UNL A   1      46.073  25.428  35.212  1.00  0.00     0.055 A 
ATOM     89  C   UNL A   1      47.495  27.138  34.294  1.00  0.00     0.041 A 
ATOM     90  F   UNL A   1      46.565  28.856  33.002  1.00  0.00    -0.206 F 
ATOM     91  C   UNL A   1      47.343  25.991  35.067  1.00  0.00     0.022 A 
BRANCH  88  92
ATOM     92  S   UNL A   1      45.823  24.023  36.331  1.00  0.00     0.124 S 
ATOM     93  O   UNL A   1      46.559  24.446  37.518  1.00  0.00    -0.237 OA
ATOM     94  O   UNL A   1      44.371  23.982  36.463  1.00  0.00    -0.237 OA
ATOM     95  O   UNL A   1      46.411  22.899  35.604  1.00  0.00    -0.744 OA
ENDBRANCH  88  92
ENDBRANCH  62  85
ENDBRANCH  36  37
ENDBRANCH  28  31
ENDBRANCH  26  27
ENDBRANCH   1  26
TORSDOF 16
ENDMDL
