MODEL 1
REMARK VINA RESULT:     -14.3      0.000      0.000
REMARK SMILES COc1cc([C@@H]2CC(=O)Nc3c(C(=O)NCCCNC(=O)c4ccc(-c5c6nc(c(-c7cc(S(=O)(=O)[O-])ccc7F)c7ccc([nH]7)c(-c7cc(S(=O)(=O)[O-])ccc7F)c7nc(c(-c8cc(S(=O)(=O)[O-])ccc8F)c8ccc5[nH]8)C=C7)C=C6)cc4)cn(-c4ccc(F)cc4)c32)c(OC)c2c1OCO2
REMARK SMILES IDX 17 1 16 2 15 3 13 4 14 5 12 7 6 8 7 9 94 10 8 11 11 12 86 13
REMARK SMILES IDX 9 14 10 15 85 16 5 18 3 19 4 20 99 21 98 22 100 23 95 24
REMARK SMILES IDX 102 25 101 26 2 27 1 28 96 29 97 30 87 31 88 32 93 33 89 34
REMARK SMILES IDX 92 35 90 36 91 37 18 38 19 39 20 40 21 42 22 43 23 44 84 45
REMARK SMILES IDX 24 46 83 47 25 48 26 49 27 50 77 51 28 52 82 53 76 54 78 55
REMARK SMILES IDX 29 56 81 57 75 58 74 59 30 61 62 62 42 63 61 64 43 65 46 66
REMARK SMILES IDX 60 67 79 68 44 69 45 70 59 72 80 73 47 74 31 75 32 76 40 77
REMARK SMILES IDX 33 78 39 79 41 80 38 81 34 82 35 83 36 84 37 85 63 86 64 87
REMARK SMILES IDX 72 88 65 89 71 90 73 91 70 92 66 93 67 94 68 95 69 96 48 97
REMARK SMILES IDX 49 98 57 99 50 100 56 101 58 102 55 103 51 104 52 105 53 106
REMARK SMILES IDX 54 107
REMARK H PARENT 15 6 10 17 19 41 78 60 46 71
REMARK Flexibility Score: inf
ROOT
ATOM      1  C   UNL A   1      37.803  23.027  25.796  1.00  0.00     0.042 C 
ENDROOT
BRANCH   1   2
ATOM      2  C   UNL A   1      36.608  23.383  24.896  1.00  0.00     0.118 C 
BRANCH   2   3
ATOM      3  N   UNL A   1      35.345  23.001  25.490  1.00  0.00    -0.352 N 
ATOM      4  C   UNL A   1      34.131  23.627  25.616  1.00  0.00     0.254 C 
ATOM      5  O   UNL A   1      33.232  22.930  26.094  1.00  0.00    -0.269 OA
ATOM      6  H   UNL A   1      35.359  22.101  25.887  1.00  0.00     0.163 HD
BRANCH   4   7
ATOM      7  C   UNL A   1      33.843  25.005  25.191  1.00  0.00     0.081 A 
ATOM      8  C   UNL A   1      32.846  28.008  23.214  1.00  0.00     0.082 C 
ATOM      9  C   UNL A   1      33.416  27.602  21.851  1.00  0.00     0.115 C 
ATOM     10  C   UNL A   1      33.256  27.006  24.255  1.00  0.00     0.055 A 
ATOM     11  C   UNL A   1      33.268  26.126  21.598  1.00  0.00     0.225 C 
ATOM     12  C   UNL A   1      33.550  25.690  23.976  1.00  0.00     0.076 A 
ATOM     13  N   UNL A   1      33.488  27.225  25.589  1.00  0.00    -0.317 N 
ATOM     14  O   UNL A   1      33.097  25.662  20.471  1.00  0.00    -0.275 OA
ATOM     15  N   UNL A   1      33.458  25.297  22.666  1.00  0.00    -0.324 N 
ATOM     16  C   UNL A   1      33.898  26.035  26.137  1.00  0.00     0.107 A 
ATOM     17  H   UNL A   1      33.538  24.333  22.480  1.00  0.00     0.170 HD
BRANCH   8  18
ATOM     18  C   UNL A   1      31.339  28.266  23.120  1.00  0.00     0.012 A 
ATOM     19  C   UNL A   1      29.634  29.902  22.443  1.00  0.00     0.165 A 
ATOM     20  C   UNL A   1      30.963  29.496  22.520  1.00  0.00     0.059 A 
ATOM     21  C   UNL A   1      28.669  29.030  22.907  1.00  0.00     0.211 A 
ATOM     22  C   UNL A   1      29.005  27.804  23.452  1.00  0.00     0.211 A 
ATOM     23  O   UNL A   1      27.322  29.228  22.883  1.00  0.00    -0.449 OA
ATOM     24  C   UNL A   1      30.325  27.386  23.574  1.00  0.00     0.168 A 
ATOM     25  O   UNL A   1      27.895  27.113  23.842  1.00  0.00    -0.449 OA
ATOM     26  C   UNL A   1      26.842  27.980  23.403  1.00  0.00     0.468 C 
BRANCH  19  27
ATOM     27  O   UNL A   1      29.420  31.121  21.874  1.00  0.00    -0.493 OA
ATOM     28  C   UNL A   1      28.820  32.069  22.751  1.00  0.00     0.278 C 
ENDBRANCH  19  27
BRANCH  24  29
ATOM     29  O   UNL A   1      30.722  26.199  24.109  1.00  0.00    -0.492 OA
ATOM     30  C   UNL A   1      30.177  24.985  23.614  1.00  0.00     0.278 C 
ENDBRANCH  24  29
ENDBRANCH   8  18
BRANCH  13  31
ATOM     31  C   UNL A   1      33.405  28.457  26.270  1.00  0.00     0.046 A 
ATOM     32  C   UNL A   1      32.173  29.115  26.363  1.00  0.00     0.029 A 
ATOM     33  C   UNL A   1      34.568  29.041  26.783  1.00  0.00     0.029 A 
ATOM     34  C   UNL A   1      32.114  30.399  26.898  1.00  0.00     0.041 A 
ATOM     35  C   UNL A   1      34.502  30.333  27.310  1.00  0.00     0.041 A 
ATOM     36  C   UNL A   1      33.280  31.002  27.350  1.00  0.00     0.123 A 
ATOM     37  F   UNL A   1      33.228  32.252  27.829  1.00  0.00    -0.207 F 
ENDBRANCH  13  31
ENDBRANCH   4   7
ENDBRANCH   2   3
ENDBRANCH   1   2
BRANCH   1  38
ATOM     38  C   UNL A   1      38.422  24.211  26.492  1.00  0.00     0.118 C 
BRANCH  38  39
ATOM     39  N   UNL A   1      39.767  24.469  25.969  1.00  0.00    -0.352 N 
ATOM     40  C   UNL A   1      40.517  25.628  26.059  1.00  0.00     0.251 C 
ATOM     41  H   UNL A   1      40.192  23.719  25.493  1.00  0.00     0.163 HD
ATOM     42  O   UNL A   1      41.429  25.842  25.284  1.00  0.00    -0.269 OA
BRANCH  40  43
ATOM     43  C   UNL A   1      40.149  26.590  27.110  1.00  0.00     0.039 A 
ATOM     44  C   UNL A   1      39.873  26.179  28.414  1.00  0.00     0.014 A 
ATOM     45  C   UNL A   1      40.214  27.936  26.775  1.00  0.00     0.014 A 
ATOM     46  C   UNL A   1      39.762  27.154  29.401  1.00  0.00     0.010 A 
ATOM     47  C   UNL A   1      40.341  28.857  27.773  1.00  0.00     0.010 A 
ATOM     48  C   UNL A   1      40.032  28.494  29.077  1.00  0.00    -0.014 A 
BRANCH  48  49
ATOM     49  C   UNL A   1      40.112  29.534  30.095  1.00  0.00     0.031 A 
ATOM     50  C   UNL A   1      38.839  30.255  30.339  1.00  0.00     0.074 A 
ATOM     51  C   UNL A   1      41.182  29.676  30.910  1.00  0.00     0.049 A 
ATOM     52  N   UNL A   1      38.552  31.463  29.991  1.00  0.00    -0.248 NA
ATOM     53  C   UNL A   1      37.688  29.504  30.866  1.00  0.00     0.031 C 
ATOM     54  C   UNL A   1      42.391  28.847  30.981  1.00  0.00     0.029 A 
ATOM     55  N   UNL A   1      41.356  30.533  31.950  1.00  0.00    -0.354 N 
ATOM     56  C   UNL A   1      37.284  31.717  30.502  1.00  0.00     0.074 A 
ATOM     57  C   UNL A   1      36.724  30.426  30.799  1.00  0.00     0.031 C 
ATOM     58  C   UNL A   1      43.037  29.078  32.143  1.00  0.00     0.029 A 
ATOM     59  C   UNL A   1      42.398  30.196  32.811  1.00  0.00     0.049 A 
ATOM     60  H   UNL A   1      40.794  31.330  32.083  1.00  0.00     0.167 HD
ATOM     61  C   UNL A   1      36.927  32.975  30.884  1.00  0.00     0.034 A 
ATOM     62  C   UNL A   1      42.712  30.781  33.997  1.00  0.00     0.034 A 
ATOM     63  C   UNL A   1      37.878  33.950  30.382  1.00  0.00     0.049 A 
ATOM     64  C   UNL A   1      42.130  32.146  33.955  1.00  0.00     0.074 A 
ATOM     65  C   UNL A   1      38.347  34.278  29.123  1.00  0.00     0.029 A 
ATOM     66  N   UNL A   1      38.808  34.461  31.263  1.00  0.00    -0.354 N 
ATOM     67  N   UNL A   1      42.530  33.061  33.112  1.00  0.00    -0.248 NA
ATOM     68  C   UNL A   1      40.780  32.334  34.466  1.00  0.00     0.031 C 
ATOM     69  C   UNL A   1      39.748  34.482  29.298  1.00  0.00     0.029 A 
ATOM     70  C   UNL A   1      40.041  34.376  30.661  1.00  0.00     0.049 A 
ATOM     71  H   UNL A   1      38.622  34.823  32.161  1.00  0.00     0.167 HD
ATOM     72  C   UNL A   1      41.366  33.650  32.642  1.00  0.00     0.074 A 
ATOM     73  C   UNL A   1      40.331  33.241  33.592  1.00  0.00     0.031 C 
ATOM     74  C   UNL A   1      41.288  34.163  31.377  1.00  0.00     0.034 A 
BRANCH  61  75
ATOM     75  C   UNL A   1      35.969  33.312  32.008  1.00  0.00     0.023 A 
ATOM     76  C   UNL A   1      34.864  34.122  31.679  1.00  0.00     0.031 A 
ATOM     77  C   UNL A   1      36.209  33.144  33.391  1.00  0.00     0.131 A 
ATOM     78  C   UNL A   1      34.149  34.813  32.671  1.00  0.00     0.055 A 
ATOM     79  C   UNL A   1      35.448  33.777  34.378  1.00  0.00     0.041 A 
ATOM     80  F   UNL A   1      37.236  32.436  33.872  1.00  0.00    -0.206 F 
ATOM     81  C   UNL A   1      34.436  34.649  34.022  1.00  0.00     0.022 A 
BRANCH  78  82
ATOM     82  S   UNL A   1      32.971  36.083  32.145  1.00  0.00     0.124 S 
ATOM     83  O   UNL A   1      33.370  37.213  32.977  1.00  0.00    -0.237 OA
ATOM     84  O   UNL A   1      33.268  36.194  30.720  1.00  0.00    -0.237 OA
ATOM     85  O   UNL A   1      31.674  35.496  32.468  1.00  0.00    -0.744 OA
ENDBRANCH  78  82
ENDBRANCH  61  75
BRANCH  62  86
ATOM     86  C   UNL A   1      43.226  30.120  35.230  1.00  0.00     0.023 A 
ATOM     87  C   UNL A   1      42.784  28.853  35.670  1.00  0.00     0.031 A 
ATOM     88  C   UNL A   1      44.364  30.650  35.881  1.00  0.00     0.131 A 
ATOM     89  C   UNL A   1      43.473  28.176  36.707  1.00  0.00     0.055 A 
ATOM     90  C   UNL A   1      45.037  29.980  36.906  1.00  0.00     0.041 A 
ATOM     91  F   UNL A   1      44.917  31.806  35.482  1.00  0.00    -0.206 F 
ATOM     92  C   UNL A   1      44.598  28.733  37.317  1.00  0.00     0.022 A 
BRANCH  89  93
ATOM     93  S   UNL A   1      42.965  26.501  37.223  1.00  0.00     0.124 S 
ATOM     94  O   UNL A   1      43.652  26.345  38.499  1.00  0.00    -0.237 OA
ATOM     95  O   UNL A   1      41.512  26.616  37.277  1.00  0.00    -0.237 OA
ATOM     96  O   UNL A   1      43.468  25.645  36.147  1.00  0.00    -0.744 OA
ENDBRANCH  89  93
ENDBRANCH  62  86
BRANCH  74  97
ATOM     97  C   UNL A   1      42.572  34.329  30.580  1.00  0.00     0.023 A 
ATOM     98  C   UNL A   1      42.987  33.490  29.519  1.00  0.00     0.031 A 
ATOM     99  C   UNL A   1      43.346  35.474  30.838  1.00  0.00     0.131 A 
ATOM    100  C   UNL A   1      44.143  33.805  28.775  1.00  0.00     0.055 A 
ATOM    101  C   UNL A   1      44.475  35.797  30.085  1.00  0.00     0.041 A 
ATOM    102  F   UNL A   1      42.996  36.329  31.813  1.00  0.00    -0.206 F 
ATOM    103  C   UNL A   1      44.882  34.959  29.053  1.00  0.00     0.022 A 
BRANCH 100 104
ATOM    104  S   UNL A   1      44.724  32.709  27.438  1.00  0.00     0.124 S 
ATOM    105  O   UNL A   1      44.150  31.413  27.784  1.00  0.00    -0.237 OA
ATOM    106  O   UNL A   1      44.181  33.348  26.243  1.00  0.00    -0.237 OA
ATOM    107  O   UNL A   1      46.182  32.777  27.553  1.00  0.00    -0.744 OA
ENDBRANCH 100 104
ENDBRANCH  74  97
ENDBRANCH  48  49
ENDBRANCH  40  43
ENDBRANCH  38  39
ENDBRANCH   1  38
TORSDOF 17
ENDMDL
MODEL 2
REMARK VINA RESULT:     -13.7      3.794      5.154
REMARK SMILES COc1cc([C@@H]2CC(=O)Nc3c(C(=O)NCCCNC(=O)c4ccc(-c5c6nc(c(-c7cc(S(=O)(=O)[O-])ccc7F)c7ccc([nH]7)c(-c7cc(S(=O)(=O)[O-])ccc7F)c7nc(c(-c8cc(S(=O)(=O)[O-])ccc8F)c8ccc5[nH]8)C=C7)C=C6)cc4)cn(-c4ccc(F)cc4)c32)c(OC)c2c1OCO2
REMARK SMILES IDX 17 1 16 2 15 3 13 4 14 5 12 7 6 8 7 9 94 10 8 11 11 12 86 13
REMARK SMILES IDX 9 14 10 15 85 16 5 18 3 19 4 20 99 21 98 22 100 23 95 24
REMARK SMILES IDX 102 25 101 26 2 27 1 28 96 29 97 30 87 31 88 32 93 33 89 34
REMARK SMILES IDX 92 35 90 36 91 37 18 38 19 39 20 40 21 42 22 43 23 44 84 45
REMARK SMILES IDX 24 46 83 47 25 48 26 49 27 50 77 51 28 52 82 53 76 54 78 55
REMARK SMILES IDX 29 56 81 57 75 58 74 59 30 61 62 62 42 63 61 64 43 65 46 66
REMARK SMILES IDX 60 67 79 68 44 69 45 70 59 72 80 73 47 74 31 75 32 76 40 77
REMARK SMILES IDX 33 78 39 79 41 80 38 81 34 82 35 83 36 84 37 85 63 86 64 87
REMARK SMILES IDX 72 88 65 89 71 90 73 91 70 92 66 93 67 94 68 95 69 96 48 97
REMARK SMILES IDX 49 98 57 99 50 100 56 101 58 102 55 103 51 104 52 105 53 106
REMARK SMILES IDX 54 107
REMARK H PARENT 15 6 10 17 19 41 78 60 46 71
REMARK Flexibility Score: inf
ROOT
ATOM      1  C   UNL A   1      37.158  21.379  24.334  1.00  0.00     0.042 C 
ENDROOT
BRANCH   1   2
ATOM      2  C   UNL A   1      36.161  22.551  24.323  1.00  0.00     0.118 C 
BRANCH   2   3
ATOM      3  N   UNL A   1      34.989  22.279  25.127  1.00  0.00    -0.352 N 
ATOM      4  C   UNL A   1      33.877  23.010  25.455  1.00  0.00     0.254 C 
ATOM      5  O   UNL A   1      33.013  22.392  26.085  1.00  0.00    -0.269 OA
ATOM      6  H   UNL A   1      34.991  21.378  25.522  1.00  0.00     0.163 HD
BRANCH   4   7
ATOM      7  C   UNL A   1      33.645  24.412  25.077  1.00  0.00     0.081 A 
ATOM      8  C   UNL A   1      32.776  27.518  23.201  1.00  0.00     0.082 C 
ATOM      9  C   UNL A   1      33.335  27.136  21.826  1.00  0.00     0.115 C 
ATOM     10  C   UNL A   1      33.142  26.466  24.208  1.00  0.00     0.055 A 
ATOM     11  C   UNL A   1      33.131  25.677  21.523  1.00  0.00     0.225 C 
ATOM     12  C   UNL A   1      33.385  25.149  23.885  1.00  0.00     0.076 A 
ATOM     13  N   UNL A   1      33.376  26.629  25.550  1.00  0.00    -0.317 N 
ATOM     14  O   UNL A   1      32.945  25.259  20.380  1.00  0.00    -0.275 OA
ATOM     15  N   UNL A   1      33.283  24.805  22.562  1.00  0.00    -0.324 N 
ATOM     16  C   UNL A   1      33.736  25.406  26.058  1.00  0.00     0.107 A 
ATOM     17  H   UNL A   1      33.325  23.846  22.344  1.00  0.00     0.170 HD
BRANCH   8  18
ATOM     18  C   UNL A   1      31.281  27.838  23.112  1.00  0.00     0.012 A 
ATOM     19  C   UNL A   1      29.640  29.505  22.356  1.00  0.00     0.165 A 
ATOM     20  C   UNL A   1      30.951  29.045  22.440  1.00  0.00     0.059 A 
ATOM     21  C   UNL A   1      28.646  28.710  22.887  1.00  0.00     0.211 A 
ATOM     22  C   UNL A   1      28.935  27.506  23.504  1.00  0.00     0.211 A 
ATOM     23  O   UNL A   1      27.308  28.968  22.869  1.00  0.00    -0.449 OA
ATOM     24  C   UNL A   1      30.236  27.036  23.634  1.00  0.00     0.168 A 
ATOM     25  O   UNL A   1      27.801  26.893  23.952  1.00  0.00    -0.449 OA
ATOM     26  C   UNL A   1      26.781  27.778  23.474  1.00  0.00     0.468 C 
BRANCH  19  27
ATOM     27  O   UNL A   1      29.473  30.695  21.713  1.00  0.00    -0.493 OA
ATOM     28  C   UNL A   1      29.084  31.763  22.571  1.00  0.00     0.278 C 
ENDBRANCH  19  27
BRANCH  24  29
ATOM     29  O   UNL A   1      30.588  25.868  24.238  1.00  0.00    -0.492 OA
ATOM     30  C   UNL A   1      30.030  25.532  25.500  1.00  0.00     0.278 C 
ENDBRANCH  24  29
ENDBRANCH   8  18
BRANCH  13  31
ATOM     31  C   UNL A   1      33.339  27.840  26.273  1.00  0.00     0.046 A 
ATOM     32  C   UNL A   1      32.110  28.353  26.702  1.00  0.00     0.029 A 
ATOM     33  C   UNL A   1      34.525  28.550  26.490  1.00  0.00     0.029 A 
ATOM     34  C   UNL A   1      32.052  29.618  27.279  1.00  0.00     0.041 A 
ATOM     35  C   UNL A   1      34.457  29.822  27.061  1.00  0.00     0.041 A 
ATOM     36  C   UNL A   1      33.223  30.348  27.437  1.00  0.00     0.123 A 
ATOM     37  F   UNL A   1      33.161  31.581  27.958  1.00  0.00    -0.207 F 
ENDBRANCH  13  31
ENDBRANCH   4   7
ENDBRANCH   2   3
ENDBRANCH   1   2
BRANCH   1  38
ATOM     38  C   UNL A   1      38.197  21.467  25.420  1.00  0.00     0.118 C 
BRANCH  38  39
ATOM     39  N   UNL A   1      38.891  20.184  25.572  1.00  0.00    -0.352 N 
ATOM     40  C   UNL A   1      40.220  19.956  25.879  1.00  0.00     0.251 C 
ATOM     41  H   UNL A   1      38.337  19.381  25.439  1.00  0.00     0.163 HD
ATOM     42  O   UNL A   1      40.749  18.895  25.611  1.00  0.00    -0.269 OA
BRANCH  40  43
ATOM     43  C   UNL A   1      40.962  21.054  26.519  1.00  0.00     0.039 A 
ATOM     44  C   UNL A   1      41.702  21.971  25.772  1.00  0.00     0.014 A 
ATOM     45  C   UNL A   1      40.789  21.211  27.887  1.00  0.00     0.014 A 
ATOM     46  C   UNL A   1      42.182  23.109  26.414  1.00  0.00     0.010 A 
ATOM     47  C   UNL A   1      41.053  22.426  28.449  1.00  0.00     0.010 A 
ATOM     48  C   UNL A   1      41.823  23.346  27.751  1.00  0.00    -0.014 A 
BRANCH  48  49
ATOM     49  C   UNL A   1      42.138  24.599  28.425  1.00  0.00     0.031 A 
ATOM     50  C   UNL A   1      41.140  25.677  28.214  1.00  0.00     0.074 A 
ATOM     51  C   UNL A   1      43.122  24.706  29.345  1.00  0.00     0.049 A 
ATOM     52  N   UNL A   1      41.280  26.733  27.487  1.00  0.00    -0.248 NA
ATOM     53  C   UNL A   1      39.770  25.484  28.715  1.00  0.00     0.031 C 
ATOM     54  C   UNL A   1      43.998  23.651  29.871  1.00  0.00     0.029 A 
ATOM     55  N   UNL A   1      43.467  25.776  30.108  1.00  0.00    -0.354 N 
ATOM     56  C   UNL A   1      40.117  27.475  27.663  1.00  0.00     0.074 A 
ATOM     57  C   UNL A   1      39.155  26.557  28.211  1.00  0.00     0.031 C 
ATOM     58  C   UNL A   1      44.580  24.068  31.016  1.00  0.00     0.029 A 
ATOM     59  C   UNL A   1      44.269  25.472  31.206  1.00  0.00     0.049 A 
ATOM     60  H   UNL A   1      43.174  26.693  29.902  1.00  0.00     0.167 HD
ATOM     61  C   UNL A   1      40.143  28.835  27.595  1.00  0.00     0.034 A 
ATOM     62  C   UNL A   1      44.648  26.307  32.210  1.00  0.00     0.034 A 
ATOM     63  C   UNL A   1      41.393  29.294  27.016  1.00  0.00     0.049 A 
ATOM     64  C   UNL A   1      44.531  27.686  31.671  1.00  0.00     0.074 A 
ATOM     65  C   UNL A   1      42.050  29.049  25.824  1.00  0.00     0.029 A 
ATOM     66  N   UNL A   1      42.356  29.794  27.868  1.00  0.00    -0.354 N 
ATOM     67  N   UNL A   1      45.271  28.127  30.689  1.00  0.00    -0.248 NA
ATOM     68  C   UNL A   1      43.269  28.390  31.851  1.00  0.00     0.031 C 
ATOM     69  C   UNL A   1      43.423  28.911  26.186  1.00  0.00     0.029 A 
ATOM     70  C   UNL A   1      43.547  29.185  27.551  1.00  0.00     0.049 A 
ATOM     71  H   UNL A   1      42.216  30.467  28.574  1.00  0.00     0.167 HD
ATOM     72  C   UNL A   1      44.398  28.821  29.865  1.00  0.00     0.074 A 
ATOM     73  C   UNL A   1      43.207  29.044  30.686  1.00  0.00     0.031 C 
ATOM     74  C   UNL A   1      44.596  28.890  28.513  1.00  0.00     0.034 A 
BRANCH  61  75
ATOM     75  C   UNL A   1      39.246  29.770  28.380  1.00  0.00     0.023 A 
ATOM     76  C   UNL A   1      39.547  29.942  29.745  1.00  0.00     0.031 A 
ATOM     77  C   UNL A   1      37.986  30.261  27.968  1.00  0.00     0.131 A 
ATOM     78  C   UNL A   1      38.590  30.445  30.642  1.00  0.00     0.055 A 
ATOM     79  C   UNL A   1      37.064  30.829  28.854  1.00  0.00     0.041 A 
ATOM     80  F   UNL A   1      37.532  30.147  26.717  1.00  0.00    -0.206 F 
ATOM     81  C   UNL A   1      37.347  30.888  30.206  1.00  0.00     0.022 A 
BRANCH  78  82
ATOM     82  S   UNL A   1      38.935  30.320  32.415  1.00  0.00     0.124 S 
ATOM     83  O   UNL A   1      40.342  29.934  32.411  1.00  0.00    -0.237 OA
ATOM     84  O   UNL A   1      38.639  31.673  32.873  1.00  0.00    -0.237 OA
ATOM     85  O   UNL A   1      38.006  29.289  32.868  1.00  0.00    -0.744 OA
ENDBRANCH  78  82
ENDBRANCH  61  75
BRANCH  62  86
ATOM     86  C   UNL A   1      44.817  25.975  33.653  1.00  0.00     0.023 A 
ATOM     87  C   UNL A   1      43.865  26.310  34.640  1.00  0.00     0.031 A 
ATOM     88  C   UNL A   1      45.849  25.092  34.047  1.00  0.00     0.131 A 
ATOM     89  C   UNL A   1      43.967  25.765  35.945  1.00  0.00     0.055 A 
ATOM     90  C   UNL A   1      45.947  24.562  35.335  1.00  0.00     0.041 A 
ATOM     91  F   UNL A   1      46.754  24.644  33.163  1.00  0.00    -0.206 F 
ATOM     92  C   UNL A   1      44.998  24.889  36.289  1.00  0.00     0.022 A 
BRANCH  89  93
ATOM     93  S   UNL A   1      42.694  26.118  37.203  1.00  0.00     0.124 S 
ATOM     94  O   UNL A   1      41.766  25.007  37.030  1.00  0.00    -0.237 OA
ATOM     95  O   UNL A   1      43.468  26.131  38.439  1.00  0.00    -0.237 OA
ATOM     96  O   UNL A   1      42.168  27.424  36.801  1.00  0.00    -0.744 OA
ENDBRANCH  89  93
ENDBRANCH  62  86
BRANCH  74  97
ATOM     97  C   UNL A   1      45.931  28.429  27.951  1.00  0.00     0.023 A 
ATOM     98  C   UNL A   1      46.183  27.154  27.391  1.00  0.00     0.031 A 
ATOM     99  C   UNL A   1      46.960  29.384  27.872  1.00  0.00     0.131 A 
ATOM    100  C   UNL A   1      47.432  26.875  26.796  1.00  0.00     0.055 A 
ATOM    101  C   UNL A   1      48.184  29.113  27.261  1.00  0.00     0.041 A 
ATOM    102  F   UNL A   1      46.780  30.622  28.359  1.00  0.00    -0.206 F 
ATOM    103  C   UNL A   1      48.428  27.854  26.725  1.00  0.00     0.022 A 
BRANCH 100 104
ATOM    104  S   UNL A   1      47.795  25.222  26.116  1.00  0.00     0.124 S 
ATOM    105  O   UNL A   1      46.476  24.676  25.819  1.00  0.00    -0.237 OA
ATOM    106  O   UNL A   1      48.633  25.530  24.961  1.00  0.00    -0.237 OA
ATOM    107  O   UNL A   1      48.497  24.551  27.212  1.00  0.00    -0.744 OA
ENDBRANCH 100 104
ENDBRANCH  74  97
ENDBRANCH  48  49
ENDBRANCH  40  43
ENDBRANCH  38  39
ENDBRANCH   1  38
TORSDOF 17
ENDMDL
MODEL 3
REMARK VINA RESULT:     -13.5      2.003      6.575
REMARK SMILES COc1cc([C@@H]2CC(=O)Nc3c(C(=O)NCCCNC(=O)c4ccc(-c5c6nc(c(-c7cc(S(=O)(=O)[O-])ccc7F)c7ccc([nH]7)c(-c7cc(S(=O)(=O)[O-])ccc7F)c7nc(c(-c8cc(S(=O)(=O)[O-])ccc8F)c8ccc5[nH]8)C=C7)C=C6)cc4)cn(-c4ccc(F)cc4)c32)c(OC)c2c1OCO2
REMARK SMILES IDX 17 1 16 2 15 3 13 4 14 5 12 7 6 8 7 9 94 10 8 11 11 12 86 13
REMARK SMILES IDX 9 14 10 15 85 16 5 18 3 19 4 20 99 21 98 22 100 23 95 24
REMARK SMILES IDX 102 25 101 26 2 27 1 28 96 29 97 30 87 31 88 32 93 33 89 34
REMARK SMILES IDX 92 35 90 36 91 37 18 38 19 39 20 40 21 42 22 43 23 44 84 45
REMARK SMILES IDX 24 46 83 47 25 48 26 49 27 50 77 51 28 52 82 53 76 54 78 55
REMARK SMILES IDX 29 56 81 57 75 58 74 59 30 61 62 62 42 63 61 64 43 65 46 66
REMARK SMILES IDX 60 67 79 68 44 69 45 70 59 72 80 73 47 74 31 75 32 76 40 77
REMARK SMILES IDX 33 78 39 79 41 80 38 81 34 82 35 83 36 84 37 85 63 86 64 87
REMARK SMILES IDX 72 88 65 89 71 90 73 91 70 92 66 93 67 94 68 95 69 96 48 97
REMARK SMILES IDX 49 98 57 99 50 100 56 101 58 102 55 103 51 104 52 105 53 106
REMARK SMILES IDX 54 107
REMARK H PARENT 15 6 10 17 19 41 78 60 46 71
REMARK Flexibility Score: inf
ROOT
ATOM      1  C   UNL A   1      37.890  22.507  25.573  1.00  0.00     0.042 C 
ENDROOT
BRANCH   1   2
ATOM      2  C   UNL A   1      36.725  23.341  25.012  1.00  0.00     0.118 C 
BRANCH   2   3
ATOM      3  N   UNL A   1      35.446  22.916  25.538  1.00  0.00    -0.352 N 
ATOM      4  C   UNL A   1      34.210  23.506  25.611  1.00  0.00     0.254 C 
ATOM      5  O   UNL A   1      33.309  22.777  26.037  1.00  0.00    -0.269 OA
ATOM      6  H   UNL A   1      35.467  22.012  25.926  1.00  0.00     0.163 HD
BRANCH   4   7
ATOM      7  C   UNL A   1      33.903  24.880  25.187  1.00  0.00     0.081 A 
ATOM      8  C   UNL A   1      32.854  27.870  23.218  1.00  0.00     0.082 C 
ATOM      9  C   UNL A   1      33.413  27.468  21.849  1.00  0.00     0.115 C 
ATOM     10  C   UNL A   1      33.287  26.874  24.255  1.00  0.00     0.055 A 
ATOM     11  C   UNL A   1      33.277  25.990  21.600  1.00  0.00     0.225 C 
ATOM     12  C   UNL A   1      33.590  25.561  23.975  1.00  0.00     0.076 A 
ATOM     13  N   UNL A   1      33.531  27.097  25.587  1.00  0.00    -0.317 N 
ATOM     14  O   UNL A   1      33.097  25.523  20.476  1.00  0.00    -0.275 OA
ATOM     15  N   UNL A   1      33.488  25.164  22.667  1.00  0.00    -0.324 N 
ATOM     16  C   UNL A   1      33.959  25.912  26.132  1.00  0.00     0.107 A 
ATOM     17  H   UNL A   1      33.575  24.201  22.482  1.00  0.00     0.170 HD
BRANCH   8  18
ATOM     18  C   UNL A   1      31.344  28.113  23.141  1.00  0.00     0.012 A 
ATOM     19  C   UNL A   1      29.615  29.723  22.462  1.00  0.00     0.165 A 
ATOM     20  C   UNL A   1      30.949  29.330  22.527  1.00  0.00     0.059 A 
ATOM     21  C   UNL A   1      28.665  28.850  22.953  1.00  0.00     0.211 A 
ATOM     22  C   UNL A   1      29.019  27.635  23.511  1.00  0.00     0.211 A 
ATOM     23  O   UNL A   1      27.315  29.035  22.944  1.00  0.00    -0.449 OA
ATOM     24  C   UNL A   1      30.344  27.231  23.621  1.00  0.00     0.168 A 
ATOM     25  O   UNL A   1      27.921  26.940  23.927  1.00  0.00    -0.449 OA
ATOM     26  C   UNL A   1      26.854  27.791  23.489  1.00  0.00     0.468 C 
BRANCH  19  27
ATOM     27  O   UNL A   1      29.383  30.931  21.878  1.00  0.00    -0.493 OA
ATOM     28  C   UNL A   1      28.934  31.933  22.785  1.00  0.00     0.278 C 
ENDBRANCH  19  27
BRANCH  24  29
ATOM     29  O   UNL A   1      30.760  26.056  24.169  1.00  0.00    -0.492 OA
ATOM     30  C   UNL A   1      30.256  24.827  23.666  1.00  0.00     0.278 C 
ENDBRANCH  24  29
ENDBRANCH   8  18
BRANCH  13  31
ATOM     31  C   UNL A   1      33.443  28.329  26.267  1.00  0.00     0.046 A 
ATOM     32  C   UNL A   1      32.196  28.942  26.432  1.00  0.00     0.029 A 
ATOM     33  C   UNL A   1      34.613  28.959  26.706  1.00  0.00     0.029 A 
ATOM     34  C   UNL A   1      32.121  30.225  26.965  1.00  0.00     0.041 A 
ATOM     35  C   UNL A   1      34.531  30.250  27.231  1.00  0.00     0.041 A 
ATOM     36  C   UNL A   1      33.290  30.874  27.343  1.00  0.00     0.123 A 
ATOM     37  F   UNL A   1      33.220  32.125  27.820  1.00  0.00    -0.207 F 
ENDBRANCH  13  31
ENDBRANCH   4   7
ENDBRANCH   2   3
ENDBRANCH   1   2
BRANCH   1  38
ATOM     38  C   UNL A   1      38.809  23.274  26.486  1.00  0.00     0.118 C 
BRANCH  38  39
ATOM     39  N   UNL A   1      40.204  22.889  26.253  1.00  0.00    -0.352 N 
ATOM     40  C   UNL A   1      41.348  23.644  26.438  1.00  0.00     0.251 C 
ATOM     41  H   UNL A   1      40.345  21.972  25.921  1.00  0.00     0.163 HD
ATOM     42  O   UNL A   1      42.383  23.360  25.868  1.00  0.00    -0.269 OA
BRANCH  40  43
ATOM     43  C   UNL A   1      41.249  24.810  27.331  1.00  0.00     0.039 A 
ATOM     44  C   UNL A   1      42.162  25.021  28.364  1.00  0.00     0.014 A 
ATOM     45  C   UNL A   1      40.281  25.756  27.018  1.00  0.00     0.014 A 
ATOM     46  C   UNL A   1      42.148  26.252  29.014  1.00  0.00     0.010 A 
ATOM     47  C   UNL A   1      40.427  27.028  27.489  1.00  0.00     0.010 A 
ATOM     48  C   UNL A   1      41.295  27.266  28.546  1.00  0.00    -0.014 A 
BRANCH  48  49
ATOM     49  C   UNL A   1      41.360  28.628  29.061  1.00  0.00     0.031 A 
ATOM     50  C   UNL A   1      42.457  29.449  28.492  1.00  0.00     0.074 A 
ATOM     51  C   UNL A   1      40.377  29.172  29.813  1.00  0.00     0.049 A 
ATOM     52  N   UNL A   1      43.541  29.817  29.086  1.00  0.00    -0.248 NA
ATOM     53  C   UNL A   1      42.445  29.747  27.050  1.00  0.00     0.031 C 
ATOM     54  C   UNL A   1      39.095  28.575  30.208  1.00  0.00     0.029 A 
ATOM     55  N   UNL A   1      40.262  30.442  30.282  1.00  0.00    -0.354 N 
ATOM     56  C   UNL A   1      44.216  30.628  28.181  1.00  0.00     0.074 A 
ATOM     57  C   UNL A   1      43.630  30.345  26.899  1.00  0.00     0.031 C 
ATOM     58  C   UNL A   1      38.250  29.541  30.626  1.00  0.00     0.029 A 
ATOM     59  C   UNL A   1      38.982  30.791  30.707  1.00  0.00     0.049 A 
ATOM     60  H   UNL A   1      41.023  31.065  30.322  1.00  0.00     0.167 HD
ATOM     61  C   UNL A   1      45.004  31.650  28.617  1.00  0.00     0.034 A 
ATOM     62  C   UNL A   1      38.544  32.020  31.088  1.00  0.00     0.034 A 
ATOM     63  C   UNL A   1      45.263  31.525  30.040  1.00  0.00     0.049 A 
ATOM     64  C   UNL A   1      39.749  32.783  31.497  1.00  0.00     0.074 A 
ATOM     65  C   UNL A   1      45.808  30.534  30.836  1.00  0.00     0.029 A 
ATOM     66  N   UNL A   1      44.555  32.337  30.901  1.00  0.00    -0.354 N 
ATOM     67  N   UNL A   1      40.483  32.451  32.526  1.00  0.00    -0.248 NA
ATOM     68  C   UNL A   1      40.436  33.578  30.488  1.00  0.00     0.031 C 
ATOM     69  C   UNL A   1      44.981  30.504  31.998  1.00  0.00     0.029 A 
ATOM     70  C   UNL A   1      44.049  31.541  31.900  1.00  0.00     0.049 A 
ATOM     71  H   UNL A   1      44.434  33.311  30.816  1.00  0.00     0.167 HD
ATOM     72  C   UNL A   1      41.793  32.582  32.092  1.00  0.00     0.074 A 
ATOM     73  C   UNL A   1      41.703  33.384  30.871  1.00  0.00     0.031 C 
ATOM     74  C   UNL A   1      42.791  31.788  32.586  1.00  0.00     0.034 A 
BRANCH  61  75
ATOM     75  C   UNL A   1      45.230  32.958  27.885  1.00  0.00     0.023 A 
ATOM     76  C   UNL A   1      44.375  34.027  28.217  1.00  0.00     0.031 A 
ATOM     77  C   UNL A   1      46.007  33.139  26.718  1.00  0.00     0.131 A 
ATOM     78  C   UNL A   1      44.222  35.128  27.358  1.00  0.00     0.055 A 
ATOM     79  C   UNL A   1      45.903  34.272  25.904  1.00  0.00     0.041 A 
ATOM     80  F   UNL A   1      46.840  32.209  26.245  1.00  0.00    -0.206 F 
ATOM     81  C   UNL A   1      44.979  35.257  26.199  1.00  0.00     0.022 A 
BRANCH  78  82
ATOM     82  S   UNL A   1      42.869  36.284  27.688  1.00  0.00     0.124 S 
ATOM     83  O   UNL A   1      43.356  37.496  27.037  1.00  0.00    -0.237 OA
ATOM     84  O   UNL A   1      41.741  35.616  27.045  1.00  0.00    -0.237 OA
ATOM     85  O   UNL A   1      42.815  36.336  29.146  1.00  0.00    -0.744 OA
ENDBRANCH  78  82
ENDBRANCH  61  75
BRANCH  62  86
ATOM     86  C   UNL A   1      37.205  32.625  30.839  1.00  0.00     0.023 A 
ATOM     87  C   UNL A   1      36.330  33.019  31.875  1.00  0.00     0.031 A 
ATOM     88  C   UNL A   1      36.863  33.045  29.533  1.00  0.00     0.131 A 
ATOM     89  C   UNL A   1      35.182  33.798  31.584  1.00  0.00     0.055 A 
ATOM     90  C   UNL A   1      35.729  33.810  29.251  1.00  0.00     0.041 A 
ATOM     91  F   UNL A   1      37.671  32.798  28.490  1.00  0.00    -0.206 F 
ATOM     92  C   UNL A   1      34.887  34.198  30.280  1.00  0.00     0.022 A 
BRANCH  89  93
ATOM     93  S   UNL A   1      34.093  34.388  32.923  1.00  0.00     0.124 S 
ATOM     94  O   UNL A   1      33.401  35.506  32.293  1.00  0.00    -0.237 OA
ATOM     95  O   UNL A   1      33.289  33.208  33.217  1.00  0.00    -0.237 OA
ATOM     96  O   UNL A   1      35.029  34.766  33.984  1.00  0.00    -0.744 OA
ENDBRANCH  89  93
ENDBRANCH  62  86
BRANCH  74  97
ATOM     97  C   UNL A   1      42.504  30.943  33.816  1.00  0.00     0.023 A 
ATOM     98  C   UNL A   1      42.179  29.565  33.802  1.00  0.00     0.031 A 
ATOM     99  C   UNL A   1      42.693  31.548  35.072  1.00  0.00     0.131 A 
ATOM    100  C   UNL A   1      42.044  28.855  35.013  1.00  0.00     0.055 A 
ATOM    101  C   UNL A   1      42.582  30.838  36.267  1.00  0.00     0.041 A 
ATOM    102  F   UNL A   1      43.028  32.846  35.159  1.00  0.00    -0.206 F 
ATOM    103  C   UNL A   1      42.251  29.489  36.243  1.00  0.00     0.022 A 
BRANCH 100 104
ATOM    104  S   UNL A   1      41.575  27.093  35.017  1.00  0.00     0.124 S 
ATOM    105  O   UNL A   1      42.782  26.416  34.560  1.00  0.00    -0.237 OA
ATOM    106  O   UNL A   1      41.204  26.865  36.411  1.00  0.00    -0.237 OA
ATOM    107  O   UNL A   1      40.454  27.038  34.076  1.00  0.00    -0.744 OA
ENDBRANCH 100 104
ENDBRANCH  74  97
ENDBRANCH  48  49
ENDBRANCH  40  43
ENDBRANCH  38  39
ENDBRANCH   1  38
TORSDOF 17
ENDMDL
