MODEL 1
REMARK VINA RESULT:     -12.5      0.000      0.000
REMARK SMILES C[NH+]1CCC2(CC1)OC[C@H](C(=O)NCCCNC(=O)c1ccc(-c3c4nc(c(-c5cc(S(=O)(=O)[O-])ccc5F)c5ccc([nH]5)c(-c5cc(S(=O)(=O)[O-])ccc5F)c5nc(c(-c6cc(S(=O)(=O)[O-])ccc6F)c6ccc3[nH]6)C=C5)C=C4)cc1)N2C(=O)c1cc(C(F)(F)F)cc(C(F)(F)F)c1
REMARK SMILES IDX 15 1 14 2 13 3 11 4 12 5 10 7 1 8 2 9 3 10 7 11 4 13 6 14
REMARK SMILES IDX 5 15 8 16 83 17 9 18 84 19 85 20 86 21 87 22 99 23 88 24
REMARK SMILES IDX 94 25 93 26 89 27 90 28 91 29 92 30 95 31 96 32 97 33 98 34
REMARK SMILES IDX 16 35 17 36 18 37 19 39 20 40 21 41 82 42 22 43 81 44 23 45
REMARK SMILES IDX 24 46 25 47 75 48 26 49 80 50 74 51 76 52 27 53 79 54 73 55
REMARK SMILES IDX 72 56 28 58 60 59 40 60 59 61 41 62 44 63 58 64 77 65 42 66
REMARK SMILES IDX 43 67 57 69 78 70 45 71 29 72 30 73 38 74 31 75 37 76 39 77
REMARK SMILES IDX 36 78 32 79 33 80 34 81 35 82 61 83 62 84 70 85 63 86 69 87
REMARK SMILES IDX 71 88 68 89 64 90 65 91 66 92 67 93 46 94 47 95 55 96 48 97
REMARK SMILES IDX 54 98 56 99 53 100 49 101 50 102 51 103 52 104
REMARK H PARENT 13 6 2 12 17 38 76 57 44 68
REMARK Flexibility Score: inf
ROOT
ATOM      1  C   UNL A   1      34.476  22.202  26.457  1.00  0.00     0.042 C 
ENDROOT
BRANCH   1   2
ATOM      2  C   UNL A   1      33.422  23.288  26.427  1.00  0.00     0.117 C 
BRANCH   2   3
ATOM      3  N   UNL A   1      32.695  23.384  25.168  1.00  0.00    -0.354 N 
ATOM      4  C   UNL A   1      32.671  24.308  24.164  1.00  0.00     0.245 C 
ATOM      5  O   UNL A   1      32.205  23.889  23.095  1.00  0.00    -0.273 OA
ATOM      6  H   UNL A   1      32.094  22.620  25.007  1.00  0.00     0.163 HD
BRANCH   4   7
ATOM      7  C   UNL A   1      33.251  25.750  24.236  1.00  0.00     0.203 C 
ATOM      8  C   UNL A   1      28.114  29.026  22.400  1.00  0.00     0.332 C 
ATOM      9  N   UNL A   1      29.007  28.626  23.478  1.00  0.00    -0.337 N 
ATOM     10  C   UNL A   1      29.171  27.182  23.533  1.00  0.00     0.267 C 
ATOM     11  C   UNL A   1      30.211  29.448  23.572  1.00  0.00     0.267 C 
ATOM     12  H   UNL A   1      28.558  28.842  24.368  1.00  0.00     0.347 HD
ATOM     13  C   UNL A   1      30.438  26.645  22.920  1.00  0.00     0.120 C 
ATOM     14  C   UNL A   1      31.556  28.853  23.182  1.00  0.00     0.120 C 
ATOM     15  C   UNL A   1      31.717  27.350  23.380  1.00  0.00     0.155 C 
ATOM     16  O   UNL A   1      32.740  27.031  22.368  1.00  0.00    -0.352 OA
ATOM     17  N   UNL A   1      32.293  26.790  24.615  1.00  0.00    -0.295 N 
ATOM     18  C   UNL A   1      33.827  26.318  22.979  1.00  0.00     0.198 C 
BRANCH  17  19
ATOM     19  C   UNL A   1      32.200  27.104  25.965  1.00  0.00     0.256 C 
ATOM     20  O   UNL A   1      31.773  26.321  26.813  1.00  0.00    -0.269 OA
BRANCH  19  21
ATOM     21  C   UNL A   1      32.690  28.380  26.504  1.00  0.00     0.041 A 
ATOM     22  C   UNL A   1      34.001  28.474  26.986  1.00  0.00     0.027 A 
ATOM     23  C   UNL A   1      31.825  29.464  26.621  1.00  0.00     0.027 A 
ATOM     24  C   UNL A   1      34.489  29.701  27.469  1.00  0.00     0.057 A 
ATOM     25  C   UNL A   1      32.323  30.729  26.966  1.00  0.00     0.057 A 
ATOM     26  C   UNL A   1      33.653  30.832  27.412  1.00  0.00     0.026 A 
BRANCH  24  27
ATOM     27  C   UNL A   1      35.895  29.805  28.008  1.00  0.00     0.416 C 
ATOM     28  F   UNL A   1      35.963  29.524  29.338  1.00  0.00    -0.166 F 
ATOM     29  F   UNL A   1      36.755  28.946  27.395  1.00  0.00    -0.166 F 
ATOM     30  F   UNL A   1      36.441  31.045  27.860  1.00  0.00    -0.166 F 
ENDBRANCH  24  27
BRANCH  25  31
ATOM     31  C   UNL A   1      31.492  31.974  26.753  1.00  0.00     0.416 C 
ATOM     32  F   UNL A   1      31.013  32.066  25.483  1.00  0.00    -0.166 F 
ATOM     33  F   UNL A   1      30.394  32.005  27.562  1.00  0.00    -0.166 F 
ATOM     34  F   UNL A   1      32.164  33.134  26.988  1.00  0.00    -0.166 F 
ENDBRANCH  25  31
ENDBRANCH  19  21
ENDBRANCH  17  19
ENDBRANCH   4   7
ENDBRANCH   2   3
ENDBRANCH   1   2
BRANCH   1  35
ATOM     35  C   UNL A   1      35.866  22.722  26.136  1.00  0.00     0.118 C 
BRANCH  35  36
ATOM     36  N   UNL A   1      36.820  21.648  25.863  1.00  0.00    -0.352 N 
ATOM     37  C   UNL A   1      38.195  21.650  25.864  1.00  0.00     0.251 C 
ATOM     38  H   UNL A   1      36.410  20.780  25.644  1.00  0.00     0.163 HD
ATOM     39  O   UNL A   1      38.798  20.693  25.392  1.00  0.00    -0.269 OA
BRANCH  37  40
ATOM     40  C   UNL A   1      38.934  22.809  26.408  1.00  0.00     0.039 A 
ATOM     41  C   UNL A   1      40.021  22.594  27.258  1.00  0.00     0.014 A 
ATOM     42  C   UNL A   1      38.558  24.110  26.071  1.00  0.00     0.014 A 
ATOM     43  C   UNL A   1      40.778  23.683  27.695  1.00  0.00     0.010 A 
ATOM     44  C   UNL A   1      39.383  25.175  26.400  1.00  0.00     0.010 A 
ATOM     45  C   UNL A   1      40.496  24.977  27.228  1.00  0.00    -0.014 A 
BRANCH  45  46
ATOM     46  C   UNL A   1      41.333  26.144  27.604  1.00  0.00     0.031 A 
ATOM     47  C   UNL A   1      40.753  27.231  28.471  1.00  0.00     0.074 A 
ATOM     48  C   UNL A   1      42.578  26.264  27.104  1.00  0.00     0.049 A 
ATOM     49  N   UNL A   1      41.276  28.376  28.826  1.00  0.00    -0.248 NA
ATOM     50  C   UNL A   1      39.386  27.015  28.971  1.00  0.00     0.031 C 
ATOM     51  C   UNL A   1      43.225  25.302  26.209  1.00  0.00     0.029 A 
ATOM     52  N   UNL A   1      43.520  27.248  27.267  1.00  0.00    -0.354 N 
ATOM     53  C   UNL A   1      40.299  29.019  29.579  1.00  0.00     0.074 A 
ATOM     54  C   UNL A   1      39.125  28.175  29.551  1.00  0.00     0.031 C 
ATOM     55  C   UNL A   1      44.465  25.729  25.925  1.00  0.00     0.029 A 
ATOM     56  C   UNL A   1      44.684  27.020  26.570  1.00  0.00     0.049 A 
ATOM     57  H   UNL A   1      43.376  28.043  27.829  1.00  0.00     0.167 HD
ATOM     58  C   UNL A   1      40.386  30.187  30.263  1.00  0.00     0.034 A 
ATOM     59  C   UNL A   1      45.794  27.773  26.448  1.00  0.00     0.034 A 
ATOM     60  C   UNL A   1      41.570  31.011  30.280  1.00  0.00     0.049 A 
ATOM     61  C   UNL A   1      45.862  29.085  27.188  1.00  0.00     0.074 A 
ATOM     62  C   UNL A   1      41.789  32.192  30.965  1.00  0.00     0.029 A 
ATOM     63  N   UNL A   1      42.734  30.743  29.569  1.00  0.00    -0.354 N 
ATOM     64  N   UNL A   1      44.948  29.657  27.940  1.00  0.00    -0.248 NA
ATOM     65  C   UNL A   1      47.112  29.844  27.077  1.00  0.00     0.031 C 
ATOM     66  C   UNL A   1      43.053  32.675  30.610  1.00  0.00     0.029 A 
ATOM     67  C   UNL A   1      43.662  31.752  29.775  1.00  0.00     0.049 A 
ATOM     68  H   UNL A   1      42.879  29.950  29.002  1.00  0.00     0.167 HD
ATOM     69  C   UNL A   1      45.526  30.832  28.412  1.00  0.00     0.074 A 
ATOM     70  C   UNL A   1      46.871  30.874  27.875  1.00  0.00     0.031 C 
ATOM     71  C   UNL A   1      44.996  31.786  29.220  1.00  0.00     0.034 A 
BRANCH  58  72
ATOM     72  C   UNL A   1      39.158  30.635  31.024  1.00  0.00     0.023 A 
ATOM     73  C   UNL A   1      38.214  31.504  30.447  1.00  0.00     0.031 A 
ATOM     74  C   UNL A   1      38.952  30.234  32.355  1.00  0.00     0.131 A 
ATOM     75  C   UNL A   1      37.167  32.020  31.226  1.00  0.00     0.055 A 
ATOM     76  C   UNL A   1      37.851  30.675  33.095  1.00  0.00     0.041 A 
ATOM     77  F   UNL A   1      39.828  29.425  32.970  1.00  0.00    -0.206 F 
ATOM     78  C   UNL A   1      36.962  31.589  32.538  1.00  0.00     0.022 A 
BRANCH  75  79
ATOM     79  S   UNL A   1      36.192  33.396  30.556  1.00  0.00     0.124 S 
ATOM     80  O   UNL A   1      34.987  32.705  30.097  1.00  0.00    -0.237 OA
ATOM     81  O   UNL A   1      36.028  34.262  31.717  1.00  0.00    -0.237 OA
ATOM     82  O   UNL A   1      37.038  33.929  29.491  1.00  0.00    -0.744 OA
ENDBRANCH  75  79
ENDBRANCH  58  72
BRANCH  59  83
ATOM     83  C   UNL A   1      46.921  27.316  25.584  1.00  0.00     0.023 A 
ATOM     84  C   UNL A   1      47.085  27.806  24.279  1.00  0.00     0.031 A 
ATOM     85  C   UNL A   1      47.842  26.360  26.049  1.00  0.00     0.131 A 
ATOM     86  C   UNL A   1      48.118  27.309  23.469  1.00  0.00     0.055 A 
ATOM     87  C   UNL A   1      48.903  25.911  25.260  1.00  0.00     0.041 A 
ATOM     88  F   UNL A   1      47.737  25.862  27.291  1.00  0.00    -0.206 F 
ATOM     89  C   UNL A   1      49.038  26.377  23.956  1.00  0.00     0.022 A 
BRANCH  86  90
ATOM     90  S   UNL A   1      48.198  27.839  21.736  1.00  0.00     0.124 S 
ATOM     91  O   UNL A   1      49.360  28.718  21.749  1.00  0.00    -0.237 OA
ATOM     92  O   UNL A   1      48.360  26.568  21.038  1.00  0.00    -0.237 OA
ATOM     93  O   UNL A   1      46.912  28.503  21.525  1.00  0.00    -0.744 OA
ENDBRANCH  86  90
ENDBRANCH  59  83
BRANCH  71  94
ATOM     94  C   UNL A   1      45.895  32.937  29.603  1.00  0.00     0.023 A 
ATOM     95  C   UNL A   1      45.803  34.193  28.978  1.00  0.00     0.031 A 
ATOM     96  C   UNL A   1      46.864  32.770  30.609  1.00  0.00     0.131 A 
ATOM     97  C   UNL A   1      46.702  35.213  29.321  1.00  0.00     0.055 A 
ATOM     98  C   UNL A   1      47.710  33.810  30.996  1.00  0.00     0.041 A 
ATOM     99  F   UNL A   1      47.001  31.592  31.237  1.00  0.00    -0.206 F 
ATOM    100  C   UNL A   1      47.642  35.036  30.340  1.00  0.00     0.022 A 
BRANCH  97 101
ATOM    101  S   UNL A   1      46.699  36.740  28.345  1.00  0.00     0.124 S 
ATOM    102  O   UNL A   1      46.021  37.672  29.241  1.00  0.00    -0.237 OA
ATOM    103  O   UNL A   1      48.124  36.980  28.135  1.00  0.00    -0.237 OA
ATOM    104  O   UNL A   1      45.949  36.377  27.144  1.00  0.00    -0.744 OA
ENDBRANCH  97 101
ENDBRANCH  71  94
ENDBRANCH  45  46
ENDBRANCH  37  40
ENDBRANCH  35  36
ENDBRANCH   1  35
TORSDOF 17
ENDMDL
MODEL 2
REMARK VINA RESULT:     -12.4      5.461     10.569
REMARK SMILES C[NH+]1CCC2(CC1)OC[C@H](C(=O)NCCCNC(=O)c1ccc(-c3c4nc(c(-c5cc(S(=O)(=O)[O-])ccc5F)c5ccc([nH]5)c(-c5cc(S(=O)(=O)[O-])ccc5F)c5nc(c(-c6cc(S(=O)(=O)[O-])ccc6F)c6ccc3[nH]6)C=C5)C=C4)cc1)N2C(=O)c1cc(C(F)(F)F)cc(C(F)(F)F)c1
REMARK SMILES IDX 15 1 14 2 13 3 11 4 12 5 10 7 1 8 2 9 3 10 7 11 4 13 6 14
REMARK SMILES IDX 5 15 8 16 83 17 9 18 84 19 85 20 86 21 87 22 99 23 88 24
REMARK SMILES IDX 94 25 93 26 89 27 90 28 91 29 92 30 95 31 96 32 97 33 98 34
REMARK SMILES IDX 16 35 17 36 18 37 19 39 20 40 21 41 82 42 22 43 81 44 23 45
REMARK SMILES IDX 24 46 25 47 75 48 26 49 80 50 74 51 76 52 27 53 79 54 73 55
REMARK SMILES IDX 72 56 28 58 60 59 40 60 59 61 41 62 44 63 58 64 77 65 42 66
REMARK SMILES IDX 43 67 57 69 78 70 45 71 29 72 30 73 38 74 31 75 37 76 39 77
REMARK SMILES IDX 36 78 32 79 33 80 34 81 35 82 61 83 62 84 70 85 63 86 69 87
REMARK SMILES IDX 71 88 68 89 64 90 65 91 66 92 67 93 46 94 47 95 55 96 48 97
REMARK SMILES IDX 54 98 56 99 53 100 49 101 50 102 51 103 52 104
REMARK H PARENT 13 6 2 12 17 38 76 57 44 68
REMARK Flexibility Score: inf
ROOT
ATOM      1  C   UNL A   1      31.955  30.873  26.493  1.00  0.00     0.042 C 
ENDROOT
BRANCH   1   2
ATOM      2  C   UNL A   1      31.672  29.482  27.018  1.00  0.00     0.117 C 
BRANCH   2   3
ATOM      3  N   UNL A   1      32.774  28.543  26.855  1.00  0.00    -0.354 N 
ATOM      4  C   UNL A   1      32.846  27.236  26.470  1.00  0.00     0.245 C 
ATOM      5  O   UNL A   1      33.974  26.871  26.110  1.00  0.00    -0.273 OA
ATOM      6  H   UNL A   1      33.652  28.934  27.068  1.00  0.00     0.163 HD
BRANCH   4   7
ATOM      7  C   UNL A   1      31.649  26.248  26.361  1.00  0.00     0.203 C 
ATOM      8  C   UNL A   1      33.185  23.357  20.905  1.00  0.00     0.332 C 
ATOM      9  N   UNL A   1      33.090  23.293  22.356  1.00  0.00    -0.337 N 
ATOM     10  C   UNL A   1      33.762  24.415  22.989  1.00  0.00     0.267 C 
ATOM     11  C   UNL A   1      31.756  22.941  22.838  1.00  0.00     0.267 C 
ATOM     12  H   UNL A   1      33.628  22.488  22.680  1.00  0.00     0.347 HD
ATOM     13  C   UNL A   1      32.866  25.535  23.453  1.00  0.00     0.120 C 
ATOM     14  C   UNL A   1      30.910  23.999  23.532  1.00  0.00     0.120 C 
ATOM     15  C   UNL A   1      31.665  25.084  24.289  1.00  0.00     0.155 C 
ATOM     16  O   UNL A   1      30.701  26.197  24.242  1.00  0.00    -0.352 OA
ATOM     17  N   UNL A   1      31.955  24.963  25.729  1.00  0.00    -0.295 N 
ATOM     18  C   UNL A   1      30.463  26.696  25.568  1.00  0.00     0.198 C 
BRANCH  17  19
ATOM     19  C   UNL A   1      32.327  23.919  26.566  1.00  0.00     0.256 C 
ATOM     20  O   UNL A   1      31.794  23.701  27.653  1.00  0.00    -0.269 OA
BRANCH  19  21
ATOM     21  C   UNL A   1      33.341  22.931  26.174  1.00  0.00     0.041 A 
ATOM     22  C   UNL A   1      32.944  21.649  25.771  1.00  0.00     0.027 A 
ATOM     23  C   UNL A   1      34.694  23.236  26.293  1.00  0.00     0.027 A 
ATOM     24  C   UNL A   1      33.906  20.710  25.360  1.00  0.00     0.057 A 
ATOM     25  C   UNL A   1      35.661  22.371  25.758  1.00  0.00     0.057 A 
ATOM     26  C   UNL A   1      35.258  21.099  25.316  1.00  0.00     0.026 A 
BRANCH  24  27
ATOM     27  C   UNL A   1      33.486  19.321  24.944  1.00  0.00     0.416 C 
ATOM     28  F   UNL A   1      34.550  18.502  24.719  1.00  0.00    -0.166 F 
ATOM     29  F   UNL A   1      32.723  18.700  25.885  1.00  0.00    -0.166 F 
ATOM     30  F   UNL A   1      32.751  19.299  23.796  1.00  0.00    -0.166 F 
ENDBRANCH  24  27
BRANCH  25  31
ATOM     31  C   UNL A   1      37.085  22.835  25.552  1.00  0.00     0.416 C 
ATOM     32  F   UNL A   1      37.421  22.906  24.235  1.00  0.00    -0.166 F 
ATOM     33  F   UNL A   1      37.297  24.086  26.053  1.00  0.00    -0.166 F 
ATOM     34  F   UNL A   1      38.017  22.034  26.136  1.00  0.00    -0.166 F 
ENDBRANCH  25  31
ENDBRANCH  19  21
ENDBRANCH  17  19
ENDBRANCH   4   7
ENDBRANCH   2   3
ENDBRANCH   1   2
BRANCH   1  35
ATOM     35  C   UNL A   1      33.092  31.559  27.230  1.00  0.00     0.118 C 
BRANCH  35  36
ATOM     36  N   UNL A   1      32.853  32.989  27.427  1.00  0.00    -0.352 N 
ATOM     37  C   UNL A   1      33.382  33.867  28.344  1.00  0.00     0.251 C 
ATOM     38  H   UNL A   1      32.208  33.388  26.800  1.00  0.00     0.163 HD
ATOM     39  O   UNL A   1      32.879  34.977  28.473  1.00  0.00    -0.269 OA
BRANCH  37  40
ATOM     40  C   UNL A   1      34.533  33.462  29.179  1.00  0.00     0.039 A 
ATOM     41  C   UNL A   1      34.315  32.688  30.321  1.00  0.00     0.014 A 
ATOM     42  C   UNL A   1      35.830  33.840  28.829  1.00  0.00     0.014 A 
ATOM     43  C   UNL A   1      35.408  32.225  31.056  1.00  0.00     0.010 A 
ATOM     44  C   UNL A   1      36.914  33.276  29.484  1.00  0.00     0.010 A 
ATOM     45  C   UNL A   1      36.717  32.471  30.614  1.00  0.00    -0.014 A 
BRANCH  45  46
ATOM     46  C   UNL A   1      37.900  31.922  31.324  1.00  0.00     0.031 A 
ATOM     47  C   UNL A   1      38.703  30.814  30.694  1.00  0.00     0.074 A 
ATOM     48  C   UNL A   1      38.201  32.362  32.561  1.00  0.00     0.049 A 
ATOM     49  N   UNL A   1      39.699  30.128  31.189  1.00  0.00    -0.248 NA
ATOM     50  C   UNL A   1      38.300  30.397  29.341  1.00  0.00     0.031 C 
ATOM     51  C   UNL A   1      37.461  33.392  33.295  1.00  0.00     0.029 A 
ATOM     52  N   UNL A   1      39.200  31.995  33.427  1.00  0.00    -0.354 N 
ATOM     53  C   UNL A   1      40.035  29.194  30.215  1.00  0.00     0.074 A 
ATOM     54  C   UNL A   1      39.076  29.344  29.143  1.00  0.00     0.031 C 
ATOM     55  C   UNL A   1      38.048  33.593  34.485  1.00  0.00     0.029 A 
ATOM     56  C   UNL A   1      39.170  32.670  34.624  1.00  0.00     0.049 A 
ATOM     57  H   UNL A   1      39.876  31.312  33.210  1.00  0.00     0.167 HD
ATOM     58  C   UNL A   1      41.069  28.317  30.198  1.00  0.00     0.034 A 
ATOM     59  C   UNL A   1      39.946  32.547  35.719  1.00  0.00     0.034 A 
ATOM     60  C   UNL A   1      42.017  28.187  31.279  1.00  0.00     0.049 A 
ATOM     61  C   UNL A   1      41.072  31.545  35.697  1.00  0.00     0.074 A 
ATOM     62  C   UNL A   1      43.125  27.365  31.360  1.00  0.00     0.029 A 
ATOM     63  N   UNL A   1      41.961  28.896  32.474  1.00  0.00    -0.354 N 
ATOM     64  N   UNL A   1      41.410  30.703  34.747  1.00  0.00    -0.248 NA
ATOM     65  C   UNL A   1      41.929  31.487  36.886  1.00  0.00     0.031 C 
ATOM     66  C   UNL A   1      43.693  27.520  32.629  1.00  0.00     0.029 A 
ATOM     67  C   UNL A   1      42.996  28.505  33.310  1.00  0.00     0.049 A 
ATOM     68  H   UNL A   1      41.284  29.576  32.695  1.00  0.00     0.167 HD
ATOM     69  C   UNL A   1      42.536  30.033  35.216  1.00  0.00     0.074 A 
ATOM     70  C   UNL A   1      42.829  30.585  36.523  1.00  0.00     0.031 C 
ATOM     71  C   UNL A   1      43.266  29.056  34.618  1.00  0.00     0.034 A 
BRANCH  58  72
ATOM     72  C   UNL A   1      41.205  27.430  28.982  1.00  0.00     0.023 A 
ATOM     73  C   UNL A   1      42.205  27.652  28.018  1.00  0.00     0.031 A 
ATOM     74  C   UNL A   1      40.297  26.381  28.753  1.00  0.00     0.131 A 
ATOM     75  C   UNL A   1      42.212  26.908  26.829  1.00  0.00     0.055 A 
ATOM     76  C   UNL A   1      40.371  25.579  27.611  1.00  0.00     0.041 A 
ATOM     77  F   UNL A   1      39.305  26.132  29.623  1.00  0.00    -0.206 F 
ATOM     78  C   UNL A   1      41.320  25.852  26.631  1.00  0.00     0.022 A 
BRANCH  75  79
ATOM     79  S   UNL A   1      43.286  27.459  25.474  1.00  0.00     0.124 S 
ATOM     80  O   UNL A   1      44.216  28.341  26.177  1.00  0.00    -0.237 OA
ATOM     81  O   UNL A   1      43.843  26.205  24.982  1.00  0.00    -0.237 OA
ATOM     82  O   UNL A   1      42.366  28.137  24.562  1.00  0.00    -0.744 OA
ENDBRANCH  75  79
ENDBRANCH  58  72
BRANCH  59  83
ATOM     83  C   UNL A   1      39.678  33.380  36.927  1.00  0.00     0.023 A 
ATOM     84  C   UNL A   1      38.959  32.871  38.020  1.00  0.00     0.031 A 
ATOM     85  C   UNL A   1      40.122  34.713  36.996  1.00  0.00     0.131 A 
ATOM     86  C   UNL A   1      38.669  33.699  39.115  1.00  0.00     0.055 A 
ATOM     87  C   UNL A   1      39.880  35.517  38.112  1.00  0.00     0.041 A 
ATOM     88  F   UNL A   1      40.818  35.250  35.982  1.00  0.00    -0.206 F 
ATOM     89  C   UNL A   1      39.138  35.013  39.175  1.00  0.00     0.022 A 
BRANCH  86  90
ATOM     90  S   UNL A   1      37.596  33.059  40.431  1.00  0.00     0.124 S 
ATOM     91  O   UNL A   1      38.358  31.908  40.899  1.00  0.00    -0.237 OA
ATOM     92  O   UNL A   1      37.523  34.197  41.341  1.00  0.00    -0.237 OA
ATOM     93  O   UNL A   1      36.352  32.745  39.731  1.00  0.00    -0.744 OA
ENDBRANCH  86  90
ENDBRANCH  59  83
BRANCH  71  94
ATOM     94  C   UNL A   1      44.479  28.552  35.363  1.00  0.00     0.023 A 
ATOM     95  C   UNL A   1      44.384  27.556  36.351  1.00  0.00     0.031 A 
ATOM     96  C   UNL A   1      45.751  29.084  35.081  1.00  0.00     0.131 A 
ATOM     97  C   UNL A   1      45.528  27.167  37.063  1.00  0.00     0.055 A 
ATOM     98  C   UNL A   1      46.896  28.642  35.744  1.00  0.00     0.041 A 
ATOM     99  F   UNL A   1      45.901  30.040  34.152  1.00  0.00    -0.206 F 
ATOM    100  C   UNL A   1      46.786  27.689  36.751  1.00  0.00     0.022 A 
BRANCH  97 101
ATOM    101  S   UNL A   1      45.334  26.046  38.475  1.00  0.00     0.124 S 
ATOM    102  O   UNL A   1      44.251  26.681  39.219  1.00  0.00    -0.237 OA
ATOM    103  O   UNL A   1      45.006  24.781  37.827  1.00  0.00    -0.237 OA
ATOM    104  O   UNL A   1      46.642  26.088  39.127  1.00  0.00    -0.744 OA
ENDBRANCH  97 101
ENDBRANCH  71  94
ENDBRANCH  45  46
ENDBRANCH  37  40
ENDBRANCH  35  36
ENDBRANCH   1  35
TORSDOF 17
ENDMDL
MODEL 3
REMARK VINA RESULT:     -12.3      5.540     10.623
REMARK SMILES C[NH+]1CCC2(CC1)OC[C@H](C(=O)NCCCNC(=O)c1ccc(-c3c4nc(c(-c5cc(S(=O)(=O)[O-])ccc5F)c5ccc([nH]5)c(-c5cc(S(=O)(=O)[O-])ccc5F)c5nc(c(-c6cc(S(=O)(=O)[O-])ccc6F)c6ccc3[nH]6)C=C5)C=C4)cc1)N2C(=O)c1cc(C(F)(F)F)cc(C(F)(F)F)c1
REMARK SMILES IDX 15 1 14 2 13 3 11 4 12 5 10 7 1 8 2 9 3 10 7 11 4 13 6 14
REMARK SMILES IDX 5 15 8 16 83 17 9 18 84 19 85 20 86 21 87 22 99 23 88 24
REMARK SMILES IDX 94 25 93 26 89 27 90 28 91 29 92 30 95 31 96 32 97 33 98 34
REMARK SMILES IDX 16 35 17 36 18 37 19 39 20 40 21 41 82 42 22 43 81 44 23 45
REMARK SMILES IDX 24 46 25 47 75 48 26 49 80 50 74 51 76 52 27 53 79 54 73 55
REMARK SMILES IDX 72 56 28 58 60 59 40 60 59 61 41 62 44 63 58 64 77 65 42 66
REMARK SMILES IDX 43 67 57 69 78 70 45 71 29 72 30 73 38 74 31 75 37 76 39 77
REMARK SMILES IDX 36 78 32 79 33 80 34 81 35 82 61 83 62 84 70 85 63 86 69 87
REMARK SMILES IDX 71 88 68 89 64 90 65 91 66 92 67 93 46 94 47 95 55 96 48 97
REMARK SMILES IDX 54 98 56 99 53 100 49 101 50 102 51 103 52 104
REMARK H PARENT 13 6 2 12 17 38 76 57 44 68
REMARK Flexibility Score: inf
ROOT
ATOM      1  C   UNL A   1      31.720  31.754  26.573  1.00  0.00     0.042 C 
ENDROOT
BRANCH   1   2
ATOM      2  C   UNL A   1      31.984  30.304  26.231  1.00  0.00     0.117 C 
BRANCH   2   3
ATOM      3  N   UNL A   1      32.302  30.067  24.829  1.00  0.00    -0.354 N 
ATOM      4  C   UNL A   1      32.920  29.047  24.165  1.00  0.00     0.245 C 
ATOM      5  O   UNL A   1      32.700  29.024  22.945  1.00  0.00    -0.273 OA
ATOM      6  H   UNL A   1      32.009  30.796  24.235  1.00  0.00     0.163 HD
BRANCH   4   7
ATOM      7  C   UNL A   1      33.759  27.910  24.814  1.00  0.00     0.203 C 
ATOM      8  C   UNL A   1      29.031  24.224  26.948  1.00  0.00     0.332 C 
ATOM      9  N   UNL A   1      30.094  24.436  25.976  1.00  0.00    -0.337 N 
ATOM     10  C   UNL A   1      29.990  25.740  25.341  1.00  0.00     0.267 C 
ATOM     11  C   UNL A   1      31.410  24.016  26.450  1.00  0.00     0.267 C 
ATOM     12  H   UNL A   1      29.955  23.789  25.199  1.00  0.00     0.347 HD
ATOM     13  C   UNL A   1      30.915  26.802  25.877  1.00  0.00     0.120 C 
ATOM     14  C   UNL A   1      32.459  25.069  26.776  1.00  0.00     0.120 C 
ATOM     15  C   UNL A   1      32.381  26.372  25.990  1.00  0.00     0.155 C 
ATOM     16  O   UNL A   1      33.007  27.318  26.930  1.00  0.00    -0.352 OA
ATOM     17  N   UNL A   1      33.157  26.577  24.754  1.00  0.00    -0.295 N 
ATOM     18  C   UNL A   1      34.065  28.034  26.272  1.00  0.00     0.198 C 
BRANCH  17  19
ATOM     19  C   UNL A   1      33.499  25.776  23.672  1.00  0.00     0.256 C 
ATOM     20  O   UNL A   1      33.523  26.183  22.511  1.00  0.00    -0.269 OA
BRANCH  19  21
ATOM     21  C   UNL A   1      33.946  24.387  23.842  1.00  0.00     0.041 A 
ATOM     22  C   UNL A   1      35.224  24.125  24.353  1.00  0.00     0.027 A 
ATOM     23  C   UNL A   1      33.141  23.338  23.409  1.00  0.00     0.027 A 
ATOM     24  C   UNL A   1      35.645  22.799  24.553  1.00  0.00     0.057 A 
ATOM     25  C   UNL A   1      33.478  22.013  23.725  1.00  0.00     0.057 A 
ATOM     26  C   UNL A   1      34.745  21.752  24.276  1.00  0.00     0.026 A 
BRANCH  24  27
ATOM     27  C   UNL A   1      37.028  22.509  25.084  1.00  0.00     0.416 C 
ATOM     28  F   UNL A   1      37.747  23.643  25.307  1.00  0.00    -0.166 F 
ATOM     29  F   UNL A   1      37.004  21.838  26.268  1.00  0.00    -0.166 F 
ATOM     30  F   UNL A   1      37.783  21.749  24.242  1.00  0.00    -0.166 F 
ENDBRANCH  24  27
BRANCH  25  31
ATOM     31  C   UNL A   1      32.462  20.902  23.589  1.00  0.00     0.416 C 
ATOM     32  F   UNL A   1      33.036  19.709  23.275  1.00  0.00    -0.166 F 
ATOM     33  F   UNL A   1      31.777  20.685  24.749  1.00  0.00    -0.166 F 
ATOM     34  F   UNL A   1      31.519  21.130  22.634  1.00  0.00    -0.166 F 
ENDBRANCH  25  31
ENDBRANCH  19  21
ENDBRANCH  17  19
ENDBRANCH   4   7
ENDBRANCH   2   3
ENDBRANCH   1   2
BRANCH   1  35
ATOM     35  C   UNL A   1      32.873  32.403  27.318  1.00  0.00     0.118 C 
BRANCH  35  36
ATOM     36  N   UNL A   1      32.646  33.824  27.581  1.00  0.00    -0.352 N 
ATOM     37  C   UNL A   1      33.170  34.651  28.546  1.00  0.00     0.251 C 
ATOM     38  H   UNL A   1      32.014  34.260  26.965  1.00  0.00     0.163 HD
ATOM     39  O   UNL A   1      32.675  35.758  28.722  1.00  0.00    -0.269 OA
BRANCH  37  40
ATOM     40  C   UNL A   1      34.304  34.194  29.378  1.00  0.00     0.039 A 
ATOM     41  C   UNL A   1      34.055  33.431  30.520  1.00  0.00     0.014 A 
ATOM     42  C   UNL A   1      35.615  34.512  29.023  1.00  0.00     0.014 A 
ATOM     43  C   UNL A   1      35.128  32.918  31.252  1.00  0.00     0.010 A 
ATOM     44  C   UNL A   1      36.675  33.899  29.673  1.00  0.00     0.010 A 
ATOM     45  C   UNL A   1      36.446  33.104  30.805  1.00  0.00    -0.014 A 
BRANCH  45  46
ATOM     46  C   UNL A   1      37.604  32.501  31.510  1.00  0.00     0.031 A 
ATOM     47  C   UNL A   1      38.334  31.337  30.893  1.00  0.00     0.074 A 
ATOM     48  C   UNL A   1      37.947  32.947  32.735  1.00  0.00     0.049 A 
ATOM     49  N   UNL A   1      39.296  30.604  31.388  1.00  0.00    -0.248 NA
ATOM     50  C   UNL A   1      37.890  30.918  29.553  1.00  0.00     0.031 C 
ATOM     51  C   UNL A   1      37.278  34.031  33.457  1.00  0.00     0.029 A 
ATOM     52  N   UNL A   1      38.936  32.539  33.595  1.00  0.00    -0.354 N 
ATOM     53  C   UNL A   1      39.564  29.634  30.429  1.00  0.00     0.074 A 
ATOM     54  C   UNL A   1      38.601  29.819  29.366  1.00  0.00     0.031 C 
ATOM     55  C   UNL A   1      37.891  34.220  34.636  1.00  0.00     0.029 A 
ATOM     56  C   UNL A   1      38.961  33.237  34.779  1.00  0.00     0.049 A 
ATOM     57  H   UNL A   1      39.568  31.814  33.383  1.00  0.00     0.167 HD
ATOM     58  C   UNL A   1      40.547  28.700  30.416  1.00  0.00     0.034 A 
ATOM     59  C   UNL A   1      39.743  33.091  35.866  1.00  0.00     0.034 A 
ATOM     60  C   UNL A   1      41.500  28.536  31.487  1.00  0.00     0.049 A 
ATOM     61  C   UNL A   1      40.810  32.026  35.850  1.00  0.00     0.074 A 
ATOM     62  C   UNL A   1      42.561  27.653  31.570  1.00  0.00     0.029 A 
ATOM     63  N   UNL A   1      41.501  29.269  32.669  1.00  0.00    -0.354 N 
ATOM     64  N   UNL A   1      41.085  31.147  34.913  1.00  0.00    -0.248 NA
ATOM     65  C   UNL A   1      41.678  31.940  37.029  1.00  0.00     0.031 C 
ATOM     66  C   UNL A   1      43.154  27.799  32.829  1.00  0.00     0.029 A 
ATOM     67  C   UNL A   1      42.523  28.835  33.499  1.00  0.00     0.049 A 
ATOM     68  H   UNL A   1      40.867  29.991  32.885  1.00  0.00     0.167 HD
ATOM     69  C   UNL A   1      42.178  30.423  35.380  1.00  0.00     0.074 A 
ATOM     70  C   UNL A   1      42.520  30.981  36.672  1.00  0.00     0.031 C 
ATOM     71  C   UNL A   1      42.842  29.394  34.793  1.00  0.00     0.034 A 
BRANCH  58  72
ATOM     72  C   UNL A   1      40.614  27.783  29.216  1.00  0.00     0.023 A 
ATOM     73  C   UNL A   1      41.556  27.983  28.190  1.00  0.00     0.031 A 
ATOM     74  C   UNL A   1      39.698  26.728  29.065  1.00  0.00     0.131 A 
ATOM     75  C   UNL A   1      41.497  27.210  27.021  1.00  0.00     0.055 A 
ATOM     76  C   UNL A   1      39.709  25.897  27.941  1.00  0.00     0.041 A 
ATOM     77  F   UNL A   1      38.760  26.497  29.997  1.00  0.00    -0.206 F 
ATOM     78  C   UNL A   1      40.599  26.149  26.901  1.00  0.00     0.022 A 
BRANCH  75  79
ATOM     79  S   UNL A   1      42.489  27.731  25.593  1.00  0.00     0.124 S 
ATOM     80  O   UNL A   1      43.821  27.842  26.185  1.00  0.00    -0.237 OA
ATOM     81  O   UNL A   1      42.296  26.629  24.657  1.00  0.00    -0.237 OA
ATOM     82  O   UNL A   1      41.882  29.001  25.200  1.00  0.00    -0.744 OA
ENDBRANCH  75  79
ENDBRANCH  58  72
BRANCH  59  83
ATOM     83  C   UNL A   1      39.539  33.961  37.061  1.00  0.00     0.023 A 
ATOM     84  C   UNL A   1      38.923  33.471  38.224  1.00  0.00     0.031 A 
ATOM     85  C   UNL A   1      39.942  35.308  37.047  1.00  0.00     0.131 A 
ATOM     86  C   UNL A   1      38.690  34.331  39.308  1.00  0.00     0.055 A 
ATOM     87  C   UNL A   1      39.759  36.146  38.149  1.00  0.00     0.041 A 
ATOM     88  F   UNL A   1      40.541  35.828  35.964  1.00  0.00    -0.206 F 
ATOM     89  C   UNL A   1      39.118  35.661  39.284  1.00  0.00     0.022 A 
BRANCH  86  90
ATOM     90  S   UNL A   1      37.743  33.709  40.724  1.00  0.00     0.124 S 
ATOM     91  O   UNL A   1      38.698  32.797  41.341  1.00  0.00    -0.237 OA
ATOM     92  O   UNL A   1      37.458  34.937  41.460  1.00  0.00    -0.237 OA
ATOM     93  O   UNL A   1      36.581  33.074  40.103  1.00  0.00    -0.744 OA
ENDBRANCH  86  90
ENDBRANCH  59  83
BRANCH  71  94
ATOM     94  C   UNL A   1      44.035  28.836  35.532  1.00  0.00     0.023 A 
ATOM     95  C   UNL A   1      43.926  27.725  36.388  1.00  0.00     0.031 A 
ATOM     96  C   UNL A   1      45.300  29.431  35.380  1.00  0.00     0.131 A 
ATOM     97  C   UNL A   1      45.047  27.282  37.104  1.00  0.00     0.055 A 
ATOM     98  C   UNL A   1      46.427  28.942  36.042  1.00  0.00     0.041 A 
ATOM     99  F   UNL A   1      45.463  30.496  34.581  1.00  0.00    -0.206 F 
ATOM    100  C   UNL A   1      46.301  27.871  36.921  1.00  0.00     0.022 A 
BRANCH  97 101
ATOM    101  S   UNL A   1      44.823  25.994  38.360  1.00  0.00     0.124 S 
ATOM    102  O   UNL A   1      44.074  24.981  37.625  1.00  0.00    -0.237 OA
ATOM    103  O   UNL A   1      46.199  25.648  38.702  1.00  0.00    -0.237 OA
ATOM    104  O   UNL A   1      44.074  26.673  39.417  1.00  0.00    -0.744 OA
ENDBRANCH  97 101
ENDBRANCH  71  94
ENDBRANCH  45  46
ENDBRANCH  37  40
ENDBRANCH  35  36
ENDBRANCH   1  35
TORSDOF 17
ENDMDL
