MODEL 1
REMARK VINA RESULT:     -12.8      0.000      0.000
REMARK SMILES COc1ccc(S(=O)(=O)N2CCCC[C@@H]2C(=O)NCCCNC(=O)c2ccc(-c3c4nc(c(-c5cc(S(=O)(=O)[O-])ccc5F)c5ccc([nH]5)c(-c5cc(S(=O)(=O)[O-])ccc5F)c5nc(c(-c6cc(S(=O)(=O)[O-])ccc6F)c6ccc3[nH]6)C=C5)C=C4)cc2)cc1C
REMARK SMILES IDX 20 1 19 2 18 3 16 4 17 5 15 7 10 8 11 9 12 10 14 11 13 12
REMARK SMILES IDX 7 13 8 14 9 15 6 16 3 17 4 18 89 19 5 20 88 21 90 22 2 23
REMARK SMILES IDX 1 24 21 25 22 26 23 27 24 29 25 30 26 31 87 32 27 33 86 34
REMARK SMILES IDX 28 35 29 36 30 37 80 38 31 39 85 40 79 41 81 42 32 43 84 44
REMARK SMILES IDX 78 45 77 46 33 48 65 49 45 50 64 51 46 52 49 53 63 54 82 55
REMARK SMILES IDX 47 56 48 57 62 59 83 60 50 61 34 62 35 63 43 64 36 65 42 66
REMARK SMILES IDX 44 67 41 68 37 69 38 70 39 71 40 72 66 73 67 74 75 75 68 76
REMARK SMILES IDX 74 77 76 78 73 79 69 80 70 81 71 82 72 83 51 84 52 85 60 86
REMARK SMILES IDX 53 87 59 88 61 89 58 90 54 91 55 92 56 93 57 94
REMARK H PARENT 18 6 22 28 81 47 49 58
REMARK Flexibility Score: inf
ROOT
ATOM      1  C   UNL A   1      33.487  31.339  27.635  1.00  0.00     0.042 C 
ENDROOT
BRANCH   1   2
ATOM      2  C   UNL A   1      32.527  30.442  26.874  1.00  0.00     0.117 C 
BRANCH   2   3
ATOM      3  N   UNL A   1      33.189  29.809  25.745  1.00  0.00    -0.355 N 
ATOM      4  C   UNL A   1      32.687  28.952  24.809  1.00  0.00     0.238 C 
ATOM      5  O   UNL A   1      33.447  28.368  24.031  1.00  0.00    -0.273 OA
ATOM      6  H   UNL A   1      34.142  30.033  25.640  1.00  0.00     0.163 HD
BRANCH   4   7
ATOM      7  C   UNL A   1      31.179  28.658  24.757  1.00  0.00     0.162 C 
ATOM      8  N   UNL A   1      30.864  27.191  24.775  1.00  0.00    -0.185 NA
ATOM      9  C   UNL A   1      29.619  26.685  24.161  1.00  0.00     0.103 C 
ATOM     10  C   UNL A   1      29.188  27.475  22.940  1.00  0.00     0.017 C 
ATOM     11  C   UNL A   1      30.540  29.428  23.596  1.00  0.00     0.030 C 
ATOM     12  C   UNL A   1      29.141  28.957  23.249  1.00  0.00     0.004 C 
BRANCH   8  13
ATOM     13  S   UNL A   1      31.429  26.272  26.115  1.00  0.00     0.243 S 
ATOM     14  O   UNL A   1      30.358  25.419  26.598  1.00  0.00    -0.207 OA
ATOM     15  O   UNL A   1      32.153  27.158  26.984  1.00  0.00    -0.207 OA
BRANCH  13  16
ATOM     16  C   UNL A   1      32.654  25.143  25.467  1.00  0.00     0.083 A 
ATOM     17  C   UNL A   1      34.631  23.354  24.617  1.00  0.00     0.121 A 
ATOM     18  C   UNL A   1      34.974  24.502  25.345  1.00  0.00     0.048 A 
ATOM     19  C   UNL A   1      33.285  23.075  24.341  1.00  0.00    -0.008 A 
ATOM     20  C   UNL A   1      33.990  25.393  25.778  1.00  0.00     0.025 A 
ATOM     21  C   UNL A   1      32.314  24.007  24.735  1.00  0.00     0.029 A 
ATOM     22  C   UNL A   1      32.798  21.815  23.688  1.00  0.00     0.048 C 
BRANCH  17  23
ATOM     23  O   UNL A   1      35.681  22.527  24.320  1.00  0.00    -0.496 OA
ATOM     24  C   UNL A   1      36.503  22.974  23.249  1.00  0.00     0.278 C 
ENDBRANCH  17  23
ENDBRANCH  13  16
ENDBRANCH   8  13
ENDBRANCH   4   7
ENDBRANCH   2   3
ENDBRANCH   1   2
BRANCH   1  25
ATOM     25  C   UNL A   1      34.946  30.985  27.412  1.00  0.00     0.118 C 
BRANCH  25  26
ATOM     26  N   UNL A   1      35.849  31.721  28.296  1.00  0.00    -0.352 N 
ATOM     27  C   UNL A   1      36.919  31.274  29.052  1.00  0.00     0.251 C 
ATOM     28  H   UNL A   1      35.669  32.687  28.363  1.00  0.00     0.163 HD
ATOM     29  O   UNL A   1      37.524  32.003  29.834  1.00  0.00    -0.269 OA
BRANCH  27  30
ATOM     30  C   UNL A   1      37.471  29.935  28.755  1.00  0.00     0.039 A 
ATOM     31  C   UNL A   1      37.526  29.057  29.846  1.00  0.00     0.014 A 
ATOM     32  C   UNL A   1      38.295  29.765  27.651  1.00  0.00     0.014 A 
ATOM     33  C   UNL A   1      38.632  28.239  29.987  1.00  0.00     0.010 A 
ATOM     34  C   UNL A   1      39.466  29.081  27.859  1.00  0.00     0.010 A 
ATOM     35  C   UNL A   1      39.653  28.386  29.059  1.00  0.00    -0.014 A 
BRANCH  35  36
ATOM     36  C   UNL A   1      40.975  27.830  29.227  1.00  0.00     0.031 A 
ATOM     37  C   UNL A   1      41.164  26.444  28.790  1.00  0.00     0.074 A 
ATOM     38  C   UNL A   1      41.978  28.637  29.632  1.00  0.00     0.049 A 
ATOM     39  N   UNL A   1      42.138  25.694  29.148  1.00  0.00    -0.248 NA
ATOM     40  C   UNL A   1      40.193  25.759  27.941  1.00  0.00     0.031 C 
ATOM     41  C   UNL A   1      43.414  28.389  29.600  1.00  0.00     0.029 A 
ATOM     42  N   UNL A   1      41.842  29.789  30.409  1.00  0.00    -0.354 N 
ATOM     43  C   UNL A   1      42.107  24.573  28.348  1.00  0.00     0.074 A 
ATOM     44  C   UNL A   1      40.822  24.607  27.704  1.00  0.00     0.031 C 
ATOM     45  C   UNL A   1      44.006  29.163  30.528  1.00  0.00     0.029 A 
ATOM     46  C   UNL A   1      42.942  29.795  31.291  1.00  0.00     0.049 A 
ATOM     47  H   UNL A   1      41.124  30.460  30.353  1.00  0.00     0.167 HD
ATOM     48  C   UNL A   1      43.253  23.852  28.224  1.00  0.00     0.034 A 
ATOM     49  C   UNL A   1      42.728  29.618  32.628  1.00  0.00     0.034 A 
ATOM     50  C   UNL A   1      44.268  24.369  29.151  1.00  0.00     0.049 A 
ATOM     51  C   UNL A   1      43.345  28.340  33.157  1.00  0.00     0.074 A 
ATOM     52  C   UNL A   1      45.342  25.231  29.003  1.00  0.00     0.029 A 
ATOM     53  N   UNL A   1      44.009  24.306  30.513  1.00  0.00    -0.354 N 
ATOM     54  N   UNL A   1      43.731  27.331  32.421  1.00  0.00    -0.248 NA
ATOM     55  C   UNL A   1      43.575  28.113  34.573  1.00  0.00     0.031 C 
ATOM     56  C   UNL A   1      45.691  25.719  30.298  1.00  0.00     0.029 A 
ATOM     57  C   UNL A   1      44.861  25.121  31.231  1.00  0.00     0.049 A 
ATOM     58  H   UNL A   1      43.306  23.748  30.917  1.00  0.00     0.167 HD
ATOM     59  C   UNL A   1      44.259  26.339  33.214  1.00  0.00     0.074 A 
ATOM     60  C   UNL A   1      44.117  26.883  34.559  1.00  0.00     0.031 C 
ATOM     61  C   UNL A   1      44.752  25.166  32.689  1.00  0.00     0.034 A 
BRANCH  48  62
ATOM     62  C   UNL A   1      43.563  22.883  27.105  1.00  0.00     0.023 A 
ATOM     63  C   UNL A   1      42.903  21.636  27.112  1.00  0.00     0.031 A 
ATOM     64  C   UNL A   1      44.496  23.055  26.062  1.00  0.00     0.131 A 
ATOM     65  C   UNL A   1      43.221  20.624  26.188  1.00  0.00     0.055 A 
ATOM     66  C   UNL A   1      44.835  22.039  25.157  1.00  0.00     0.041 A 
ATOM     67  F   UNL A   1      45.103  24.221  25.825  1.00  0.00    -0.206 F 
ATOM     68  C   UNL A   1      44.201  20.811  25.220  1.00  0.00     0.022 A 
BRANCH  65  69
ATOM     69  S   UNL A   1      42.331  19.049  26.279  1.00  0.00     0.124 S 
ATOM     70  O   UNL A   1      42.385  18.748  27.705  1.00  0.00    -0.237 OA
ATOM     71  O   UNL A   1      41.023  19.401  25.740  1.00  0.00    -0.237 OA
ATOM     72  O   UNL A   1      43.127  18.163  25.431  1.00  0.00    -0.744 OA
ENDBRANCH  65  69
ENDBRANCH  48  62
BRANCH  49  73
ATOM     73  C   UNL A   1      41.455  30.262  33.092  1.00  0.00     0.023 A 
ATOM     74  C   UNL A   1      41.426  31.674  33.049  1.00  0.00     0.031 A 
ATOM     75  C   UNL A   1      40.226  29.590  33.079  1.00  0.00     0.131 A 
ATOM     76  C   UNL A   1      40.236  32.344  32.729  1.00  0.00     0.055 A 
ATOM     77  C   UNL A   1      39.021  30.283  32.882  1.00  0.00     0.041 A 
ATOM     78  F   UNL A   1      40.178  28.250  33.107  1.00  0.00    -0.206 F 
ATOM     79  C   UNL A   1      39.028  31.658  32.636  1.00  0.00     0.022 A 
BRANCH  76  80
ATOM     80  S   UNL A   1      40.383  34.028  32.066  1.00  0.00     0.124 S 
ATOM     81  O   UNL A   1      38.996  34.473  32.044  1.00  0.00    -0.237 OA
ATOM     82  O   UNL A   1      41.258  34.658  33.053  1.00  0.00    -0.237 OA
ATOM     83  O   UNL A   1      41.010  33.849  30.755  1.00  0.00    -0.744 OA
ENDBRANCH  76  80
ENDBRANCH  49  73
BRANCH  61  84
ATOM     84  C   UNL A   1      45.176  23.923  33.471  1.00  0.00     0.023 A 
ATOM     85  C   UNL A   1      46.478  23.710  33.929  1.00  0.00     0.031 A 
ATOM     86  C   UNL A   1      44.262  22.886  33.805  1.00  0.00     0.131 A 
ATOM     87  C   UNL A   1      46.817  22.604  34.732  1.00  0.00     0.055 A 
ATOM     88  C   UNL A   1      44.598  21.777  34.589  1.00  0.00     0.041 A 
ATOM     89  F   UNL A   1      42.986  22.888  33.399  1.00  0.00    -0.206 F 
ATOM     90  C   UNL A   1      45.883  21.636  35.075  1.00  0.00     0.022 A 
BRANCH  87  91
ATOM     91  S   UNL A   1      48.527  22.481  35.309  1.00  0.00     0.124 S 
ATOM     92  O   UNL A   1      48.378  21.742  36.559  1.00  0.00    -0.237 OA
ATOM     93  O   UNL A   1      49.162  21.750  34.216  1.00  0.00    -0.237 OA
ATOM     94  O   UNL A   1      48.944  23.873  35.454  1.00  0.00    -0.744 OA
ENDBRANCH  87  91
ENDBRANCH  61  84
ENDBRANCH  35  36
ENDBRANCH  27  30
ENDBRANCH  25  26
ENDBRANCH   1  25
TORSDOF 16
ENDMDL
MODEL 2
REMARK VINA RESULT:     -12.5      4.276     10.668
REMARK SMILES COc1ccc(S(=O)(=O)N2CCCC[C@@H]2C(=O)NCCCNC(=O)c2ccc(-c3c4nc(c(-c5cc(S(=O)(=O)[O-])ccc5F)c5ccc([nH]5)c(-c5cc(S(=O)(=O)[O-])ccc5F)c5nc(c(-c6cc(S(=O)(=O)[O-])ccc6F)c6ccc3[nH]6)C=C5)C=C4)cc2)cc1C
REMARK SMILES IDX 20 1 19 2 18 3 16 4 17 5 15 7 10 8 11 9 12 10 14 11 13 12
REMARK SMILES IDX 7 13 8 14 9 15 6 16 3 17 4 18 89 19 5 20 88 21 90 22 2 23
REMARK SMILES IDX 1 24 21 25 22 26 23 27 24 29 25 30 26 31 87 32 27 33 86 34
REMARK SMILES IDX 28 35 29 36 30 37 80 38 31 39 85 40 79 41 81 42 32 43 84 44
REMARK SMILES IDX 78 45 77 46 33 48 65 49 45 50 64 51 46 52 49 53 63 54 82 55
REMARK SMILES IDX 47 56 48 57 62 59 83 60 50 61 34 62 35 63 43 64 36 65 42 66
REMARK SMILES IDX 44 67 41 68 37 69 38 70 39 71 40 72 66 73 67 74 75 75 68 76
REMARK SMILES IDX 74 77 76 78 73 79 69 80 70 81 71 82 72 83 51 84 52 85 60 86
REMARK SMILES IDX 53 87 59 88 61 89 58 90 54 91 55 92 56 93 57 94
REMARK H PARENT 18 6 22 28 81 47 49 58
REMARK Flexibility Score: inf
ROOT
ATOM      1  C   UNL A   1      38.897  21.587  25.702  1.00  0.00     0.042 C 
ENDROOT
BRANCH   1   2
ATOM      2  C   UNL A   1      37.516  21.305  25.139  1.00  0.00     0.117 C 
BRANCH   2   3
ATOM      3  N   UNL A   1      36.498  21.424  26.171  1.00  0.00    -0.355 N 
ATOM      4  C   UNL A   1      35.139  21.423  26.058  1.00  0.00     0.238 C 
ATOM      5  O   UNL A   1      34.435  21.725  27.027  1.00  0.00    -0.273 OA
ATOM      6  H   UNL A   1      36.842  21.519  27.089  1.00  0.00     0.163 HD
BRANCH   4   7
ATOM      7  C   UNL A   1      34.474  21.112  24.708  1.00  0.00     0.162 C 
ATOM      8  N   UNL A   1      33.742  22.286  24.127  1.00  0.00    -0.185 NA
ATOM      9  C   UNL A   1      32.599  22.079  23.213  1.00  0.00     0.103 C 
ATOM     10  C   UNL A   1      31.783  20.844  23.544  1.00  0.00     0.017 C 
ATOM     11  C   UNL A   1      33.631  19.837  24.826  1.00  0.00     0.030 C 
ATOM     12  C   UNL A   1      32.676  19.627  23.667  1.00  0.00     0.004 C 
BRANCH   8  13
ATOM     13  S   UNL A   1      34.644  23.720  23.833  1.00  0.00     0.243 S 
ATOM     14  O   UNL A   1      35.458  23.542  22.643  1.00  0.00    -0.207 OA
ATOM     15  O   UNL A   1      35.204  24.153  25.083  1.00  0.00    -0.207 OA
BRANCH  13  16
ATOM     16  C   UNL A   1      33.455  24.978  23.388  1.00  0.00     0.083 A 
ATOM     17  C   UNL A   1      31.516  26.829  22.586  1.00  0.00     0.121 A 
ATOM     18  C   UNL A   1      32.328  26.191  21.638  1.00  0.00     0.048 A 
ATOM     19  C   UNL A   1      31.647  26.515  23.946  1.00  0.00    -0.008 A 
ATOM     20  C   UNL A   1      33.291  25.260  22.033  1.00  0.00     0.025 A 
ATOM     21  C   UNL A   1      32.655  25.620  24.332  1.00  0.00     0.029 A 
ATOM     22  C   UNL A   1      30.746  27.038  25.026  1.00  0.00     0.048 C 
BRANCH  17  23
ATOM     23  O   UNL A   1      30.563  27.660  22.060  1.00  0.00    -0.496 OA
ATOM     24  C   UNL A   1      30.846  29.047  22.196  1.00  0.00     0.278 C 
ENDBRANCH  17  23
ENDBRANCH  13  16
ENDBRANCH   8  13
ENDBRANCH   4   7
ENDBRANCH   2   3
ENDBRANCH   1   2
BRANCH   1  25
ATOM     25  C   UNL A   1      38.988  22.912  26.438  1.00  0.00     0.118 C 
BRANCH  25  26
ATOM     26  N   UNL A   1      40.287  23.116  27.079  1.00  0.00    -0.352 N 
ATOM     27  C   UNL A   1      40.909  24.286  27.481  1.00  0.00     0.251 C 
ATOM     28  H   UNL A   1      40.799  22.294  27.252  1.00  0.00     0.163 HD
ATOM     29  O   UNL A   1      42.057  24.305  27.915  1.00  0.00    -0.269 OA
BRANCH  27  30
ATOM     30  C   UNL A   1      40.090  25.513  27.579  1.00  0.00     0.039 A 
ATOM     31  C   UNL A   1      40.479  26.558  26.730  1.00  0.00     0.014 A 
ATOM     32  C   UNL A   1      39.358  25.756  28.732  1.00  0.00     0.014 A 
ATOM     33  C   UNL A   1      40.445  27.854  27.211  1.00  0.00     0.010 A 
ATOM     34  C   UNL A   1      39.470  27.011  29.277  1.00  0.00     0.010 A 
ATOM     35  C   UNL A   1      40.081  28.029  28.538  1.00  0.00    -0.014 A 
BRANCH  35  36
ATOM     36  C   UNL A   1      40.274  29.262  29.266  1.00  0.00     0.031 A 
ATOM     37  C   UNL A   1      39.191  30.245  29.190  1.00  0.00     0.074 A 
ATOM     38  C   UNL A   1      41.348  29.383  30.073  1.00  0.00     0.049 A 
ATOM     39  N   UNL A   1      39.310  31.485  29.483  1.00  0.00    -0.248 NA
ATOM     40  C   UNL A   1      37.862  29.897  28.694  1.00  0.00     0.031 C 
ATOM     41  C   UNL A   1      41.604  30.384  31.102  1.00  0.00     0.029 A 
ATOM     42  N   UNL A   1      42.569  28.721  29.922  1.00  0.00    -0.354 N 
ATOM     43  C   UNL A   1      38.043  32.020  29.530  1.00  0.00     0.074 A 
ATOM     44  C   UNL A   1      37.195  31.031  28.920  1.00  0.00     0.031 C 
ATOM     45  C   UNL A   1      42.933  30.473  31.295  1.00  0.00     0.029 A 
ATOM     46  C   UNL A   1      43.564  29.657  30.272  1.00  0.00     0.049 A 
ATOM     47  H   UNL A   1      42.706  27.791  29.631  1.00  0.00     0.167 HD
ATOM     48  C   UNL A   1      37.866  33.172  30.231  1.00  0.00     0.034 A 
ATOM     49  C   UNL A   1      44.408  30.127  29.307  1.00  0.00     0.034 A 
ATOM     50  C   UNL A   1      39.169  33.695  30.661  1.00  0.00     0.049 A 
ATOM     51  C   UNL A   1      44.244  31.611  29.056  1.00  0.00     0.074 A 
ATOM     52  C   UNL A   1      39.878  33.625  31.848  1.00  0.00     0.029 A 
ATOM     53  N   UNL A   1      40.085  34.064  29.686  1.00  0.00    -0.354 N 
ATOM     54  N   UNL A   1      43.212  32.326  29.423  1.00  0.00    -0.248 NA
ATOM     55  C   UNL A   1      45.250  32.403  28.369  1.00  0.00     0.031 C 
ATOM     56  C   UNL A   1      41.245  33.914  31.557  1.00  0.00     0.029 A 
ATOM     57  C   UNL A   1      41.356  34.201  30.207  1.00  0.00     0.049 A 
ATOM     58  H   UNL A   1      39.856  34.212  28.740  1.00  0.00     0.167 HD
ATOM     59  C   UNL A   1      43.389  33.639  29.053  1.00  0.00     0.074 A 
ATOM     60  C   UNL A   1      44.681  33.620  28.379  1.00  0.00     0.031 C 
ATOM     61  C   UNL A   1      42.451  34.609  29.329  1.00  0.00     0.034 A 
BRANCH  48  62
ATOM     62  C   UNL A   1      36.546  33.680  30.765  1.00  0.00     0.023 A 
ATOM     63  C   UNL A   1      35.638  34.246  29.847  1.00  0.00     0.031 A 
ATOM     64  C   UNL A   1      36.125  33.710  32.111  1.00  0.00     0.131 A 
ATOM     65  C   UNL A   1      34.443  34.859  30.267  1.00  0.00     0.055 A 
ATOM     66  C   UNL A   1      34.950  34.345  32.536  1.00  0.00     0.041 A 
ATOM     67  F   UNL A   1      36.797  33.094  33.088  1.00  0.00    -0.206 F 
ATOM     68  C   UNL A   1      34.103  34.931  31.613  1.00  0.00     0.022 A 
BRANCH  65  69
ATOM     69  S   UNL A   1      33.342  35.572  29.018  1.00  0.00     0.124 S 
ATOM     70  O   UNL A   1      32.685  34.388  28.477  1.00  0.00    -0.237 OA
ATOM     71  O   UNL A   1      32.510  36.468  29.814  1.00  0.00    -0.237 OA
ATOM     72  O   UNL A   1      34.262  36.241  28.100  1.00  0.00    -0.744 OA
ENDBRANCH  65  69
ENDBRANCH  48  62
BRANCH  49  73
ATOM     73  C   UNL A   1      44.758  29.077  28.294  1.00  0.00     0.023 A 
ATOM     74  C   UNL A   1      45.475  27.962  28.784  1.00  0.00     0.031 A 
ATOM     75  C   UNL A   1      44.036  28.910  27.106  1.00  0.00     0.131 A 
ATOM     76  C   UNL A   1      45.240  26.685  28.251  1.00  0.00     0.055 A 
ATOM     77  C   UNL A   1      43.907  27.647  26.505  1.00  0.00     0.041 A 
ATOM     78  F   UNL A   1      43.325  29.922  26.589  1.00  0.00    -0.206 F 
ATOM     79  C   UNL A   1      44.453  26.515  27.115  1.00  0.00     0.022 A 
BRANCH  76  80
ATOM     80  S   UNL A   1      45.661  25.259  29.293  1.00  0.00     0.124 S 
ATOM     81  O   UNL A   1      46.951  25.652  29.846  1.00  0.00    -0.237 OA
ATOM     82  O   UNL A   1      44.532  25.228  30.221  1.00  0.00    -0.237 OA
ATOM     83  O   UNL A   1      45.689  24.127  28.366  1.00  0.00    -0.744 OA
ENDBRANCH  76  80
ENDBRANCH  49  73
BRANCH  61  84
ATOM     84  C   UNL A   1      42.443  36.044  28.803  1.00  0.00     0.023 A 
ATOM     85  C   UNL A   1      42.989  37.123  29.501  1.00  0.00     0.031 A 
ATOM     86  C   UNL A   1      41.881  36.388  27.542  1.00  0.00     0.131 A 
ATOM     87  C   UNL A   1      43.054  38.417  28.949  1.00  0.00     0.055 A 
ATOM     88  C   UNL A   1      41.930  37.676  26.995  1.00  0.00     0.041 A 
ATOM     89  F   UNL A   1      41.259  35.498  26.760  1.00  0.00    -0.206 F 
ATOM     90  C   UNL A   1      42.535  38.702  27.693  1.00  0.00     0.022 A 
BRANCH  87  91
ATOM     91  S   UNL A   1      43.844  39.710  29.936  1.00  0.00     0.124 S 
ATOM     92  O   UNL A   1      42.896  40.815  29.811  1.00  0.00    -0.237 OA
ATOM     93  O   UNL A   1      43.913  39.085  31.253  1.00  0.00    -0.237 OA
ATOM     94  O   UNL A   1      45.129  39.915  29.274  1.00  0.00    -0.744 OA
ENDBRANCH  87  91
ENDBRANCH  61  84
ENDBRANCH  35  36
ENDBRANCH  27  30
ENDBRANCH  25  26
ENDBRANCH   1  25
TORSDOF 16
ENDMDL
MODEL 3
REMARK VINA RESULT:     -12.0      2.184      2.681
REMARK SMILES COc1ccc(S(=O)(=O)N2CCCC[C@@H]2C(=O)NCCCNC(=O)c2ccc(-c3c4nc(c(-c5cc(S(=O)(=O)[O-])ccc5F)c5ccc([nH]5)c(-c5cc(S(=O)(=O)[O-])ccc5F)c5nc(c(-c6cc(S(=O)(=O)[O-])ccc6F)c6ccc3[nH]6)C=C5)C=C4)cc2)cc1C
REMARK SMILES IDX 20 1 19 2 18 3 16 4 17 5 15 7 10 8 11 9 12 10 14 11 13 12
REMARK SMILES IDX 7 13 8 14 9 15 6 16 3 17 4 18 89 19 5 20 88 21 90 22 2 23
REMARK SMILES IDX 1 24 21 25 22 26 23 27 24 29 25 30 26 31 87 32 27 33 86 34
REMARK SMILES IDX 28 35 29 36 30 37 80 38 31 39 85 40 79 41 81 42 32 43 84 44
REMARK SMILES IDX 78 45 77 46 33 48 65 49 45 50 64 51 46 52 49 53 63 54 82 55
REMARK SMILES IDX 47 56 48 57 62 59 83 60 50 61 34 62 35 63 43 64 36 65 42 66
REMARK SMILES IDX 44 67 41 68 37 69 38 70 39 71 40 72 66 73 67 74 75 75 68 76
REMARK SMILES IDX 74 77 76 78 73 79 69 80 70 81 71 82 72 83 51 84 52 85 60 86
REMARK SMILES IDX 53 87 59 88 61 89 58 90 54 91 55 92 56 93 57 94
REMARK H PARENT 18 6 22 28 81 47 49 58
REMARK Flexibility Score: inf
ROOT
ATOM      1  C   UNL A   1      32.308  31.323  26.688  1.00  0.00     0.042 C 
ENDROOT
BRANCH   1   2
ATOM      2  C   UNL A   1      31.355  30.325  26.055  1.00  0.00     0.117 C 
BRANCH   2   3
ATOM      3  N   UNL A   1      31.587  30.219  24.623  1.00  0.00    -0.355 N 
ATOM      4  C   UNL A   1      31.444  29.144  23.795  1.00  0.00     0.238 C 
ATOM      5  O   UNL A   1      31.869  29.192  22.636  1.00  0.00    -0.273 OA
ATOM      6  H   UNL A   1      31.892  31.047  24.186  1.00  0.00     0.163 HD
BRANCH   4   7
ATOM      7  C   UNL A   1      30.813  27.843  24.316  1.00  0.00     0.162 C 
ATOM      8  N   UNL A   1      31.750  26.673  24.267  1.00  0.00    -0.185 NA
ATOM      9  C   UNL A   1      31.224  25.296  24.145  1.00  0.00     0.103 C 
ATOM     10  C   UNL A   1      29.958  25.209  23.315  1.00  0.00     0.017 C 
ATOM     11  C   UNL A   1      29.466  27.605  23.621  1.00  0.00     0.030 C 
ATOM     12  C   UNL A   1      28.924  26.201  23.807  1.00  0.00     0.004 C 
BRANCH   8  13
ATOM     13  S   UNL A   1      33.230  26.801  25.134  1.00  0.00     0.243 S 
ATOM     14  O   UNL A   1      32.957  27.249  26.488  1.00  0.00    -0.207 OA
ATOM     15  O   UNL A   1      34.181  27.466  24.287  1.00  0.00    -0.207 OA
BRANCH  13  16
ATOM     16  C   UNL A   1      33.847  25.135  25.320  1.00  0.00     0.083 A 
ATOM     17  C   UNL A   1      34.652  22.467  25.577  1.00  0.00     0.121 A 
ATOM     18  C   UNL A   1      33.603  22.973  26.358  1.00  0.00     0.048 A 
ATOM     19  C   UNL A   1      35.282  23.288  24.632  1.00  0.00    -0.008 A 
ATOM     20  C   UNL A   1      33.193  24.301  26.227  1.00  0.00     0.025 A 
ATOM     21  C   UNL A   1      34.896  24.634  24.551  1.00  0.00     0.029 A 
ATOM     22  C   UNL A   1      36.321  22.815  23.657  1.00  0.00     0.048 C 
BRANCH  17  23
ATOM     23  O   UNL A   1      34.903  21.132  25.749  1.00  0.00    -0.496 OA
ATOM     24  C   UNL A   1      33.790  20.374  26.208  1.00  0.00     0.278 C 
ENDBRANCH  17  23
ENDBRANCH  13  16
ENDBRANCH   8  13
ENDBRANCH   4   7
ENDBRANCH   2   3
ENDBRANCH   1   2
BRANCH   1  25
ATOM     25  C   UNL A   1      33.374  30.673  27.551  1.00  0.00     0.118 C 
BRANCH  25  26
ATOM     26  N   UNL A   1      34.248  31.648  28.202  1.00  0.00    -0.352 N 
ATOM     27  C   UNL A   1      35.456  31.468  28.854  1.00  0.00     0.251 C 
ATOM     28  H   UNL A   1      33.928  32.579  28.173  1.00  0.00     0.163 HD
ATOM     29  O   UNL A   1      36.027  32.380  29.447  1.00  0.00    -0.269 OA
BRANCH  27  30
ATOM     30  C   UNL A   1      36.173  30.191  28.652  1.00  0.00     0.039 A 
ATOM     31  C   UNL A   1      36.513  29.507  29.828  1.00  0.00     0.014 A 
ATOM     32  C   UNL A   1      36.860  29.972  27.467  1.00  0.00     0.014 A 
ATOM     33  C   UNL A   1      37.746  28.883  29.902  1.00  0.00     0.010 A 
ATOM     34  C   UNL A   1      38.143  29.500  27.580  1.00  0.00     0.010 A 
ATOM     35  C   UNL A   1      38.597  29.030  28.816  1.00  0.00    -0.014 A 
BRANCH  35  36
ATOM     36  C   UNL A   1      40.002  28.697  28.850  1.00  0.00     0.031 A 
ATOM     37  C   UNL A   1      40.354  27.303  28.568  1.00  0.00     0.074 A 
ATOM     38  C   UNL A   1      40.906  29.689  28.994  1.00  0.00     0.049 A 
ATOM     39  N   UNL A   1      41.474  26.759  28.864  1.00  0.00    -0.248 NA
ATOM     40  C   UNL A   1      39.403  26.370  27.969  1.00  0.00     0.031 C 
ATOM     41  C   UNL A   1      42.347  29.645  28.775  1.00  0.00     0.029 A 
ATOM     42  N   UNL A   1      40.689  30.912  29.632  1.00  0.00    -0.354 N 
ATOM     43  C   UNL A   1      41.520  25.540  28.226  1.00  0.00     0.074 A 
ATOM     44  C   UNL A   1      40.173  25.296  27.786  1.00  0.00     0.031 C 
ATOM     45  C   UNL A   1      42.922  30.624  29.498  1.00  0.00     0.029 A 
ATOM     46  C   UNL A   1      41.880  31.204  30.328  1.00  0.00     0.049 A 
ATOM     47  H   UNL A   1      39.871  31.459  29.602  1.00  0.00     0.167 HD
ATOM     48  C   UNL A   1      42.741  24.978  28.021  1.00  0.00     0.034 A 
ATOM     49  C   UNL A   1      41.874  31.197  31.694  1.00  0.00     0.034 A 
ATOM     50  C   UNL A   1      43.771  25.765  28.710  1.00  0.00     0.049 A 
ATOM     51  C   UNL A   1      42.752  30.112  32.279  1.00  0.00     0.074 A 
ATOM     52  C   UNL A   1      44.663  26.739  28.293  1.00  0.00     0.029 A 
ATOM     53  N   UNL A   1      43.707  25.867  30.092  1.00  0.00    -0.354 N 
ATOM     54  N   UNL A   1      43.197  29.070  31.625  1.00  0.00    -0.248 NA
ATOM     55  C   UNL A   1      43.200  30.131  33.661  1.00  0.00     0.031 C 
ATOM     56  C   UNL A   1      45.096  27.457  29.449  1.00  0.00     0.029 A 
ATOM     57  C   UNL A   1      44.503  26.891  30.565  1.00  0.00     0.049 A 
ATOM     58  H   UNL A   1      43.162  25.281  30.665  1.00  0.00     0.167 HD
ATOM     59  C   UNL A   1      43.978  28.291  32.448  1.00  0.00     0.074 A 
ATOM     60  C   UNL A   1      43.926  29.001  33.719  1.00  0.00     0.031 C 
ATOM     61  C   UNL A   1      44.579  27.135  32.004  1.00  0.00     0.034 A 
BRANCH  48  62
ATOM     62  C   UNL A   1      43.054  23.909  26.998  1.00  0.00     0.023 A 
ATOM     63  C   UNL A   1      42.339  22.695  27.075  1.00  0.00     0.031 A 
ATOM     64  C   UNL A   1      44.036  23.956  25.988  1.00  0.00     0.131 A 
ATOM     65  C   UNL A   1      42.649  21.598  26.250  1.00  0.00     0.055 A 
ATOM     66  C   UNL A   1      44.368  22.856  25.184  1.00  0.00     0.041 A 
ATOM     67  F   UNL A   1      44.705  25.073  25.687  1.00  0.00    -0.206 F 
ATOM     68  C   UNL A   1      43.677  21.664  25.317  1.00  0.00     0.022 A 
BRANCH  65  69
ATOM     69  S   UNL A   1      41.687  20.074  26.427  1.00  0.00     0.124 S 
ATOM     70  O   UNL A   1      42.014  19.661  27.787  1.00  0.00    -0.237 OA
ATOM     71  O   UNL A   1      40.324  20.541  26.201  1.00  0.00    -0.237 OA
ATOM     72  O   UNL A   1      42.224  19.212  25.374  1.00  0.00    -0.744 OA
ENDBRANCH  65  69
ENDBRANCH  48  62
BRANCH  49  73
ATOM     73  C   UNL A   1      40.585  31.715  32.261  1.00  0.00     0.023 A 
ATOM     74  C   UNL A   1      40.050  30.985  33.345  1.00  0.00     0.031 A 
ATOM     75  C   UNL A   1      40.187  33.050  32.122  1.00  0.00     0.131 A 
ATOM     76  C   UNL A   1      39.378  31.654  34.380  1.00  0.00     0.055 A 
ATOM     77  C   UNL A   1      39.406  33.682  33.103  1.00  0.00     0.041 A 
ATOM     78  F   UNL A   1      40.663  33.806  31.122  1.00  0.00    -0.206 F 
ATOM     79  C   UNL A   1      39.057  33.004  34.272  1.00  0.00     0.022 A 
BRANCH  76  80
ATOM     80  S   UNL A   1      39.293  30.819  35.991  1.00  0.00     0.124 S 
ATOM     81  O   UNL A   1      40.036  29.591  35.741  1.00  0.00    -0.237 OA
ATOM     82  O   UNL A   1      39.927  31.803  36.867  1.00  0.00    -0.237 OA
ATOM     83  O   UNL A   1      37.860  30.652  36.237  1.00  0.00    -0.744 OA
ENDBRANCH  76  80
ENDBRANCH  49  73
BRANCH  61  84
ATOM     84  C   UNL A   1      45.298  26.094  32.863  1.00  0.00     0.023 A 
ATOM     85  C   UNL A   1      44.631  25.177  33.679  1.00  0.00     0.031 A 
ATOM     86  C   UNL A   1      46.715  25.974  32.885  1.00  0.00     0.131 A 
ATOM     87  C   UNL A   1      45.315  24.166  34.382  1.00  0.00     0.055 A 
ATOM     88  C   UNL A   1      47.400  24.981  33.595  1.00  0.00     0.041 A 
ATOM     89  F   UNL A   1      47.522  26.806  32.215  1.00  0.00    -0.206 F 
ATOM     90  C   UNL A   1      46.698  24.054  34.340  1.00  0.00     0.022 A 
BRANCH  87  91
ATOM     91  S   UNL A   1      44.324  23.005  35.352  1.00  0.00     0.124 S 
ATOM     92  O   UNL A   1      44.677  21.721  34.751  1.00  0.00    -0.237 OA
ATOM     93  O   UNL A   1      44.833  23.229  36.702  1.00  0.00    -0.237 OA
ATOM     94  O   UNL A   1      42.951  23.445  35.122  1.00  0.00    -0.744 OA
ENDBRANCH  87  91
ENDBRANCH  61  84
ENDBRANCH  35  36
ENDBRANCH  27  30
ENDBRANCH  25  26
ENDBRANCH   1  25
TORSDOF 16
ENDMDL
