MODEL 1
REMARK VINA RESULT:     -11.6      0.000      0.000
REMARK SMILES C[C@@H]1[C@@H](C(=O)NCCCNC(=O)c2ccc(-c3c4nc(c(-c5cc(S(=O)(=O)[O-])ccc5F)c5ccc([nH]5)c(-c5cc(S(=O)(=O)[O-])ccc5F)c5nc(c(-c6cc(S(=O)(=O)[O-])ccc6F)c6ccc3[nH]6)C=C5)C=C4)cc2)CCN1C(=O)N(C)Cc1ccsc1
REMARK SMILES IDX 7 1 6 2 4 3 5 4 3 6 1 7 2 8 78 9 76 10 77 11 79 12 80 13
REMARK SMILES IDX 81 14 82 15 83 16 84 17 85 18 88 19 86 20 87 21 8 22 9 23
REMARK SMILES IDX 10 24 11 25 12 27 13 28 14 29 75 30 15 31 74 32 16 33 17 34
REMARK SMILES IDX 18 35 68 36 19 37 73 38 67 39 69 40 20 41 72 42 66 43 65 44
REMARK SMILES IDX 21 46 53 47 33 48 52 49 34 50 37 51 51 52 70 53 35 54 36 55
REMARK SMILES IDX 50 57 71 58 38 59 22 60 23 61 31 62 24 63 30 64 32 65 29 66
REMARK SMILES IDX 25 67 26 68 27 69 28 70 54 71 55 72 63 73 56 74 62 75 64 76
REMARK SMILES IDX 61 77 57 78 58 79 59 80 60 81 39 82 40 83 48 84 41 85 47 86
REMARK SMILES IDX 49 87 46 88 42 89 43 90 44 91 45 92
REMARK H PARENT 6 5 10 26 69 45 37 56
REMARK Flexibility Score: inf
ROOT
ATOM      1  C   UNL A   1      31.294  27.740  25.926  1.00  0.00     0.117 C 
ENDROOT
BRANCH   1   2
ATOM      2  N   UNL A   1      31.202  26.515  26.697  1.00  0.00    -0.356 N 
ATOM      3  C   UNL A   1      31.689  25.275  26.435  1.00  0.00     0.225 C 
ATOM      4  O   UNL A   1      31.425  24.388  27.247  1.00  0.00    -0.275 OA
ATOM      5  H   UNL A   1      30.707  26.596  27.544  1.00  0.00     0.163 HD
BRANCH   3   6
ATOM      6  C   UNL A   1      32.458  25.012  25.142  1.00  0.00     0.102 C 
ATOM      7  C   UNL A   1      32.499  23.349  23.234  1.00  0.00     0.032 C 
ATOM      8  C   UNL A   1      32.362  23.515  24.753  1.00  0.00     0.096 C 
ATOM      9  N   UNL A   1      33.480  22.888  25.475  1.00  0.00    -0.321 N 
ATOM     10  C   UNL A   1      33.969  25.201  25.272  1.00  0.00     0.037 C 
ATOM     11  C   UNL A   1      34.412  23.914  25.926  1.00  0.00     0.122 C 
BRANCH   9  12
ATOM     12  C   UNL A   1      33.738  21.624  25.929  1.00  0.00     0.320 C 
ATOM     13  O   UNL A   1      33.524  21.387  27.129  1.00  0.00    -0.248 OA
BRANCH  12  14
ATOM     14  N   UNL A   1      34.283  20.636  25.145  1.00  0.00    -0.323 N 
ATOM     15  C   UNL A   1      35.648  20.161  25.009  1.00  0.00     0.149 C 
BRANCH  14  16
ATOM     16  C   UNL A   1      33.330  19.950  24.270  1.00  0.00     0.157 C 
BRANCH  16  17
ATOM     17  C   UNL A   1      33.294  18.457  24.519  1.00  0.00    -0.018 A 
ATOM     18  C   UNL A   1      33.705  17.493  23.535  1.00  0.00     0.017 A 
ATOM     19  C   UNL A   1      32.837  17.808  25.654  1.00  0.00     0.070 A 
ATOM     20  C   UNL A   1      33.530  16.191  23.949  1.00  0.00     0.065 A 
ATOM     21  S   UNL A   1      32.889  16.104  25.528  1.00  0.00    -0.152 S 
ENDBRANCH  16  17
ENDBRANCH  14  16
ENDBRANCH  12  14
ENDBRANCH   9  12
ENDBRANCH   3   6
ENDBRANCH   1   2
BRANCH   1  22
ATOM     22  C   UNL A   1      31.753  28.926  26.755  1.00  0.00     0.042 C 
BRANCH  22  23
ATOM     23  C   UNL A   1      32.652  29.905  26.014  1.00  0.00     0.118 C 
BRANCH  23  24
ATOM     24  N   UNL A   1      32.472  31.286  26.433  1.00  0.00    -0.352 N 
ATOM     25  C   UNL A   1      33.233  32.067  27.276  1.00  0.00     0.251 C 
ATOM     26  H   UNL A   1      31.682  31.735  26.054  1.00  0.00     0.163 HD
ATOM     27  O   UNL A   1      32.814  33.165  27.623  1.00  0.00    -0.269 OA
BRANCH  25  28
ATOM     28  C   UNL A   1      34.524  31.560  27.796  1.00  0.00     0.039 A 
ATOM     29  C   UNL A   1      35.588  32.451  27.955  1.00  0.00     0.014 A 
ATOM     30  C   UNL A   1      34.682  30.219  28.146  1.00  0.00     0.014 A 
ATOM     31  C   UNL A   1      36.771  32.014  28.556  1.00  0.00     0.010 A 
ATOM     32  C   UNL A   1      35.812  29.816  28.848  1.00  0.00     0.010 A 
ATOM     33  C   UNL A   1      36.874  30.706  29.059  1.00  0.00    -0.014 A 
BRANCH  33  34
ATOM     34  C   UNL A   1      38.082  30.240  29.793  1.00  0.00     0.031 A 
ATOM     35  C   UNL A   1      38.337  30.721  31.197  1.00  0.00     0.074 A 
ATOM     36  C   UNL A   1      38.984  29.452  29.173  1.00  0.00     0.049 A 
ATOM     37  N   UNL A   1      39.381  30.527  31.963  1.00  0.00    -0.248 NA
ATOM     38  C   UNL A   1      37.297  31.565  31.805  1.00  0.00     0.031 C 
ATOM     39  C   UNL A   1      38.875  28.957  27.798  1.00  0.00     0.029 A 
ATOM     40  N   UNL A   1      40.176  28.934  29.614  1.00  0.00    -0.354 N 
ATOM     41  C   UNL A   1      39.131  31.244  33.130  1.00  0.00     0.074 A 
ATOM     42  C   UNL A   1      37.874  31.933  32.938  1.00  0.00     0.031 C 
ATOM     43  C   UNL A   1      39.937  28.184  27.522  1.00  0.00     0.029 A 
ATOM     44  C   UNL A   1      40.829  28.167  28.676  1.00  0.00     0.049 A 
ATOM     45  H   UNL A   1      40.533  29.098  30.517  1.00  0.00     0.167 HD
ATOM     46  C   UNL A   1      39.867  31.299  34.268  1.00  0.00     0.034 A 
ATOM     47  C   UNL A   1      42.016  27.530  28.735  1.00  0.00     0.034 A 
ATOM     48  C   UNL A   1      41.106  30.585  34.454  1.00  0.00     0.049 A 
ATOM     49  C   UNL A   1      42.823  27.615  30.006  1.00  0.00     0.074 A 
ATOM     50  C   UNL A   1      41.905  30.522  35.583  1.00  0.00     0.029 A 
ATOM     51  N   UNL A   1      41.728  29.808  33.485  1.00  0.00    -0.354 N 
ATOM     52  N   UNL A   1      42.552  28.263  31.116  1.00  0.00    -0.248 NA
ATOM     53  C   UNL A   1      44.093  26.876  30.034  1.00  0.00     0.031 C 
ATOM     54  C   UNL A   1      43.039  29.761  35.277  1.00  0.00     0.029 A 
ATOM     55  C   UNL A   1      42.913  29.284  33.982  1.00  0.00     0.049 A 
ATOM     56  H   UNL A   1      41.380  29.651  32.577  1.00  0.00     0.167 HD
ATOM     57  C   UNL A   1      43.603  27.979  31.985  1.00  0.00     0.074 A 
ATOM     58  C   UNL A   1      44.501  27.093  31.275  1.00  0.00     0.031 C 
ATOM     59  C   UNL A   1      43.803  28.408  33.258  1.00  0.00     0.034 A 
BRANCH  46  60
ATOM     60  C   UNL A   1      39.352  32.176  35.385  1.00  0.00     0.023 A 
ATOM     61  C   UNL A   1      39.700  33.536  35.475  1.00  0.00     0.031 A 
ATOM     62  C   UNL A   1      38.532  31.641  36.394  1.00  0.00     0.131 A 
ATOM     63  C   UNL A   1      39.302  34.290  36.590  1.00  0.00     0.055 A 
ATOM     64  C   UNL A   1      38.065  32.420  37.455  1.00  0.00     0.041 A 
ATOM     65  F   UNL A   1      38.182  30.346  36.375  1.00  0.00    -0.206 F 
ATOM     66  C   UNL A   1      38.465  33.749  37.567  1.00  0.00     0.022 A 
BRANCH  63  67
ATOM     67  S   UNL A   1      40.024  35.938  36.819  1.00  0.00     0.124 S 
ATOM     68  O   UNL A   1      39.713  36.575  35.542  1.00  0.00    -0.237 OA
ATOM     69  O   UNL A   1      39.298  36.442  37.979  1.00  0.00    -0.237 OA
ATOM     70  O   UNL A   1      41.443  35.663  37.041  1.00  0.00    -0.744 OA
ENDBRANCH  63  67
ENDBRANCH  46  60
BRANCH  47  71
ATOM     71  C   UNL A   1      42.522  26.759  27.563  1.00  0.00     0.023 A 
ATOM     72  C   UNL A   1      42.221  25.396  27.413  1.00  0.00     0.031 A 
ATOM     73  C   UNL A   1      43.350  27.361  26.599  1.00  0.00     0.131 A 
ATOM     74  C   UNL A   1      42.782  24.668  26.352  1.00  0.00     0.055 A 
ATOM     75  C   UNL A   1      43.863  26.645  25.515  1.00  0.00     0.041 A 
ATOM     76  F   UNL A   1      43.664  28.663  26.690  1.00  0.00    -0.206 F 
ATOM     77  C   UNL A   1      43.591  25.286  25.395  1.00  0.00     0.022 A 
BRANCH  74  78
ATOM     78  S   UNL A   1      42.509  22.876  26.290  1.00  0.00     0.124 S 
ATOM     79  O   UNL A   1      43.547  22.386  27.190  1.00  0.00    -0.237 OA
ATOM     80  O   UNL A   1      41.136  22.762  26.770  1.00  0.00    -0.237 OA
ATOM     81  O   UNL A   1      42.703  22.551  24.878  1.00  0.00    -0.744 OA
ENDBRANCH  74  78
ENDBRANCH  47  71
BRANCH  59  82
ATOM     82  C   UNL A   1      45.021  27.879  33.974  1.00  0.00     0.023 A 
ATOM     83  C   UNL A   1      44.983  26.689  34.721  1.00  0.00     0.031 A 
ATOM     84  C   UNL A   1      46.236  28.585  33.913  1.00  0.00     0.131 A 
ATOM     85  C   UNL A   1      46.123  26.269  35.424  1.00  0.00     0.055 A 
ATOM     86  C   UNL A   1      47.384  28.130  34.564  1.00  0.00     0.041 A 
ATOM     87  F   UNL A   1      46.328  29.728  33.214  1.00  0.00    -0.206 F 
ATOM     88  C   UNL A   1      47.327  26.973  35.335  1.00  0.00     0.022 A 
BRANCH  85  89
ATOM     89  S   UNL A   1      45.987  24.839  36.529  1.00  0.00     0.124 S 
ATOM     90  O   UNL A   1      46.615  25.335  37.748  1.00  0.00    -0.237 OA
ATOM     91  O   UNL A   1      44.543  24.631  36.595  1.00  0.00    -0.237 OA
ATOM     92  O   UNL A   1      46.731  23.792  35.829  1.00  0.00    -0.744 OA
ENDBRANCH  85  89
ENDBRANCH  59  82
ENDBRANCH  33  34
ENDBRANCH  25  28
ENDBRANCH  23  24
ENDBRANCH  22  23
ENDBRANCH   1  22
TORSDOF 17
ENDMDL
MODEL 2
REMARK VINA RESULT:     -11.6      1.814      2.414
REMARK SMILES C[C@@H]1[C@@H](C(=O)NCCCNC(=O)c2ccc(-c3c4nc(c(-c5cc(S(=O)(=O)[O-])ccc5F)c5ccc([nH]5)c(-c5cc(S(=O)(=O)[O-])ccc5F)c5nc(c(-c6cc(S(=O)(=O)[O-])ccc6F)c6ccc3[nH]6)C=C5)C=C4)cc2)CCN1C(=O)N(C)Cc1ccsc1
REMARK SMILES IDX 7 1 6 2 4 3 5 4 3 6 1 7 2 8 78 9 76 10 77 11 79 12 80 13
REMARK SMILES IDX 81 14 82 15 83 16 84 17 85 18 88 19 86 20 87 21 8 22 9 23
REMARK SMILES IDX 10 24 11 25 12 27 13 28 14 29 75 30 15 31 74 32 16 33 17 34
REMARK SMILES IDX 18 35 68 36 19 37 73 38 67 39 69 40 20 41 72 42 66 43 65 44
REMARK SMILES IDX 21 46 53 47 33 48 52 49 34 50 37 51 51 52 70 53 35 54 36 55
REMARK SMILES IDX 50 57 71 58 38 59 22 60 23 61 31 62 24 63 30 64 32 65 29 66
REMARK SMILES IDX 25 67 26 68 27 69 28 70 54 71 55 72 63 73 56 74 62 75 64 76
REMARK SMILES IDX 61 77 57 78 58 79 59 80 60 81 39 82 40 83 48 84 41 85 47 86
REMARK SMILES IDX 49 87 46 88 42 89 43 90 44 91 45 92
REMARK H PARENT 6 5 10 26 69 45 37 56
REMARK Flexibility Score: inf
ROOT
ATOM      1  C   UNL A   1      31.578  27.946  26.309  1.00  0.00     0.117 C 
ENDROOT
BRANCH   1   2
ATOM      2  N   UNL A   1      31.308  26.650  26.902  1.00  0.00    -0.356 N 
ATOM      3  C   UNL A   1      31.694  25.408  26.510  1.00  0.00     0.225 C 
ATOM      4  O   UNL A   1      31.281  24.458  27.177  1.00  0.00    -0.275 OA
ATOM      5  H   UNL A   1      30.756  26.675  27.716  1.00  0.00     0.163 HD
BRANCH   3   6
ATOM      6  C   UNL A   1      32.536  25.231  25.249  1.00  0.00     0.102 C 
ATOM      7  C   UNL A   1      32.700  23.689  23.247  1.00  0.00     0.032 C 
ATOM      8  C   UNL A   1      32.477  23.760  24.764  1.00  0.00     0.096 C 
ATOM      9  N   UNL A   1      33.560  23.097  25.508  1.00  0.00    -0.321 N 
ATOM     10  C   UNL A   1      34.035  25.421  25.474  1.00  0.00     0.037 C 
ATOM     11  C   UNL A   1      34.454  24.098  26.073  1.00  0.00     0.122 C 
BRANCH   9  12
ATOM     12  C   UNL A   1      33.804  21.809  25.897  1.00  0.00     0.320 C 
ATOM     13  O   UNL A   1      33.393  21.456  27.014  1.00  0.00    -0.248 OA
BRANCH  12  14
ATOM     14  N   UNL A   1      34.536  20.919  25.148  1.00  0.00    -0.323 N 
ATOM     15  C   UNL A   1      35.963  20.653  25.095  1.00  0.00     0.149 C 
BRANCH  14  16
ATOM     16  C   UNL A   1      33.751  20.106  24.217  1.00  0.00     0.157 C 
BRANCH  16  17
ATOM     17  C   UNL A   1      33.691  18.652  24.635  1.00  0.00    -0.018 A 
ATOM     18  C   UNL A   1      32.725  18.151  25.574  1.00  0.00     0.017 A 
ATOM     19  C   UNL A   1      34.542  17.631  24.241  1.00  0.00     0.070 A 
ATOM     20  C   UNL A   1      32.892  16.813  25.857  1.00  0.00     0.065 A 
ATOM     21  S   UNL A   1      34.195  16.134  24.989  1.00  0.00    -0.152 S 
ENDBRANCH  16  17
ENDBRANCH  14  16
ENDBRANCH  12  14
ENDBRANCH   9  12
ENDBRANCH   3   6
ENDBRANCH   1   2
BRANCH   1  22
ATOM     22  C   UNL A   1      32.287  28.893  27.259  1.00  0.00     0.042 C 
BRANCH  22  23
ATOM     23  C   UNL A   1      33.317  29.797  26.599  1.00  0.00     0.118 C 
BRANCH  23  24
ATOM     24  N   UNL A   1      33.362  31.135  27.169  1.00  0.00    -0.352 N 
ATOM     25  C   UNL A   1      34.283  31.710  28.017  1.00  0.00     0.251 C 
ATOM     26  H   UNL A   1      32.618  31.723  26.908  1.00  0.00     0.163 HD
ATOM     27  O   UNL A   1      34.048  32.808  28.508  1.00  0.00    -0.269 OA
BRANCH  25  28
ATOM     28  C   UNL A   1      35.525  30.984  28.369  1.00  0.00     0.039 A 
ATOM     29  C   UNL A   1      36.754  31.495  27.944  1.00  0.00     0.014 A 
ATOM     30  C   UNL A   1      35.485  29.818  29.133  1.00  0.00     0.014 A 
ATOM     31  C   UNL A   1      37.939  30.889  28.370  1.00  0.00     0.010 A 
ATOM     32  C   UNL A   1      36.661  29.287  29.650  1.00  0.00     0.010 A 
ATOM     33  C   UNL A   1      37.905  29.813  29.272  1.00  0.00    -0.014 A 
BRANCH  33  34
ATOM     34  C   UNL A   1      39.149  29.210  29.822  1.00  0.00     0.031 A 
ATOM     35  C   UNL A   1      39.784  29.796  31.056  1.00  0.00     0.074 A 
ATOM     36  C   UNL A   1      39.748  28.191  29.172  1.00  0.00     0.049 A 
ATOM     37  N   UNL A   1      40.923  29.494  31.626  1.00  0.00    -0.248 NA
ATOM     38  C   UNL A   1      39.058  30.894  31.713  1.00  0.00     0.031 C 
ATOM     39  C   UNL A   1      39.259  27.567  27.940  1.00  0.00     0.029 A 
ATOM     40  N   UNL A   1      40.905  27.506  29.450  1.00  0.00    -0.354 N 
ATOM     41  C   UNL A   1      41.059  30.380  32.691  1.00  0.00     0.074 A 
ATOM     42  C   UNL A   1      39.923  31.274  32.639  1.00  0.00     0.031 C 
ATOM     43  C   UNL A   1      40.090  26.572  27.590  1.00  0.00     0.029 A 
ATOM     44  C   UNL A   1      41.198  26.519  28.537  1.00  0.00     0.049 A 
ATOM     45  H   UNL A   1      41.473  27.703  30.229  1.00  0.00     0.167 HD
ATOM     46  C   UNL A   1      42.026  30.425  33.641  1.00  0.00     0.034 A 
ATOM     47  C   UNL A   1      42.246  25.673  28.464  1.00  0.00     0.034 A 
ATOM     48  C   UNL A   1      43.138  29.509  33.694  1.00  0.00     0.049 A 
ATOM     49  C   UNL A   1      43.315  25.749  29.524  1.00  0.00     0.074 A 
ATOM     50  C   UNL A   1      44.143  29.427  34.642  1.00  0.00     0.029 A 
ATOM     51  N   UNL A   1      43.393  28.515  32.758  1.00  0.00    -0.354 N 
ATOM     52  N   UNL A   1      43.406  26.566  30.550  1.00  0.00    -0.248 NA
ATOM     53  C   UNL A   1      44.418  24.784  29.423  1.00  0.00     0.031 C 
ATOM     54  C   UNL A   1      45.039  28.427  34.246  1.00  0.00     0.029 A 
ATOM     55  C   UNL A   1      44.554  27.832  33.092  1.00  0.00     0.049 A 
ATOM     56  H   UNL A   1      42.833  28.322  31.972  1.00  0.00     0.167 HD
ATOM     57  C   UNL A   1      44.560  26.188  31.232  1.00  0.00     0.074 A 
ATOM     58  C   UNL A   1      45.120  25.064  30.511  1.00  0.00     0.031 C 
ATOM     59  C   UNL A   1      45.104  26.718  32.358  1.00  0.00     0.034 A 
BRANCH  46  60
ATOM     60  C   UNL A   1      41.922  31.514  34.684  1.00  0.00     0.023 A 
ATOM     61  C   UNL A   1      40.924  31.495  35.674  1.00  0.00     0.031 A 
ATOM     62  C   UNL A   1      42.810  32.604  34.670  1.00  0.00     0.131 A 
ATOM     63  C   UNL A   1      40.783  32.581  36.551  1.00  0.00     0.055 A 
ATOM     64  C   UNL A   1      42.721  33.640  35.602  1.00  0.00     0.041 A 
ATOM     65  F   UNL A   1      43.772  32.690  33.738  1.00  0.00    -0.206 F 
ATOM     66  C   UNL A   1      41.691  33.642  36.539  1.00  0.00     0.022 A 
BRANCH  63  67
ATOM     67  S   UNL A   1      39.305  32.659  37.599  1.00  0.00     0.124 S 
ATOM     68  O   UNL A   1      38.672  33.886  37.123  1.00  0.00    -0.237 OA
ATOM     69  O   UNL A   1      38.618  31.416  37.269  1.00  0.00    -0.237 OA
ATOM     70  O   UNL A   1      39.849  32.733  38.954  1.00  0.00    -0.744 OA
ENDBRANCH  63  67
ENDBRANCH  46  60
BRANCH  47  71
ATOM     71  C   UNL A   1      42.346  24.683  27.353  1.00  0.00     0.023 A 
ATOM     72  C   UNL A   1      41.587  23.502  27.370  1.00  0.00     0.031 A 
ATOM     73  C   UNL A   1      43.233  24.881  26.281  1.00  0.00     0.131 A 
ATOM     74  C   UNL A   1      41.764  22.541  26.362  1.00  0.00     0.055 A 
ATOM     75  C   UNL A   1      43.367  23.946  25.252  1.00  0.00     0.041 A 
ATOM     76  F   UNL A   1      43.978  25.996  26.210  1.00  0.00    -0.206 F 
ATOM     77  C   UNL A   1      42.639  22.761  25.296  1.00  0.00     0.022 A 
BRANCH  74  78
ATOM     78  S   UNL A   1      40.894  20.957  26.511  1.00  0.00     0.124 S 
ATOM     79  O   UNL A   1      39.620  21.256  25.868  1.00  0.00    -0.237 OA
ATOM     80  O   UNL A   1      41.783  20.055  25.787  1.00  0.00    -0.237 OA
ATOM     81  O   UNL A   1      40.829  20.739  27.955  1.00  0.00    -0.744 OA
ENDBRANCH  74  78
ENDBRANCH  47  71
BRANCH  59  82
ATOM     82  C   UNL A   1      46.343  26.050  32.899  1.00  0.00     0.023 A 
ATOM     83  C   UNL A   1      46.272  24.957  33.780  1.00  0.00     0.031 A 
ATOM     84  C   UNL A   1      47.616  26.523  32.531  1.00  0.00     0.131 A 
ATOM     85  C   UNL A   1      47.451  24.408  34.308  1.00  0.00     0.055 A 
ATOM     86  C   UNL A   1      48.786  25.934  33.012  1.00  0.00     0.041 A 
ATOM     87  F   UNL A   1      47.743  27.565  31.694  1.00  0.00    -0.206 F 
ATOM     88  C   UNL A   1      48.707  24.878  33.916  1.00  0.00     0.022 A 
BRANCH  85  89
ATOM     89  S   UNL A   1      47.318  23.129  35.586  1.00  0.00     0.124 S 
ATOM     90  O   UNL A   1      47.767  21.938  34.871  1.00  0.00    -0.237 OA
ATOM     91  O   UNL A   1      48.218  23.627  36.622  1.00  0.00    -0.237 OA
ATOM     92  O   UNL A   1      45.900  23.142  35.939  1.00  0.00    -0.744 OA
ENDBRANCH  85  89
ENDBRANCH  59  82
ENDBRANCH  33  34
ENDBRANCH  25  28
ENDBRANCH  23  24
ENDBRANCH  22  23
ENDBRANCH   1  22
TORSDOF 17
ENDMDL
MODEL 3
REMARK VINA RESULT:     -11.5      5.255      8.096
REMARK SMILES C[C@@H]1[C@@H](C(=O)NCCCNC(=O)c2ccc(-c3c4nc(c(-c5cc(S(=O)(=O)[O-])ccc5F)c5ccc([nH]5)c(-c5cc(S(=O)(=O)[O-])ccc5F)c5nc(c(-c6cc(S(=O)(=O)[O-])ccc6F)c6ccc3[nH]6)C=C5)C=C4)cc2)CCN1C(=O)N(C)Cc1ccsc1
REMARK SMILES IDX 7 1 6 2 4 3 5 4 3 6 1 7 2 8 78 9 76 10 77 11 79 12 80 13
REMARK SMILES IDX 81 14 82 15 83 16 84 17 85 18 88 19 86 20 87 21 8 22 9 23
REMARK SMILES IDX 10 24 11 25 12 27 13 28 14 29 75 30 15 31 74 32 16 33 17 34
REMARK SMILES IDX 18 35 68 36 19 37 73 38 67 39 69 40 20 41 72 42 66 43 65 44
REMARK SMILES IDX 21 46 53 47 33 48 52 49 34 50 37 51 51 52 70 53 35 54 36 55
REMARK SMILES IDX 50 57 71 58 38 59 22 60 23 61 31 62 24 63 30 64 32 65 29 66
REMARK SMILES IDX 25 67 26 68 27 69 28 70 54 71 55 72 63 73 56 74 62 75 64 76
REMARK SMILES IDX 61 77 57 78 58 79 59 80 60 81 39 82 40 83 48 84 41 85 47 86
REMARK SMILES IDX 49 87 46 88 42 89 43 90 44 91 45 92
REMARK H PARENT 6 5 10 26 69 45 37 56
REMARK Flexibility Score: inf
ROOT
ATOM      1  C   UNL A   1      35.586  22.806  26.060  1.00  0.00     0.117 C 
ENDROOT
BRANCH   1   2
ATOM      2  N   UNL A   1      34.629  22.754  27.148  1.00  0.00    -0.356 N 
ATOM      3  C   UNL A   1      33.283  22.568  27.126  1.00  0.00     0.225 C 
ATOM      4  O   UNL A   1      32.695  22.614  28.206  1.00  0.00    -0.275 OA
ATOM      5  H   UNL A   1      35.016  22.873  28.045  1.00  0.00     0.163 HD
BRANCH   3   6
ATOM      6  C   UNL A   1      32.557  22.392  25.794  1.00  0.00     0.102 C 
ATOM      7  C   UNL A   1      32.420  23.495  23.519  1.00  0.00     0.032 C 
ATOM      8  C   UNL A   1      32.496  23.740  25.032  1.00  0.00     0.096 C 
ATOM      9  N   UNL A   1      31.275  24.382  25.544  1.00  0.00    -0.321 N 
ATOM     10  C   UNL A   1      31.075  22.051  25.938  1.00  0.00     0.037 C 
ATOM     11  C   UNL A   1      30.449  23.395  26.227  1.00  0.00     0.122 C 
BRANCH   9  12
ATOM     12  C   UNL A   1      30.847  25.677  25.650  1.00  0.00     0.320 C 
ATOM     13  O   UNL A   1      30.670  26.135  26.790  1.00  0.00    -0.248 OA
BRANCH  12  14
ATOM     14  N   UNL A   1      30.539  26.462  24.564  1.00  0.00    -0.323 N 
ATOM     15  C   UNL A   1      29.283  26.700  23.875  1.00  0.00     0.149 C 
BRANCH  14  16
ATOM     16  C   UNL A   1      31.677  27.170  23.974  1.00  0.00     0.157 C 
BRANCH  16  17
ATOM     17  C   UNL A   1      32.220  28.246  24.890  1.00  0.00    -0.018 A 
ATOM     18  C   UNL A   1      33.528  28.177  25.482  1.00  0.00     0.017 A 
ATOM     19  C   UNL A   1      31.563  29.386  25.325  1.00  0.00     0.070 A 
ATOM     20  C   UNL A   1      33.792  29.230  26.330  1.00  0.00     0.065 A 
ATOM     21  S   UNL A   1      32.487  30.324  26.415  1.00  0.00    -0.152 S 
ENDBRANCH  16  17
ENDBRANCH  14  16
ENDBRANCH  12  14
ENDBRANCH   9  12
ENDBRANCH   3   6
ENDBRANCH   1   2
BRANCH   1  22
ATOM     22  C   UNL A   1      36.048  21.431  25.614  1.00  0.00     0.042 C 
BRANCH  22  23
ATOM     23  C   UNL A   1      37.393  21.416  24.904  1.00  0.00     0.118 C 
BRANCH  23  24
ATOM     24  N   UNL A   1      38.287  20.372  25.381  1.00  0.00    -0.352 N 
ATOM     25  C   UNL A   1      39.481  20.465  26.062  1.00  0.00     0.251 C 
ATOM     26  H   UNL A   1      37.993  19.453  25.187  1.00  0.00     0.163 HD
ATOM     27  O   UNL A   1      40.159  19.459  26.231  1.00  0.00    -0.269 OA
BRANCH  25  28
ATOM     28  C   UNL A   1      39.962  21.781  26.543  1.00  0.00     0.039 A 
ATOM     29  C   UNL A   1      41.009  21.824  27.467  1.00  0.00     0.014 A 
ATOM     30  C   UNL A   1      39.401  22.968  26.072  1.00  0.00     0.014 A 
ATOM     31  C   UNL A   1      41.553  23.057  27.837  1.00  0.00     0.010 A 
ATOM     32  C   UNL A   1      40.017  24.182  26.350  1.00  0.00     0.010 A 
ATOM     33  C   UNL A   1      41.099  24.244  27.240  1.00  0.00    -0.014 A 
BRANCH  33  34
ATOM     34  C   UNL A   1      41.724  25.562  27.537  1.00  0.00     0.031 A 
ATOM     35  C   UNL A   1      40.964  26.590  28.332  1.00  0.00     0.074 A 
ATOM     36  C   UNL A   1      42.938  25.861  27.029  1.00  0.00     0.049 A 
ATOM     37  N   UNL A   1      41.280  27.832  28.600  1.00  0.00    -0.248 NA
ATOM     38  C   UNL A   1      39.655  26.178  28.862  1.00  0.00     0.031 C 
ATOM     39  C   UNL A   1      43.755  24.969  26.203  1.00  0.00     0.029 A 
ATOM     40  N   UNL A   1      43.692  27.004  27.123  1.00  0.00    -0.354 N 
ATOM     41  C   UNL A   1      40.200  28.352  29.308  1.00  0.00     0.074 A 
ATOM     42  C   UNL A   1      39.194  27.314  29.361  1.00  0.00     0.031 C 
ATOM     43  C   UNL A   1      44.908  25.585  25.896  1.00  0.00     0.029 A 
ATOM     44  C   UNL A   1      44.894  26.932  26.455  1.00  0.00     0.049 A 
ATOM     45  H   UNL A   1      43.402  27.802  27.621  1.00  0.00     0.167 HD
ATOM     46  C   UNL A   1      40.071  29.572  29.886  1.00  0.00     0.034 A 
ATOM     47  C   UNL A   1      45.869  27.851  26.301  1.00  0.00     0.034 A 
ATOM     48  C   UNL A   1      41.094  30.588  29.846  1.00  0.00     0.049 A 
ATOM     49  C   UNL A   1      45.699  29.204  26.942  1.00  0.00     0.074 A 
ATOM     50  C   UNL A   1      41.094  31.836  30.444  1.00  0.00     0.029 A 
ATOM     51  N   UNL A   1      42.302  30.472  29.170  1.00  0.00    -0.354 N 
ATOM     52  N   UNL A   1      44.689  29.666  27.644  1.00  0.00    -0.248 NA
ATOM     53  C   UNL A   1      46.804  30.159  26.776  1.00  0.00     0.031 C 
ATOM     54  C   UNL A   1      42.271  32.499  30.078  1.00  0.00     0.029 A 
ATOM     55  C   UNL A   1      43.042  31.637  29.315  1.00  0.00     0.049 A 
ATOM     56  H   UNL A   1      42.591  29.680  28.662  1.00  0.00     0.167 HD
ATOM     57  C   UNL A   1      45.055  30.953  28.032  1.00  0.00     0.074 A 
ATOM     58  C   UNL A   1      46.380  31.186  27.497  1.00  0.00     0.031 C 
ATOM     59  C   UNL A   1      44.360  31.858  28.768  1.00  0.00     0.034 A 
BRANCH  46  60
ATOM     60  C   UNL A   1      38.768  29.871  30.591  1.00  0.00     0.023 A 
ATOM     61  C   UNL A   1      37.751  30.621  29.974  1.00  0.00     0.031 A 
ATOM     62  C   UNL A   1      38.551  29.433  31.909  1.00  0.00     0.131 A 
ATOM     63  C   UNL A   1      36.605  30.982  30.699  1.00  0.00     0.055 A 
ATOM     64  C   UNL A   1      37.370  29.719  32.597  1.00  0.00     0.041 A 
ATOM     65  F   UNL A   1      39.492  28.730  32.559  1.00  0.00    -0.206 F 
ATOM     66  C   UNL A   1      36.396  30.514  31.998  1.00  0.00     0.022 A 
BRANCH  63  67
ATOM     67  S   UNL A   1      35.472  32.198  29.976  1.00  0.00     0.124 S 
ATOM     68  O   UNL A   1      35.004  31.492  28.785  1.00  0.00    -0.237 OA
ATOM     69  O   UNL A   1      34.489  32.384  31.036  1.00  0.00    -0.237 OA
ATOM     70  O   UNL A   1      36.331  33.351  29.709  1.00  0.00    -0.744 OA
ENDBRANCH  63  67
ENDBRANCH  46  60
BRANCH  47  71
ATOM     71  C   UNL A   1      47.092  27.532  25.508  1.00  0.00     0.023 A 
ATOM     72  C   UNL A   1      47.184  27.883  24.152  1.00  0.00     0.031 A 
ATOM     73  C   UNL A   1      48.168  26.832  26.083  1.00  0.00     0.131 A 
ATOM     74  C   UNL A   1      48.304  27.493  23.403  1.00  0.00     0.055 A 
ATOM     75  C   UNL A   1      49.304  26.492  25.345  1.00  0.00     0.041 A 
ATOM     76  F   UNL A   1      48.135  26.478  27.377  1.00  0.00    -0.206 F 
ATOM     77  C   UNL A   1      49.371  26.811  23.993  1.00  0.00     0.022 A 
BRANCH  74  78
ATOM     78  S   UNL A   1      48.309  27.814  21.617  1.00  0.00     0.124 S 
ATOM     79  O   UNL A   1      49.368  28.809  21.497  1.00  0.00    -0.237 OA
ATOM     80  O   UNL A   1      48.603  26.493  21.073  1.00  0.00    -0.237 OA
ATOM     81  O   UNL A   1      46.957  28.306  21.357  1.00  0.00    -0.744 OA
ENDBRANCH  74  78
ENDBRANCH  47  71
BRANCH  59  82
ATOM     82  C   UNL A   1      45.050  33.163  29.076  1.00  0.00     0.023 A 
ATOM     83  C   UNL A   1      44.883  34.299  28.265  1.00  0.00     0.031 A 
ATOM     84  C   UNL A   1      45.894  33.266  30.196  1.00  0.00     0.131 A 
ATOM     85  C   UNL A   1      45.595  35.474  28.554  1.00  0.00     0.055 A 
ATOM     86  C   UNL A   1      46.552  34.456  30.513  1.00  0.00     0.041 A 
ATOM     87  F   UNL A   1      46.091  32.212  31.004  1.00  0.00    -0.206 F 
ATOM     88  C   UNL A   1      46.414  35.564  29.683  1.00  0.00     0.022 A 
BRANCH  85  89
ATOM     89  S   UNL A   1      45.506  36.855  27.384  1.00  0.00     0.124 S 
ATOM     90  O   UNL A   1      44.098  36.842  27.003  1.00  0.00    -0.237 OA
ATOM     91  O   UNL A   1      45.934  37.986  28.202  1.00  0.00    -0.237 OA
ATOM     92  O   UNL A   1      46.438  36.469  26.325  1.00  0.00    -0.744 OA
ENDBRANCH  85  89
ENDBRANCH  59  82
ENDBRANCH  33  34
ENDBRANCH  25  28
ENDBRANCH  23  24
ENDBRANCH  22  23
ENDBRANCH   1  22
TORSDOF 17
ENDMDL
