MODEL 1
REMARK VINA RESULT:     -12.7      0.000      0.000
REMARK SMILES Cc1ccc(-c2cc3cccnc3n2CCC(=O)NCCCNC(=O)c2ccc(-c3c4nc(c(-c5cc(S(=O)(=O)[O-])ccc5F)c5ccc([nH]5)c(-c5cc(S(=O)(=O)[O-])ccc5F)c5nc(c(-c6cc(S(=O)(=O)[O-])ccc6F)c6ccc3[nH]6)C=C5)C=C4)cc2)cn1
REMARK SMILES IDX 21 1 20 2 19 3 17 4 18 5 16 7 15 8 14 9 6 10 7 11 8 12 13 13
REMARK SMILES IDX 9 14 12 15 10 16 11 17 5 18 1 19 2 20 3 21 90 22 4 23 89 24
REMARK SMILES IDX 22 25 23 26 24 27 25 29 26 30 27 31 88 32 28 33 87 34 29 35
REMARK SMILES IDX 30 36 31 37 81 38 32 39 86 40 80 41 82 42 33 43 85 44 79 45
REMARK SMILES IDX 78 46 34 48 66 49 46 50 65 51 47 52 50 53 64 54 83 55 48 56
REMARK SMILES IDX 49 57 63 59 84 60 51 61 35 62 36 63 44 64 37 65 43 66 45 67
REMARK SMILES IDX 42 68 38 69 39 70 40 71 41 72 67 73 68 74 76 75 69 76 75 77
REMARK SMILES IDX 77 78 74 79 70 80 71 81 72 82 73 83 52 84 53 85 61 86 54 87
REMARK SMILES IDX 60 88 62 89 59 90 55 91 56 92 57 93 58 94
REMARK H PARENT 19 6 23 28 82 47 50 58
REMARK Flexibility Score: inf
ROOT
ATOM      1  C   UNL A   1      39.338  21.018  26.022  1.00  0.00     0.042 C 
ENDROOT
BRANCH   1   2
ATOM      2  C   UNL A   1      38.357  22.155  25.846  1.00  0.00     0.117 C 
BRANCH   2   3
ATOM      3  N   UNL A   1      37.764  22.220  24.517  1.00  0.00    -0.356 N 
ATOM      4  C   UNL A   1      36.724  22.958  24.039  1.00  0.00     0.221 C 
ATOM      5  O   UNL A   1      36.560  22.995  22.816  1.00  0.00    -0.275 OA
ATOM      6  H   UNL A   1      38.186  21.630  23.852  1.00  0.00     0.163 HD
BRANCH   4   7
ATOM      7  C   UNL A   1      35.776  23.703  24.951  1.00  0.00     0.122 C 
BRANCH   7   8
ATOM      8  C   UNL A   1      34.684  22.837  25.605  1.00  0.00     0.134 C 
BRANCH   8   9
ATOM      9  N   UNL A   1      33.624  22.401  24.705  1.00  0.00    -0.325 N 
ATOM     10  C   UNL A   1      32.793  23.147  23.865  1.00  0.00     0.052 A 
ATOM     11  C   UNL A   1      31.972  22.202  23.233  1.00  0.00     0.039 A 
ATOM     12  C   UNL A   1      32.433  20.898  23.540  1.00  0.00     0.020 A 
ATOM     13  C   UNL A   1      33.396  21.045  24.523  1.00  0.00     0.140 A 
ATOM     14  C   UNL A   1      32.216  19.610  23.024  1.00  0.00     0.013 A 
ATOM     15  N   UNL A   1      34.100  20.053  25.114  1.00  0.00    -0.238 NA
ATOM     16  C   UNL A   1      32.960  18.562  23.564  1.00  0.00     0.021 A 
ATOM     17  C   UNL A   1      33.840  18.831  24.600  1.00  0.00     0.113 A 
BRANCH  10  18
ATOM     18  C   UNL A   1      32.902  24.582  23.472  1.00  0.00     0.017 A 
ATOM     19  C   UNL A   1      33.909  28.601  22.330  1.00  0.00     0.066 C 
ATOM     20  C   UNL A   1      33.577  27.201  22.746  1.00  0.00     0.037 A 
ATOM     21  C   UNL A   1      33.046  26.960  23.996  1.00  0.00     0.024 A 
ATOM     22  N   UNL A   1      33.747  26.208  21.848  1.00  0.00    -0.261 NA
ATOM     23  C   UNL A   1      32.708  25.652  24.342  1.00  0.00     0.014 A 
ATOM     24  C   UNL A   1      33.391  24.949  22.218  1.00  0.00     0.121 A 
ENDBRANCH  10  18
ENDBRANCH   8   9
ENDBRANCH   7   8
ENDBRANCH   4   7
ENDBRANCH   2   3
ENDBRANCH   1   2
BRANCH   1  25
ATOM     25  C   UNL A   1      40.503  21.256  26.949  1.00  0.00     0.118 C 
BRANCH  25  26
ATOM     26  N   UNL A   1      41.701  21.679  26.246  1.00  0.00    -0.352 N 
ATOM     27  C   UNL A   1      42.192  22.950  26.036  1.00  0.00     0.251 C 
ATOM     28  H   UNL A   1      42.242  20.952  25.862  1.00  0.00     0.163 HD
ATOM     29  O   UNL A   1      43.045  23.105  25.164  1.00  0.00    -0.269 OA
BRANCH  27  30
ATOM     30  C   UNL A   1      41.759  24.104  26.867  1.00  0.00     0.039 A 
ATOM     31  C   UNL A   1      40.654  24.868  26.458  1.00  0.00     0.014 A 
ATOM     32  C   UNL A   1      42.496  24.520  27.976  1.00  0.00     0.014 A 
ATOM     33  C   UNL A   1      40.396  26.084  27.086  1.00  0.00     0.010 A 
ATOM     34  C   UNL A   1      42.119  25.602  28.719  1.00  0.00     0.010 A 
ATOM     35  C   UNL A   1      41.191  26.458  28.173  1.00  0.00    -0.014 A 
BRANCH  35  36
ATOM     36  C   UNL A   1      41.110  27.762  28.795  1.00  0.00     0.031 A 
ATOM     37  C   UNL A   1      42.028  28.739  28.188  1.00  0.00     0.074 A 
ATOM     38  C   UNL A   1      40.107  28.097  29.635  1.00  0.00     0.049 A 
ATOM     39  N   UNL A   1      43.195  29.083  28.619  1.00  0.00    -0.248 NA
ATOM     40  C   UNL A   1      41.728  29.203  26.823  1.00  0.00     0.031 C 
ATOM     41  C   UNL A   1      38.903  27.321  29.977  1.00  0.00     0.029 A 
ATOM     42  N   UNL A   1      39.906  29.262  30.305  1.00  0.00    -0.354 N 
ATOM     43  C   UNL A   1      43.633  30.041  27.714  1.00  0.00     0.074 A 
ATOM     44  C   UNL A   1      42.859  29.841  26.517  1.00  0.00     0.031 C 
ATOM     45  C   UNL A   1      38.010  28.119  30.608  1.00  0.00     0.029 A 
ATOM     46  C   UNL A   1      38.645  29.395  30.874  1.00  0.00     0.049 A 
ATOM     47  H   UNL A   1      40.599  29.957  30.380  1.00  0.00     0.167 HD
ATOM     48  C   UNL A   1      44.305  31.147  28.146  1.00  0.00     0.034 A 
ATOM     49  C   UNL A   1      38.167  30.496  31.505  1.00  0.00     0.034 A 
ATOM     50  C   UNL A   1      44.632  31.029  29.543  1.00  0.00     0.049 A 
ATOM     51  C   UNL A   1      39.338  31.303  31.921  1.00  0.00     0.074 A 
ATOM     52  C   UNL A   1      45.543  30.328  30.298  1.00  0.00     0.029 A 
ATOM     53  N   UNL A   1      43.615  31.423  30.378  1.00  0.00    -0.354 N 
ATOM     54  N   UNL A   1      40.213  30.904  32.804  1.00  0.00    -0.248 NA
ATOM     55  C   UNL A   1      39.758  32.418  31.079  1.00  0.00     0.031 C 
ATOM     56  C   UNL A   1      44.950  30.167  31.584  1.00  0.00     0.029 A 
ATOM     57  C   UNL A   1      43.711  30.808  31.597  1.00  0.00     0.049 A 
ATOM     58  H   UNL A   1      42.909  32.064  30.131  1.00  0.00     0.167 HD
ATOM     59  C   UNL A   1      41.412  31.406  32.336  1.00  0.00     0.074 A 
ATOM     60  C   UNL A   1      41.055  32.462  31.398  1.00  0.00     0.031 C 
ATOM     61  C   UNL A   1      42.573  30.711  32.492  1.00  0.00     0.034 A 
BRANCH  48  62
ATOM     62  C   UNL A   1      44.225  32.502  27.481  1.00  0.00     0.023 A 
ATOM     63  C   UNL A   1      43.538  33.592  28.047  1.00  0.00     0.031 A 
ATOM     64  C   UNL A   1      45.038  32.798  26.371  1.00  0.00     0.131 A 
ATOM     65  C   UNL A   1      43.626  34.880  27.511  1.00  0.00     0.055 A 
ATOM     66  C   UNL A   1      45.185  34.101  25.876  1.00  0.00     0.041 A 
ATOM     67  F   UNL A   1      45.756  31.837  25.767  1.00  0.00    -0.206 F 
ATOM     68  C   UNL A   1      44.471  35.151  26.443  1.00  0.00     0.022 A 
BRANCH  65  69
ATOM     69  S   UNL A   1      42.645  36.228  28.225  1.00  0.00     0.124 S 
ATOM     70  O   UNL A   1      43.373  36.509  29.457  1.00  0.00    -0.237 OA
ATOM     71  O   UNL A   1      42.742  37.246  27.182  1.00  0.00    -0.237 OA
ATOM     72  O   UNL A   1      41.320  35.635  28.386  1.00  0.00    -0.744 OA
ENDBRANCH  65  69
ENDBRANCH  48  62
BRANCH  49  73
ATOM     73  C   UNL A   1      36.816  31.094  31.402  1.00  0.00     0.023 A 
ATOM     74  C   UNL A   1      36.270  31.375  30.136  1.00  0.00     0.031 A 
ATOM     75  C   UNL A   1      36.218  31.712  32.517  1.00  0.00     0.131 A 
ATOM     76  C   UNL A   1      35.225  32.303  30.008  1.00  0.00     0.055 A 
ATOM     77  C   UNL A   1      35.168  32.628  32.384  1.00  0.00     0.041 A 
ATOM     78  F   UNL A   1      36.699  31.497  33.751  1.00  0.00    -0.206 F 
ATOM     79  C   UNL A   1      34.680  32.944  31.122  1.00  0.00     0.022 A 
BRANCH  76  80
ATOM     80  S   UNL A   1      34.587  32.747  28.369  1.00  0.00     0.124 S 
ATOM     81  O   UNL A   1      33.775  33.926  28.654  1.00  0.00    -0.237 OA
ATOM     82  O   UNL A   1      35.813  32.989  27.626  1.00  0.00    -0.237 OA
ATOM     83  O   UNL A   1      33.820  31.562  27.984  1.00  0.00    -0.744 OA
ENDBRANCH  76  80
ENDBRANCH  49  73
BRANCH  61  84
ATOM     84  C   UNL A   1      42.642  29.661  33.564  1.00  0.00     0.023 A 
ATOM     85  C   UNL A   1      43.128  30.083  34.811  1.00  0.00     0.031 A 
ATOM     86  C   UNL A   1      42.449  28.284  33.365  1.00  0.00     0.131 A 
ATOM     87  C   UNL A   1      43.472  29.148  35.786  1.00  0.00     0.055 A 
ATOM     88  C   UNL A   1      42.734  27.351  34.369  1.00  0.00     0.041 A 
ATOM     89  F   UNL A   1      42.052  27.798  32.182  1.00  0.00    -0.206 F 
ATOM     90  C   UNL A   1      43.267  27.781  35.581  1.00  0.00     0.022 A 
BRANCH  87  91
ATOM     91  S   UNL A   1      44.317  29.687  37.292  1.00  0.00     0.124 S 
ATOM     92  O   UNL A   1      44.509  28.430  38.009  1.00  0.00    -0.237 OA
ATOM     93  O   UNL A   1      45.532  30.297  36.758  1.00  0.00    -0.237 OA
ATOM     94  O   UNL A   1      43.377  30.617  37.912  1.00  0.00    -0.744 OA
ENDBRANCH  87  91
ENDBRANCH  61  84
ENDBRANCH  35  36
ENDBRANCH  27  30
ENDBRANCH  25  26
ENDBRANCH   1  25
TORSDOF 16
ENDMDL
MODEL 2
REMARK VINA RESULT:     -12.4      3.665      9.195
REMARK SMILES Cc1ccc(-c2cc3cccnc3n2CCC(=O)NCCCNC(=O)c2ccc(-c3c4nc(c(-c5cc(S(=O)(=O)[O-])ccc5F)c5ccc([nH]5)c(-c5cc(S(=O)(=O)[O-])ccc5F)c5nc(c(-c6cc(S(=O)(=O)[O-])ccc6F)c6ccc3[nH]6)C=C5)C=C4)cc2)cn1
REMARK SMILES IDX 21 1 20 2 19 3 17 4 18 5 16 7 15 8 14 9 6 10 7 11 8 12 13 13
REMARK SMILES IDX 9 14 12 15 10 16 11 17 5 18 1 19 2 20 3 21 90 22 4 23 89 24
REMARK SMILES IDX 22 25 23 26 24 27 25 29 26 30 27 31 88 32 28 33 87 34 29 35
REMARK SMILES IDX 30 36 31 37 81 38 32 39 86 40 80 41 82 42 33 43 85 44 79 45
REMARK SMILES IDX 78 46 34 48 66 49 46 50 65 51 47 52 50 53 64 54 83 55 48 56
REMARK SMILES IDX 49 57 63 59 84 60 51 61 35 62 36 63 44 64 37 65 43 66 45 67
REMARK SMILES IDX 42 68 38 69 39 70 40 71 41 72 67 73 68 74 76 75 69 76 75 77
REMARK SMILES IDX 77 78 74 79 70 80 71 81 72 82 73 83 52 84 53 85 61 86 54 87
REMARK SMILES IDX 60 88 62 89 59 90 55 91 56 92 57 93 58 94
REMARK H PARENT 19 6 23 28 82 47 50 58
REMARK Flexibility Score: inf
ROOT
ATOM      1  C   UNL A   1      33.770  31.209  27.699  1.00  0.00     0.042 C 
ENDROOT
BRANCH   1   2
ATOM      2  C   UNL A   1      32.553  31.024  26.822  1.00  0.00     0.117 C 
BRANCH   2   3
ATOM      3  N   UNL A   1      31.678  29.941  27.250  1.00  0.00    -0.356 N 
ATOM      4  C   UNL A   1      31.823  28.590  27.163  1.00  0.00     0.221 C 
ATOM      5  O   UNL A   1      31.038  27.885  27.804  1.00  0.00    -0.275 OA
ATOM      6  H   UNL A   1      30.841  30.236  27.675  1.00  0.00     0.163 HD
BRANCH   4   7
ATOM      7  C   UNL A   1      32.889  27.945  26.306  1.00  0.00     0.122 C 
BRANCH   7   8
ATOM      8  C   UNL A   1      32.662  28.059  24.788  1.00  0.00     0.134 C 
BRANCH   8   9
ATOM      9  N   UNL A   1      31.418  27.474  24.306  1.00  0.00    -0.325 N 
ATOM     10  C   UNL A   1      30.960  26.154  24.371  1.00  0.00     0.052 A 
ATOM     11  C   UNL A   1      29.699  26.177  23.756  1.00  0.00     0.039 A 
ATOM     12  C   UNL A   1      29.323  27.519  23.503  1.00  0.00     0.020 A 
ATOM     13  C   UNL A   1      30.439  28.295  23.766  1.00  0.00     0.140 A 
ATOM     14  C   UNL A   1      28.129  28.182  23.175  1.00  0.00     0.013 A 
ATOM     15  N   UNL A   1      30.528  29.639  23.655  1.00  0.00    -0.238 NA
ATOM     16  C   UNL A   1      28.159  29.573  23.102  1.00  0.00     0.021 A 
ATOM     17  C   UNL A   1      29.362  30.228  23.315  1.00  0.00     0.113 A 
BRANCH  10  18
ATOM     18  C   UNL A   1      31.507  25.009  25.154  1.00  0.00     0.017 A 
ATOM     19  C   UNL A   1      33.229  22.190  27.904  1.00  0.00     0.066 C 
ATOM     20  C   UNL A   1      32.649  23.189  26.951  1.00  0.00     0.037 A 
ATOM     21  C   UNL A   1      33.298  23.471  25.766  1.00  0.00     0.024 A 
ATOM     22  N   UNL A   1      31.455  23.743  27.250  1.00  0.00    -0.261 NA
ATOM     23  C   UNL A   1      32.716  24.375  24.879  1.00  0.00     0.014 A 
ATOM     24  C   UNL A   1      30.913  24.607  26.351  1.00  0.00     0.121 A 
ENDBRANCH  10  18
ENDBRANCH   8   9
ENDBRANCH   7   8
ENDBRANCH   4   7
ENDBRANCH   2   3
ENDBRANCH   1   2
BRANCH   1  25
ATOM     25  C   UNL A   1      34.296  32.615  27.854  1.00  0.00     0.118 C 
BRANCH  25  26
ATOM     26  N   UNL A   1      34.474  32.996  29.243  1.00  0.00    -0.352 N 
ATOM     27  C   UNL A   1      35.270  32.427  30.214  1.00  0.00     0.251 C 
ATOM     28  H   UNL A   1      33.949  33.775  29.536  1.00  0.00     0.163 HD
ATOM     29  O   UNL A   1      35.044  32.709  31.389  1.00  0.00    -0.269 OA
BRANCH  27  30
ATOM     30  C   UNL A   1      36.411  31.538  29.869  1.00  0.00     0.039 A 
ATOM     31  C   UNL A   1      36.195  30.155  29.753  1.00  0.00     0.014 A 
ATOM     32  C   UNL A   1      37.714  32.029  29.777  1.00  0.00     0.014 A 
ATOM     33  C   UNL A   1      37.290  29.298  29.679  1.00  0.00     0.010 A 
ATOM     34  C   UNL A   1      38.768  31.208  29.495  1.00  0.00     0.010 A 
ATOM     35  C   UNL A   1      38.572  29.852  29.620  1.00  0.00    -0.014 A 
BRANCH  35  36
ATOM     36  C   UNL A   1      39.777  29.056  29.697  1.00  0.00     0.031 A 
ATOM     37  C   UNL A   1      40.127  28.687  31.078  1.00  0.00     0.074 A 
ATOM     38  C   UNL A   1      40.337  28.492  28.604  1.00  0.00     0.049 A 
ATOM     39  N   UNL A   1      40.982  29.273  31.847  1.00  0.00    -0.248 NA
ATOM     40  C   UNL A   1      39.260  27.716  31.767  1.00  0.00     0.031 C 
ATOM     41  C   UNL A   1      39.818  28.456  27.226  1.00  0.00     0.029 A 
ATOM     42  N   UNL A   1      41.465  27.742  28.513  1.00  0.00    -0.354 N 
ATOM     43  C   UNL A   1      40.959  28.532  33.022  1.00  0.00     0.074 A 
ATOM     44  C   UNL A   1      39.707  27.822  33.019  1.00  0.00     0.031 C 
ATOM     45  C   UNL A   1      40.514  27.549  26.501  1.00  0.00     0.029 A 
ATOM     46  C   UNL A   1      41.629  27.081  27.301  1.00  0.00     0.049 A 
ATOM     47  H   UNL A   1      42.117  27.671  29.249  1.00  0.00     0.167 HD
ATOM     48  C   UNL A   1      42.114  28.266  33.697  1.00  0.00     0.034 A 
ATOM     49  C   UNL A   1      42.614  26.201  26.999  1.00  0.00     0.034 A 
ATOM     50  C   UNL A   1      43.212  29.010  33.137  1.00  0.00     0.049 A 
ATOM     51  C   UNL A   1      43.724  26.445  27.949  1.00  0.00     0.074 A 
ATOM     52  C   UNL A   1      43.644  30.316  33.155  1.00  0.00     0.029 A 
ATOM     53  N   UNL A   1      43.798  28.393  32.059  1.00  0.00    -0.354 N 
ATOM     54  N   UNL A   1      44.418  27.550  27.980  1.00  0.00    -0.248 NA
ATOM     55  C   UNL A   1      43.835  25.601  29.133  1.00  0.00     0.031 C 
ATOM     56  C   UNL A   1      44.375  30.507  31.946  1.00  0.00     0.029 A 
ATOM     57  C   UNL A   1      44.409  29.304  31.240  1.00  0.00     0.049 A 
ATOM     58  H   UNL A   1      43.779  27.421  31.897  1.00  0.00     0.167 HD
ATOM     59  C   UNL A   1      44.681  27.742  29.323  1.00  0.00     0.074 A 
ATOM     60  C   UNL A   1      44.467  26.446  29.953  1.00  0.00     0.031 C 
ATOM     61  C   UNL A   1      44.724  28.994  29.858  1.00  0.00     0.034 A 
BRANCH  48  62
ATOM     62  C   UNL A   1      42.359  27.007  34.495  1.00  0.00     0.023 A 
ATOM     63  C   UNL A   1      43.155  25.946  34.025  1.00  0.00     0.031 A 
ATOM     64  C   UNL A   1      41.989  26.943  35.852  1.00  0.00     0.131 A 
ATOM     65  C   UNL A   1      43.518  24.874  34.845  1.00  0.00     0.055 A 
ATOM     66  C   UNL A   1      42.411  25.905  36.695  1.00  0.00     0.041 A 
ATOM     67  F   UNL A   1      41.249  27.913  36.411  1.00  0.00    -0.206 F 
ATOM     68  C   UNL A   1      43.176  24.859  36.191  1.00  0.00     0.022 A 
BRANCH  65  69
ATOM     69  S   UNL A   1      44.465  23.487  34.159  1.00  0.00     0.124 S 
ATOM     70  O   UNL A   1      43.543  22.959  33.160  1.00  0.00    -0.237 OA
ATOM     71  O   UNL A   1      45.647  24.170  33.637  1.00  0.00    -0.237 OA
ATOM     72  O   UNL A   1      44.708  22.635  35.319  1.00  0.00    -0.744 OA
ENDBRANCH  65  69
ENDBRANCH  48  62
BRANCH  49  73
ATOM     73  C   UNL A   1      42.502  24.924  26.256  1.00  0.00     0.023 A 
ATOM     74  C   UNL A   1      41.567  23.956  26.665  1.00  0.00     0.031 A 
ATOM     75  C   UNL A   1      43.531  24.506  25.390  1.00  0.00     0.131 A 
ATOM     76  C   UNL A   1      41.723  22.615  26.279  1.00  0.00     0.055 A 
ATOM     77  C   UNL A   1      43.675  23.170  24.999  1.00  0.00     0.041 A 
ATOM     78  F   UNL A   1      44.464  25.376  24.973  1.00  0.00    -0.206 F 
ATOM     79  C   UNL A   1      42.780  22.212  25.462  1.00  0.00     0.022 A 
BRANCH  76  80
ATOM     80  S   UNL A   1      40.580  21.346  26.888  1.00  0.00     0.124 S 
ATOM     81  O   UNL A   1      39.285  21.841  26.432  1.00  0.00    -0.237 OA
ATOM     82  O   UNL A   1      41.072  20.154  26.216  1.00  0.00    -0.237 OA
ATOM     83  O   UNL A   1      40.773  21.399  28.337  1.00  0.00    -0.744 OA
ENDBRANCH  76  80
ENDBRANCH  49  73
BRANCH  61  84
ATOM     84  C   UNL A   1      44.965  30.159  28.941  1.00  0.00     0.023 A 
ATOM     85  C   UNL A   1      46.307  30.476  28.686  1.00  0.00     0.031 A 
ATOM     86  C   UNL A   1      43.979  31.051  28.487  1.00  0.00     0.131 A 
ATOM     87  C   UNL A   1      46.641  31.680  28.065  1.00  0.00     0.055 A 
ATOM     88  C   UNL A   1      44.313  32.228  27.807  1.00  0.00     0.041 A 
ATOM     89  F   UNL A   1      42.682  30.852  28.750  1.00  0.00    -0.206 F 
ATOM     90  C   UNL A   1      45.652  32.556  27.610  1.00  0.00     0.022 A 
BRANCH  87  91
ATOM     91  S   UNL A   1      48.373  32.187  27.957  1.00  0.00     0.124 S 
ATOM     92  O   UNL A   1      48.366  33.474  28.647  1.00  0.00    -0.237 OA
ATOM     93  O   UNL A   1      49.053  31.103  28.661  1.00  0.00    -0.237 OA
ATOM     94  O   UNL A   1      48.634  32.255  26.522  1.00  0.00    -0.744 OA
ENDBRANCH  87  91
ENDBRANCH  61  84
ENDBRANCH  35  36
ENDBRANCH  27  30
ENDBRANCH  25  26
ENDBRANCH   1  25
TORSDOF 16
ENDMDL
MODEL 3
REMARK VINA RESULT:     -12.4      3.737      8.942
REMARK SMILES Cc1ccc(-c2cc3cccnc3n2CCC(=O)NCCCNC(=O)c2ccc(-c3c4nc(c(-c5cc(S(=O)(=O)[O-])ccc5F)c5ccc([nH]5)c(-c5cc(S(=O)(=O)[O-])ccc5F)c5nc(c(-c6cc(S(=O)(=O)[O-])ccc6F)c6ccc3[nH]6)C=C5)C=C4)cc2)cn1
REMARK SMILES IDX 21 1 20 2 19 3 17 4 18 5 16 7 15 8 14 9 6 10 7 11 8 12 13 13
REMARK SMILES IDX 9 14 12 15 10 16 11 17 5 18 1 19 2 20 3 21 90 22 4 23 89 24
REMARK SMILES IDX 22 25 23 26 24 27 25 29 26 30 27 31 88 32 28 33 87 34 29 35
REMARK SMILES IDX 30 36 31 37 81 38 32 39 86 40 80 41 82 42 33 43 85 44 79 45
REMARK SMILES IDX 78 46 34 48 66 49 46 50 65 51 47 52 50 53 64 54 83 55 48 56
REMARK SMILES IDX 49 57 63 59 84 60 51 61 35 62 36 63 44 64 37 65 43 66 45 67
REMARK SMILES IDX 42 68 38 69 39 70 40 71 41 72 67 73 68 74 76 75 69 76 75 77
REMARK SMILES IDX 77 78 74 79 70 80 71 81 72 82 73 83 52 84 53 85 61 86 54 87
REMARK SMILES IDX 60 88 62 89 59 90 55 91 56 92 57 93 58 94
REMARK H PARENT 19 6 23 28 82 47 50 58
REMARK Flexibility Score: inf
ROOT
ATOM      1  C   UNL A   1      33.466  31.997  27.569  1.00  0.00     0.042 C 
ENDROOT
BRANCH   1   2
ATOM      2  C   UNL A   1      33.858  30.564  27.289  1.00  0.00     0.117 C 
BRANCH   2   3
ATOM      3  N   UNL A   1      32.922  29.583  27.820  1.00  0.00    -0.356 N 
ATOM      4  C   UNL A   1      32.019  28.780  27.192  1.00  0.00     0.221 C 
ATOM      5  O   UNL A   1      31.500  27.873  27.851  1.00  0.00    -0.275 OA
ATOM      6  H   UNL A   1      32.945  29.484  28.799  1.00  0.00     0.163 HD
BRANCH   4   7
ATOM      7  C   UNL A   1      31.633  28.975  25.744  1.00  0.00     0.122 C 
BRANCH   7   8
ATOM      8  C   UNL A   1      32.240  27.955  24.764  1.00  0.00     0.134 C 
BRANCH   8   9
ATOM      9  N   UNL A   1      31.362  26.849  24.405  1.00  0.00    -0.325 N 
ATOM     10  C   UNL A   1      30.146  26.853  23.716  1.00  0.00     0.052 A 
ATOM     11  C   UNL A   1      29.758  25.506  23.656  1.00  0.00     0.039 A 
ATOM     12  C   UNL A   1      30.817  24.691  24.126  1.00  0.00     0.020 A 
ATOM     13  C   UNL A   1      31.759  25.547  24.669  1.00  0.00     0.140 A 
ATOM     14  C   UNL A   1      31.133  23.323  24.065  1.00  0.00     0.013 A 
ATOM     15  N   UNL A   1      32.935  25.193  25.236  1.00  0.00    -0.238 NA
ATOM     16  C   UNL A   1      32.360  22.918  24.588  1.00  0.00     0.021 A 
ATOM     17  C   UNL A   1      33.183  23.868  25.174  1.00  0.00     0.113 A 
BRANCH  10  18
ATOM     18  C   UNL A   1      29.506  27.960  22.949  1.00  0.00     0.017 A 
ATOM     19  C   UNL A   1      28.062  31.577  21.130  1.00  0.00     0.066 C 
ATOM     20  C   UNL A   1      28.563  30.328  21.787  1.00  0.00     0.037 A 
ATOM     21  C   UNL A   1      27.714  29.571  22.568  1.00  0.00     0.024 A 
ATOM     22  N   UNL A   1      29.831  29.937  21.539  1.00  0.00    -0.261 NA
ATOM     23  C   UNL A   1      28.195  28.391  23.135  1.00  0.00     0.014 A 
ATOM     24  C   UNL A   1      30.257  28.773  22.097  1.00  0.00     0.121 A 
ENDBRANCH  10  18
ENDBRANCH   8   9
ENDBRANCH   7   8
ENDBRANCH   4   7
ENDBRANCH   2   3
ENDBRANCH   1   2
BRANCH   1  25
ATOM     25  C   UNL A   1      34.550  32.919  28.069  1.00  0.00     0.118 C 
BRANCH  25  26
ATOM     26  N   UNL A   1      34.581  33.013  29.517  1.00  0.00    -0.352 N 
ATOM     27  C   UNL A   1      35.272  32.247  30.432  1.00  0.00     0.251 C 
ATOM     28  H   UNL A   1      34.027  33.728  29.904  1.00  0.00     0.163 HD
ATOM     29  O   UNL A   1      34.923  32.295  31.610  1.00  0.00    -0.269 OA
BRANCH  27  30
ATOM     30  C   UNL A   1      36.445  31.422  30.036  1.00  0.00     0.039 A 
ATOM     31  C   UNL A   1      36.269  30.051  29.793  1.00  0.00     0.014 A 
ATOM     32  C   UNL A   1      37.735  31.953  30.018  1.00  0.00     0.014 A 
ATOM     33  C   UNL A   1      37.388  29.232  29.668  1.00  0.00     0.010 A 
ATOM     34  C   UNL A   1      38.817  31.188  29.689  1.00  0.00     0.010 A 
ATOM     35  C   UNL A   1      38.656  29.822  29.688  1.00  0.00    -0.014 A 
BRANCH  35  36
ATOM     36  C   UNL A   1      39.880  29.053  29.722  1.00  0.00     0.031 A 
ATOM     37  C   UNL A   1      40.283  28.685  31.089  1.00  0.00     0.074 A 
ATOM     38  C   UNL A   1      40.418  28.508  28.609  1.00  0.00     0.049 A 
ATOM     39  N   UNL A   1      41.148  29.287  31.835  1.00  0.00    -0.248 NA
ATOM     40  C   UNL A   1      39.461  27.691  31.799  1.00  0.00     0.031 C 
ATOM     41  C   UNL A   1      39.857  28.468  27.248  1.00  0.00     0.029 A 
ATOM     42  N   UNL A   1      41.560  27.785  28.478  1.00  0.00    -0.354 N 
ATOM     43  C   UNL A   1      41.179  28.540  33.005  1.00  0.00     0.074 A 
ATOM     44  C   UNL A   1      39.945  27.800  33.038  1.00  0.00     0.031 C 
ATOM     45  C   UNL A   1      40.550  27.581  26.496  1.00  0.00     0.029 A 
ATOM     46  C   UNL A   1      41.700  27.135  27.258  1.00  0.00     0.049 A 
ATOM     47  H   UNL A   1      42.236  27.725  29.192  1.00  0.00     0.167 HD
ATOM     48  C   UNL A   1      42.361  28.297  33.642  1.00  0.00     0.034 A 
ATOM     49  C   UNL A   1      42.696  26.279  26.919  1.00  0.00     0.034 A 
ATOM     50  C   UNL A   1      43.424  29.069  33.052  1.00  0.00     0.049 A 
ATOM     51  C   UNL A   1      43.829  26.543  27.835  1.00  0.00     0.074 A 
ATOM     52  C   UNL A   1      43.826  30.385  33.063  1.00  0.00     0.029 A 
ATOM     53  N   UNL A   1      43.989  28.471  31.952  1.00  0.00    -0.354 N 
ATOM     54  N   UNL A   1      44.498  27.664  27.851  1.00  0.00    -0.248 NA
ATOM     55  C   UNL A   1      43.997  25.696  29.010  1.00  0.00     0.031 C 
ATOM     56  C   UNL A   1      44.513  30.598  31.834  1.00  0.00     0.029 A 
ATOM     57  C   UNL A   1      44.552  29.400  31.120  1.00  0.00     0.049 A 
ATOM     58  H   UNL A   1      43.988  27.500  31.784  1.00  0.00     0.167 HD
ATOM     59  C   UNL A   1      44.799  27.855  29.185  1.00  0.00     0.074 A 
ATOM     60  C   UNL A   1      44.635  26.551  29.814  1.00  0.00     0.031 C 
ATOM     61  C   UNL A   1      44.831  29.105  29.727  1.00  0.00     0.034 A 
BRANCH  48  62
ATOM     62  C   UNL A   1      42.660  27.040  34.424  1.00  0.00     0.023 A 
ATOM     63  C   UNL A   1      43.419  25.976  33.902  1.00  0.00     0.031 A 
ATOM     64  C   UNL A   1      42.388  26.980  35.804  1.00  0.00     0.131 A 
ATOM     65  C   UNL A   1      43.838  24.905  34.697  1.00  0.00     0.055 A 
ATOM     66  C   UNL A   1      42.867  25.944  36.618  1.00  0.00     0.041 A 
ATOM     67  F   UNL A   1      41.691  27.953  36.411  1.00  0.00    -0.206 F 
ATOM     68  C   UNL A   1      43.592  24.895  36.064  1.00  0.00     0.022 A 
BRANCH  65  69
ATOM     69  S   UNL A   1      44.732  23.515  33.950  1.00  0.00     0.124 S 
ATOM     70  O   UNL A   1      44.421  22.429  34.872  1.00  0.00    -0.237 OA
ATOM     71  O   UNL A   1      44.101  23.434  32.634  1.00  0.00    -0.237 OA
ATOM     72  O   UNL A   1      46.120  23.970  33.941  1.00  0.00    -0.744 OA
ENDBRANCH  65  69
ENDBRANCH  48  62
BRANCH  49  73
ATOM     73  C   UNL A   1      42.589  25.003  26.172  1.00  0.00     0.023 A 
ATOM     74  C   UNL A   1      41.736  23.988  26.640  1.00  0.00     0.031 A 
ATOM     75  C   UNL A   1      43.568  24.643  25.227  1.00  0.00     0.131 A 
ATOM     76  C   UNL A   1      41.927  22.659  26.228  1.00  0.00     0.055 A 
ATOM     77  C   UNL A   1      43.747  23.319  24.810  1.00  0.00     0.041 A 
ATOM     78  F   UNL A   1      44.423  25.561  24.750  1.00  0.00    -0.206 F 
ATOM     79  C   UNL A   1      42.936  22.315  25.329  1.00  0.00     0.022 A 
BRANCH  76  80
ATOM     80  S   UNL A   1      40.896  21.331  26.907  1.00  0.00     0.124 S 
ATOM     81  O   UNL A   1      40.600  21.814  28.251  1.00  0.00    -0.237 OA
ATOM     82  O   UNL A   1      39.776  21.318  25.980  1.00  0.00    -0.237 OA
ATOM     83  O   UNL A   1      41.786  20.170  26.862  1.00  0.00    -0.744 OA
ENDBRANCH  76  80
ENDBRANCH  49  73
BRANCH  61  84
ATOM     84  C   UNL A   1      45.015  30.280  28.809  1.00  0.00     0.023 A 
ATOM     85  C   UNL A   1      46.337  30.579  28.448  1.00  0.00     0.031 A 
ATOM     86  C   UNL A   1      44.011  31.195  28.451  1.00  0.00     0.131 A 
ATOM     87  C   UNL A   1      46.640  31.787  27.819  1.00  0.00     0.055 A 
ATOM     88  C   UNL A   1      44.309  32.377  27.762  1.00  0.00     0.041 A 
ATOM     89  F   UNL A   1      42.737  31.013  28.818  1.00  0.00    -0.206 F 
ATOM     90  C   UNL A   1      45.633  32.686  27.459  1.00  0.00     0.022 A 
BRANCH  87  91
ATOM     91  S   UNL A   1      48.366  32.267  27.575  1.00  0.00     0.124 S 
ATOM     92  O   UNL A   1      48.362  32.760  26.200  1.00  0.00    -0.237 OA
ATOM     93  O   UNL A   1      48.548  33.285  28.606  1.00  0.00    -0.237 OA
ATOM     94  O   UNL A   1      49.112  31.029  27.788  1.00  0.00    -0.744 OA
ENDBRANCH  87  91
ENDBRANCH  61  84
ENDBRANCH  35  36
ENDBRANCH  27  30
ENDBRANCH  25  26
ENDBRANCH   1  25
TORSDOF 16
ENDMDL
