MODEL 1
REMARK VINA RESULT:     -11.1      0.000      0.000
REMARK SMILES COc1ccc(F)cc1[C@@H](C(=O)NCCCNC(=O)c1ccc(-c2c3nc(c(-c4cc(S(=O)(=O)[O-])ccc4F)c4ccc([nH]4)c(-c4cc(S(=O)(=O)[O-])ccc4F)c4nc(c(-c5cc(S(=O)(=O)[O-])ccc5F)c5ccc2[nH]5)C=C4)C=C3)cc1)[N@@H+](C)CCn1ccnc1C
REMARK SMILES IDX 14 1 13 2 11 3 12 4 10 6 9 7 3 8 4 9 5 10 8 11 6 12 7 13
REMARK SMILES IDX 2 14 1 15 83 16 84 17 85 19 86 20 87 21 88 22 91 23 89 24
REMARK SMILES IDX 90 25 92 26 15 27 16 28 17 29 18 30 19 32 20 33 21 34 82 35
REMARK SMILES IDX 22 36 81 37 23 38 24 39 25 40 75 41 26 42 80 43 74 44 76 45
REMARK SMILES IDX 27 46 79 47 73 48 72 49 28 51 60 52 40 53 59 54 41 55 44 56
REMARK SMILES IDX 58 57 77 58 42 59 43 60 57 62 78 63 45 64 29 65 30 66 38 67
REMARK SMILES IDX 31 68 37 69 39 70 36 71 32 72 33 73 34 74 35 75 61 76 62 77
REMARK SMILES IDX 70 78 63 79 69 80 71 81 68 82 64 83 65 84 66 85 67 86 46 87
REMARK SMILES IDX 47 88 55 89 48 90 54 91 56 92 53 93 49 94 50 95 51 96 52 97
REMARK H PARENT 13 5 83 18 17 31 76 50 44 61
REMARK Flexibility Score: inf
ROOT
ATOM      1  C   UNL A   1      32.599  29.320  24.676  1.00  0.00     0.118 C 
ENDROOT
BRANCH   1   2
ATOM      2  N   UNL A   1      33.493  28.763  23.699  1.00  0.00    -0.351 N 
ATOM      3  C   UNL A   1      33.660  27.491  23.266  1.00  0.00     0.283 C 
ATOM      4  O   UNL A   1      34.105  27.432  22.106  1.00  0.00    -0.268 OA
ATOM      5  H   UNL A   1      34.088  29.420  23.269  1.00  0.00     0.163 HD
BRANCH   3   6
ATOM      6  C   UNL A   1      33.262  26.186  24.030  1.00  0.00     0.309 C 
BRANCH   6   7
ATOM      7  C   UNL A   1      34.259  25.009  24.167  1.00  0.00     0.064 A 
ATOM      8  C   UNL A   1      34.452  24.029  23.160  1.00  0.00     0.128 A 
ATOM      9  C   UNL A   1      35.422  23.011  23.308  1.00  0.00     0.050 A 
ATOM     10  C   UNL A   1      36.230  22.946  24.438  1.00  0.00     0.043 A 
ATOM     11  C   UNL A   1      35.082  24.881  25.292  1.00  0.00     0.053 A 
ATOM     12  C   UNL A   1      36.059  23.896  25.418  1.00  0.00     0.124 A 
ATOM     13  F   UNL A   1      36.846  23.889  26.502  1.00  0.00    -0.207 F 
BRANCH   8  14
ATOM     14  O   UNL A   1      33.689  24.113  22.019  1.00  0.00    -0.496 OA
ATOM     15  C   UNL A   1      32.964  22.923  21.689  1.00  0.00     0.278 C 
ENDBRANCH   8  14
ENDBRANCH   6   7
BRANCH   6  16
ATOM     16  N   UNL A   1      31.852  25.755  23.666  1.00  0.00    -0.322 N 
ATOM     17  C   UNL A   1      31.123  25.185  24.807  1.00  0.00     0.333 C 
ATOM     18  H   UNL A   1      32.108  25.053  22.972  1.00  0.00     0.348 HD
BRANCH  16  19
ATOM     19  C   UNL A   1      30.959  26.603  22.845  1.00  0.00     0.285 C 
BRANCH  19  20
ATOM     20  C   UNL A   1      29.611  27.251  23.281  1.00  0.00     0.184 C 
BRANCH  20  21
ATOM     21  N   UNL A   1      29.093  28.462  22.678  1.00  0.00    -0.330 N 
ATOM     22  C   UNL A   1      29.919  29.428  22.140  1.00  0.00     0.107 A 
ATOM     23  C   UNL A   1      27.837  29.034  22.751  1.00  0.00     0.105 A 
ATOM     24  C   UNL A   1      29.096  30.441  21.729  1.00  0.00     0.131 A 
ATOM     25  N   UNL A   1      27.808  30.172  22.081  1.00  0.00    -0.242 NA
ATOM     26  C   UNL A   1      26.669  28.523  23.512  1.00  0.00     0.087 C 
ENDBRANCH  20  21
ENDBRANCH  19  20
ENDBRANCH  16  19
ENDBRANCH   6  16
ENDBRANCH   3   6
ENDBRANCH   1   2
BRANCH   1  27
ATOM     27  C   UNL A   1      32.477  28.499  25.948  1.00  0.00     0.042 C 
BRANCH  27  28
ATOM     28  C   UNL A   1      32.434  29.325  27.231  1.00  0.00     0.118 C 
BRANCH  28  29
ATOM     29  N   UNL A   1      32.470  30.764  26.998  1.00  0.00    -0.352 N 
ATOM     30  C   UNL A   1      33.429  31.694  27.301  1.00  0.00     0.251 C 
ATOM     31  H   UNL A   1      31.672  31.128  26.549  1.00  0.00     0.163 HD
ATOM     32  O   UNL A   1      33.183  32.887  27.121  1.00  0.00    -0.269 OA
BRANCH  30  33
ATOM     33  C   UNL A   1      34.731  31.282  27.862  1.00  0.00     0.039 A 
ATOM     34  C   UNL A   1      35.736  32.245  27.993  1.00  0.00     0.014 A 
ATOM     35  C   UNL A   1      34.975  29.959  28.242  1.00  0.00     0.014 A 
ATOM     36  C   UNL A   1      36.957  31.898  28.572  1.00  0.00     0.010 A 
ATOM     37  C   UNL A   1      36.167  29.630  28.883  1.00  0.00     0.010 A 
ATOM     38  C   UNL A   1      37.167  30.597  29.059  1.00  0.00    -0.014 A 
BRANCH  38  39
ATOM     39  C   UNL A   1      38.422  30.241  29.767  1.00  0.00     0.031 A 
ATOM     40  C   UNL A   1      38.688  30.760  31.151  1.00  0.00     0.074 A 
ATOM     41  C   UNL A   1      39.341  29.480  29.140  1.00  0.00     0.049 A 
ATOM     42  N   UNL A   1      39.747  30.602  31.902  1.00  0.00    -0.248 NA
ATOM     43  C   UNL A   1      37.633  31.582  31.766  1.00  0.00     0.031 C 
ATOM     44  C   UNL A   1      39.206  28.940  27.785  1.00  0.00     0.029 A 
ATOM     45  N   UNL A   1      40.568  29.027  29.554  1.00  0.00    -0.354 N 
ATOM     46  C   UNL A   1      39.493  31.307  33.072  1.00  0.00     0.074 A 
ATOM     47  C   UNL A   1      38.198  31.934  32.913  1.00  0.00     0.031 C 
ATOM     48  C   UNL A   1      40.288  28.202  27.495  1.00  0.00     0.029 A 
ATOM     49  C   UNL A   1      41.217  28.254  28.620  1.00  0.00     0.049 A 
ATOM     50  H   UNL A   1      40.948  29.236  30.438  1.00  0.00     0.167 HD
ATOM     51  C   UNL A   1      40.261  31.404  34.183  1.00  0.00     0.034 A 
ATOM     52  C   UNL A   1      42.427  27.663  28.656  1.00  0.00     0.034 A 
ATOM     53  C   UNL A   1      41.542  30.763  34.335  1.00  0.00     0.049 A 
ATOM     54  C   UNL A   1      43.278  27.815  29.888  1.00  0.00     0.074 A 
ATOM     55  C   UNL A   1      42.375  30.759  35.440  1.00  0.00     0.029 A 
ATOM     56  N   UNL A   1      42.181  30.016  33.353  1.00  0.00    -0.354 N 
ATOM     57  N   UNL A   1      43.016  28.474  30.993  1.00  0.00    -0.248 NA
ATOM     58  C   UNL A   1      44.586  27.148  29.880  1.00  0.00     0.031 C 
ATOM     59  C   UNL A   1      43.543  30.067  35.106  1.00  0.00     0.029 A 
ATOM     60  C   UNL A   1      43.409  29.575  33.817  1.00  0.00     0.049 A 
ATOM     61  H   UNL A   1      41.814  29.828  32.459  1.00  0.00     0.167 HD
ATOM     62  C   UNL A   1      44.119  28.286  31.818  1.00  0.00     0.074 A 
ATOM     63  C   UNL A   1      45.048  27.447  31.088  1.00  0.00     0.031 C 
ATOM     64  C   UNL A   1      44.335  28.757  33.072  1.00  0.00     0.034 A 
BRANCH  51  65
ATOM     65  C   UNL A   1      39.745  32.252  35.318  1.00  0.00     0.023 A 
ATOM     66  C   UNL A   1      38.967  31.704  36.351  1.00  0.00     0.031 A 
ATOM     67  C   UNL A   1      40.055  33.622  35.378  1.00  0.00     0.131 A 
ATOM     68  C   UNL A   1      38.485  32.530  37.378  1.00  0.00     0.055 A 
ATOM     69  C   UNL A   1      39.628  34.426  36.436  1.00  0.00     0.041 A 
ATOM     70  F   UNL A   1      40.780  34.201  34.408  1.00  0.00    -0.206 F 
ATOM     71  C   UNL A   1      38.832  33.883  37.440  1.00  0.00     0.022 A 
BRANCH  68  72
ATOM     72  S   UNL A   1      37.334  31.831  38.591  1.00  0.00     0.124 S 
ATOM     73  O   UNL A   1      36.193  32.735  38.467  1.00  0.00    -0.237 OA
ATOM     74  O   UNL A   1      37.131  30.475  38.093  1.00  0.00    -0.237 OA
ATOM     75  O   UNL A   1      38.065  31.928  39.853  1.00  0.00    -0.744 OA
ENDBRANCH  68  72
ENDBRANCH  51  65
BRANCH  52  76
ATOM     76  C   UNL A   1      42.903  26.882  27.483  1.00  0.00     0.023 A 
ATOM     77  C   UNL A   1      42.707  25.495  27.410  1.00  0.00     0.031 A 
ATOM     78  C   UNL A   1      43.540  27.520  26.403  1.00  0.00     0.131 A 
ATOM     79  C   UNL A   1      43.158  24.786  26.285  1.00  0.00     0.055 A 
ATOM     80  C   UNL A   1      43.954  26.817  25.272  1.00  0.00     0.041 A 
ATOM     81  F   UNL A   1      43.738  28.849  26.422  1.00  0.00    -0.206 F 
ATOM     82  C   UNL A   1      43.766  25.439  25.211  1.00  0.00     0.022 A 
BRANCH  79  83
ATOM     83  S   UNL A   1      42.945  22.985  26.245  1.00  0.00     0.124 S 
ATOM     84  O   UNL A   1      44.193  22.526  26.844  1.00  0.00    -0.237 OA
ATOM     85  O   UNL A   1      41.741  22.800  27.049  1.00  0.00    -0.237 OA
ATOM     86  O   UNL A   1      42.789  22.693  24.821  1.00  0.00    -0.744 OA
ENDBRANCH  79  83
ENDBRANCH  52  76
BRANCH  64  87
ATOM     87  C   UNL A   1      45.618  28.358  33.752  1.00  0.00     0.023 A 
ATOM     88  C   UNL A   1      45.712  27.182  34.516  1.00  0.00     0.031 A 
ATOM     89  C   UNL A   1      46.776  29.139  33.588  1.00  0.00     0.131 A 
ATOM     90  C   UNL A   1      46.935  26.833  35.108  1.00  0.00     0.055 A 
ATOM     91  C   UNL A   1      48.000  28.762  34.138  1.00  0.00     0.041 A 
ATOM     92  F   UNL A   1      46.737  30.270  32.865  1.00  0.00    -0.206 F 
ATOM     93  C   UNL A   1      48.083  27.605  34.908  1.00  0.00     0.022 A 
BRANCH  90  94
ATOM     94  S   UNL A   1      47.005  25.366  36.172  1.00  0.00     0.124 S 
ATOM     95  O   UNL A   1      46.216  24.403  35.410  1.00  0.00    -0.237 OA
ATOM     96  O   UNL A   1      48.438  25.097  36.247  1.00  0.00    -0.237 OA
ATOM     97  O   UNL A   1      46.395  25.817  37.421  1.00  0.00    -0.744 OA
ENDBRANCH  90  94
ENDBRANCH  64  87
ENDBRANCH  38  39
ENDBRANCH  30  33
ENDBRANCH  28  29
ENDBRANCH  27  28
ENDBRANCH   1  27
TORSDOF 19
ENDMDL
MODEL 2
REMARK VINA RESULT:     -11.1      4.999      7.458
REMARK SMILES COc1ccc(F)cc1[C@@H](C(=O)NCCCNC(=O)c1ccc(-c2c3nc(c(-c4cc(S(=O)(=O)[O-])ccc4F)c4ccc([nH]4)c(-c4cc(S(=O)(=O)[O-])ccc4F)c4nc(c(-c5cc(S(=O)(=O)[O-])ccc5F)c5ccc2[nH]5)C=C4)C=C3)cc1)[N@@H+](C)CCn1ccnc1C
REMARK SMILES IDX 14 1 13 2 11 3 12 4 10 6 9 7 3 8 4 9 5 10 8 11 6 12 7 13
REMARK SMILES IDX 2 14 1 15 83 16 84 17 85 19 86 20 87 21 88 22 91 23 89 24
REMARK SMILES IDX 90 25 92 26 15 27 16 28 17 29 18 30 19 32 20 33 21 34 82 35
REMARK SMILES IDX 22 36 81 37 23 38 24 39 25 40 75 41 26 42 80 43 74 44 76 45
REMARK SMILES IDX 27 46 79 47 73 48 72 49 28 51 60 52 40 53 59 54 41 55 44 56
REMARK SMILES IDX 58 57 77 58 42 59 43 60 57 62 78 63 45 64 29 65 30 66 38 67
REMARK SMILES IDX 31 68 37 69 39 70 36 71 32 72 33 73 34 74 35 75 61 76 62 77
REMARK SMILES IDX 70 78 63 79 69 80 71 81 68 82 64 83 65 84 66 85 67 86 46 87
REMARK SMILES IDX 47 88 55 89 48 90 54 91 56 92 53 93 49 94 50 95 51 96 52 97
REMARK H PARENT 13 5 83 18 17 31 76 50 44 61
REMARK Flexibility Score: inf
ROOT
ATOM      1  C   UNL A   1      35.468  22.173  24.907  1.00  0.00     0.118 C 
ENDROOT
BRANCH   1   2
ATOM      2  N   UNL A   1      34.972  22.733  26.133  1.00  0.00    -0.351 N 
ATOM      3  C   UNL A   1      33.825  22.508  26.817  1.00  0.00     0.283 C 
ATOM      4  O   UNL A   1      33.939  22.732  28.035  1.00  0.00    -0.268 OA
ATOM      5  H   UNL A   1      35.571  23.395  26.550  1.00  0.00     0.163 HD
BRANCH   3   6
ATOM      6  C   UNL A   1      32.494  21.926  26.239  1.00  0.00     0.309 C 
BRANCH   6   7
ATOM      7  C   UNL A   1      32.510  20.747  25.236  1.00  0.00     0.064 A 
ATOM      8  C   UNL A   1      32.250  20.896  23.850  1.00  0.00     0.128 A 
ATOM      9  C   UNL A   1      32.340  19.796  22.967  1.00  0.00     0.050 A 
ATOM     10  C   UNL A   1      32.704  18.535  23.424  1.00  0.00     0.043 A 
ATOM     11  C   UNL A   1      32.848  19.450  25.645  1.00  0.00     0.053 A 
ATOM     12  C   UNL A   1      32.968  18.378  24.765  1.00  0.00     0.124 A 
ATOM     13  F   UNL A   1      33.361  17.186  25.235  1.00  0.00    -0.207 F 
BRANCH   8  14
ATOM     14  O   UNL A   1      31.933  22.150  23.382  1.00  0.00    -0.496 OA
ATOM     15  C   UNL A   1      32.881  22.710  22.466  1.00  0.00     0.278 C 
ENDBRANCH   8  14
ENDBRANCH   6   7
BRANCH   6  16
ATOM     16  N   UNL A   1      31.538  23.043  25.856  1.00  0.00    -0.322 N 
ATOM     17  C   UNL A   1      30.273  22.983  26.601  1.00  0.00     0.333 C 
ATOM     18  H   UNL A   1      31.429  22.787  24.875  1.00  0.00     0.348 HD
BRANCH  16  19
ATOM     19  C   UNL A   1      31.988  24.444  25.700  1.00  0.00     0.285 C 
BRANCH  19  20
ATOM     20  C   UNL A   1      31.302  25.568  24.868  1.00  0.00     0.184 C 
BRANCH  20  21
ATOM     21  N   UNL A   1      32.028  26.699  24.330  1.00  0.00    -0.330 N 
ATOM     22  C   UNL A   1      33.362  26.918  24.609  1.00  0.00     0.107 A 
ATOM     23  C   UNL A   1      31.569  27.861  23.738  1.00  0.00     0.105 A 
ATOM     24  C   UNL A   1      33.687  28.096  23.994  1.00  0.00     0.131 A 
ATOM     25  N   UNL A   1      32.580  28.654  23.429  1.00  0.00    -0.242 NA
ATOM     26  C   UNL A   1      30.153  28.246  23.513  1.00  0.00     0.087 C 
ENDBRANCH  20  21
ENDBRANCH  19  20
ENDBRANCH  16  19
ENDBRANCH   6  16
ENDBRANCH   3   6
ENDBRANCH   1   2
BRANCH   1  27
ATOM     27  C   UNL A   1      36.328  20.934  25.091  1.00  0.00     0.042 C 
BRANCH  27  28
ATOM     28  C   UNL A   1      37.818  21.158  24.846  1.00  0.00     0.118 C 
BRANCH  28  29
ATOM     29  N   UNL A   1      38.672  20.197  25.534  1.00  0.00    -0.352 N 
ATOM     30  C   UNL A   1      39.783  20.386  26.313  1.00  0.00     0.251 C 
ATOM     31  H   UNL A   1      38.406  19.256  25.419  1.00  0.00     0.163 HD
ATOM     32  O   UNL A   1      40.424  19.406  26.689  1.00  0.00    -0.269 OA
BRANCH  30  33
ATOM     33  C   UNL A   1      40.228  21.747  26.676  1.00  0.00     0.039 A 
ATOM     34  C   UNL A   1      41.203  21.887  27.669  1.00  0.00     0.014 A 
ATOM     35  C   UNL A   1      39.685  22.879  26.063  1.00  0.00     0.014 A 
ATOM     36  C   UNL A   1      41.684  23.156  27.993  1.00  0.00     0.010 A 
ATOM     37  C   UNL A   1      40.216  24.138  26.337  1.00  0.00     0.010 A 
ATOM     38  C   UNL A   1      41.223  24.288  27.300  1.00  0.00    -0.014 A 
BRANCH  38  39
ATOM     39  C   UNL A   1      41.798  25.630  27.565  1.00  0.00     0.031 A 
ATOM     40  C   UNL A   1      41.016  26.652  28.341  1.00  0.00     0.074 A 
ATOM     41  C   UNL A   1      43.012  25.939  27.068  1.00  0.00     0.049 A 
ATOM     42  N   UNL A   1      41.330  27.890  28.623  1.00  0.00    -0.248 NA
ATOM     43  C   UNL A   1      39.701  26.235  28.852  1.00  0.00     0.031 C 
ATOM     44  C   UNL A   1      43.853  25.038  26.277  1.00  0.00     0.029 A 
ATOM     45  N   UNL A   1      43.752  27.092  27.152  1.00  0.00    -0.354 N 
ATOM     46  C   UNL A   1      40.253  28.403  29.335  1.00  0.00     0.074 A 
ATOM     47  C   UNL A   1      39.255  27.356  29.401  1.00  0.00     0.031 C 
ATOM     48  C   UNL A   1      45.005  25.658  25.979  1.00  0.00     0.029 A 
ATOM     49  C   UNL A   1      44.968  27.016  26.513  1.00  0.00     0.049 A 
ATOM     50  H   UNL A   1      43.441  27.897  27.626  1.00  0.00     0.167 HD
ATOM     51  C   UNL A   1      40.118  29.628  29.898  1.00  0.00     0.034 A 
ATOM     52  C   UNL A   1      45.939  27.937  26.363  1.00  0.00     0.034 A 
ATOM     53  C   UNL A   1      41.125  30.656  29.837  1.00  0.00     0.049 A 
ATOM     54  C   UNL A   1      45.752  29.303  26.967  1.00  0.00     0.074 A 
ATOM     55  C   UNL A   1      41.105  31.913  30.417  1.00  0.00     0.029 A 
ATOM     56  N   UNL A   1      42.329  30.554  29.152  1.00  0.00    -0.354 N 
ATOM     57  N   UNL A   1      44.732  29.767  27.650  1.00  0.00    -0.248 NA
ATOM     58  C   UNL A   1      46.842  30.269  26.780  1.00  0.00     0.031 C 
ATOM     59  C   UNL A   1      42.264  32.592  30.031  1.00  0.00     0.029 A 
ATOM     60  C   UNL A   1      43.044  31.734  29.270  1.00  0.00     0.049 A 
ATOM     61  H   UNL A   1      42.630  29.758  28.656  1.00  0.00     0.167 HD
ATOM     62  C   UNL A   1      45.065  31.074  27.990  1.00  0.00     0.074 A 
ATOM     63  C   UNL A   1      46.383  31.324  27.441  1.00  0.00     0.031 C 
ATOM     64  C   UNL A   1      44.348  31.979  28.701  1.00  0.00     0.034 A 
BRANCH  51  65
ATOM     65  C   UNL A   1      38.826  29.930  30.614  1.00  0.00     0.023 A 
ATOM     66  C   UNL A   1      37.819  30.706  30.018  1.00  0.00     0.031 A 
ATOM     67  C   UNL A   1      38.593  29.415  31.901  1.00  0.00     0.131 A 
ATOM     68  C   UNL A   1      36.640  30.985  30.727  1.00  0.00     0.055 A 
ATOM     69  C   UNL A   1      37.392  29.642  32.576  1.00  0.00     0.041 A 
ATOM     70  F   UNL A   1      39.528  28.682  32.524  1.00  0.00    -0.206 F 
ATOM     71  C   UNL A   1      36.410  30.437  31.992  1.00  0.00     0.022 A 
BRANCH  68  72
ATOM     72  S   UNL A   1      35.442  32.139  30.006  1.00  0.00     0.124 S 
ATOM     73  O   UNL A   1      34.542  32.369  31.133  1.00  0.00    -0.237 OA
ATOM     74  O   UNL A   1      36.281  33.268  29.620  1.00  0.00    -0.237 OA
ATOM     75  O   UNL A   1      34.864  31.385  28.896  1.00  0.00    -0.744 OA
ENDBRANCH  68  72
ENDBRANCH  51  65
BRANCH  52  76
ATOM     76  C   UNL A   1      47.170  27.594  25.601  1.00  0.00     0.023 A 
ATOM     77  C   UNL A   1      47.244  27.801  24.215  1.00  0.00     0.031 A 
ATOM     78  C   UNL A   1      48.302  27.077  26.256  1.00  0.00     0.131 A 
ATOM     79  C   UNL A   1      48.422  27.477  23.524  1.00  0.00     0.055 A 
ATOM     80  C   UNL A   1      49.483  26.791  25.571  1.00  0.00     0.041 A 
ATOM     81  F   UNL A   1      48.284  26.875  27.584  1.00  0.00    -0.206 F 
ATOM     82  C   UNL A   1      49.546  26.989  24.195  1.00  0.00     0.022 A 
BRANCH  79  83
ATOM     83  S   UNL A   1      48.468  27.698  21.725  1.00  0.00     0.124 S 
ATOM     84  O   UNL A   1      47.143  28.246  21.460  1.00  0.00    -0.237 OA
ATOM     85  O   UNL A   1      49.589  28.617  21.557  1.00  0.00    -0.237 OA
ATOM     86  O   UNL A   1      48.698  26.345  21.222  1.00  0.00    -0.744 OA
ENDBRANCH  79  83
ENDBRANCH  52  76
BRANCH  64  87
ATOM     87  C   UNL A   1      44.979  33.322  28.954  1.00  0.00     0.023 A 
ATOM     88  C   UNL A   1      44.666  34.443  28.166  1.00  0.00     0.031 A 
ATOM     89  C   UNL A   1      45.863  33.493  30.033  1.00  0.00     0.131 A 
ATOM     90  C   UNL A   1      45.255  35.683  28.455  1.00  0.00     0.055 A 
ATOM     91  C   UNL A   1      46.408  34.738  30.346  1.00  0.00     0.041 A 
ATOM     92  F   UNL A   1      46.191  32.453  30.817  1.00  0.00    -0.206 F 
ATOM     93  C   UNL A   1      46.108  35.841  29.551  1.00  0.00     0.022 A 
BRANCH  90  94
ATOM     94  S   UNL A   1      44.915  37.089  27.362  1.00  0.00     0.124 S 
ATOM     95  O   UNL A   1      46.083  37.078  26.485  1.00  0.00    -0.237 OA
ATOM     96  O   UNL A   1      43.649  36.710  26.742  1.00  0.00    -0.237 OA
ATOM     97  O   UNL A   1      44.838  38.226  28.277  1.00  0.00    -0.744 OA
ENDBRANCH  90  94
ENDBRANCH  64  87
ENDBRANCH  38  39
ENDBRANCH  30  33
ENDBRANCH  28  29
ENDBRANCH  27  28
ENDBRANCH   1  27
TORSDOF 19
ENDMDL
MODEL 3
REMARK VINA RESULT:     -11.0      4.911      6.929
REMARK SMILES COc1ccc(F)cc1[C@@H](C(=O)NCCCNC(=O)c1ccc(-c2c3nc(c(-c4cc(S(=O)(=O)[O-])ccc4F)c4ccc([nH]4)c(-c4cc(S(=O)(=O)[O-])ccc4F)c4nc(c(-c5cc(S(=O)(=O)[O-])ccc5F)c5ccc2[nH]5)C=C4)C=C3)cc1)[N@@H+](C)CCn1ccnc1C
REMARK SMILES IDX 14 1 13 2 11 3 12 4 10 6 9 7 3 8 4 9 5 10 8 11 6 12 7 13
REMARK SMILES IDX 2 14 1 15 83 16 84 17 85 19 86 20 87 21 88 22 91 23 89 24
REMARK SMILES IDX 90 25 92 26 15 27 16 28 17 29 18 30 19 32 20 33 21 34 82 35
REMARK SMILES IDX 22 36 81 37 23 38 24 39 25 40 75 41 26 42 80 43 74 44 76 45
REMARK SMILES IDX 27 46 79 47 73 48 72 49 28 51 60 52 40 53 59 54 41 55 44 56
REMARK SMILES IDX 58 57 77 58 42 59 43 60 57 62 78 63 45 64 29 65 30 66 38 67
REMARK SMILES IDX 31 68 37 69 39 70 36 71 32 72 33 73 34 74 35 75 61 76 62 77
REMARK SMILES IDX 70 78 63 79 69 80 71 81 68 82 64 83 65 84 66 85 67 86 46 87
REMARK SMILES IDX 47 88 55 89 48 90 54 91 56 92 53 93 49 94 50 95 51 96 52 97
REMARK H PARENT 13 5 83 18 17 31 76 50 44 61
REMARK Flexibility Score: inf
ROOT
ATOM      1  C   UNL A   1      33.802  22.959  24.307  1.00  0.00     0.118 C 
ENDROOT
BRANCH   1   2
ATOM      2  N   UNL A   1      32.607  23.340  25.006  1.00  0.00    -0.351 N 
ATOM      3  C   UNL A   1      31.855  24.464  24.942  1.00  0.00     0.283 C 
ATOM      4  O   UNL A   1      30.667  24.267  25.253  1.00  0.00    -0.268 OA
ATOM      5  H   UNL A   1      32.275  22.665  25.643  1.00  0.00     0.163 HD
BRANCH   3   6
ATOM      6  C   UNL A   1      32.320  25.870  24.439  1.00  0.00     0.309 C 
BRANCH   6   7
ATOM      7  C   UNL A   1      32.559  27.031  25.434  1.00  0.00     0.064 A 
ATOM      8  C   UNL A   1      33.472  28.090  25.194  1.00  0.00     0.128 A 
ATOM      9  C   UNL A   1      33.607  29.160  26.107  1.00  0.00     0.050 A 
ATOM     10  C   UNL A   1      32.836  29.220  27.263  1.00  0.00     0.043 A 
ATOM     11  C   UNL A   1      31.828  27.131  26.625  1.00  0.00     0.053 A 
ATOM     12  C   UNL A   1      31.940  28.204  27.504  1.00  0.00     0.124 A 
ATOM     13  F   UNL A   1      31.153  28.249  28.587  1.00  0.00    -0.207 F 
BRANCH   8  14
ATOM     14  O   UNL A   1      34.205  28.061  24.030  1.00  0.00    -0.496 OA
ATOM     15  C   UNL A   1      33.769  28.977  23.019  1.00  0.00     0.278 C 
ENDBRANCH   8  14
ENDBRANCH   6   7
BRANCH   6  16
ATOM     16  N   UNL A   1      31.555  26.278  23.192  1.00  0.00    -0.322 N 
ATOM     17  C   UNL A   1      31.370  25.163  22.253  1.00  0.00     0.333 C 
ATOM     18  H   UNL A   1      32.222  26.970  22.853  1.00  0.00     0.348 HD
BRANCH  16  19
ATOM     19  C   UNL A   1      30.337  27.115  23.257  1.00  0.00     0.285 C 
BRANCH  19  20
ATOM     20  C   UNL A   1      29.960  28.304  22.323  1.00  0.00     0.184 C 
BRANCH  20  21
ATOM     21  N   UNL A   1      29.033  29.345  22.717  1.00  0.00    -0.330 N 
ATOM     22  C   UNL A   1      29.434  30.649  22.923  1.00  0.00     0.107 A 
ATOM     23  C   UNL A   1      27.748  29.259  23.221  1.00  0.00     0.105 A 
ATOM     24  C   UNL A   1      28.321  31.324  23.342  1.00  0.00     0.131 A 
ATOM     25  N   UNL A   1      27.275  30.463  23.490  1.00  0.00    -0.242 NA
ATOM     26  C   UNL A   1      26.983  28.018  23.502  1.00  0.00     0.087 C 
ENDBRANCH  20  21
ENDBRANCH  19  20
ENDBRANCH  16  19
ENDBRANCH   6  16
ENDBRANCH   3   6
ENDBRANCH   1   2
BRANCH   1  27
ATOM     27  C   UNL A   1      34.564  21.815  24.954  1.00  0.00     0.042 C 
BRANCH  27  28
ATOM     28  C   UNL A   1      35.901  22.217  25.571  1.00  0.00     0.118 C 
BRANCH  28  29
ATOM     29  N   UNL A   1      36.903  21.159  25.528  1.00  0.00    -0.352 N 
ATOM     30  C   UNL A   1      38.256  21.199  25.744  1.00  0.00     0.251 C 
ATOM     31  H   UNL A   1      36.550  20.267  25.306  1.00  0.00     0.163 HD
ATOM     32  O   UNL A   1      38.927  20.192  25.525  1.00  0.00    -0.269 OA
BRANCH  30  33
ATOM     33  C   UNL A   1      38.910  22.440  26.206  1.00  0.00     0.039 A 
ATOM     34  C   UNL A   1      40.028  22.335  27.038  1.00  0.00     0.014 A 
ATOM     35  C   UNL A   1      38.424  23.699  25.841  1.00  0.00     0.014 A 
ATOM     36  C   UNL A   1      40.701  23.489  27.444  1.00  0.00     0.010 A 
ATOM     37  C   UNL A   1      39.137  24.845  26.188  1.00  0.00     0.010 A 
ATOM     38  C   UNL A   1      40.284  24.750  26.989  1.00  0.00    -0.014 A 
BRANCH  38  39
ATOM     39  C   UNL A   1      41.049  25.975  27.331  1.00  0.00     0.031 A 
ATOM     40  C   UNL A   1      40.417  27.061  28.155  1.00  0.00     0.074 A 
ATOM     41  C   UNL A   1      42.304  26.123  26.861  1.00  0.00     0.049 A 
ATOM     42  N   UNL A   1      40.908  28.221  28.506  1.00  0.00    -0.248 NA
ATOM     43  C   UNL A   1      39.046  26.820  28.631  1.00  0.00     0.031 C 
ATOM     44  C   UNL A   1      43.014  25.148  26.029  1.00  0.00     0.029 A 
ATOM     45  N   UNL A   1      43.207  27.146  27.014  1.00  0.00    -0.354 N 
ATOM     46  C   UNL A   1      39.908  28.852  29.236  1.00  0.00     0.074 A 
ATOM     47  C   UNL A   1      38.764  27.965  29.236  1.00  0.00     0.031 C 
ATOM     48  C   UNL A   1      44.250  25.604  25.775  1.00  0.00     0.029 A 
ATOM     49  C   UNL A   1      44.408  26.922  26.382  1.00  0.00     0.049 A 
ATOM     50  H   UNL A   1      43.012  27.963  27.528  1.00  0.00     0.167 HD
ATOM     51  C   UNL A   1      39.949  30.052  29.863  1.00  0.00     0.034 A 
ATOM     52  C   UNL A   1      45.509  27.693  26.291  1.00  0.00     0.034 A 
ATOM     53  C   UNL A   1      41.100  30.919  29.866  1.00  0.00     0.049 A 
ATOM     54  C   UNL A   1      45.518  29.038  26.966  1.00  0.00     0.074 A 
ATOM     55  C   UNL A   1      41.258  32.132  30.514  1.00  0.00     0.029 A 
ATOM     56  N   UNL A   1      42.286  30.672  29.187  1.00  0.00    -0.354 N 
ATOM     57  N   UNL A   1      44.568  29.613  27.665  1.00  0.00    -0.248 NA
ATOM     58  C   UNL A   1      46.744  29.837  26.841  1.00  0.00     0.031 C 
ATOM     59  C   UNL A   1      42.512  32.648  30.175  1.00  0.00     0.029 A 
ATOM     60  C   UNL A   1      43.167  31.724  29.375  1.00  0.00     0.049 A 
ATOM     61  H   UNL A   1      42.472  29.868  28.651  1.00  0.00     0.167 HD
ATOM     62  C   UNL A   1      45.087  30.835  28.078  1.00  0.00     0.074 A 
ATOM     63  C   UNL A   1      46.437  30.913  27.555  1.00  0.00     0.031 C 
ATOM     64  C   UNL A   1      44.502  31.799  28.832  1.00  0.00     0.034 A 
BRANCH  51  65
ATOM     65  C   UNL A   1      38.706  30.507  30.584  1.00  0.00     0.023 A 
ATOM     66  C   UNL A   1      37.781  31.375  29.980  1.00  0.00     0.031 A 
ATOM     67  C   UNL A   1      38.432  30.048  31.884  1.00  0.00     0.131 A 
ATOM     68  C   UNL A   1      36.648  31.794  30.692  1.00  0.00     0.055 A 
ATOM     69  C   UNL A   1      37.270  30.417  32.564  1.00  0.00     0.041 A 
ATOM     70  F   UNL A   1      39.290  29.231  32.515  1.00  0.00    -0.206 F 
ATOM     71  C   UNL A   1      36.373  31.301  31.972  1.00  0.00     0.022 A 
BRANCH  68  72
ATOM     72  S   UNL A   1      35.573  33.056  29.957  1.00  0.00     0.124 S 
ATOM     73  O   UNL A   1      35.344  33.945  31.093  1.00  0.00    -0.237 OA
ATOM     74  O   UNL A   1      36.403  33.594  28.885  1.00  0.00    -0.237 OA
ATOM     75  O   UNL A   1      34.403  32.298  29.519  1.00  0.00    -0.744 OA
ENDBRANCH  68  72
ENDBRANCH  51  65
BRANCH  52  76
ATOM     76  C   UNL A   1      46.687  27.209  25.521  1.00  0.00     0.023 A 
ATOM     77  C   UNL A   1      46.930  27.656  24.214  1.00  0.00     0.031 A 
ATOM     78  C   UNL A   1      47.602  26.309  26.096  1.00  0.00     0.131 A 
ATOM     79  C   UNL A   1      48.055  27.190  23.516  1.00  0.00     0.055 A 
ATOM     80  C   UNL A   1      48.738  25.877  25.412  1.00  0.00     0.041 A 
ATOM     81  F   UNL A   1      47.419  25.864  27.350  1.00  0.00    -0.206 F 
ATOM     82  C   UNL A   1      48.968  26.316  24.112  1.00  0.00     0.022 A 
BRANCH  79  83
ATOM     83  S   UNL A   1      48.312  27.737  21.807  1.00  0.00     0.124 S 
ATOM     84  O   UNL A   1      47.061  28.432  21.527  1.00  0.00    -0.237 OA
ATOM     85  O   UNL A   1      49.499  28.576  21.928  1.00  0.00    -0.237 OA
ATOM     86  O   UNL A   1      48.510  26.487  21.075  1.00  0.00    -0.744 OA
ENDBRANCH  79  83
ENDBRANCH  52  76
BRANCH  64  87
ATOM     87  C   UNL A   1      45.323  33.018  29.162  1.00  0.00     0.023 A 
ATOM     88  C   UNL A   1      45.327  34.151  28.331  1.00  0.00     0.031 A 
ATOM     89  C   UNL A   1      46.068  33.063  30.354  1.00  0.00     0.131 A 
ATOM     90  C   UNL A   1      46.083  35.275  28.693  1.00  0.00     0.055 A 
ATOM     91  C   UNL A   1      46.779  34.201  30.732  1.00  0.00     0.041 A 
ATOM     92  F   UNL A   1      46.094  32.006  31.182  1.00  0.00    -0.206 F 
ATOM     93  C   UNL A   1      46.793  35.315  29.897  1.00  0.00     0.022 A 
BRANCH  90  94
ATOM     94  S   UNL A   1      46.153  36.685  27.555  1.00  0.00     0.124 S 
ATOM     95  O   UNL A   1      47.009  36.170  26.489  1.00  0.00    -0.237 OA
ATOM     96  O   UNL A   1      44.750  36.881  27.206  1.00  0.00    -0.237 OA
ATOM     97  O   UNL A   1      46.743  37.751  28.363  1.00  0.00    -0.744 OA
ENDBRANCH  90  94
ENDBRANCH  64  87
ENDBRANCH  38  39
ENDBRANCH  30  33
ENDBRANCH  28  29
ENDBRANCH  27  28
ENDBRANCH   1  27
TORSDOF 19
ENDMDL
