MODEL 1
REMARK VINA RESULT:     -11.3      0.000      0.000
REMARK SMILES COC(=O)c1cccnc1N[C@](C)(C(=O)NCCCNC(=O)c1ccc(-c2c3nc(c(-c4cc(S(=O)(=O)[O-])ccc4F)c4ccc([nH]4)c(-c4cc(S(=O)(=O)[O-])ccc4F)c4nc(c(-c5cc(S(=O)(=O)[O-])ccc5F)c5ccc2[nH]5)C=C4)C=C3)cc1)C(F)(F)F
REMARK SMILES IDX 17 1 16 2 14 3 15 4 12 6 13 7 11 8 10 10 5 11 6 12 7 13 9 14
REMARK SMILES IDX 8 15 3 16 4 17 2 18 1 19 86 20 87 21 88 22 89 23 18 24 19 25
REMARK SMILES IDX 20 26 21 27 22 29 23 30 24 31 85 32 25 33 84 34 26 35 27 36
REMARK SMILES IDX 28 37 78 38 29 39 83 40 77 41 79 42 30 43 82 44 76 45 75 46
REMARK SMILES IDX 31 48 63 49 43 50 62 51 44 52 47 53 61 54 80 55 45 56 46 57
REMARK SMILES IDX 60 59 81 60 48 61 32 62 33 63 41 64 34 65 40 66 42 67 39 68
REMARK SMILES IDX 35 69 36 70 37 71 38 72 64 73 65 74 73 75 66 76 72 77 74 78
REMARK SMILES IDX 71 79 67 80 68 81 69 82 70 83 49 84 50 85 58 86 51 87 57 88
REMARK SMILES IDX 59 89 56 90 52 91 53 92 54 93 55 94
REMARK H PARENT 16 5 11 9 20 28 79 47 47 58
REMARK Flexibility Score: inf
ROOT
ATOM      1  C   UNL A   1      35.166  23.311  26.006  1.00  0.00     0.117 C 
ENDROOT
BRANCH   1   2
ATOM      2  N   UNL A   1      33.915  23.347  26.749  1.00  0.00    -0.354 N 
ATOM      3  C   UNL A   1      32.647  23.694  26.352  1.00  0.00     0.254 C 
ATOM      4  O   UNL A   1      31.779  23.659  27.230  1.00  0.00    -0.272 OA
ATOM      5  H   UNL A   1      33.991  23.078  27.692  1.00  0.00     0.163 HD
BRANCH   3   6
ATOM      6  C   UNL A   1      32.364  24.175  24.913  1.00  0.00     0.211 C 
ATOM      7  C   UNL A   1      30.981  24.868  24.904  1.00  0.00     0.055 C 
BRANCH   6   8
ATOM      8  N   UNL A   1      33.369  25.166  24.424  1.00  0.00    -0.348 N 
ATOM      9  H   UNL A   1      34.023  24.866  23.751  1.00  0.00     0.163 HD
BRANCH   8  10
ATOM     10  C   UNL A   1      33.441  26.476  24.854  1.00  0.00     0.141 A 
ATOM     11  C   UNL A   1      33.316  27.557  23.972  1.00  0.00     0.102 A 
ATOM     12  C   UNL A   1      33.316  28.865  24.481  1.00  0.00     0.021 A 
ATOM     13  C   UNL A   1      33.448  29.066  25.848  1.00  0.00     0.021 A 
ATOM     14  N   UNL A   1      33.600  26.688  26.176  1.00  0.00    -0.239 NA
ATOM     15  C   UNL A   1      33.594  27.954  26.650  1.00  0.00     0.113 A 
BRANCH  11  16
ATOM     16  C   UNL A   1      33.154  27.310  22.522  1.00  0.00     0.341 C 
ATOM     17  O   UNL A   1      34.032  27.516  21.694  1.00  0.00    -0.246 OA
BRANCH  16  18
ATOM     18  O   UNL A   1      31.890  26.899  22.252  1.00  0.00    -0.465 OA
ATOM     19  C   UNL A   1      31.808  25.920  21.216  1.00  0.00     0.282 C 
ENDBRANCH  16  18
ENDBRANCH  11  16
ENDBRANCH   8  10
ENDBRANCH   6   8
BRANCH   6  20
ATOM     20  C   UNL A   1      32.264  22.936  23.991  1.00  0.00     0.420 C 
ATOM     21  F   UNL A   1      33.449  22.614  23.414  1.00  0.00    -0.168 F 
ATOM     22  F   UNL A   1      31.917  21.843  24.735  1.00  0.00    -0.168 F 
ATOM     23  F   UNL A   1      31.342  23.028  23.011  1.00  0.00    -0.168 F 
ENDBRANCH   6  20
ENDBRANCH   3   6
ENDBRANCH   1   2
BRANCH   1  24
ATOM     24  C   UNL A   1      35.710  21.894  25.901  1.00  0.00     0.042 C 
BRANCH  24  25
ATOM     25  C   UNL A   1      36.865  21.755  24.919  1.00  0.00     0.118 C 
BRANCH  25  26
ATOM     26  N   UNL A   1      37.779  20.683  25.286  1.00  0.00    -0.352 N 
ATOM     27  C   UNL A   1      39.031  20.750  25.850  1.00  0.00     0.251 C 
ATOM     28  H   UNL A   1      37.452  19.773  25.102  1.00  0.00     0.163 HD
ATOM     29  O   UNL A   1      39.728  19.740  25.890  1.00  0.00    -0.269 OA
BRANCH  27  30
ATOM     30  C   UNL A   1      39.543  22.035  26.374  1.00  0.00     0.039 A 
ATOM     31  C   UNL A   1      40.593  22.018  27.294  1.00  0.00     0.014 A 
ATOM     32  C   UNL A   1      39.000  23.253  25.954  1.00  0.00     0.014 A 
ATOM     33  C   UNL A   1      41.154  23.221  27.726  1.00  0.00     0.010 A 
ATOM     34  C   UNL A   1      39.616  24.449  26.318  1.00  0.00     0.010 A 
ATOM     35  C   UNL A   1      40.706  24.446  27.200  1.00  0.00    -0.014 A 
BRANCH  35  36
ATOM     36  C   UNL A   1      41.395  25.721  27.530  1.00  0.00     0.031 A 
ATOM     37  C   UNL A   1      40.689  26.788  28.320  1.00  0.00     0.074 A 
ATOM     38  C   UNL A   1      42.635  25.942  27.051  1.00  0.00     0.049 A 
ATOM     39  N   UNL A   1      41.101  27.988  28.641  1.00  0.00    -0.248 NA
ATOM     40  C   UNL A   1      39.330  26.475  28.786  1.00  0.00     0.031 C 
ATOM     41  C   UNL A   1      43.404  24.999  26.235  1.00  0.00     0.029 A 
ATOM     42  N   UNL A   1      43.466  27.028  27.169  1.00  0.00    -0.354 N 
ATOM     43  C   UNL A   1      40.051  28.578  29.336  1.00  0.00     0.074 A 
ATOM     44  C   UNL A   1      38.964  27.621  29.338  1.00  0.00     0.031 C 
ATOM     45  C   UNL A   1      44.598  25.537  25.947  1.00  0.00     0.029 A 
ATOM     46  C   UNL A   1      44.662  26.884  26.504  1.00  0.00     0.049 A 
ATOM     47  H   UNL A   1      43.228  27.836  27.681  1.00  0.00     0.167 HD
ATOM     48  C   UNL A   1      40.007  29.796  29.932  1.00  0.00     0.034 A 
ATOM     49  C   UNL A   1      45.686  27.745  26.337  1.00  0.00     0.034 A 
ATOM     50  C   UNL A   1      41.105  30.735  29.916  1.00  0.00     0.049 A 
ATOM     51  C   UNL A   1      45.598  29.109  26.970  1.00  0.00     0.074 A 
ATOM     52  C   UNL A   1      41.195  31.964  30.546  1.00  0.00     0.029 A 
ATOM     53  N   UNL A   1      42.294  30.563  29.217  1.00  0.00    -0.354 N 
ATOM     54  N   UNL A   1      44.626  29.625  27.687  1.00  0.00    -0.248 NA
ATOM     55  C   UNL A   1      46.745  30.004  26.776  1.00  0.00     0.031 C 
ATOM     56  C   UNL A   1      42.393  32.572  30.156  1.00  0.00     0.029 A 
ATOM     57  C   UNL A   1      43.098  31.685  29.357  1.00  0.00     0.049 A 
ATOM     58  H   UNL A   1      42.531  29.761  28.698  1.00  0.00     0.167 HD
ATOM     59  C   UNL A   1      45.054  30.900  28.045  1.00  0.00     0.074 A 
ATOM     60  C   UNL A   1      46.381  31.063  27.486  1.00  0.00     0.031 C 
ATOM     61  C   UNL A   1      44.408  31.850  28.771  1.00  0.00     0.034 A 
BRANCH  48  62
ATOM     62  C   UNL A   1      38.718  30.195  30.613  1.00  0.00     0.023 A 
ATOM     63  C   UNL A   1      37.675  30.830  29.917  1.00  0.00     0.031 A 
ATOM     64  C   UNL A   1      38.538  29.957  31.989  1.00  0.00     0.131 A 
ATOM     65  C   UNL A   1      36.538  31.277  30.610  1.00  0.00     0.055 A 
ATOM     66  C   UNL A   1      37.365  30.324  32.653  1.00  0.00     0.041 A 
ATOM     67  F   UNL A   1      39.505  29.374  32.714  1.00  0.00    -0.206 F 
ATOM     68  C   UNL A   1      36.364  31.003  31.967  1.00  0.00     0.022 A 
BRANCH  65  69
ATOM     69  S   UNL A   1      35.368  32.360  29.744  1.00  0.00     0.124 S 
ATOM     70  O   UNL A   1      36.242  33.439  29.292  1.00  0.00    -0.237 OA
ATOM     71  O   UNL A   1      34.841  31.486  28.701  1.00  0.00    -0.237 OA
ATOM     72  O   UNL A   1      34.414  32.735  30.786  1.00  0.00    -0.744 OA
ENDBRANCH  65  69
ENDBRANCH  48  62
BRANCH  49  73
ATOM     73  C   UNL A   1      46.865  27.356  25.510  1.00  0.00     0.023 A 
ATOM     74  C   UNL A   1      47.009  27.808  24.189  1.00  0.00     0.031 A 
ATOM     75  C   UNL A   1      47.857  26.502  26.026  1.00  0.00     0.131 A 
ATOM     76  C   UNL A   1      48.099  27.376  23.417  1.00  0.00     0.055 A 
ATOM     77  C   UNL A   1      48.969  26.122  25.273  1.00  0.00     0.041 A 
ATOM     78  F   UNL A   1      47.769  26.041  27.284  1.00  0.00    -0.206 F 
ATOM     79  C   UNL A   1      49.088  26.550  23.957  1.00  0.00     0.022 A 
BRANCH  76  80
ATOM     80  S   UNL A   1      48.167  27.846  21.667  1.00  0.00     0.124 S 
ATOM     81  O   UNL A   1      49.150  28.923  21.687  1.00  0.00    -0.237 OA
ATOM     82  O   UNL A   1      48.590  26.602  21.034  1.00  0.00    -0.237 OA
ATOM     83  O   UNL A   1      46.797  28.258  21.372  1.00  0.00    -0.744 OA
ENDBRANCH  76  80
ENDBRANCH  49  73
BRANCH  61  84
ATOM     84  C   UNL A   1      45.147  33.145  29.014  1.00  0.00     0.023 A 
ATOM     85  C   UNL A   1      44.925  34.284  28.220  1.00  0.00     0.031 A 
ATOM     86  C   UNL A   1      46.097  33.238  30.048  1.00  0.00     0.131 A 
ATOM     87  C   UNL A   1      45.682  35.445  28.433  1.00  0.00     0.055 A 
ATOM     88  C   UNL A   1      46.797  34.418  30.300  1.00  0.00     0.041 A 
ATOM     89  F   UNL A   1      46.358  32.181  30.834  1.00  0.00    -0.206 F 
ATOM     90  C   UNL A   1      46.602  35.527  29.482  1.00  0.00     0.022 A 
BRANCH  87  91
ATOM     91  S   UNL A   1      45.527  36.815  27.253  1.00  0.00     0.124 S 
ATOM     92  O   UNL A   1      46.481  36.430  26.218  1.00  0.00    -0.237 OA
ATOM     93  O   UNL A   1      44.118  36.747  26.880  1.00  0.00    -0.237 OA
ATOM     94  O   UNL A   1      45.904  37.988  28.040  1.00  0.00    -0.744 OA
ENDBRANCH  87  91
ENDBRANCH  61  84
ENDBRANCH  35  36
ENDBRANCH  27  30
ENDBRANCH  25  26
ENDBRANCH  24  25
ENDBRANCH   1  24
TORSDOF 18
ENDMDL
MODEL 2
REMARK VINA RESULT:     -10.9      1.659      2.246
REMARK SMILES COC(=O)c1cccnc1N[C@](C)(C(=O)NCCCNC(=O)c1ccc(-c2c3nc(c(-c4cc(S(=O)(=O)[O-])ccc4F)c4ccc([nH]4)c(-c4cc(S(=O)(=O)[O-])ccc4F)c4nc(c(-c5cc(S(=O)(=O)[O-])ccc5F)c5ccc2[nH]5)C=C4)C=C3)cc1)C(F)(F)F
REMARK SMILES IDX 17 1 16 2 14 3 15 4 12 6 13 7 11 8 10 10 5 11 6 12 7 13 9 14
REMARK SMILES IDX 8 15 3 16 4 17 2 18 1 19 86 20 87 21 88 22 89 23 18 24 19 25
REMARK SMILES IDX 20 26 21 27 22 29 23 30 24 31 85 32 25 33 84 34 26 35 27 36
REMARK SMILES IDX 28 37 78 38 29 39 83 40 77 41 79 42 30 43 82 44 76 45 75 46
REMARK SMILES IDX 31 48 63 49 43 50 62 51 44 52 47 53 61 54 80 55 45 56 46 57
REMARK SMILES IDX 60 59 81 60 48 61 32 62 33 63 41 64 34 65 40 66 42 67 39 68
REMARK SMILES IDX 35 69 36 70 37 71 38 72 64 73 65 74 73 75 66 76 72 77 74 78
REMARK SMILES IDX 71 79 67 80 68 81 69 82 70 83 49 84 50 85 58 86 51 87 57 88
REMARK SMILES IDX 59 89 56 90 52 91 53 92 54 93 55 94
REMARK H PARENT 16 5 11 9 20 28 79 47 47 58
REMARK Flexibility Score: inf
ROOT
ATOM      1  C   UNL A   1      35.696  22.714  26.082  1.00  0.00     0.117 C 
ENDROOT
BRANCH   1   2
ATOM      2  N   UNL A   1      34.728  22.562  27.158  1.00  0.00    -0.354 N 
ATOM      3  C   UNL A   1      33.360  22.684  27.156  1.00  0.00     0.254 C 
ATOM      4  O   UNL A   1      32.804  22.530  28.248  1.00  0.00    -0.272 OA
ATOM      5  H   UNL A   1      35.119  22.335  28.031  1.00  0.00     0.163 HD
BRANCH   3   6
ATOM      6  C   UNL A   1      32.594  23.073  25.874  1.00  0.00     0.211 C 
ATOM      7  C   UNL A   1      31.121  23.341  26.260  1.00  0.00     0.055 C 
BRANCH   6   8
ATOM      8  N   UNL A   1      33.127  24.313  25.233  1.00  0.00    -0.348 N 
ATOM      9  H   UNL A   1      34.073  24.542  25.386  1.00  0.00     0.163 HD
BRANCH   8  10
ATOM     10  C   UNL A   1      32.378  25.160  24.440  1.00  0.00     0.141 A 
ATOM     11  C   UNL A   1      31.895  26.388  24.912  1.00  0.00     0.102 A 
ATOM     12  C   UNL A   1      31.210  27.242  24.033  1.00  0.00     0.021 A 
ATOM     13  C   UNL A   1      31.014  26.852  22.715  1.00  0.00     0.021 A 
ATOM     14  N   UNL A   1      32.154  24.781  23.166  1.00  0.00    -0.239 NA
ATOM     15  C   UNL A   1      31.496  25.618  22.332  1.00  0.00     0.113 A 
BRANCH  11  16
ATOM     16  C   UNL A   1      32.138  26.785  26.316  1.00  0.00     0.341 C 
ATOM     17  O   UNL A   1      31.246  26.997  27.128  1.00  0.00    -0.246 OA
BRANCH  16  18
ATOM     18  O   UNL A   1      33.466  26.944  26.538  1.00  0.00    -0.465 OA
ATOM     19  C   UNL A   1      33.939  28.270  26.299  1.00  0.00     0.282 C 
ENDBRANCH  16  18
ENDBRANCH  11  16
ENDBRANCH   8  10
ENDBRANCH   6   8
BRANCH   6  20
ATOM     20  C   UNL A   1      32.605  21.864  24.909  1.00  0.00     0.420 C 
ATOM     21  F   UNL A   1      33.582  21.948  23.972  1.00  0.00    -0.168 F 
ATOM     22  F   UNL A   1      32.878  20.723  25.613  1.00  0.00    -0.168 F 
ATOM     23  F   UNL A   1      31.440  21.635  24.267  1.00  0.00    -0.168 F 
ENDBRANCH   6  20
ENDBRANCH   3   6
ENDBRANCH   1   2
BRANCH   1  24
ATOM     24  C   UNL A   1      36.241  21.367  25.630  1.00  0.00     0.042 C 
BRANCH  24  25
ATOM     25  C   UNL A   1      37.636  21.445  25.026  1.00  0.00     0.118 C 
BRANCH  25  26
ATOM     26  N   UNL A   1      38.533  20.436  25.570  1.00  0.00    -0.352 N 
ATOM     27  C   UNL A   1      39.715  20.588  26.257  1.00  0.00     0.251 C 
ATOM     28  H   UNL A   1      38.252  19.503  25.424  1.00  0.00     0.163 HD
ATOM     29  O   UNL A   1      40.430  19.609  26.449  1.00  0.00    -0.269 OA
BRANCH  27  30
ATOM     30  C   UNL A   1      40.132  21.926  26.731  1.00  0.00     0.039 A 
ATOM     31  C   UNL A   1      41.081  22.014  27.751  1.00  0.00     0.014 A 
ATOM     32  C   UNL A   1      39.601  23.089  26.167  1.00  0.00     0.014 A 
ATOM     33  C   UNL A   1      41.560  23.265  28.144  1.00  0.00     0.010 A 
ATOM     34  C   UNL A   1      40.141  24.330  26.499  1.00  0.00     0.010 A 
ATOM     35  C   UNL A   1      41.133  24.430  27.484  1.00  0.00    -0.014 A 
BRANCH  35  36
ATOM     36  C   UNL A   1      41.747  25.751  27.784  1.00  0.00     0.031 A 
ATOM     37  C   UNL A   1      40.972  26.803  28.528  1.00  0.00     0.074 A 
ATOM     38  C   UNL A   1      42.982  26.024  27.318  1.00  0.00     0.049 A 
ATOM     39  N   UNL A   1      41.314  28.032  28.817  1.00  0.00    -0.248 NA
ATOM     40  C   UNL A   1      39.624  26.431  28.982  1.00  0.00     0.031 C 
ATOM     41  C   UNL A   1      43.815  25.098  26.545  1.00  0.00     0.029 A 
ATOM     42  N   UNL A   1      43.752  27.156  27.414  1.00  0.00    -0.354 N 
ATOM     43  C   UNL A   1      40.222  28.586  29.477  1.00  0.00     0.074 A 
ATOM     44  C   UNL A   1      39.187  27.573  29.492  1.00  0.00     0.031 C 
ATOM     45  C   UNL A   1      44.984  25.690  26.259  1.00  0.00     0.029 A 
ATOM     46  C   UNL A   1      44.966  27.056  26.773  1.00  0.00     0.049 A 
ATOM     47  H   UNL A   1      43.462  27.965  27.896  1.00  0.00     0.167 HD
ATOM     48  C   UNL A   1      40.103  29.818  30.032  1.00  0.00     0.034 A 
ATOM     49  C   UNL A   1      45.945  27.965  26.595  1.00  0.00     0.034 A 
ATOM     50  C   UNL A   1      41.149  30.813  30.003  1.00  0.00     0.049 A 
ATOM     51  C   UNL A   1      45.773  29.341  27.183  1.00  0.00     0.074 A 
ATOM     52  C   UNL A   1      41.162  32.065  30.595  1.00  0.00     0.029 A 
ATOM     53  N   UNL A   1      42.358  30.684  29.329  1.00  0.00    -0.354 N 
ATOM     54  N   UNL A   1      44.763  29.826  27.867  1.00  0.00    -0.248 NA
ATOM     55  C   UNL A   1      46.874  30.290  26.979  1.00  0.00     0.031 C 
ATOM     56  C   UNL A   1      42.333  32.723  30.206  1.00  0.00     0.029 A 
ATOM     57  C   UNL A   1      43.098  31.852  29.447  1.00  0.00     0.049 A 
ATOM     58  H   UNL A   1      42.646  29.880  28.840  1.00  0.00     0.167 HD
ATOM     59  C   UNL A   1      45.116  31.133  28.191  1.00  0.00     0.074 A 
ATOM     60  C   UNL A   1      46.442  31.349  27.648  1.00  0.00     0.031 C 
ATOM     61  C   UNL A   1      44.408  32.069  28.875  1.00  0.00     0.034 A 
BRANCH  48  62
ATOM     62  C   UNL A   1      38.783  30.168  30.680  1.00  0.00     0.023 A 
ATOM     63  C   UNL A   1      37.790  30.894  29.999  1.00  0.00     0.031 A 
ATOM     64  C   UNL A   1      38.521  29.789  32.010  1.00  0.00     0.131 A 
ATOM     65  C   UNL A   1      36.622  31.287  30.671  1.00  0.00     0.055 A 
ATOM     66  C   UNL A   1      37.318  30.107  32.643  1.00  0.00     0.041 A 
ATOM     67  F   UNL A   1      39.437  29.113  32.721  1.00  0.00    -0.206 F 
ATOM     68  C   UNL A   1      36.367  30.874  31.980  1.00  0.00     0.022 A 
BRANCH  65  69
ATOM     69  S   UNL A   1      35.518  32.479  29.863  1.00  0.00     0.124 S 
ATOM     70  O   UNL A   1      35.267  31.827  28.579  1.00  0.00    -0.237 OA
ATOM     71  O   UNL A   1      34.386  32.533  30.782  1.00  0.00    -0.237 OA
ATOM     72  O   UNL A   1      36.323  33.696  29.788  1.00  0.00    -0.744 OA
ENDBRANCH  65  69
ENDBRANCH  48  62
BRANCH  49  73
ATOM     73  C   UNL A   1      47.157  27.615  25.800  1.00  0.00     0.023 A 
ATOM     74  C   UNL A   1      47.239  27.907  24.430  1.00  0.00     0.031 A 
ATOM     75  C   UNL A   1      48.247  26.956  26.399  1.00  0.00     0.131 A 
ATOM     76  C   UNL A   1      48.369  27.510  23.696  1.00  0.00     0.055 A 
ATOM     77  C   UNL A   1      49.392  26.616  25.678  1.00  0.00     0.041 A 
ATOM     78  F   UNL A   1      48.222  26.653  27.707  1.00  0.00    -0.206 F 
ATOM     79  C   UNL A   1      49.452  26.883  24.315  1.00  0.00     0.022 A 
BRANCH  76  80
ATOM     80  S   UNL A   1      48.370  27.757  21.900  1.00  0.00     0.124 S 
ATOM     81  O   UNL A   1      48.619  26.405  21.414  1.00  0.00    -0.237 OA
ATOM     82  O   UNL A   1      47.033  28.288  21.664  1.00  0.00    -0.237 OA
ATOM     83  O   UNL A   1      49.461  28.706  21.687  1.00  0.00    -0.744 OA
ENDBRANCH  76  80
ENDBRANCH  49  73
BRANCH  61  84
ATOM     84  C   UNL A   1      45.072  33.408  29.089  1.00  0.00     0.023 A 
ATOM     85  C   UNL A   1      45.888  33.660  30.206  1.00  0.00     0.031 A 
ATOM     86  C   UNL A   1      44.877  34.454  28.168  1.00  0.00     0.131 A 
ATOM     87  C   UNL A   1      46.428  34.939  30.406  1.00  0.00     0.055 A 
ATOM     88  C   UNL A   1      45.475  35.704  28.335  1.00  0.00     0.041 A 
ATOM     89  F   UNL A   1      44.102  34.276  27.086  1.00  0.00    -0.206 F 
ATOM     90  C   UNL A   1      46.245  35.956  29.466  1.00  0.00     0.022 A 
BRANCH  87  91
ATOM     91  S   UNL A   1      47.288  35.287  31.965  1.00  0.00     0.124 S 
ATOM     92  O   UNL A   1      46.976  36.698  32.172  1.00  0.00    -0.237 OA
ATOM     93  O   UNL A   1      46.653  34.352  32.888  1.00  0.00    -0.237 OA
ATOM     94  O   UNL A   1      48.688  35.000  31.656  1.00  0.00    -0.744 OA
ENDBRANCH  87  91
ENDBRANCH  61  84
ENDBRANCH  35  36
ENDBRANCH  27  30
ENDBRANCH  25  26
ENDBRANCH  24  25
ENDBRANCH   1  24
TORSDOF 18
ENDMDL
MODEL 3
REMARK VINA RESULT:     -10.9      2.875      7.903
REMARK SMILES COC(=O)c1cccnc1N[C@](C)(C(=O)NCCCNC(=O)c1ccc(-c2c3nc(c(-c4cc(S(=O)(=O)[O-])ccc4F)c4ccc([nH]4)c(-c4cc(S(=O)(=O)[O-])ccc4F)c4nc(c(-c5cc(S(=O)(=O)[O-])ccc5F)c5ccc2[nH]5)C=C4)C=C3)cc1)C(F)(F)F
REMARK SMILES IDX 17 1 16 2 14 3 15 4 12 6 13 7 11 8 10 10 5 11 6 12 7 13 9 14
REMARK SMILES IDX 8 15 3 16 4 17 2 18 1 19 86 20 87 21 88 22 89 23 18 24 19 25
REMARK SMILES IDX 20 26 21 27 22 29 23 30 24 31 85 32 25 33 84 34 26 35 27 36
REMARK SMILES IDX 28 37 78 38 29 39 83 40 77 41 79 42 30 43 82 44 76 45 75 46
REMARK SMILES IDX 31 48 63 49 43 50 62 51 44 52 47 53 61 54 80 55 45 56 46 57
REMARK SMILES IDX 60 59 81 60 48 61 32 62 33 63 41 64 34 65 40 66 42 67 39 68
REMARK SMILES IDX 35 69 36 70 37 71 38 72 64 73 65 74 73 75 66 76 72 77 74 78
REMARK SMILES IDX 71 79 67 80 68 81 69 82 70 83 49 84 50 85 58 86 51 87 57 88
REMARK SMILES IDX 59 89 56 90 52 91 53 92 54 93 55 94
REMARK H PARENT 16 5 11 9 20 28 79 47 47 58
REMARK Flexibility Score: inf
ROOT
ATOM      1  C   UNL A   1      34.450  23.725  25.661  1.00  0.00     0.117 C 
ENDROOT
BRANCH   1   2
ATOM      2  N   UNL A   1      33.287  23.582  26.523  1.00  0.00    -0.354 N 
ATOM      3  C   UNL A   1      32.016  24.090  26.406  1.00  0.00     0.254 C 
ATOM      4  O   UNL A   1      31.241  23.820  27.329  1.00  0.00    -0.272 OA
ATOM      5  H   UNL A   1      33.435  23.029  27.323  1.00  0.00     0.163 HD
BRANCH   3   6
ATOM      6  C   UNL A   1      31.629  25.009  25.227  1.00  0.00     0.211 C 
ATOM      7  C   UNL A   1      30.281  25.685  25.571  1.00  0.00     0.055 C 
BRANCH   6   8
ATOM      8  N   UNL A   1      32.629  26.091  24.981  1.00  0.00    -0.348 N 
ATOM      9  H   UNL A   1      33.412  25.877  24.423  1.00  0.00     0.163 HD
BRANCH   8  10
ATOM     10  C   UNL A   1      32.526  27.372  25.486  1.00  0.00     0.141 A 
ATOM     11  C   UNL A   1      32.071  28.445  24.707  1.00  0.00     0.102 A 
ATOM     12  C   UNL A   1      31.911  29.707  25.299  1.00  0.00     0.021 A 
ATOM     13  C   UNL A   1      32.212  29.874  26.644  1.00  0.00     0.021 A 
ATOM     14  N   UNL A   1      32.844  27.556  26.783  1.00  0.00    -0.239 NA
ATOM     15  C   UNL A   1      32.679  28.777  27.339  1.00  0.00     0.113 A 
BRANCH  11  16
ATOM     16  C   UNL A   1      31.737  28.231  23.281  1.00  0.00     0.341 C 
ATOM     17  O   UNL A   1      32.394  27.525  22.526  1.00  0.00    -0.246 OA
BRANCH  16  18
ATOM     18  O   UNL A   1      30.659  28.975  22.934  1.00  0.00    -0.465 OA
ATOM     19  C   UNL A   1      29.421  28.265  22.992  1.00  0.00     0.282 C 
ENDBRANCH  16  18
ENDBRANCH  11  16
ENDBRANCH   8  10
ENDBRANCH   6   8
BRANCH   6  20
ATOM     20  C   UNL A   1      31.396  24.129  23.975  1.00  0.00     0.420 C 
ATOM     21  F   UNL A   1      30.325  24.528  23.245  1.00  0.00    -0.168 F 
ATOM     22  F   UNL A   1      32.468  24.244  23.133  1.00  0.00    -0.168 F 
ATOM     23  F   UNL A   1      31.257  22.810  24.222  1.00  0.00    -0.168 F 
ENDBRANCH   6  20
ENDBRANCH   3   6
ENDBRANCH   1   2
BRANCH   1  24
ATOM     24  C   UNL A   1      35.699  23.150  26.312  1.00  0.00     0.042 C 
BRANCH  24  25
ATOM     25  C   UNL A   1      36.904  23.101  25.383  1.00  0.00     0.118 C 
BRANCH  25  26
ATOM     26  N   UNL A   1      37.974  22.264  25.906  1.00  0.00    -0.352 N 
ATOM     27  C   UNL A   1      39.166  22.625  26.490  1.00  0.00     0.251 C 
ATOM     28  H   UNL A   1      37.822  21.294  25.830  1.00  0.00     0.163 HD
ATOM     29  O   UNL A   1      40.028  21.770  26.675  1.00  0.00    -0.269 OA
BRANCH  27  30
ATOM     30  C   UNL A   1      39.416  24.035  26.860  1.00  0.00     0.039 A 
ATOM     31  C   UNL A   1      39.114  24.455  28.157  1.00  0.00     0.014 A 
ATOM     32  C   UNL A   1      39.955  24.938  25.939  1.00  0.00     0.014 A 
ATOM     33  C   UNL A   1      39.432  25.755  28.554  1.00  0.00     0.010 A 
ATOM     34  C   UNL A   1      40.351  26.205  26.361  1.00  0.00     0.010 A 
ATOM     35  C   UNL A   1      40.103  26.624  27.676  1.00  0.00    -0.014 A 
BRANCH  35  36
ATOM     36  C   UNL A   1      40.587  27.953  28.133  1.00  0.00     0.031 A 
ATOM     37  C   UNL A   1      42.058  28.267  28.145  1.00  0.00     0.074 A 
ATOM     38  C   UNL A   1      39.700  28.851  28.607  1.00  0.00     0.049 A 
ATOM     39  N   UNL A   1      42.670  29.341  28.574  1.00  0.00    -0.248 NA
ATOM     40  C   UNL A   1      42.960  27.226  27.631  1.00  0.00     0.031 C 
ATOM     41  C   UNL A   1      38.252  28.641  28.687  1.00  0.00     0.029 A 
ATOM     42  N   UNL A   1      39.879  30.111  29.119  1.00  0.00    -0.354 N 
ATOM     43  C   UNL A   1      44.028  29.103  28.393  1.00  0.00     0.074 A 
ATOM     44  C   UNL A   1      44.149  27.758  27.869  1.00  0.00     0.031 C 
ATOM     45  C   UNL A   1      37.675  29.741  29.194  1.00  0.00     0.029 A 
ATOM     46  C   UNL A   1      38.712  30.712  29.532  1.00  0.00     0.049 A 
ATOM     47  H   UNL A   1      40.761  30.544  29.187  1.00  0.00     0.167 HD
ATOM     48  C   UNL A   1      45.073  29.935  28.627  1.00  0.00     0.034 A 
ATOM     49  C   UNL A   1      38.498  31.898  30.136  1.00  0.00     0.034 A 
ATOM     50  C   UNL A   1      44.929  31.273  29.153  1.00  0.00     0.049 A 
ATOM     51  C   UNL A   1      39.677  32.788  30.426  1.00  0.00     0.074 A 
ATOM     52  C   UNL A   1      45.912  32.226  29.360  1.00  0.00     0.029 A 
ATOM     53  N   UNL A   1      43.734  31.841  29.576  1.00  0.00    -0.354 N 
ATOM     54  N   UNL A   1      40.950  32.577  30.182  1.00  0.00    -0.248 NA
ATOM     55  C   UNL A   1      39.392  34.076  31.068  1.00  0.00     0.031 C 
ATOM     56  C   UNL A   1      45.328  33.330  29.990  1.00  0.00     0.029 A 
ATOM     57  C   UNL A   1      43.963  33.109  30.092  1.00  0.00     0.049 A 
ATOM     58  H   UNL A   1      42.853  31.407  29.517  1.00  0.00     0.167 HD
ATOM     59  C   UNL A   1      41.616  33.716  30.626  1.00  0.00     0.074 A 
ATOM     60  C   UNL A   1      40.599  34.619  31.127  1.00  0.00     0.031 C 
ATOM     61  C   UNL A   1      42.946  33.990  30.618  1.00  0.00     0.034 A 
BRANCH  48  62
ATOM     62  C   UNL A   1      46.463  29.406  28.355  1.00  0.00     0.023 A 
ATOM     63  C   UNL A   1      47.213  28.741  29.342  1.00  0.00     0.031 A 
ATOM     64  C   UNL A   1      47.059  29.588  27.093  1.00  0.00     0.131 A 
ATOM     65  C   UNL A   1      48.537  28.358  29.078  1.00  0.00     0.055 A 
ATOM     66  C   UNL A   1      48.345  29.124  26.810  1.00  0.00     0.041 A 
ATOM     67  F   UNL A   1      46.404  30.234  26.115  1.00  0.00    -0.206 F 
ATOM     68  C   UNL A   1      49.099  28.520  27.811  1.00  0.00     0.022 A 
BRANCH  65  69
ATOM     69  S   UNL A   1      49.566  27.793  30.462  1.00  0.00     0.124 S 
ATOM     70  O   UNL A   1      48.581  27.681  31.536  1.00  0.00    -0.237 OA
ATOM     71  O   UNL A   1      50.107  26.535  29.959  1.00  0.00    -0.237 OA
ATOM     72  O   UNL A   1      50.539  28.871  30.629  1.00  0.00    -0.744 OA
ENDBRANCH  65  69
ENDBRANCH  48  62
BRANCH  49  73
ATOM     73  C   UNL A   1      37.117  32.296  30.536  1.00  0.00     0.023 A 
ATOM     74  C   UNL A   1      36.227  32.868  29.614  1.00  0.00     0.031 A 
ATOM     75  C   UNL A   1      36.675  32.131  31.863  1.00  0.00     0.131 A 
ATOM     76  C   UNL A   1      34.955  33.287  30.037  1.00  0.00     0.055 A 
ATOM     77  C   UNL A   1      35.390  32.496  32.264  1.00  0.00     0.041 A 
ATOM     78  F   UNL A   1      37.485  31.588  32.785  1.00  0.00    -0.206 F 
ATOM     79  C   UNL A   1      34.526  33.089  31.351  1.00  0.00     0.022 A 
BRANCH  76  80
ATOM     80  S   UNL A   1      33.895  34.170  28.860  1.00  0.00     0.124 S 
ATOM     81  O   UNL A   1      32.850  34.691  29.735  1.00  0.00    -0.237 OA
ATOM     82  O   UNL A   1      34.814  35.154  28.301  1.00  0.00    -0.237 OA
ATOM     83  O   UNL A   1      33.468  33.122  27.935  1.00  0.00    -0.744 OA
ENDBRANCH  76  80
ENDBRANCH  49  73
BRANCH  61  84
ATOM     84  C   UNL A   1      43.370  35.338  31.154  1.00  0.00     0.023 A 
ATOM     85  C   UNL A   1      43.508  36.457  30.316  1.00  0.00     0.031 A 
ATOM     86  C   UNL A   1      43.653  35.501  32.523  1.00  0.00     0.131 A 
ATOM     87  C   UNL A   1      43.973  37.673  30.840  1.00  0.00     0.055 A 
ATOM     88  C   UNL A   1      44.048  36.730  33.052  1.00  0.00     0.041 A 
ATOM     89  F   UNL A   1      43.548  34.465  33.371  1.00  0.00    -0.206 F 
ATOM     90  C   UNL A   1      44.223  37.822  32.207  1.00  0.00     0.022 A 
BRANCH  87  91
ATOM     91  S   UNL A   1      44.349  39.028  29.695  1.00  0.00     0.124 S 
ATOM     92  O   UNL A   1      45.763  39.267  29.964  1.00  0.00    -0.237 OA
ATOM     93  O   UNL A   1      44.038  38.437  28.398  1.00  0.00    -0.237 OA
ATOM     94  O   UNL A   1      43.447  40.097  30.121  1.00  0.00    -0.744 OA
ENDBRANCH  87  91
ENDBRANCH  61  84
ENDBRANCH  35  36
ENDBRANCH  27  30
ENDBRANCH  25  26
ENDBRANCH  24  25
ENDBRANCH   1  24
TORSDOF 18
ENDMDL
