MODEL 1
REMARK VINA RESULT:     -11.1      0.000      0.000
REMARK SMILES C[C@H](CC(=O)NCCCNC(=O)c1ccc(-c2c3nc(c(-c4cc(S(=O)(=O)[O-])ccc4F)c4ccc([nH]4)c(-c4cc(S(=O)(=O)[O-])ccc4F)c4nc(c(-c5cc(S(=O)(=O)[O-])ccc5F)c5ccc2[nH]5)C=C4)C=C3)cc1)N1C(=O)CCCC1=O
REMARK SMILES IDX 8 1 7 2 6 3 4 4 5 5 3 7 2 8 1 9 76 10 77 11 82 12 78 13
REMARK SMILES IDX 79 14 81 15 83 16 80 17 9 18 10 19 11 20 12 22 13 23 14 24
REMARK SMILES IDX 75 25 15 26 74 27 16 28 17 29 18 30 68 31 19 32 73 33 67 34
REMARK SMILES IDX 69 35 20 36 72 37 66 38 65 39 21 41 53 42 33 43 52 44 34 45
REMARK SMILES IDX 37 46 51 47 70 48 35 49 36 50 50 52 71 53 38 54 22 55 23 56
REMARK SMILES IDX 31 57 24 58 30 59 32 60 29 61 25 62 26 63 27 64 28 65 54 66
REMARK SMILES IDX 55 67 63 68 56 69 62 70 64 71 61 72 57 73 58 74 59 75 60 76
REMARK SMILES IDX 39 77 40 78 48 79 41 80 47 81 49 82 46 83 42 84 43 85 44 86
REMARK SMILES IDX 45 87
REMARK H PARENT 6 6 10 21 69 40 37 51
REMARK Flexibility Score: inf
ROOT
ATOM      1  C   UNL A   1      33.069  29.101  23.926  1.00  0.00     0.042 C 
ENDROOT
BRANCH   1   2
ATOM      2  C   UNL A   1      32.111  28.443  22.934  1.00  0.00     0.117 C 
BRANCH   2   3
ATOM      3  N   UNL A   1      32.827  27.548  22.041  1.00  0.00    -0.356 N 
ATOM      4  C   UNL A   1      32.777  26.191  21.928  1.00  0.00     0.222 C 
ATOM      5  O   UNL A   1      33.594  25.642  21.185  1.00  0.00    -0.275 OA
ATOM      6  H   UNL A   1      33.446  27.993  21.417  1.00  0.00     0.163 HD
BRANCH   4   7
ATOM      7  C   UNL A   1      31.714  25.378  22.640  1.00  0.00     0.125 C 
BRANCH   7   8
ATOM      8  C   UNL A   1      31.990  24.955  24.102  1.00  0.00     0.099 C 
ATOM      9  C   UNL A   1      30.828  24.256  24.813  1.00  0.00     0.032 C 
BRANCH   8  10
ATOM     10  N   UNL A   1      33.306  24.276  24.219  1.00  0.00    -0.279 N 
ATOM     11  C   UNL A   1      33.573  23.139  23.479  1.00  0.00     0.229 C 
ATOM     12  C   UNL A   1      34.252  24.815  25.086  1.00  0.00     0.229 C 
ATOM     13  O   UNL A   1      32.724  22.327  23.119  1.00  0.00    -0.274 OA
ATOM     14  C   UNL A   1      35.024  22.955  23.130  1.00  0.00     0.101 C 
ATOM     15  C   UNL A   1      35.580  24.086  25.259  1.00  0.00     0.101 C 
ATOM     16  O   UNL A   1      34.069  25.865  25.706  1.00  0.00    -0.274 OA
ATOM     17  C   UNL A   1      35.782  22.838  24.422  1.00  0.00     0.020 C 
ENDBRANCH   8  10
ENDBRANCH   7   8
ENDBRANCH   4   7
ENDBRANCH   2   3
ENDBRANCH   1   2
BRANCH   1  18
ATOM     18  C   UNL A   1      32.552  29.165  25.354  1.00  0.00     0.118 C 
BRANCH  18  19
ATOM     19  N   UNL A   1      32.259  30.533  25.756  1.00  0.00    -0.352 N 
ATOM     20  C   UNL A   1      32.696  31.314  26.800  1.00  0.00     0.251 C 
ATOM     21  H   UNL A   1      31.620  30.990  25.162  1.00  0.00     0.163 HD
ATOM     22  O   UNL A   1      32.039  32.328  27.046  1.00  0.00    -0.269 OA
BRANCH  20  23
ATOM     23  C   UNL A   1      33.886  30.997  27.642  1.00  0.00     0.039 A 
ATOM     24  C   UNL A   1      34.732  32.055  28.014  1.00  0.00     0.014 A 
ATOM     25  C   UNL A   1      34.267  29.702  27.987  1.00  0.00     0.014 A 
ATOM     26  C   UNL A   1      35.913  31.815  28.735  1.00  0.00     0.010 A 
ATOM     27  C   UNL A   1      35.381  29.473  28.801  1.00  0.00     0.010 A 
ATOM     28  C   UNL A   1      36.240  30.521  29.162  1.00  0.00    -0.014 A 
BRANCH  28  29
ATOM     29  C   UNL A   1      37.491  30.229  29.925  1.00  0.00     0.031 A 
ATOM     30  C   UNL A   1      38.564  29.351  29.320  1.00  0.00     0.074 A 
ATOM     31  C   UNL A   1      37.647  30.696  31.181  1.00  0.00     0.049 A 
ATOM     32  N   UNL A   1      39.658  28.876  29.862  1.00  0.00    -0.248 NA
ATOM     33  C   UNL A   1      38.354  28.918  27.930  1.00  0.00     0.031 C 
ATOM     34  C   UNL A   1      36.679  31.525  31.900  1.00  0.00     0.029 A 
ATOM     35  N   UNL A   1      38.672  30.532  32.082  1.00  0.00    -0.354 N 
ATOM     36  C   UNL A   1      40.245  28.065  28.893  1.00  0.00     0.074 A 
ATOM     37  C   UNL A   1      39.351  28.064  27.756  1.00  0.00     0.031 C 
ATOM     38  C   UNL A   1      37.167  31.819  33.117  1.00  0.00     0.029 A 
ATOM     39  C   UNL A   1      38.456  31.156  33.290  1.00  0.00     0.049 A 
ATOM     40  H   UNL A   1      39.485  30.015  31.881  1.00  0.00     0.167 HD
ATOM     41  C   UNL A   1      41.429  27.401  28.937  1.00  0.00     0.034 A 
ATOM     42  C   UNL A   1      39.197  31.179  34.415  1.00  0.00     0.034 A 
ATOM     43  C   UNL A   1      42.330  27.440  30.063  1.00  0.00     0.049 A 
ATOM     44  C   UNL A   1      40.507  30.432  34.443  1.00  0.00     0.074 A 
ATOM     45  C   UNL A   1      43.580  26.860  30.189  1.00  0.00     0.029 A 
ATOM     46  N   UNL A   1      42.079  28.098  31.261  1.00  0.00    -0.354 N 
ATOM     47  N   UNL A   1      41.063  29.700  33.505  1.00  0.00    -0.248 NA
ATOM     48  C   UNL A   1      41.295  30.524  35.679  1.00  0.00     0.031 C 
ATOM     49  C   UNL A   1      44.056  27.111  31.481  1.00  0.00     0.029 A 
ATOM     50  C   UNL A   1      43.138  27.914  32.139  1.00  0.00     0.049 A 
ATOM     51  H   UNL A   1      41.266  28.618  31.460  1.00  0.00     0.167 HD
ATOM     52  C   UNL A   1      42.279  29.271  34.029  1.00  0.00     0.074 A 
ATOM     53  C   UNL A   1      42.383  29.840  35.357  1.00  0.00     0.031 C 
ATOM     54  C   UNL A   1      43.227  28.481  33.464  1.00  0.00     0.034 A 
BRANCH  41  55
ATOM     55  C   UNL A   1      41.803  26.558  27.736  1.00  0.00     0.023 A 
ATOM     56  C   UNL A   1      41.505  25.185  27.672  1.00  0.00     0.031 A 
ATOM     57  C   UNL A   1      42.491  27.129  26.651  1.00  0.00     0.131 A 
ATOM     58  C   UNL A   1      41.968  24.415  26.595  1.00  0.00     0.055 A 
ATOM     59  C   UNL A   1      42.871  26.374  25.538  1.00  0.00     0.041 A 
ATOM     60  F   UNL A   1      42.820  28.430  26.657  1.00  0.00    -0.206 F 
ATOM     61  C   UNL A   1      42.626  25.004  25.514  1.00  0.00     0.022 A 
BRANCH  58  62
ATOM     62  S   UNL A   1      41.835  22.609  26.703  1.00  0.00     0.124 S 
ATOM     63  O   UNL A   1      42.278  22.201  25.370  1.00  0.00    -0.237 OA
ATOM     64  O   UNL A   1      42.739  22.290  27.801  1.00  0.00    -0.237 OA
ATOM     65  O   UNL A   1      40.417  22.385  26.975  1.00  0.00    -0.744 OA
ENDBRANCH  58  62
ENDBRANCH  41  55
BRANCH  42  66
ATOM     66  C   UNL A   1      38.723  31.923  35.618  1.00  0.00     0.023 A 
ATOM     67  C   UNL A   1      38.156  31.247  36.710  1.00  0.00     0.031 A 
ATOM     68  C   UNL A   1      38.795  33.327  35.678  1.00  0.00     0.131 A 
ATOM     69  C   UNL A   1      37.641  31.975  37.794  1.00  0.00     0.055 A 
ATOM     70  C   UNL A   1      38.330  34.044  36.783  1.00  0.00     0.041 A 
ATOM     71  F   UNL A   1      39.332  34.024  34.664  1.00  0.00    -0.206 F 
ATOM     72  C   UNL A   1      37.737  33.368  37.844  1.00  0.00     0.022 A 
BRANCH  69  73
ATOM     73  S   UNL A   1      36.765  31.078  39.105  1.00  0.00     0.124 S 
ATOM     74  O   UNL A   1      35.561  31.886  39.265  1.00  0.00    -0.237 OA
ATOM     75  O   UNL A   1      36.581  29.763  38.500  1.00  0.00    -0.237 OA
ATOM     76  O   UNL A   1      37.699  31.120  40.228  1.00  0.00    -0.744 OA
ENDBRANCH  69  73
ENDBRANCH  42  66
BRANCH  54  77
ATOM     77  C   UNL A   1      44.481  28.230  34.266  1.00  0.00     0.023 A 
ATOM     78  C   UNL A   1      44.606  27.119  35.119  1.00  0.00     0.031 A 
ATOM     79  C   UNL A   1      45.561  29.126  34.186  1.00  0.00     0.131 A 
ATOM     80  C   UNL A   1      45.761  26.965  35.901  1.00  0.00     0.055 A 
ATOM     81  C   UNL A   1      46.733  28.935  34.918  1.00  0.00     0.041 A 
ATOM     82  F   UNL A   1      45.496  30.205  33.389  1.00  0.00    -0.206 F 
ATOM     83  C   UNL A   1      46.832  27.856  35.793  1.00  0.00     0.022 A 
BRANCH  80  84
ATOM     84  S   UNL A   1      45.808  25.637  37.135  1.00  0.00     0.124 S 
ATOM     85  O   UNL A   1      45.570  26.367  38.376  1.00  0.00    -0.237 OA
ATOM     86  O   UNL A   1      44.725  24.762  36.693  1.00  0.00    -0.237 OA
ATOM     87  O   UNL A   1      47.151  25.079  36.989  1.00  0.00    -0.744 OA
ENDBRANCH  80  84
ENDBRANCH  54  77
ENDBRANCH  28  29
ENDBRANCH  20  23
ENDBRANCH  18  19
ENDBRANCH   1  18
TORSDOF 15
ENDMDL
MODEL 2
REMARK VINA RESULT:     -11.1      2.741      3.523
REMARK SMILES C[C@H](CC(=O)NCCCNC(=O)c1ccc(-c2c3nc(c(-c4cc(S(=O)(=O)[O-])ccc4F)c4ccc([nH]4)c(-c4cc(S(=O)(=O)[O-])ccc4F)c4nc(c(-c5cc(S(=O)(=O)[O-])ccc5F)c5ccc2[nH]5)C=C4)C=C3)cc1)N1C(=O)CCCC1=O
REMARK SMILES IDX 8 1 7 2 6 3 4 4 5 5 3 7 2 8 1 9 76 10 77 11 82 12 78 13
REMARK SMILES IDX 79 14 81 15 83 16 80 17 9 18 10 19 11 20 12 22 13 23 14 24
REMARK SMILES IDX 75 25 15 26 74 27 16 28 17 29 18 30 68 31 19 32 73 33 67 34
REMARK SMILES IDX 69 35 20 36 72 37 66 38 65 39 21 41 53 42 33 43 52 44 34 45
REMARK SMILES IDX 37 46 51 47 70 48 35 49 36 50 50 52 71 53 38 54 22 55 23 56
REMARK SMILES IDX 31 57 24 58 30 59 32 60 29 61 25 62 26 63 27 64 28 65 54 66
REMARK SMILES IDX 55 67 63 68 56 69 62 70 64 71 61 72 57 73 58 74 59 75 60 76
REMARK SMILES IDX 39 77 40 78 48 79 41 80 47 81 49 82 46 83 42 84 43 85 44 86
REMARK SMILES IDX 45 87
REMARK H PARENT 6 6 10 21 69 40 37 51
REMARK Flexibility Score: inf
ROOT
ATOM      1  C   UNL A   1      33.678  31.566  27.328  1.00  0.00     0.042 C 
ENDROOT
BRANCH   1   2
ATOM      2  C   UNL A   1      33.636  30.141  26.778  1.00  0.00     0.117 C 
BRANCH   2   3
ATOM      3  N   UNL A   1      32.759  29.304  27.579  1.00  0.00    -0.356 N 
ATOM      4  C   UNL A   1      31.845  28.368  27.199  1.00  0.00     0.222 C 
ATOM      5  O   UNL A   1      31.113  27.887  28.067  1.00  0.00    -0.275 OA
ATOM      6  H   UNL A   1      32.840  29.433  28.552  1.00  0.00     0.163 HD
BRANCH   4   7
ATOM      7  C   UNL A   1      31.765  27.879  25.766  1.00  0.00     0.125 C 
BRANCH   7   8
ATOM      8  C   UNL A   1      31.161  26.477  25.518  1.00  0.00     0.099 C 
ATOM      9  C   UNL A   1      30.208  26.375  24.323  1.00  0.00     0.032 C 
BRANCH   8  10
ATOM     10  N   UNL A   1      32.210  25.427  25.583  1.00  0.00    -0.279 N 
ATOM     11  C   UNL A   1      33.322  25.500  24.765  1.00  0.00     0.229 C 
ATOM     12  C   UNL A   1      32.041  24.380  26.485  1.00  0.00     0.229 C 
ATOM     13  O   UNL A   1      33.337  26.024  23.654  1.00  0.00    -0.274 OA
ATOM     14  C   UNL A   1      34.559  24.874  25.347  1.00  0.00     0.101 C 
ATOM     15  C   UNL A   1      33.081  23.266  26.511  1.00  0.00     0.101 C 
ATOM     16  O   UNL A   1      31.095  24.325  27.274  1.00  0.00    -0.274 OA
ATOM     17  C   UNL A   1      34.259  23.417  25.569  1.00  0.00     0.020 C 
ENDBRANCH   8  10
ENDBRANCH   7   8
ENDBRANCH   4   7
ENDBRANCH   2   3
ENDBRANCH   1   2
BRANCH   1  18
ATOM     18  C   UNL A   1      32.325  32.257  27.393  1.00  0.00     0.118 C 
BRANCH  18  19
ATOM     19  N   UNL A   1      32.465  33.689  27.616  1.00  0.00    -0.352 N 
ATOM     20  C   UNL A   1      33.215  34.427  28.503  1.00  0.00     0.251 C 
ATOM     21  H   UNL A   1      31.915  34.237  27.013  1.00  0.00     0.163 HD
ATOM     22  O   UNL A   1      32.893  35.608  28.650  1.00  0.00    -0.269 OA
BRANCH  20  23
ATOM     23  C   UNL A   1      34.359  33.881  29.290  1.00  0.00     0.039 A 
ATOM     24  C   UNL A   1      35.660  34.229  28.891  1.00  0.00     0.014 A 
ATOM     25  C   UNL A   1      34.216  32.961  30.326  1.00  0.00     0.014 A 
ATOM     26  C   UNL A   1      36.782  33.685  29.536  1.00  0.00     0.010 A 
ATOM     27  C   UNL A   1      35.329  32.506  31.042  1.00  0.00     0.010 A 
ATOM     28  C   UNL A   1      36.630  32.835  30.639  1.00  0.00    -0.014 A 
BRANCH  28  29
ATOM     29  C   UNL A   1      37.802  32.234  31.345  1.00  0.00     0.031 A 
ATOM     30  C   UNL A   1      38.577  31.103  30.705  1.00  0.00     0.074 A 
ATOM     31  C   UNL A   1      38.141  32.652  32.582  1.00  0.00     0.049 A 
ATOM     32  N   UNL A   1      39.539  30.365  31.201  1.00  0.00    -0.248 NA
ATOM     33  C   UNL A   1      38.189  30.731  29.336  1.00  0.00     0.031 C 
ATOM     34  C   UNL A   1      37.460  33.708  33.332  1.00  0.00     0.029 A 
ATOM     35  N   UNL A   1      39.135  32.233  33.434  1.00  0.00    -0.354 N 
ATOM     36  C   UNL A   1      39.843  29.423  30.221  1.00  0.00     0.074 A 
ATOM     37  C   UNL A   1      38.920  29.646  29.130  1.00  0.00     0.031 C 
ATOM     38  C   UNL A   1      38.072  33.873  34.516  1.00  0.00     0.029 A 
ATOM     39  C   UNL A   1      39.152  32.900  34.638  1.00  0.00     0.049 A 
ATOM     40  H   UNL A   1      39.775  31.522  33.203  1.00  0.00     0.167 HD
ATOM     41  C   UNL A   1      40.815  28.474  30.218  1.00  0.00     0.034 A 
ATOM     42  C   UNL A   1      39.934  32.737  35.724  1.00  0.00     0.034 A 
ATOM     43  C   UNL A   1      41.755  28.286  31.297  1.00  0.00     0.049 A 
ATOM     44  C   UNL A   1      41.005  31.676  35.702  1.00  0.00     0.074 A 
ATOM     45  C   UNL A   1      42.818  27.402  31.372  1.00  0.00     0.029 A 
ATOM     46  N   UNL A   1      41.747  28.994  32.493  1.00  0.00    -0.354 N 
ATOM     47  N   UNL A   1      41.301  30.819  34.752  1.00  0.00    -0.248 NA
ATOM     48  C   UNL A   1      41.855  31.568  36.895  1.00  0.00     0.031 C 
ATOM     49  C   UNL A   1      43.410  27.529  32.634  1.00  0.00     0.029 A 
ATOM     50  C   UNL A   1      42.768  28.547  33.320  1.00  0.00     0.049 A 
ATOM     51  H   UNL A   1      41.109  29.709  32.721  1.00  0.00     0.167 HD
ATOM     52  C   UNL A   1      42.392  30.092  35.223  1.00  0.00     0.074 A 
ATOM     53  C   UNL A   1      42.710  30.623  36.532  1.00  0.00     0.031 C 
ATOM     54  C   UNL A   1      43.071  29.080  34.627  1.00  0.00     0.034 A 
BRANCH  41  55
ATOM     55  C   UNL A   1      40.894  27.556  29.017  1.00  0.00     0.023 A 
ATOM     56  C   UNL A   1      41.857  27.736  28.008  1.00  0.00     0.031 A 
ATOM     57  C   UNL A   1      39.976  26.501  28.864  1.00  0.00     0.131 A 
ATOM     58  C   UNL A   1      41.825  26.935  26.856  1.00  0.00     0.055 A 
ATOM     59  C   UNL A   1      40.008  25.650  27.757  1.00  0.00     0.041 A 
ATOM     60  F   UNL A   1      39.022  26.286  29.784  1.00  0.00    -0.206 F 
ATOM     61  C   UNL A   1      40.924  25.876  26.735  1.00  0.00     0.022 A 
BRANCH  58  62
ATOM     62  S   UNL A   1      42.877  27.400  25.452  1.00  0.00     0.124 S 
ATOM     63  O   UNL A   1      44.086  27.863  26.131  1.00  0.00    -0.237 OA
ATOM     64  O   UNL A   1      42.997  26.145  24.719  1.00  0.00    -0.237 OA
ATOM     65  O   UNL A   1      42.109  28.446  24.780  1.00  0.00    -0.744 OA
ENDBRANCH  58  62
ENDBRANCH  41  55
BRANCH  42  66
ATOM     66  C   UNL A   1      39.733  33.587  36.935  1.00  0.00     0.023 A 
ATOM     67  C   UNL A   1      40.554  34.699  37.182  1.00  0.00     0.031 A 
ATOM     68  C   UNL A   1      38.742  33.276  37.883  1.00  0.00     0.131 A 
ATOM     69  C   UNL A   1      40.400  35.433  38.369  1.00  0.00     0.055 A 
ATOM     70  C   UNL A   1      38.558  34.042  39.036  1.00  0.00     0.041 A 
ATOM     71  F   UNL A   1      37.927  32.226  37.695  1.00  0.00    -0.206 F 
ATOM     72  C   UNL A   1      39.399  35.120  39.291  1.00  0.00     0.022 A 
BRANCH  69  73
ATOM     73  S   UNL A   1      41.587  36.756  38.731  1.00  0.00     0.124 S 
ATOM     74  O   UNL A   1      42.179  36.992  37.419  1.00  0.00    -0.237 OA
ATOM     75  O   UNL A   1      40.718  37.810  39.242  1.00  0.00    -0.237 OA
ATOM     76  O   UNL A   1      42.478  36.152  39.719  1.00  0.00    -0.744 OA
ENDBRANCH  69  73
ENDBRANCH  42  66
BRANCH  54  77
ATOM     77  C   UNL A   1      44.258  28.517  35.370  1.00  0.00     0.023 A 
ATOM     78  C   UNL A   1      44.116  27.514  36.346  1.00  0.00     0.031 A 
ATOM     79  C   UNL A   1      45.551  29.004  35.108  1.00  0.00     0.131 A 
ATOM     80  C   UNL A   1      45.238  27.073  37.064  1.00  0.00     0.055 A 
ATOM     81  C   UNL A   1      46.672  28.517  35.780  1.00  0.00     0.041 A 
ATOM     82  F   UNL A   1      45.746  29.963  34.188  1.00  0.00    -0.206 F 
ATOM     83  C   UNL A   1      46.517  27.555  36.775  1.00  0.00     0.022 A 
BRANCH  80  84
ATOM     84  S   UNL A   1      44.992  25.928  38.449  1.00  0.00     0.124 S 
ATOM     85  O   UNL A   1      43.828  26.504  39.116  1.00  0.00    -0.237 OA
ATOM     86  O   UNL A   1      44.771  24.656  37.767  1.00  0.00    -0.237 OA
ATOM     87  O   UNL A   1      46.245  26.020  39.196  1.00  0.00    -0.744 OA
ENDBRANCH  80  84
ENDBRANCH  54  77
ENDBRANCH  28  29
ENDBRANCH  20  23
ENDBRANCH  18  19
ENDBRANCH   1  18
TORSDOF 15
ENDMDL
MODEL 3
REMARK VINA RESULT:     -11.1      1.104      1.774
REMARK SMILES C[C@H](CC(=O)NCCCNC(=O)c1ccc(-c2c3nc(c(-c4cc(S(=O)(=O)[O-])ccc4F)c4ccc([nH]4)c(-c4cc(S(=O)(=O)[O-])ccc4F)c4nc(c(-c5cc(S(=O)(=O)[O-])ccc5F)c5ccc2[nH]5)C=C4)C=C3)cc1)N1C(=O)CCCC1=O
REMARK SMILES IDX 8 1 7 2 6 3 4 4 5 5 3 7 2 8 1 9 76 10 77 11 82 12 78 13
REMARK SMILES IDX 79 14 81 15 83 16 80 17 9 18 10 19 11 20 12 22 13 23 14 24
REMARK SMILES IDX 75 25 15 26 74 27 16 28 17 29 18 30 68 31 19 32 73 33 67 34
REMARK SMILES IDX 69 35 20 36 72 37 66 38 65 39 21 41 53 42 33 43 52 44 34 45
REMARK SMILES IDX 37 46 51 47 70 48 35 49 36 50 50 52 71 53 38 54 22 55 23 56
REMARK SMILES IDX 31 57 24 58 30 59 32 60 29 61 25 62 26 63 27 64 28 65 54 66
REMARK SMILES IDX 55 67 63 68 56 69 62 70 64 71 61 72 57 73 58 74 59 75 60 76
REMARK SMILES IDX 39 77 40 78 48 79 41 80 47 81 49 82 46 83 42 84 43 85 44 86
REMARK SMILES IDX 45 87
REMARK H PARENT 6 6 10 21 69 40 37 51
REMARK Flexibility Score: inf
ROOT
ATOM      1  C   UNL A   1      31.513  28.334  25.936  1.00  0.00     0.042 C 
ENDROOT
BRANCH   1   2
ATOM      2  C   UNL A   1      31.694  26.926  25.370  1.00  0.00     0.117 C 
BRANCH   2   3
ATOM      3  N   UNL A   1      31.118  25.934  26.261  1.00  0.00    -0.356 N 
ATOM      4  C   UNL A   1      31.542  24.677  26.572  1.00  0.00     0.222 C 
ATOM      5  O   UNL A   1      30.797  23.967  27.252  1.00  0.00    -0.275 OA
ATOM      6  H   UNL A   1      30.289  26.215  26.712  1.00  0.00     0.163 HD
BRANCH   4   7
ATOM      7  C   UNL A   1      32.912  24.181  26.156  1.00  0.00     0.125 C 
BRANCH   7   8
ATOM      8  C   UNL A   1      32.979  22.942  25.231  1.00  0.00     0.099 C 
ATOM      9  C   UNL A   1      32.007  22.955  24.048  1.00  0.00     0.032 C 
BRANCH   8  10
ATOM     10  N   UNL A   1      34.385  22.606  24.893  1.00  0.00    -0.279 N 
ATOM     11  C   UNL A   1      35.076  21.666  25.635  1.00  0.00     0.229 C 
ATOM     12  C   UNL A   1      34.979  23.259  23.816  1.00  0.00     0.229 C 
ATOM     13  O   UNL A   1      34.874  21.432  26.823  1.00  0.00    -0.274 OA
ATOM     14  C   UNL A   1      36.129  20.921  24.862  1.00  0.00     0.101 C 
ATOM     15  C   UNL A   1      36.442  22.966  23.504  1.00  0.00     0.101 C 
ATOM     16  O   UNL A   1      34.367  24.050  23.094  1.00  0.00    -0.274 OA
ATOM     17  C   UNL A   1      37.129  21.935  24.378  1.00  0.00     0.020 C 
ENDBRANCH   8  10
ENDBRANCH   7   8
ENDBRANCH   4   7
ENDBRANCH   2   3
ENDBRANCH   1   2
BRANCH   1  18
ATOM     18  C   UNL A   1      32.472  29.369  25.370  1.00  0.00     0.118 C 
BRANCH  18  19
ATOM     19  N   UNL A   1      32.158  30.707  25.848  1.00  0.00    -0.352 N 
ATOM     20  C   UNL A   1      32.662  31.476  26.871  1.00  0.00     0.251 C 
ATOM     21  H   UNL A   1      31.443  31.150  25.338  1.00  0.00     0.163 HD
ATOM     22  O   UNL A   1      31.987  32.448  27.218  1.00  0.00    -0.269 OA
BRANCH  20  23
ATOM     23  C   UNL A   1      33.944  31.192  27.579  1.00  0.00     0.039 A 
ATOM     24  C   UNL A   1      34.214  29.864  27.949  1.00  0.00     0.014 A 
ATOM     25  C   UNL A   1      34.837  32.180  27.990  1.00  0.00     0.014 A 
ATOM     26  C   UNL A   1      35.362  29.541  28.689  1.00  0.00     0.010 A 
ATOM     27  C   UNL A   1      36.035  31.845  28.629  1.00  0.00     0.010 A 
ATOM     28  C   UNL A   1      36.304  30.526  29.017  1.00  0.00    -0.014 A 
BRANCH  28  29
ATOM     29  C   UNL A   1      37.533  30.217  29.808  1.00  0.00     0.031 A 
ATOM     30  C   UNL A   1      38.605  29.321  29.230  1.00  0.00     0.074 A 
ATOM     31  C   UNL A   1      37.668  30.685  31.067  1.00  0.00     0.049 A 
ATOM     32  N   UNL A   1      39.680  28.832  29.797  1.00  0.00    -0.248 NA
ATOM     33  C   UNL A   1      38.420  28.888  27.836  1.00  0.00     0.031 C 
ATOM     34  C   UNL A   1      36.697  31.531  31.762  1.00  0.00     0.029 A 
ATOM     35  N   UNL A   1      38.670  30.509  31.990  1.00  0.00    -0.354 N 
ATOM     36  C   UNL A   1      40.276  28.009  28.844  1.00  0.00     0.074 A 
ATOM     37  C   UNL A   1      39.408  28.018  27.687  1.00  0.00     0.031 C 
ATOM     38  C   UNL A   1      37.162  31.821  32.988  1.00  0.00     0.029 A 
ATOM     39  C   UNL A   1      38.436  31.139  33.191  1.00  0.00     0.049 A 
ATOM     40  H   UNL A   1      39.480  29.979  31.810  1.00  0.00     0.167 HD
ATOM     41  C   UNL A   1      41.448  27.327  28.916  1.00  0.00     0.034 A 
ATOM     42  C   UNL A   1      39.152  31.155  34.333  1.00  0.00     0.034 A 
ATOM     43  C   UNL A   1      42.325  27.357  30.062  1.00  0.00     0.049 A 
ATOM     44  C   UNL A   1      40.450  30.388  34.392  1.00  0.00     0.074 A 
ATOM     45  C   UNL A   1      43.563  26.758  30.217  1.00  0.00     0.029 A 
ATOM     46  N   UNL A   1      42.057  28.021  31.252  1.00  0.00    -0.354 N 
ATOM     47  N   UNL A   1      41.015  29.645  33.469  1.00  0.00    -0.248 NA
ATOM     48  C   UNL A   1      41.212  30.472  35.646  1.00  0.00     0.031 C 
ATOM     49  C   UNL A   1      44.013  27.006  31.519  1.00  0.00     0.029 A 
ATOM     50  C   UNL A   1      43.093  27.824  32.154  1.00  0.00     0.049 A 
ATOM     51  H   UNL A   1      41.248  28.555  31.432  1.00  0.00     0.167 HD
ATOM     52  C   UNL A   1      42.213  29.199  34.021  1.00  0.00     0.074 A 
ATOM     53  C   UNL A   1      42.296  29.771  35.349  1.00  0.00     0.031 C 
ATOM     54  C   UNL A   1      43.161  28.394  33.479  1.00  0.00     0.034 A 
BRANCH  41  55
ATOM     55  C   UNL A   1      41.836  26.476  27.726  1.00  0.00     0.023 A 
ATOM     56  C   UNL A   1      41.454  25.126  27.625  1.00  0.00     0.031 A 
ATOM     57  C   UNL A   1      42.622  27.012  26.690  1.00  0.00     0.131 A 
ATOM     58  C   UNL A   1      41.929  24.339  26.564  1.00  0.00     0.055 A 
ATOM     59  C   UNL A   1      43.016  26.247  25.590  1.00  0.00     0.041 A 
ATOM     60  F   UNL A   1      43.033  28.289  26.735  1.00  0.00    -0.206 F 
ATOM     61  C   UNL A   1      42.685  24.897  25.531  1.00  0.00     0.022 A 
BRANCH  58  62
ATOM     62  S   UNL A   1      41.674  22.544  26.637  1.00  0.00     0.124 S 
ATOM     63  O   UNL A   1      40.218  22.458  26.738  1.00  0.00    -0.237 OA
ATOM     64  O   UNL A   1      42.255  22.091  25.379  1.00  0.00    -0.237 OA
ATOM     65  O   UNL A   1      42.399  22.143  27.841  1.00  0.00    -0.744 OA
ENDBRANCH  58  62
ENDBRANCH  41  55
BRANCH  42  66
ATOM     66  C   UNL A   1      38.663  31.910  35.523  1.00  0.00     0.023 A 
ATOM     67  C   UNL A   1      38.133  31.239  36.638  1.00  0.00     0.031 A 
ATOM     68  C   UNL A   1      38.682  33.316  35.549  1.00  0.00     0.131 A 
ATOM     69  C   UNL A   1      37.602  31.974  37.710  1.00  0.00     0.055 A 
ATOM     70  C   UNL A   1      38.202  34.041  36.642  1.00  0.00     0.041 A 
ATOM     71  F   UNL A   1      39.182  34.008  34.513  1.00  0.00    -0.206 F 
ATOM     72  C   UNL A   1      37.645  33.369  37.725  1.00  0.00     0.022 A 
BRANCH  69  73
ATOM     73  S   UNL A   1      36.774  31.076  39.051  1.00  0.00     0.124 S 
ATOM     74  O   UNL A   1      35.528  31.823  39.184  1.00  0.00    -0.237 OA
ATOM     75  O   UNL A   1      36.661  29.733  38.492  1.00  0.00    -0.237 OA
ATOM     76  O   UNL A   1      37.703  31.206  40.171  1.00  0.00    -0.744 OA
ENDBRANCH  69  73
ENDBRANCH  42  66
BRANCH  54  77
ATOM     77  C   UNL A   1      44.393  28.126  34.310  1.00  0.00     0.023 A 
ATOM     78  C   UNL A   1      44.478  27.022  35.176  1.00  0.00     0.031 A 
ATOM     79  C   UNL A   1      45.493  28.999  34.243  1.00  0.00     0.131 A 
ATOM     80  C   UNL A   1      45.613  26.853  35.984  1.00  0.00     0.055 A 
ATOM     81  C   UNL A   1      46.645  28.792  35.002  1.00  0.00     0.041 A 
ATOM     82  F   UNL A   1      45.466  30.071  33.434  1.00  0.00    -0.206 F 
ATOM     83  C   UNL A   1      46.704  27.721  35.889  1.00  0.00     0.022 A 
BRANCH  80  84
ATOM     84  S   UNL A   1      45.608  25.537  37.232  1.00  0.00     0.124 S 
ATOM     85  O   UNL A   1      44.634  24.600  36.680  1.00  0.00    -0.237 OA
ATOM     86  O   UNL A   1      46.998  25.092  37.222  1.00  0.00    -0.237 OA
ATOM     87  O   UNL A   1      45.187  26.223  38.452  1.00  0.00    -0.744 OA
ENDBRANCH  80  84
ENDBRANCH  54  77
ENDBRANCH  28  29
ENDBRANCH  20  23
ENDBRANCH  18  19
ENDBRANCH   1  18
TORSDOF 15
ENDMDL
