MODEL 1
REMARK VINA RESULT:     -10.8      0.000      0.000
REMARK SMILES CCCCCCNC(=O)Oc1cccc(-c2ccc([C@@H](C)C(=O)NCCCNC(=O)c3ccc(-c4c5nc(c(-c6cc(S(=O)(=O)[O-])ccc6F)c6ccc([nH]6)c(-c6cc(S(=O)(=O)[O-])ccc6F)c6nc(c(-c7cc(S(=O)(=O)[O-])ccc7F)c7ccc4[nH]7)C=C6)C=C5)cc3)cc2)c1
REMARK SMILES IDX 20 1 21 2 19 3 16 4 17 5 95 6 18 7 94 8 15 9 11 10 12 11
REMARK SMILES IDX 96 12 13 13 14 14 10 15 8 16 7 17 9 19 6 20 5 21 4 22 3 23
REMARK SMILES IDX 2 24 1 25 22 26 23 27 24 28 25 30 26 31 27 32 28 33 29 34
REMARK SMILES IDX 30 36 31 37 32 38 93 39 33 40 92 41 34 42 35 43 36 44 86 45
REMARK SMILES IDX 37 46 91 47 85 48 87 49 38 50 90 51 84 52 83 53 39 55 71 56
REMARK SMILES IDX 51 57 70 58 52 59 55 60 69 61 88 62 53 63 54 64 68 66 89 67
REMARK SMILES IDX 56 68 40 69 41 70 49 71 42 72 48 73 50 74 47 75 43 76 44 77
REMARK SMILES IDX 45 78 46 79 72 80 73 81 81 82 74 83 80 84 82 85 79 86 75 87
REMARK SMILES IDX 76 88 77 89 78 90 57 91 58 92 66 93 59 94 65 95 67 96 64 97
REMARK SMILES IDX 60 98 61 99 62 100 63 101
REMARK H PARENT 7 18 24 29 28 35 87 54 55 65
REMARK Flexibility Score: inf
ROOT
ATOM      1  C   UNL A   1      32.477  27.938  23.209  1.00  0.00     0.105 C 
ATOM      2  C   UNL A   1      33.634  28.571  22.438  1.00  0.00     0.023 C 
ENDROOT
BRANCH   1   3
ATOM      3  C   UNL A   1      32.338  26.432  23.064  1.00  0.00    -0.036 A 
ATOM      4  C   UNL A   1      32.331  23.582  22.882  1.00  0.00    -0.018 A 
ATOM      5  C   UNL A   1      31.634  24.258  23.894  1.00  0.00     0.009 A 
ATOM      6  C   UNL A   1      32.986  24.371  21.925  1.00  0.00     0.009 A 
ATOM      7  C   UNL A   1      31.603  25.653  23.959  1.00  0.00     0.005 A 
ATOM      8  C   UNL A   1      33.008  25.769  22.024  1.00  0.00     0.005 A 
BRANCH   4   9
ATOM      9  C   UNL A   1      32.397  22.106  22.869  1.00  0.00    -0.015 A 
ATOM     10  C   UNL A   1      32.956  19.997  23.940  1.00  0.00     0.133 A 
ATOM     11  C   UNL A   1      32.399  19.274  22.891  1.00  0.00     0.047 A 
ATOM     12  C   UNL A   1      32.970  21.393  23.934  1.00  0.00     0.056 A 
ATOM     13  C   UNL A   1      31.835  19.960  21.823  1.00  0.00     0.004 A 
ATOM     14  C   UNL A   1      31.843  21.358  21.809  1.00  0.00     0.009 A 
BRANCH  10  15
ATOM     15  O   UNL A   1      33.597  19.261  24.948  1.00  0.00    -0.410 OA
BRANCH  15  16
ATOM     16  C   UNL A   1      34.715  18.518  24.605  1.00  0.00     0.412 C 
ATOM     17  N   UNL A   1      35.887  19.173  24.866  1.00  0.00    -0.321 N 
ATOM     18  H   UNL A   1      36.717  18.713  24.608  1.00  0.00     0.167 HD
ATOM     19  O   UNL A   1      34.717  17.390  24.129  1.00  0.00    -0.224 OA
BRANCH  17  20
ATOM     20  C   UNL A   1      36.029  20.475  25.484  1.00  0.00     0.119 C 
BRANCH  20  21
ATOM     21  C   UNL A   1      36.640  21.490  24.518  1.00  0.00     0.021 C 
BRANCH  21  22
ATOM     22  C   UNL A   1      37.521  22.554  25.185  1.00  0.00     0.002 C 
BRANCH  22  23
ATOM     23  C   UNL A   1      36.942  23.974  25.193  1.00  0.00    -0.000 C 
BRANCH  23  24
ATOM     24  C   UNL A   1      35.451  24.074  24.859  1.00  0.00    -0.003 C 
ATOM     25  C   UNL A   1      34.556  23.975  26.083  1.00  0.00     0.004 C 
ENDBRANCH  23  24
ENDBRANCH  22  23
ENDBRANCH  21  22
ENDBRANCH  20  21
ENDBRANCH  17  20
ENDBRANCH  15  16
ENDBRANCH  10  15
ENDBRANCH   4   9
ENDBRANCH   1   3
BRANCH   1  26
ATOM     26  C   UNL A   1      31.146  28.696  23.086  1.00  0.00     0.227 C 
ATOM     27  O   UNL A   1      30.383  28.446  22.144  1.00  0.00    -0.274 OA
ATOM     28  N   UNL A   1      30.717  29.636  23.972  1.00  0.00    -0.356 N 
ATOM     29  H   UNL A   1      29.819  29.990  23.778  1.00  0.00     0.163 HD
BRANCH  28  30
ATOM     30  C   UNL A   1      31.336  30.211  25.149  1.00  0.00     0.117 C 
BRANCH  30  31
ATOM     31  C   UNL A   1      31.882  29.149  26.099  1.00  0.00     0.042 C 
BRANCH  31  32
ATOM     32  C   UNL A   1      33.114  29.593  26.875  1.00  0.00     0.118 C 
BRANCH  32  33
ATOM     33  N   UNL A   1      33.169  31.041  27.023  1.00  0.00    -0.352 N 
ATOM     34  C   UNL A   1      34.008  31.829  27.772  1.00  0.00     0.251 C 
ATOM     35  H   UNL A   1      32.497  31.535  26.501  1.00  0.00     0.163 HD
ATOM     36  O   UNL A   1      33.711  33.010  27.939  1.00  0.00    -0.269 OA
BRANCH  34  37
ATOM     37  C   UNL A   1      35.242  31.279  28.380  1.00  0.00     0.039 A 
ATOM     38  C   UNL A   1      36.445  31.972  28.209  1.00  0.00     0.014 A 
ATOM     39  C   UNL A   1      35.241  30.059  29.061  1.00  0.00     0.014 A 
ATOM     40  C   UNL A   1      37.629  31.462  28.747  1.00  0.00     0.010 A 
ATOM     41  C   UNL A   1      36.402  29.603  29.682  1.00  0.00     0.010 A 
ATOM     42  C   UNL A   1      37.614  30.282  29.509  1.00  0.00    -0.014 A 
BRANCH  42  43
ATOM     43  C   UNL A   1      38.864  29.711  30.076  1.00  0.00     0.031 A 
ATOM     44  C   UNL A   1      39.433  30.278  31.352  1.00  0.00     0.074 A 
ATOM     45  C   UNL A   1      39.508  28.720  29.428  1.00  0.00     0.049 A 
ATOM     46  N   UNL A   1      40.545  29.977  31.972  1.00  0.00    -0.248 NA
ATOM     47  C   UNL A   1      38.660  31.350  31.999  1.00  0.00     0.031 C 
ATOM     48  C   UNL A   1      39.071  28.112  28.169  1.00  0.00     0.029 A 
ATOM     49  N   UNL A   1      40.666  28.051  29.733  1.00  0.00    -0.354 N 
ATOM     50  C   UNL A   1      40.613  30.832  33.067  1.00  0.00     0.074 A 
ATOM     51  C   UNL A   1      39.466  31.710  32.986  1.00  0.00     0.031 C 
ATOM     52  C   UNL A   1      39.933  27.141  27.827  1.00  0.00     0.029 A 
ATOM     53  C   UNL A   1      41.010  27.090  28.810  1.00  0.00     0.049 A 
ATOM     54  H   UNL A   1      41.201  28.241  30.537  1.00  0.00     0.167 HD
ATOM     55  C   UNL A   1      41.531  30.865  34.065  1.00  0.00     0.034 A 
ATOM     56  C   UNL A   1      42.081  26.272  28.755  1.00  0.00     0.034 A 
ATOM     57  C   UNL A   1      42.661  29.971  34.137  1.00  0.00     0.049 A 
ATOM     58  C   UNL A   1      43.107  26.347  29.859  1.00  0.00     0.074 A 
ATOM     59  C   UNL A   1      43.630  29.882  35.121  1.00  0.00     0.029 A 
ATOM     60  N   UNL A   1      42.979  29.012  33.181  1.00  0.00    -0.354 N 
ATOM     61  N   UNL A   1      43.134  27.133  30.912  1.00  0.00    -0.248 NA
ATOM     62  C   UNL A   1      44.239  25.416  29.776  1.00  0.00     0.031 C 
ATOM     63  C   UNL A   1      44.571  28.925  34.725  1.00  0.00     0.029 A 
ATOM     64  C   UNL A   1      44.143  28.350  33.539  1.00  0.00     0.049 A 
ATOM     65  H   UNL A   1      42.453  28.830  32.369  1.00  0.00     0.167 HD
ATOM     66  C   UNL A   1      44.266  26.761  31.634  1.00  0.00     0.074 A 
ATOM     67  C   UNL A   1      44.883  25.673  30.904  1.00  0.00     0.031 C 
ATOM     68  C   UNL A   1      44.748  27.269  32.798  1.00  0.00     0.034 A 
BRANCH  55  69
ATOM     69  C   UNL A   1      41.358  31.915  35.139  1.00  0.00     0.023 A 
ATOM     70  C   UNL A   1      40.319  31.843  36.084  1.00  0.00     0.031 A 
ATOM     71  C   UNL A   1      42.227  33.019  35.203  1.00  0.00     0.131 A 
ATOM     72  C   UNL A   1      40.126  32.892  36.996  1.00  0.00     0.055 A 
ATOM     73  C   UNL A   1      42.083  34.015  36.172  1.00  0.00     0.041 A 
ATOM     74  F   UNL A   1      43.226  33.156  34.316  1.00  0.00    -0.206 F 
ATOM     75  C   UNL A   1      41.018  33.963  37.065  1.00  0.00     0.022 A 
BRANCH  72  76
ATOM     76  S   UNL A   1      38.606  32.909  37.985  1.00  0.00     0.124 S 
ATOM     77  O   UNL A   1      37.665  32.238  37.091  1.00  0.00    -0.237 OA
ATOM     78  O   UNL A   1      38.996  32.165  39.177  1.00  0.00    -0.237 OA
ATOM     79  O   UNL A   1      38.348  34.333  38.194  1.00  0.00    -0.744 OA
ENDBRANCH  72  76
ENDBRANCH  55  69
BRANCH  56  80
ATOM     80  C   UNL A   1      42.251  25.317  27.622  1.00  0.00     0.023 A 
ATOM     81  C   UNL A   1      41.747  24.009  27.697  1.00  0.00     0.031 A 
ATOM     82  C   UNL A   1      42.963  25.681  26.464  1.00  0.00     0.131 A 
ATOM     83  C   UNL A   1      42.010  23.095  26.663  1.00  0.00     0.055 A 
ATOM     84  C   UNL A   1      43.168  24.788  25.411  1.00  0.00     0.041 A 
ATOM     85  F   UNL A   1      43.465  26.919  26.338  1.00  0.00    -0.206 F 
ATOM     86  C   UNL A   1      42.704  23.481  25.514  1.00  0.00     0.022 A 
BRANCH  83  87
ATOM     87  S   UNL A   1      41.521  21.363  26.889  1.00  0.00     0.124 S 
ATOM     88  O   UNL A   1      41.633  20.844  25.531  1.00  0.00    -0.237 OA
ATOM     89  O   UNL A   1      42.517  20.889  27.842  1.00  0.00    -0.237 OA
ATOM     90  O   UNL A   1      40.159  21.461  27.411  1.00  0.00    -0.744 OA
ENDBRANCH  83  87
ENDBRANCH  56  80
BRANCH  68  91
ATOM     91  C   UNL A   1      45.973  26.605  33.382  1.00  0.00     0.023 A 
ATOM     92  C   UNL A   1      45.882  25.477  34.217  1.00  0.00     0.031 A 
ATOM     93  C   UNL A   1      47.252  27.118  33.101  1.00  0.00     0.131 A 
ATOM     94  C   UNL A   1      47.044  24.939  34.791  1.00  0.00     0.055 A 
ATOM     95  C   UNL A   1      48.409  26.535  33.619  1.00  0.00     0.041 A 
ATOM     96  F   UNL A   1      47.400  28.195  32.314  1.00  0.00    -0.206 F 
ATOM     97  C   UNL A   1      48.308  25.448  34.482  1.00  0.00     0.022 A 
BRANCH  94  98
ATOM     98  S   UNL A   1      46.873  23.627  36.032  1.00  0.00     0.124 S 
ATOM     99  O   UNL A   1      47.575  24.199  37.177  1.00  0.00    -0.237 OA
ATOM    100  O   UNL A   1      45.425  23.509  36.167  1.00  0.00    -0.237 OA
ATOM    101  O   UNL A   1      47.532  22.479  35.411  1.00  0.00    -0.744 OA
ENDBRANCH  94  98
ENDBRANCH  68  91
ENDBRANCH  42  43
ENDBRANCH  34  37
ENDBRANCH  32  33
ENDBRANCH  31  32
ENDBRANCH  30  31
ENDBRANCH  28  30
ENDBRANCH   1  26
TORSDOF 22
ENDMDL
MODEL 2
REMARK VINA RESULT:     -10.7      4.673      8.349
REMARK SMILES CCCCCCNC(=O)Oc1cccc(-c2ccc([C@@H](C)C(=O)NCCCNC(=O)c3ccc(-c4c5nc(c(-c6cc(S(=O)(=O)[O-])ccc6F)c6ccc([nH]6)c(-c6cc(S(=O)(=O)[O-])ccc6F)c6nc(c(-c7cc(S(=O)(=O)[O-])ccc7F)c7ccc4[nH]7)C=C6)C=C5)cc3)cc2)c1
REMARK SMILES IDX 20 1 21 2 19 3 16 4 17 5 95 6 18 7 94 8 15 9 11 10 12 11
REMARK SMILES IDX 96 12 13 13 14 14 10 15 8 16 7 17 9 19 6 20 5 21 4 22 3 23
REMARK SMILES IDX 2 24 1 25 22 26 23 27 24 28 25 30 26 31 27 32 28 33 29 34
REMARK SMILES IDX 30 36 31 37 32 38 93 39 33 40 92 41 34 42 35 43 36 44 86 45
REMARK SMILES IDX 37 46 91 47 85 48 87 49 38 50 90 51 84 52 83 53 39 55 71 56
REMARK SMILES IDX 51 57 70 58 52 59 55 60 69 61 88 62 53 63 54 64 68 66 89 67
REMARK SMILES IDX 56 68 40 69 41 70 49 71 42 72 48 73 50 74 47 75 43 76 44 77
REMARK SMILES IDX 45 78 46 79 72 80 73 81 81 82 74 83 80 84 82 85 79 86 75 87
REMARK SMILES IDX 76 88 77 89 78 90 57 91 58 92 66 93 59 94 65 95 67 96 64 97
REMARK SMILES IDX 60 98 61 99 62 100 63 101
REMARK H PARENT 7 18 24 29 28 35 87 54 55 65
REMARK Flexibility Score: inf
ROOT
ATOM      1  C   UNL A   1      36.156  33.389  33.497  1.00  0.00     0.105 C 
ATOM      2  C   UNL A   1      35.628  34.143  34.716  1.00  0.00     0.023 C 
ENDROOT
BRANCH   1   3
ATOM      3  C   UNL A   1      37.191  32.314  33.786  1.00  0.00    -0.036 A 
ATOM      4  C   UNL A   1      39.252  30.363  34.094  1.00  0.00    -0.018 A 
ATOM      5  C   UNL A   1      39.239  31.545  34.846  1.00  0.00     0.009 A 
ATOM      6  C   UNL A   1      38.173  30.151  33.222  1.00  0.00     0.009 A 
ATOM      7  C   UNL A   1      38.208  32.481  34.726  1.00  0.00     0.005 A 
ATOM      8  C   UNL A   1      37.172  31.117  33.055  1.00  0.00     0.005 A 
BRANCH   4   9
ATOM      9  C   UNL A   1      40.383  29.417  34.197  1.00  0.00    -0.015 A 
ATOM     10  C   UNL A   1      42.350  28.578  35.353  1.00  0.00     0.133 A 
ATOM     11  C   UNL A   1      42.470  27.520  34.458  1.00  0.00     0.047 A 
ATOM     12  C   UNL A   1      41.332  29.525  35.227  1.00  0.00     0.056 A 
ATOM     13  C   UNL A   1      41.547  27.400  33.426  1.00  0.00     0.004 A 
ATOM     14  C   UNL A   1      40.523  28.343  33.293  1.00  0.00     0.009 A 
BRANCH  10  15
ATOM     15  O   UNL A   1      43.358  28.710  36.318  1.00  0.00    -0.410 OA
BRANCH  15  16
ATOM     16  C   UNL A   1      43.750  27.577  37.015  1.00  0.00     0.412 C 
ATOM     17  N   UNL A   1      45.010  27.161  36.684  1.00  0.00    -0.321 N 
ATOM     18  H   UNL A   1      45.330  26.337  37.115  1.00  0.00     0.167 HD
ATOM     19  O   UNL A   1      43.089  26.979  37.854  1.00  0.00    -0.224 OA
BRANCH  17  20
ATOM     20  C   UNL A   1      45.919  27.809  35.762  1.00  0.00     0.119 C 
BRANCH  20  21
ATOM     21  C   UNL A   1      46.353  26.861  34.643  1.00  0.00     0.021 C 
BRANCH  21  22
ATOM     22  C   UNL A   1      45.654  25.496  34.658  1.00  0.00     0.002 C 
BRANCH  22  23
ATOM     23  C   UNL A   1      44.760  25.204  33.448  1.00  0.00    -0.000 C 
BRANCH  23  24
ATOM     24  C   UNL A   1      44.730  23.742  32.994  1.00  0.00    -0.003 C 
ATOM     25  C   UNL A   1      44.165  23.561  31.594  1.00  0.00     0.004 C 
ENDBRANCH  23  24
ENDBRANCH  22  23
ENDBRANCH  21  22
ENDBRANCH  20  21
ENDBRANCH  17  20
ENDBRANCH  15  16
ENDBRANCH  10  15
ENDBRANCH   4   9
ENDBRANCH   1   3
BRANCH   1  26
ATOM     26  C   UNL A   1      36.520  34.291  32.306  1.00  0.00     0.227 C 
ATOM     27  O   UNL A   1      37.639  34.818  32.255  1.00  0.00    -0.274 OA
ATOM     28  N   UNL A   1      35.689  34.546  31.259  1.00  0.00    -0.356 N 
ATOM     29  H   UNL A   1      36.092  35.101  30.553  1.00  0.00     0.163 HD
BRANCH  28  30
ATOM     30  C   UNL A   1      34.321  34.150  30.989  1.00  0.00     0.117 C 
BRANCH  30  31
ATOM     31  C   UNL A   1      34.081  33.853  29.512  1.00  0.00     0.042 C 
BRANCH  31  32
ATOM     32  C   UNL A   1      35.030  32.815  28.931  1.00  0.00     0.118 C 
BRANCH  32  33
ATOM     33  N   UNL A   1      34.322  31.629  28.468  1.00  0.00    -0.352 N 
ATOM     34  C   UNL A   1      34.796  30.395  28.097  1.00  0.00     0.251 C 
ATOM     35  H   UNL A   1      33.345  31.729  28.413  1.00  0.00     0.163 HD
ATOM     36  O   UNL A   1      34.040  29.630  27.502  1.00  0.00    -0.269 OA
BRANCH  34  37
ATOM     37  C   UNL A   1      36.189  29.985  28.392  1.00  0.00     0.039 A 
ATOM     38  C   UNL A   1      37.166  30.155  27.405  1.00  0.00     0.014 A 
ATOM     39  C   UNL A   1      36.532  29.377  29.603  1.00  0.00     0.014 A 
ATOM     40  C   UNL A   1      38.481  29.751  27.646  1.00  0.00     0.010 A 
ATOM     41  C   UNL A   1      37.861  29.067  29.879  1.00  0.00     0.010 A 
ATOM     42  C   UNL A   1      38.846  29.222  28.895  1.00  0.00    -0.014 A 
BRANCH  42  43
ATOM     43  C   UNL A   1      40.235  28.769  29.168  1.00  0.00     0.031 A 
ATOM     44  C   UNL A   1      41.128  29.592  30.062  1.00  0.00     0.074 A 
ATOM     45  C   UNL A   1      40.707  27.650  28.583  1.00  0.00     0.049 A 
ATOM     46  N   UNL A   1      42.387  29.416  30.368  1.00  0.00    -0.248 NA
ATOM     47  C   UNL A   1      40.528  30.792  30.667  1.00  0.00     0.031 C 
ATOM     48  C   UNL A   1      39.947  26.789  27.675  1.00  0.00     0.029 A 
ATOM     49  N   UNL A   1      41.936  27.046  28.662  1.00  0.00    -0.354 N 
ATOM     50  C   UNL A   1      42.735  30.489  31.183  1.00  0.00     0.074 A 
ATOM     51  C   UNL A   1      41.572  31.345  31.266  1.00  0.00     0.031 C 
ATOM     52  C   UNL A   1      40.717  25.753  27.304  1.00  0.00     0.029 A 
ATOM     53  C   UNL A   1      42.039  25.901  27.904  1.00  0.00     0.049 A 
ATOM     54  H   UNL A   1      42.675  27.398  29.207  1.00  0.00     0.167 HD
ATOM     55  C   UNL A   1      43.904  30.724  31.828  1.00  0.00     0.034 A 
ATOM     56  C   UNL A   1      43.086  25.074  27.706  1.00  0.00     0.034 A 
ATOM     57  C   UNL A   1      45.049  29.849  31.745  1.00  0.00     0.049 A 
ATOM     58  C   UNL A   1      44.387  25.372  28.408  1.00  0.00     0.074 A 
ATOM     59  C   UNL A   1      46.269  29.962  32.387  1.00  0.00     0.029 A 
ATOM     60  N   UNL A   1      45.117  28.700  30.966  1.00  0.00    -0.354 N 
ATOM     61  N   UNL A   1      44.686  26.368  29.211  1.00  0.00    -0.248 NA
ATOM     62  C   UNL A   1      45.490  24.427  28.188  1.00  0.00     0.031 C 
ATOM     63  C   UNL A   1      47.097  28.927  31.941  1.00  0.00     0.029 A 
ATOM     64  C   UNL A   1      46.366  28.114  31.090  1.00  0.00     0.049 A 
ATOM     65  H   UNL A   1      44.383  28.353  30.408  1.00  0.00     0.167 HD
ATOM     66  C   UNL A   1      45.999  26.145  29.620  1.00  0.00     0.074 A 
ATOM     67  C   UNL A   1      46.425  24.914  28.988  1.00  0.00     0.031 C 
ATOM     68  C   UNL A   1      46.778  26.887  30.449  1.00  0.00     0.034 A 
BRANCH  55  69
ATOM     69  C   UNL A   1      44.005  31.986  32.654  1.00  0.00     0.023 A 
ATOM     70  C   UNL A   1      43.767  31.984  34.040  1.00  0.00     0.031 A 
ATOM     71  C   UNL A   1      44.316  33.215  32.044  1.00  0.00     0.131 A 
ATOM     72  C   UNL A   1      43.763  33.193  34.754  1.00  0.00     0.055 A 
ATOM     73  C   UNL A   1      44.399  34.401  32.777  1.00  0.00     0.041 A 
ATOM     74  F   UNL A   1      44.534  33.286  30.722  1.00  0.00    -0.206 F 
ATOM     75  C   UNL A   1      44.105  34.397  34.137  1.00  0.00     0.022 A 
BRANCH  72  76
ATOM     76  S   UNL A   1      43.155  33.187  36.462  1.00  0.00     0.124 S 
ATOM     77  O   UNL A   1      41.708  33.186  36.260  1.00  0.00    -0.237 OA
ATOM     78  O   UNL A   1      43.727  31.957  36.997  1.00  0.00    -0.237 OA
ATOM     79  O   UNL A   1      43.697  34.424  37.023  1.00  0.00    -0.744 OA
ENDBRANCH  72  76
ENDBRANCH  55  69
BRANCH  56  80
ATOM     80  C   UNL A   1      42.959  23.891  26.805  1.00  0.00     0.023 A 
ATOM     81  C   UNL A   1      42.266  22.741  27.214  1.00  0.00     0.031 A 
ATOM     82  C   UNL A   1      43.572  23.873  25.539  1.00  0.00     0.131 A 
ATOM     83  C   UNL A   1      42.250  21.602  26.392  1.00  0.00     0.055 A 
ATOM     84  C   UNL A   1      43.500  22.760  24.699  1.00  0.00     0.041 A 
ATOM     85  F   UNL A   1      44.247  24.945  25.096  1.00  0.00    -0.206 F 
ATOM     86  C   UNL A   1      42.850  21.609  25.131  1.00  0.00     0.022 A 
BRANCH  83  87
ATOM     87  S   UNL A   1      41.521  20.073  27.042  1.00  0.00     0.124 S 
ATOM     88  O   UNL A   1      40.631  20.586  28.077  1.00  0.00    -0.237 OA
ATOM     89  O   UNL A   1      40.878  19.517  25.858  1.00  0.00    -0.237 OA
ATOM     90  O   UNL A   1      42.680  19.326  27.528  1.00  0.00    -0.744 OA
ENDBRANCH  83  87
ENDBRANCH  56  80
BRANCH  68  91
ATOM     91  C   UNL A   1      48.154  26.347  30.765  1.00  0.00     0.023 A 
ATOM     92  C   UNL A   1      48.420  25.633  31.947  1.00  0.00     0.031 A 
ATOM     93  C   UNL A   1      49.216  26.560  29.868  1.00  0.00     0.131 A 
ATOM     94  C   UNL A   1      49.728  25.212  32.228  1.00  0.00     0.055 A 
ATOM     95  C   UNL A   1      50.500  26.078  30.120  1.00  0.00     0.041 A 
ATOM     96  F   UNL A   1      49.021  27.239  28.726  1.00  0.00    -0.206 F 
ATOM     97  C   UNL A   1      50.766  25.413  31.314  1.00  0.00     0.022 A 
BRANCH  94  98
ATOM     98  S   UNL A   1      50.080  24.490  33.854  1.00  0.00     0.124 S 
ATOM     99  O   UNL A   1      51.424  23.952  33.664  1.00  0.00    -0.237 OA
ATOM    100  O   UNL A   1      49.975  25.645  34.739  1.00  0.00    -0.237 OA
ATOM    101  O   UNL A   1      49.028  23.487  34.019  1.00  0.00    -0.744 OA
ENDBRANCH  94  98
ENDBRANCH  68  91
ENDBRANCH  42  43
ENDBRANCH  34  37
ENDBRANCH  32  33
ENDBRANCH  31  32
ENDBRANCH  30  31
ENDBRANCH  28  30
ENDBRANCH   1  26
TORSDOF 22
ENDMDL
MODEL 3
REMARK VINA RESULT:     -10.5      5.418     10.770
REMARK SMILES CCCCCCNC(=O)Oc1cccc(-c2ccc([C@@H](C)C(=O)NCCCNC(=O)c3ccc(-c4c5nc(c(-c6cc(S(=O)(=O)[O-])ccc6F)c6ccc([nH]6)c(-c6cc(S(=O)(=O)[O-])ccc6F)c6nc(c(-c7cc(S(=O)(=O)[O-])ccc7F)c7ccc4[nH]7)C=C6)C=C5)cc3)cc2)c1
REMARK SMILES IDX 20 1 21 2 19 3 16 4 17 5 95 6 18 7 94 8 15 9 11 10 12 11
REMARK SMILES IDX 96 12 13 13 14 14 10 15 8 16 7 17 9 19 6 20 5 21 4 22 3 23
REMARK SMILES IDX 2 24 1 25 22 26 23 27 24 28 25 30 26 31 27 32 28 33 29 34
REMARK SMILES IDX 30 36 31 37 32 38 93 39 33 40 92 41 34 42 35 43 36 44 86 45
REMARK SMILES IDX 37 46 91 47 85 48 87 49 38 50 90 51 84 52 83 53 39 55 71 56
REMARK SMILES IDX 51 57 70 58 52 59 55 60 69 61 88 62 53 63 54 64 68 66 89 67
REMARK SMILES IDX 56 68 40 69 41 70 49 71 42 72 48 73 50 74 47 75 43 76 44 77
REMARK SMILES IDX 45 78 46 79 72 80 73 81 81 82 74 83 80 84 82 85 79 86 75 87
REMARK SMILES IDX 76 88 77 89 78 90 57 91 58 92 66 93 59 94 65 95 67 96 64 97
REMARK SMILES IDX 60 98 61 99 62 100 63 101
REMARK H PARENT 7 18 24 29 28 35 87 54 55 65
REMARK Flexibility Score: inf
ROOT
ATOM      1  C   UNL A   1      41.975  25.370  27.449  1.00  0.00     0.105 C 
ATOM      2  C   UNL A   1      42.815  24.893  28.633  1.00  0.00     0.023 C 
ENDROOT
BRANCH   1   3
ATOM      3  C   UNL A   1      40.851  26.335  27.788  1.00  0.00    -0.036 A 
ATOM      4  C   UNL A   1      38.895  28.236  28.631  1.00  0.00    -0.018 A 
ATOM      5  C   UNL A   1      39.674  28.440  27.484  1.00  0.00     0.009 A 
ATOM      6  C   UNL A   1      39.078  27.026  29.318  1.00  0.00     0.009 A 
ATOM      7  C   UNL A   1      40.602  27.491  27.048  1.00  0.00     0.005 A 
ATOM      8  C   UNL A   1      40.052  26.101  28.918  1.00  0.00     0.005 A 
BRANCH   4   9
ATOM      9  C   UNL A   1      37.963  29.281  29.105  1.00  0.00    -0.015 A 
ATOM     10  C   UNL A   1      36.809  31.397  28.789  1.00  0.00     0.133 A 
ATOM     11  C   UNL A   1      36.076  31.214  29.957  1.00  0.00     0.047 A 
ATOM     12  C   UNL A   1      37.749  30.456  28.366  1.00  0.00     0.056 A 
ATOM     13  C   UNL A   1      36.279  30.063  30.708  1.00  0.00     0.004 A 
ATOM     14  C   UNL A   1      37.217  29.114  30.290  1.00  0.00     0.009 A 
BRANCH  10  15
ATOM     15  O   UNL A   1      36.638  32.616  28.117  1.00  0.00    -0.410 OA
BRANCH  15  16
ATOM     16  C   UNL A   1      36.210  33.712  28.850  1.00  0.00     0.412 C 
ATOM     17  N   UNL A   1      37.246  34.454  29.346  1.00  0.00    -0.321 N 
ATOM     18  H   UNL A   1      37.007  35.225  29.910  1.00  0.00     0.167 HD
ATOM     19  O   UNL A   1      35.048  34.038  29.053  1.00  0.00    -0.224 OA
BRANCH  17  20
ATOM     20  C   UNL A   1      38.658  34.220  29.129  1.00  0.00     0.119 C 
BRANCH  20  21
ATOM     21  C   UNL A   1      39.414  34.081  30.450  1.00  0.00     0.021 C 
BRANCH  21  22
ATOM     22  C   UNL A   1      38.807  33.066  31.428  1.00  0.00     0.002 C 
BRANCH  22  23
ATOM     23  C   UNL A   1      39.699  31.866  31.764  1.00  0.00    -0.000 C 
BRANCH  23  24
ATOM     24  C   UNL A   1      39.158  30.933  32.851  1.00  0.00    -0.003 C 
ATOM     25  C   UNL A   1      39.512  29.473  32.617  1.00  0.00     0.004 C 
ENDBRANCH  23  24
ENDBRANCH  22  23
ENDBRANCH  21  22
ENDBRANCH  20  21
ENDBRANCH  17  20
ENDBRANCH  15  16
ENDBRANCH  10  15
ENDBRANCH   4   9
ENDBRANCH   1   3
BRANCH   1  26
ATOM     26  C   UNL A   1      41.557  24.252  26.480  1.00  0.00     0.227 C 
ATOM     27  O   UNL A   1      40.489  23.652  26.659  1.00  0.00    -0.274 OA
ATOM     28  N   UNL A   1      42.283  23.873  25.393  1.00  0.00    -0.356 N 
ATOM     29  H   UNL A   1      41.851  23.177  24.846  1.00  0.00     0.163 HD
BRANCH  28  30
ATOM     30  C   UNL A   1      43.572  24.303  24.891  1.00  0.00     0.117 C 
BRANCH  30  31
ATOM     31  C   UNL A   1      44.674  23.284  25.163  1.00  0.00     0.042 C 
BRANCH  31  32
ATOM     32  C   UNL A   1      45.894  23.870  25.859  1.00  0.00     0.118 C 
BRANCH  32  33
ATOM     33  N   UNL A   1      46.615  24.800  25.001  1.00  0.00    -0.352 N 
ATOM     34  C   UNL A   1      46.634  26.173  24.991  1.00  0.00     0.251 C 
ATOM     35  H   UNL A   1      47.182  24.375  24.318  1.00  0.00     0.163 HD
ATOM     36  O   UNL A   1      47.119  26.746  24.017  1.00  0.00    -0.269 OA
BRANCH  34  37
ATOM     37  C   UNL A   1      46.077  26.959  26.117  1.00  0.00     0.039 A 
ATOM     38  C   UNL A   1      44.745  27.379  26.052  1.00  0.00     0.014 A 
ATOM     39  C   UNL A   1      46.868  27.341  27.204  1.00  0.00     0.014 A 
ATOM     40  C   UNL A   1      44.203  28.145  27.087  1.00  0.00     0.010 A 
ATOM     41  C   UNL A   1      46.300  28.019  28.279  1.00  0.00     0.010 A 
ATOM     42  C   UNL A   1      44.970  28.454  28.222  1.00  0.00    -0.014 A 
BRANCH  42  43
ATOM     43  C   UNL A   1      44.420  29.283  29.326  1.00  0.00     0.031 A 
ATOM     44  C   UNL A   1      44.282  30.773  29.145  1.00  0.00     0.074 A 
ATOM     45  C   UNL A   1      44.087  28.709  30.500  1.00  0.00     0.049 A 
ATOM     46  N   UNL A   1      43.898  31.683  30.002  1.00  0.00    -0.248 NA
ATOM     47  C   UNL A   1      44.657  31.315  27.828  1.00  0.00     0.031 C 
ATOM     48  C   UNL A   1      44.206  27.282  30.804  1.00  0.00     0.029 A 
ATOM     49  N   UNL A   1      43.586  29.253  31.655  1.00  0.00    -0.354 N 
ATOM     50  C   UNL A   1      44.002  32.901  29.338  1.00  0.00     0.074 A 
ATOM     51  C   UNL A   1      44.552  32.619  28.030  1.00  0.00     0.031 C 
ATOM     52  C   UNL A   1      43.762  27.060  32.052  1.00  0.00     0.029 A 
ATOM     53  C   UNL A   1      43.375  28.330  32.655  1.00  0.00     0.049 A 
ATOM     54  H   UNL A   1      43.394  30.213  31.759  1.00  0.00     0.167 HD
ATOM     55  C   UNL A   1      43.646  34.138  29.767  1.00  0.00     0.034 A 
ATOM     56  C   UNL A   1      42.934  28.495  33.919  1.00  0.00     0.034 A 
ATOM     57  C   UNL A   1      43.085  34.397  31.070  1.00  0.00     0.049 A 
ATOM     58  C   UNL A   1      42.574  29.883  34.385  1.00  0.00     0.074 A 
ATOM     59  C   UNL A   1      42.647  35.599  31.597  1.00  0.00     0.029 A 
ATOM     60  N   UNL A   1      42.889  33.438  32.057  1.00  0.00    -0.354 N 
ATOM     61  N   UNL A   1      42.638  31.020  33.729  1.00  0.00    -0.248 NA
ATOM     62  C   UNL A   1      42.068  30.010  35.758  1.00  0.00     0.031 C 
ATOM     63  C   UNL A   1      42.257  35.381  32.922  1.00  0.00     0.029 A 
ATOM     64  C   UNL A   1      42.365  34.027  33.197  1.00  0.00     0.049 A 
ATOM     65  H   UNL A   1      43.092  32.479  31.960  1.00  0.00     0.167 HD
ATOM     66  C   UNL A   1      42.144  31.989  34.599  1.00  0.00     0.074 A 
ATOM     67  C   UNL A   1      41.773  31.300  35.817  1.00  0.00     0.031 C 
ATOM     68  C   UNL A   1      42.003  33.326  34.407  1.00  0.00     0.034 A 
BRANCH  55  69
ATOM     69  C   UNL A   1      43.878  35.297  28.825  1.00  0.00     0.023 A 
ATOM     70  C   UNL A   1      45.143  35.897  28.687  1.00  0.00     0.031 A 
ATOM     71  C   UNL A   1      42.815  35.829  28.073  1.00  0.00     0.131 A 
ATOM     72  C   UNL A   1      45.294  37.039  27.885  1.00  0.00     0.055 A 
ATOM     73  C   UNL A   1      42.993  36.911  27.207  1.00  0.00     0.041 A 
ATOM     74  F   UNL A   1      41.579  35.314  28.176  1.00  0.00    -0.206 F 
ATOM     75  C   UNL A   1      44.234  37.532  27.123  1.00  0.00     0.022 A 
BRANCH  72  76
ATOM     76  S   UNL A   1      46.855  37.957  27.974  1.00  0.00     0.124 S 
ATOM     77  O   UNL A   1      46.534  38.991  28.956  1.00  0.00    -0.237 OA
ATOM     78  O   UNL A   1      47.800  36.934  28.408  1.00  0.00    -0.237 OA
ATOM     79  O   UNL A   1      47.045  38.444  26.608  1.00  0.00    -0.744 OA
ENDBRANCH  72  76
ENDBRANCH  55  69
BRANCH  56  80
ATOM     80  C   UNL A   1      42.812  27.326  34.839  1.00  0.00     0.023 A 
ATOM     81  C   UNL A   1      43.870  26.958  35.685  1.00  0.00     0.031 A 
ATOM     82  C   UNL A   1      41.654  26.528  34.850  1.00  0.00     0.131 A 
ATOM     83  C   UNL A   1      43.772  25.793  36.464  1.00  0.00     0.055 A 
ATOM     84  C   UNL A   1      41.537  25.407  35.673  1.00  0.00     0.041 A 
ATOM     85  F   UNL A   1      40.611  26.834  34.063  1.00  0.00    -0.206 F 
ATOM     86  C   UNL A   1      42.607  25.024  36.475  1.00  0.00     0.022 A 
BRANCH  83  87
ATOM     87  S   UNL A   1      45.234  25.240  37.386  1.00  0.00     0.124 S 
ATOM     88  O   UNL A   1      45.377  23.866  36.916  1.00  0.00    -0.237 OA
ATOM     89  O   UNL A   1      46.251  26.183  36.936  1.00  0.00    -0.237 OA
ATOM     90  O   UNL A   1      44.827  25.384  38.782  1.00  0.00    -0.744 OA
ENDBRANCH  83  87
ENDBRANCH  56  80
BRANCH  68  91
ATOM     91  C   UNL A   1      41.364  34.118  35.523  1.00  0.00     0.023 A 
ATOM     92  C   UNL A   1      42.129  34.761  36.512  1.00  0.00     0.031 A 
ATOM     93  C   UNL A   1      39.963  34.223  35.598  1.00  0.00     0.131 A 
ATOM     94  C   UNL A   1      41.487  35.427  37.567  1.00  0.00     0.055 A 
ATOM     95  C   UNL A   1      39.333  34.946  36.611  1.00  0.00     0.041 A 
ATOM     96  F   UNL A   1      39.182  33.627  34.684  1.00  0.00    -0.206 F 
ATOM     97  C   UNL A   1      40.095  35.540  37.613  1.00  0.00     0.022 A 
BRANCH  94  98
ATOM     98  S   UNL A   1      42.493  36.056  38.939  1.00  0.00     0.124 S 
ATOM     99  O   UNL A   1      41.841  35.450  40.097  1.00  0.00    -0.237 OA
ATOM    100  O   UNL A   1      43.820  35.543  38.615  1.00  0.00    -0.237 OA
ATOM    101  O   UNL A   1      42.348  37.507  38.836  1.00  0.00    -0.744 OA
ENDBRANCH  94  98
ENDBRANCH  68  91
ENDBRANCH  42  43
ENDBRANCH  34  37
ENDBRANCH  32  33
ENDBRANCH  31  32
ENDBRANCH  30  31
ENDBRANCH  28  30
ENDBRANCH   1  26
TORSDOF 22
ENDMDL
