MODEL 1
REMARK VINA RESULT:     -13.5      0.000      0.000
REMARK SMILES Cc1cc(NC(=O)[C@H]2[C@@H](C(=O)NCCCNC(=O)c3ccc(-c4c5nc(c(-c6cc(S(=O)(=O)[O-])ccc6F)c6ccc([nH]6)c(-c6cc(S(=O)(=O)[O-])ccc6F)c6nc(c(-c7cc(S(=O)(=O)[O-])ccc7F)c7ccc4[nH]7)C=C6)C=C5)cc3)C2(C)C)n(-c2ccc(F)cc2)n1
REMARK SMILES IDX 14 1 13 2 12 3 10 4 11 5 9 7 8 8 82 9 83 10 84 11 6 12 5 13
REMARK SMILES IDX 7 15 4 16 1 17 2 18 3 19 93 20 85 21 86 22 87 23 92 24 88 25
REMARK SMILES IDX 91 26 89 27 90 28 15 29 16 30 17 31 18 33 19 34 20 35 81 36
REMARK SMILES IDX 21 37 80 38 22 39 23 40 24 41 74 42 25 43 79 44 73 45 75 46
REMARK SMILES IDX 26 47 78 48 72 49 71 50 27 52 59 53 39 54 58 55 40 56 43 57
REMARK SMILES IDX 57 58 76 59 41 60 42 61 56 63 77 64 44 65 28 66 29 67 37 68
REMARK SMILES IDX 30 69 36 70 38 71 35 72 31 73 32 74 33 75 34 76 60 77 61 78
REMARK SMILES IDX 69 79 62 80 68 81 70 82 67 83 63 84 64 85 65 86 66 87 45 88
REMARK SMILES IDX 46 89 54 90 47 91 53 92 55 93 52 94 48 95 49 96 50 97 51 98
REMARK H PARENT 12 6 5 14 16 32 75 51 43 62
REMARK Flexibility Score: inf
ROOT
ATOM      1  C   UNL A   1      33.758  29.934  27.222  1.00  0.00     0.042 C 
ENDROOT
BRANCH   1   2
ATOM      2  C   UNL A   1      32.942  28.795  26.622  1.00  0.00     0.117 C 
BRANCH   2   3
ATOM      3  N   UNL A   1      33.674  27.642  26.169  1.00  0.00    -0.356 N 
ATOM      4  C   UNL A   1      33.456  26.697  25.200  1.00  0.00     0.224 C 
ATOM      5  O   UNL A   1      34.401  25.950  24.952  1.00  0.00    -0.275 OA
ATOM      6  H   UNL A   1      34.515  27.501  26.662  1.00  0.00     0.163 HD
BRANCH   4   7
ATOM      7  C   UNL A   1      32.197  26.432  24.438  1.00  0.00     0.098 C 
ATOM      8  C   UNL A   1      31.852  25.828  23.094  1.00  0.00     0.098 C 
ATOM      9  C   UNL A   1      31.781  27.338  23.285  1.00  0.00    -0.011 C 
ATOM     10  C   UNL A   1      32.774  28.334  22.757  1.00  0.00     0.013 C 
ATOM     11  C   UNL A   1      30.387  27.939  23.380  1.00  0.00     0.013 C 
BRANCH   8  12
ATOM     12  C   UNL A   1      32.765  24.845  22.486  1.00  0.00     0.230 C 
ATOM     13  N   UNL A   1      33.170  23.591  23.057  1.00  0.00    -0.310 N 
ATOM     14  H   UNL A   1      33.823  23.068  22.538  1.00  0.00     0.171 HD
ATOM     15  O   UNL A   1      33.278  25.077  21.406  1.00  0.00    -0.274 OA
BRANCH  13  16
ATOM     16  C   UNL A   1      32.749  23.032  24.249  1.00  0.00     0.136 A 
ATOM     17  C   UNL A   1      30.231  22.951  26.866  1.00  0.00     0.069 C 
ATOM     18  C   UNL A   1      31.388  22.751  25.951  1.00  0.00     0.062 A 
ATOM     19  C   UNL A   1      31.412  22.880  24.546  1.00  0.00     0.072 A 
ATOM     20  N   UNL A   1      32.611  22.529  26.443  1.00  0.00    -0.171 NA
ATOM     21  N   UNL A   1      33.442  22.591  25.368  1.00  0.00    -0.217 N 
BRANCH  21  22
ATOM     22  C   UNL A   1      34.822  22.276  25.489  1.00  0.00     0.067 A 
ATOM     23  C   UNL A   1      35.322  21.029  25.083  1.00  0.00     0.031 A 
ATOM     24  C   UNL A   1      35.704  23.250  25.978  1.00  0.00     0.031 A 
ATOM     25  C   UNL A   1      36.700  20.828  24.999  1.00  0.00     0.041 A 
ATOM     26  C   UNL A   1      37.080  23.026  25.930  1.00  0.00     0.041 A 
ATOM     27  C   UNL A   1      37.566  21.835  25.404  1.00  0.00     0.123 A 
ATOM     28  F   UNL A   1      38.885  21.653  25.281  1.00  0.00    -0.207 F 
ENDBRANCH  21  22
ENDBRANCH  13  16
ENDBRANCH   8  12
ENDBRANCH   4   7
ENDBRANCH   2   3
ENDBRANCH   1   2
BRANCH   1  29
ATOM     29  C   UNL A   1      35.095  29.507  27.765  1.00  0.00     0.118 C 
BRANCH  29  30
ATOM     30  N   UNL A   1      35.461  30.216  28.987  1.00  0.00    -0.352 N 
ATOM     31  C   UNL A   1      36.590  29.985  29.760  1.00  0.00     0.251 C 
ATOM     32  H   UNL A   1      34.849  30.925  29.291  1.00  0.00     0.163 HD
ATOM     33  O   UNL A   1      36.666  30.395  30.897  1.00  0.00    -0.269 OA
BRANCH  31  34
ATOM     34  C   UNL A   1      37.650  29.175  29.130  1.00  0.00     0.039 A 
ATOM     35  C   UNL A   1      38.306  29.653  27.999  1.00  0.00     0.014 A 
ATOM     36  C   UNL A   1      38.153  28.108  29.868  1.00  0.00     0.014 A 
ATOM     37  C   UNL A   1      39.556  29.126  27.684  1.00  0.00     0.010 A 
ATOM     38  C   UNL A   1      39.451  27.704  29.638  1.00  0.00     0.010 A 
ATOM     39  C   UNL A   1      40.163  28.188  28.538  1.00  0.00    -0.014 A 
BRANCH  39  40
ATOM     40  C   UNL A   1      41.570  27.813  28.339  1.00  0.00     0.031 A 
ATOM     41  C   UNL A   1      41.843  26.581  27.542  1.00  0.00     0.074 A 
ATOM     42  C   UNL A   1      42.629  28.576  28.685  1.00  0.00     0.049 A 
ATOM     43  N   UNL A   1      42.283  25.449  27.986  1.00  0.00    -0.248 NA
ATOM     44  C   UNL A   1      41.517  26.561  26.111  1.00  0.00     0.031 C 
ATOM     45  C   UNL A   1      42.638  29.930  29.245  1.00  0.00     0.029 A 
ATOM     46  N   UNL A   1      43.956  28.314  28.502  1.00  0.00    -0.354 N 
ATOM     47  C   UNL A   1      42.510  24.642  26.874  1.00  0.00     0.074 A 
ATOM     48  C   UNL A   1      41.862  25.314  25.777  1.00  0.00     0.031 C 
ATOM     49  C   UNL A   1      43.872  30.461  29.124  1.00  0.00     0.029 A 
ATOM     50  C   UNL A   1      44.773  29.421  28.671  1.00  0.00     0.049 A 
ATOM     51  H   UNL A   1      44.301  27.422  28.272  1.00  0.00     0.167 HD
ATOM     52  C   UNL A   1      43.380  23.590  26.928  1.00  0.00     0.034 A 
ATOM     53  C   UNL A   1      46.113  29.500  28.491  1.00  0.00     0.034 A 
ATOM     54  C   UNL A   1      43.733  23.282  28.299  1.00  0.00     0.049 A 
ATOM     55  C   UNL A   1      46.654  28.140  28.719  1.00  0.00     0.074 A 
ATOM     56  C   UNL A   1      43.024  22.951  29.438  1.00  0.00     0.029 A 
ATOM     57  N   UNL A   1      44.983  23.650  28.748  1.00  0.00    -0.354 N 
ATOM     58  N   UNL A   1      46.586  27.531  29.872  1.00  0.00    -0.248 NA
ATOM     59  C   UNL A   1      46.893  27.270  27.580  1.00  0.00     0.031 C 
ATOM     60  C   UNL A   1      43.694  23.634  30.498  1.00  0.00     0.029 A 
ATOM     61  C   UNL A   1      44.809  24.277  29.956  1.00  0.00     0.049 A 
ATOM     62  H   UNL A   1      45.840  23.494  28.288  1.00  0.00     0.167 HD
ATOM     63  C   UNL A   1      46.321  26.208  29.564  1.00  0.00     0.074 A 
ATOM     64  C   UNL A   1      46.660  26.083  28.148  1.00  0.00     0.031 C 
ATOM     65  C   UNL A   1      45.589  25.416  30.405  1.00  0.00     0.034 A 
BRANCH  52  66
ATOM     66  C   UNL A   1      44.186  23.025  25.771  1.00  0.00     0.023 A 
ATOM     67  C   UNL A   1      44.105  21.633  25.548  1.00  0.00     0.031 A 
ATOM     68  C   UNL A   1      45.215  23.691  25.073  1.00  0.00     0.131 A 
ATOM     69  C   UNL A   1      45.075  20.957  24.786  1.00  0.00     0.055 A 
ATOM     70  C   UNL A   1      46.133  23.023  24.251  1.00  0.00     0.041 A 
ATOM     71  F   UNL A   1      45.452  24.999  25.207  1.00  0.00    -0.206 F 
ATOM     72  C   UNL A   1      46.091  21.644  24.133  1.00  0.00     0.022 A 
BRANCH  69  73
ATOM     73  S   UNL A   1      45.099  19.145  24.844  1.00  0.00     0.124 S 
ATOM     74  O   UNL A   1      46.432  18.890  25.379  1.00  0.00    -0.237 OA
ATOM     75  O   UNL A   1      43.980  18.860  25.734  1.00  0.00    -0.237 OA
ATOM     76  O   UNL A   1      44.902  18.760  23.448  1.00  0.00    -0.744 OA
ENDBRANCH  69  73
ENDBRANCH  52  66
BRANCH  53  77
ATOM     77  C   UNL A   1      46.871  30.655  27.963  1.00  0.00     0.023 A 
ATOM     78  C   UNL A   1      46.294  31.600  27.097  1.00  0.00     0.031 A 
ATOM     79  C   UNL A   1      48.144  30.973  28.497  1.00  0.00     0.131 A 
ATOM     80  C   UNL A   1      46.977  32.798  26.798  1.00  0.00     0.055 A 
ATOM     81  C   UNL A   1      48.823  32.152  28.184  1.00  0.00     0.041 A 
ATOM     82  F   UNL A   1      48.732  30.186  29.411  1.00  0.00    -0.206 F 
ATOM     83  C   UNL A   1      48.235  33.077  27.339  1.00  0.00     0.022 A 
BRANCH  80  84
ATOM     84  S   UNL A   1      46.166  34.084  25.800  1.00  0.00     0.124 S 
ATOM     85  O   UNL A   1      47.273  34.595  25.002  1.00  0.00    -0.237 OA
ATOM     86  O   UNL A   1      45.142  33.331  25.085  1.00  0.00    -0.237 OA
ATOM     87  O   UNL A   1      45.648  35.012  26.807  1.00  0.00    -0.744 OA
ENDBRANCH  80  84
ENDBRANCH  53  77
BRANCH  65  88
ATOM     88  C   UNL A   1      45.364  25.880  31.831  1.00  0.00     0.023 A 
ATOM     89  C   UNL A   1      44.153  26.416  32.319  1.00  0.00     0.031 A 
ATOM     90  C   UNL A   1      46.394  25.650  32.762  1.00  0.00     0.131 A 
ATOM     91  C   UNL A   1      44.012  26.716  33.688  1.00  0.00     0.055 A 
ATOM     92  C   UNL A   1      46.245  25.929  34.120  1.00  0.00     0.041 A 
ATOM     93  F   UNL A   1      47.560  25.111  32.368  1.00  0.00    -0.206 F 
ATOM     94  C   UNL A   1      45.054  26.470  34.588  1.00  0.00     0.022 A 
BRANCH  91  95
ATOM     95  S   UNL A   1      42.465  27.443  34.320  1.00  0.00     0.124 S 
ATOM     96  O   UNL A   1      41.776  26.311  34.929  1.00  0.00    -0.237 OA
ATOM     97  O   UNL A   1      42.949  28.466  35.243  1.00  0.00    -0.237 OA
ATOM     98  O   UNL A   1      41.821  27.969  33.114  1.00  0.00    -0.744 OA
ENDBRANCH  91  95
ENDBRANCH  65  88
ENDBRANCH  39  40
ENDBRANCH  31  34
ENDBRANCH  29  30
ENDBRANCH   1  29
TORSDOF 16
ENDMDL
MODEL 2
REMARK VINA RESULT:     -13.3      1.238      2.006
REMARK SMILES Cc1cc(NC(=O)[C@H]2[C@@H](C(=O)NCCCNC(=O)c3ccc(-c4c5nc(c(-c6cc(S(=O)(=O)[O-])ccc6F)c6ccc([nH]6)c(-c6cc(S(=O)(=O)[O-])ccc6F)c6nc(c(-c7cc(S(=O)(=O)[O-])ccc7F)c7ccc4[nH]7)C=C6)C=C5)cc3)C2(C)C)n(-c2ccc(F)cc2)n1
REMARK SMILES IDX 14 1 13 2 12 3 10 4 11 5 9 7 8 8 82 9 83 10 84 11 6 12 5 13
REMARK SMILES IDX 7 15 4 16 1 17 2 18 3 19 93 20 85 21 86 22 87 23 92 24 88 25
REMARK SMILES IDX 91 26 89 27 90 28 15 29 16 30 17 31 18 33 19 34 20 35 81 36
REMARK SMILES IDX 21 37 80 38 22 39 23 40 24 41 74 42 25 43 79 44 73 45 75 46
REMARK SMILES IDX 26 47 78 48 72 49 71 50 27 52 59 53 39 54 58 55 40 56 43 57
REMARK SMILES IDX 57 58 76 59 41 60 42 61 56 63 77 64 44 65 28 66 29 67 37 68
REMARK SMILES IDX 30 69 36 70 38 71 35 72 31 73 32 74 33 75 34 76 60 77 61 78
REMARK SMILES IDX 69 79 62 80 68 81 70 82 67 83 63 84 64 85 65 86 66 87 45 88
REMARK SMILES IDX 46 89 54 90 47 91 53 92 55 93 52 94 48 95 49 96 50 97 51 98
REMARK H PARENT 12 6 5 14 16 32 75 51 43 62
REMARK Flexibility Score: inf
ROOT
ATOM      1  C   UNL A   1      34.096  30.430  27.047  1.00  0.00     0.042 C 
ENDROOT
BRANCH   1   2
ATOM      2  C   UNL A   1      33.165  29.584  26.187  1.00  0.00     0.117 C 
BRANCH   2   3
ATOM      3  N   UNL A   1      33.735  28.990  25.006  1.00  0.00    -0.356 N 
ATOM      4  C   UNL A   1      33.616  27.763  24.406  1.00  0.00     0.224 C 
ATOM      5  O   UNL A   1      34.105  27.662  23.283  1.00  0.00    -0.275 OA
ATOM      6  H   UNL A   1      34.344  29.597  24.525  1.00  0.00     0.163 HD
BRANCH   4   7
ATOM      7  C   UNL A   1      33.003  26.519  24.966  1.00  0.00     0.098 C 
ATOM      8  C   UNL A   1      32.616  25.163  24.418  1.00  0.00     0.098 C 
ATOM      9  C   UNL A   1      31.534  26.195  24.715  1.00  0.00    -0.011 C 
ATOM     10  C   UNL A   1      30.786  26.996  23.687  1.00  0.00     0.013 C 
ATOM     11  C   UNL A   1      30.687  25.945  25.951  1.00  0.00     0.013 C 
BRANCH   8  12
ATOM     12  C   UNL A   1      33.323  24.628  23.242  1.00  0.00     0.230 C 
ATOM     13  N   UNL A   1      34.522  23.837  23.255  1.00  0.00    -0.310 N 
ATOM     14  H   UNL A   1      34.892  23.595  22.376  1.00  0.00     0.171 HD
ATOM     15  O   UNL A   1      32.911  24.869  22.122  1.00  0.00    -0.274 OA
BRANCH  13  16
ATOM     16  C   UNL A   1      35.216  23.377  24.358  1.00  0.00     0.136 A 
ATOM     17  C   UNL A   1      38.211  23.611  26.401  1.00  0.00     0.069 C 
ATOM     18  C   UNL A   1      36.893  23.312  25.778  1.00  0.00     0.062 A 
ATOM     19  C   UNL A   1      36.038  24.203  25.094  1.00  0.00     0.072 A 
ATOM     20  N   UNL A   1      36.441  22.055  25.715  1.00  0.00    -0.171 NA
ATOM     21  N   UNL A   1      35.335  22.115  24.925  1.00  0.00    -0.217 N 
BRANCH  21  22
ATOM     22  C   UNL A   1      34.509  20.976  24.734  1.00  0.00     0.067 A 
ATOM     23  C   UNL A   1      35.051  19.683  24.685  1.00  0.00     0.031 A 
ATOM     24  C   UNL A   1      33.120  21.148  24.642  1.00  0.00     0.031 A 
ATOM     25  C   UNL A   1      34.206  18.574  24.726  1.00  0.00     0.041 A 
ATOM     26  C   UNL A   1      32.281  20.033  24.641  1.00  0.00     0.041 A 
ATOM     27  C   UNL A   1      32.831  18.759  24.724  1.00  0.00     0.123 A 
ATOM     28  F   UNL A   1      32.026  17.694  24.806  1.00  0.00    -0.207 F 
ENDBRANCH  21  22
ENDBRANCH  13  16
ENDBRANCH   8  12
ENDBRANCH   4   7
ENDBRANCH   2   3
ENDBRANCH   1   2
BRANCH   1  29
ATOM     29  C   UNL A   1      35.135  29.632  27.789  1.00  0.00     0.118 C 
BRANCH  29  30
ATOM     30  N   UNL A   1      35.472  30.212  29.085  1.00  0.00    -0.352 N 
ATOM     31  C   UNL A   1      36.568  29.880  29.869  1.00  0.00     0.251 C 
ATOM     32  H   UNL A   1      34.865  30.903  29.436  1.00  0.00     0.163 HD
ATOM     33  O   UNL A   1      36.613  30.177  31.042  1.00  0.00    -0.269 OA
BRANCH  31  34
ATOM     34  C   UNL A   1      37.632  29.109  29.199  1.00  0.00     0.039 A 
ATOM     35  C   UNL A   1      38.297  29.653  28.103  1.00  0.00     0.014 A 
ATOM     36  C   UNL A   1      38.130  27.998  29.875  1.00  0.00     0.014 A 
ATOM     37  C   UNL A   1      39.549  29.145  27.766  1.00  0.00     0.010 A 
ATOM     38  C   UNL A   1      39.429  27.608  29.630  1.00  0.00     0.010 A 
ATOM     39  C   UNL A   1      40.149  28.157  28.566  1.00  0.00    -0.014 A 
BRANCH  39  40
ATOM     40  C   UNL A   1      41.557  27.793  28.356  1.00  0.00     0.031 A 
ATOM     41  C   UNL A   1      41.834  26.566  27.553  1.00  0.00     0.074 A 
ATOM     42  C   UNL A   1      42.613  28.563  28.695  1.00  0.00     0.049 A 
ATOM     43  N   UNL A   1      42.285  25.436  27.990  1.00  0.00    -0.248 NA
ATOM     44  C   UNL A   1      41.496  26.547  26.124  1.00  0.00     0.031 C 
ATOM     45  C   UNL A   1      42.616  29.916  29.260  1.00  0.00     0.029 A 
ATOM     46  N   UNL A   1      43.941  28.313  28.501  1.00  0.00    -0.354 N 
ATOM     47  C   UNL A   1      42.510  24.634  26.873  1.00  0.00     0.074 A 
ATOM     48  C   UNL A   1      41.848  25.304  25.783  1.00  0.00     0.031 C 
ATOM     49  C   UNL A   1      43.845  30.457  29.130  1.00  0.00     0.029 A 
ATOM     50  C   UNL A   1      44.751  29.425  28.667  1.00  0.00     0.049 A 
ATOM     51  H   UNL A   1      44.290  27.424  28.265  1.00  0.00     0.167 HD
ATOM     52  C   UNL A   1      43.389  23.589  26.917  1.00  0.00     0.034 A 
ATOM     53  C   UNL A   1      46.088  29.515  28.477  1.00  0.00     0.034 A 
ATOM     54  C   UNL A   1      43.755  23.279  28.285  1.00  0.00     0.049 A 
ATOM     55  C   UNL A   1      46.642  28.159  28.696  1.00  0.00     0.074 A 
ATOM     56  C   UNL A   1      43.057  22.939  29.428  1.00  0.00     0.029 A 
ATOM     57  N   UNL A   1      45.006  23.656  28.724  1.00  0.00    -0.354 N 
ATOM     58  N   UNL A   1      46.587  27.546  29.848  1.00  0.00    -0.248 NA
ATOM     59  C   UNL A   1      46.878  27.294  27.552  1.00  0.00     0.031 C 
ATOM     60  C   UNL A   1      43.730  23.625  30.484  1.00  0.00     0.029 A 
ATOM     61  C   UNL A   1      44.837  24.278  29.935  1.00  0.00     0.049 A 
ATOM     62  H   UNL A   1      45.860  23.507  28.257  1.00  0.00     0.167 HD
ATOM     63  C   UNL A   1      46.330  26.222  29.537  1.00  0.00     0.074 A 
ATOM     64  C   UNL A   1      46.659  26.103  28.119  1.00  0.00     0.031 C 
ATOM     65  C   UNL A   1      45.611  25.421  30.382  1.00  0.00     0.034 A 
BRANCH  52  66
ATOM     66  C   UNL A   1      44.190  23.034  25.752  1.00  0.00     0.023 A 
ATOM     67  C   UNL A   1      44.076  21.650  25.493  1.00  0.00     0.031 A 
ATOM     68  C   UNL A   1      45.242  23.690  25.080  1.00  0.00     0.131 A 
ATOM     69  C   UNL A   1      45.034  20.970  24.721  1.00  0.00     0.055 A 
ATOM     70  C   UNL A   1      46.149  23.020  24.248  1.00  0.00     0.041 A 
ATOM     71  F   UNL A   1      45.510  24.988  25.250  1.00  0.00    -0.206 F 
ATOM     72  C   UNL A   1      46.073  21.647  24.094  1.00  0.00     0.022 A 
BRANCH  69  73
ATOM     73  S   UNL A   1      45.012  19.156  24.731  1.00  0.00     0.124 S 
ATOM     74  O   UNL A   1      45.274  18.855  23.329  1.00  0.00    -0.237 OA
ATOM     75  O   UNL A   1      46.086  18.851  25.670  1.00  0.00    -0.237 OA
ATOM     76  O   UNL A   1      43.665  18.838  25.198  1.00  0.00    -0.744 OA
ENDBRANCH  69  73
ENDBRANCH  52  66
BRANCH  53  77
ATOM     77  C   UNL A   1      46.834  30.678  27.946  1.00  0.00     0.023 A 
ATOM     78  C   UNL A   1      46.236  31.632  27.105  1.00  0.00     0.031 A 
ATOM     79  C   UNL A   1      48.117  30.991  28.455  1.00  0.00     0.131 A 
ATOM     80  C   UNL A   1      46.911  32.835  26.805  1.00  0.00     0.055 A 
ATOM     81  C   UNL A   1      48.789  32.173  28.142  1.00  0.00     0.041 A 
ATOM     82  F   UNL A   1      48.727  30.193  29.345  1.00  0.00    -0.206 F 
ATOM     83  C   UNL A   1      48.181  33.109  27.322  1.00  0.00     0.022 A 
BRANCH  80  84
ATOM     84  S   UNL A   1      46.076  34.133  25.843  1.00  0.00     0.124 S 
ATOM     85  O   UNL A   1      47.182  34.715  25.092  1.00  0.00    -0.237 OA
ATOM     86  O   UNL A   1      45.096  33.374  25.073  1.00  0.00    -0.237 OA
ATOM     87  O   UNL A   1      45.503  34.999  26.874  1.00  0.00    -0.744 OA
ENDBRANCH  80  84
ENDBRANCH  53  77
BRANCH  65  88
ATOM     88  C   UNL A   1      45.394  25.880  31.811  1.00  0.00     0.023 A 
ATOM     89  C   UNL A   1      44.189  26.425  32.305  1.00  0.00     0.031 A 
ATOM     90  C   UNL A   1      46.424  25.634  32.738  1.00  0.00     0.131 A 
ATOM     91  C   UNL A   1      44.054  26.718  33.676  1.00  0.00     0.055 A 
ATOM     92  C   UNL A   1      46.280  25.907  34.098  1.00  0.00     0.041 A 
ATOM     93  F   UNL A   1      47.584  25.087  32.339  1.00  0.00    -0.206 F 
ATOM     94  C   UNL A   1      45.096  26.457  34.573  1.00  0.00     0.022 A 
BRANCH  91  95
ATOM     95  S   UNL A   1      42.515  27.455  34.316  1.00  0.00     0.124 S 
ATOM     96  O   UNL A   1      41.826  27.910  33.114  1.00  0.00    -0.237 OA
ATOM     97  O   UNL A   1      41.895  26.335  35.019  1.00  0.00    -0.237 OA
ATOM     98  O   UNL A   1      42.991  28.531  35.188  1.00  0.00    -0.744 OA
ENDBRANCH  91  95
ENDBRANCH  65  88
ENDBRANCH  39  40
ENDBRANCH  31  34
ENDBRANCH  29  30
ENDBRANCH   1  29
TORSDOF 16
ENDMDL
MODEL 3
REMARK VINA RESULT:     -13.3      2.444      6.929
REMARK SMILES Cc1cc(NC(=O)[C@H]2[C@@H](C(=O)NCCCNC(=O)c3ccc(-c4c5nc(c(-c6cc(S(=O)(=O)[O-])ccc6F)c6ccc([nH]6)c(-c6cc(S(=O)(=O)[O-])ccc6F)c6nc(c(-c7cc(S(=O)(=O)[O-])ccc7F)c7ccc4[nH]7)C=C6)C=C5)cc3)C2(C)C)n(-c2ccc(F)cc2)n1
REMARK SMILES IDX 14 1 13 2 12 3 10 4 11 5 9 7 8 8 82 9 83 10 84 11 6 12 5 13
REMARK SMILES IDX 7 15 4 16 1 17 2 18 3 19 93 20 85 21 86 22 87 23 92 24 88 25
REMARK SMILES IDX 91 26 89 27 90 28 15 29 16 30 17 31 18 33 19 34 20 35 81 36
REMARK SMILES IDX 21 37 80 38 22 39 23 40 24 41 74 42 25 43 79 44 73 45 75 46
REMARK SMILES IDX 26 47 78 48 72 49 71 50 27 52 59 53 39 54 58 55 40 56 43 57
REMARK SMILES IDX 57 58 76 59 41 60 42 61 56 63 77 64 44 65 28 66 29 67 37 68
REMARK SMILES IDX 30 69 36 70 38 71 35 72 31 73 32 74 33 75 34 76 60 77 61 78
REMARK SMILES IDX 69 79 62 80 68 81 70 82 67 83 63 84 64 85 65 86 66 87 45 88
REMARK SMILES IDX 46 89 54 90 47 91 53 92 55 93 52 94 48 95 49 96 50 97 51 98
REMARK H PARENT 12 6 5 14 16 32 75 51 43 62
REMARK Flexibility Score: inf
ROOT
ATOM      1  C   UNL A   1      32.364  30.445  26.815  1.00  0.00     0.042 C 
ENDROOT
BRANCH   1   2
ATOM      2  C   UNL A   1      31.970  28.973  26.848  1.00  0.00     0.117 C 
BRANCH   2   3
ATOM      3  N   UNL A   1      32.968  28.026  26.422  1.00  0.00    -0.356 N 
ATOM      4  C   UNL A   1      33.060  27.147  25.374  1.00  0.00     0.224 C 
ATOM      5  O   UNL A   1      34.158  26.621  25.206  1.00  0.00    -0.275 OA
ATOM      6  H   UNL A   1      33.755  28.005  27.013  1.00  0.00     0.163 HD
BRANCH   4   7
ATOM      7  C   UNL A   1      31.977  26.715  24.436  1.00  0.00     0.098 C 
ATOM      8  C   UNL A   1      31.911  26.275  22.990  1.00  0.00     0.098 C 
ATOM      9  C   UNL A   1      31.439  27.671  23.378  1.00  0.00    -0.011 C 
ATOM     10  C   UNL A   1      32.183  28.949  23.116  1.00  0.00     0.013 C 
ATOM     11  C   UNL A   1      29.935  27.895  23.385  1.00  0.00     0.013 C 
BRANCH   8  12
ATOM     12  C   UNL A   1      33.093  25.655  22.367  1.00  0.00     0.230 C 
ATOM     13  N   UNL A   1      33.720  24.426  22.766  1.00  0.00    -0.310 N 
ATOM     14  H   UNL A   1      34.532  24.171  22.270  1.00  0.00     0.171 HD
ATOM     15  O   UNL A   1      33.650  26.205  21.435  1.00  0.00    -0.274 OA
BRANCH  13  16
ATOM     16  C   UNL A   1      33.318  23.559  23.765  1.00  0.00     0.136 A 
ATOM     17  C   UNL A   1      30.693  22.557  26.068  1.00  0.00     0.069 C 
ATOM     18  C   UNL A   1      31.917  22.723  25.238  1.00  0.00     0.062 A 
ATOM     19  C   UNL A   1      32.002  23.173  23.903  1.00  0.00     0.072 A 
ATOM     20  N   UNL A   1      33.130  22.553  25.775  1.00  0.00    -0.171 NA
ATOM     21  N   UNL A   1      34.003  22.966  24.817  1.00  0.00    -0.217 N 
BRANCH  21  22
ATOM     22  C   UNL A   1      35.404  22.812  24.987  1.00  0.00     0.067 A 
ATOM     23  C   UNL A   1      36.172  23.793  25.632  1.00  0.00     0.031 A 
ATOM     24  C   UNL A   1      36.019  21.632  24.543  1.00  0.00     0.031 A 
ATOM     25  C   UNL A   1      37.493  23.519  25.987  1.00  0.00     0.041 A 
ATOM     26  C   UNL A   1      37.354  21.382  24.866  1.00  0.00     0.041 A 
ATOM     27  C   UNL A   1      38.065  22.309  25.619  1.00  0.00     0.123 A 
ATOM     28  F   UNL A   1      39.317  22.034  25.998  1.00  0.00    -0.207 F 
ENDBRANCH  21  22
ENDBRANCH  13  16
ENDBRANCH   8  12
ENDBRANCH   4   7
ENDBRANCH   2   3
ENDBRANCH   1   2
BRANCH   1  29
ATOM     29  C   UNL A   1      33.785  30.706  27.233  1.00  0.00     0.118 C 
BRANCH  29  30
ATOM     30  N   UNL A   1      33.887  31.695  28.302  1.00  0.00    -0.352 N 
ATOM     31  C   UNL A   1      34.938  31.827  29.199  1.00  0.00     0.251 C 
ATOM     32  H   UNL A   1      33.138  32.328  28.396  1.00  0.00     0.163 HD
ATOM     33  O   UNL A   1      34.813  32.458  30.224  1.00  0.00    -0.269 OA
BRANCH  31  34
ATOM     34  C   UNL A   1      36.181  31.113  28.845  1.00  0.00     0.039 A 
ATOM     35  C   UNL A   1      37.399  31.786  28.882  1.00  0.00     0.014 A 
ATOM     36  C   UNL A   1      36.116  29.724  28.782  1.00  0.00     0.014 A 
ATOM     37  C   UNL A   1      38.569  31.036  28.985  1.00  0.00     0.010 A 
ATOM     38  C   UNL A   1      37.261  29.001  29.039  1.00  0.00     0.010 A 
ATOM     39  C   UNL A   1      38.501  29.638  29.125  1.00  0.00    -0.014 A 
BRANCH  39  40
ATOM     40  C   UNL A   1      39.707  28.874  29.473  1.00  0.00     0.031 A 
ATOM     41  C   UNL A   1      40.005  28.690  30.924  1.00  0.00     0.074 A 
ATOM     42  C   UNL A   1      40.474  28.197  28.593  1.00  0.00     0.049 A 
ATOM     43  N   UNL A   1      40.955  29.249  31.600  1.00  0.00    -0.248 NA
ATOM     44  C   UNL A   1      39.108  27.868  31.746  1.00  0.00     0.031 C 
ATOM     45  C   UNL A   1      40.264  28.003  27.155  1.00  0.00     0.029 A 
ATOM     46  N   UNL A   1      41.582  27.439  28.842  1.00  0.00    -0.354 N 
ATOM     47  C   UNL A   1      40.929  28.683  32.873  1.00  0.00     0.074 A 
ATOM     48  C   UNL A   1      39.675  27.978  32.951  1.00  0.00     0.031 C 
ATOM     49  C   UNL A   1      41.048  26.999  26.714  1.00  0.00     0.029 A 
ATOM     50  C   UNL A   1      41.952  26.624  27.784  1.00  0.00     0.049 A 
ATOM     51  H   UNL A   1      42.072  27.470  29.694  1.00  0.00     0.167 HD
ATOM     52  C   UNL A   1      42.035  28.690  33.674  1.00  0.00     0.034 A 
ATOM     53  C   UNL A   1      42.955  25.715  27.747  1.00  0.00     0.034 A 
ATOM     54  C   UNL A   1      43.041  29.597  33.158  1.00  0.00     0.049 A 
ATOM     55  C   UNL A   1      43.972  26.161  28.726  1.00  0.00     0.074 A 
ATOM     56  C   UNL A   1      43.072  30.943  32.844  1.00  0.00     0.029 A 
ATOM     57  N   UNL A   1      44.147  29.057  32.539  1.00  0.00    -0.354 N 
ATOM     58  N   UNL A   1      44.635  27.279  28.602  1.00  0.00    -0.248 NA
ATOM     59  C   UNL A   1      43.964  25.598  30.065  1.00  0.00     0.031 C 
ATOM     60  C   UNL A   1      43.860  31.023  31.657  1.00  0.00     0.029 A 
ATOM     61  C   UNL A   1      44.322  29.738  31.361  1.00  0.00     0.049 A 
ATOM     62  H   UNL A   1      44.706  28.321  32.878  1.00  0.00     0.167 HD
ATOM     63  C   UNL A   1      44.735  27.781  29.888  1.00  0.00     0.074 A 
ATOM     64  C   UNL A   1      44.433  26.644  30.754  1.00  0.00     0.031 C 
ATOM     65  C   UNL A   1      44.775  29.128  30.124  1.00  0.00     0.034 A 
BRANCH  52  66
ATOM     66  C   UNL A   1      42.385  27.665  34.740  1.00  0.00     0.023 A 
ATOM     67  C   UNL A   1      43.250  26.614  34.364  1.00  0.00     0.031 A 
ATOM     68  C   UNL A   1      41.725  27.493  35.974  1.00  0.00     0.131 A 
ATOM     69  C   UNL A   1      43.331  25.430  35.116  1.00  0.00     0.055 A 
ATOM     70  C   UNL A   1      41.869  26.342  36.760  1.00  0.00     0.041 A 
ATOM     71  F   UNL A   1      40.841  28.375  36.451  1.00  0.00    -0.206 F 
ATOM     72  C   UNL A   1      42.645  25.285  36.316  1.00  0.00     0.022 A 
BRANCH  69  73
ATOM     73  S   UNL A   1      44.183  24.005  34.384  1.00  0.00     0.124 S 
ATOM     74  O   UNL A   1      45.551  24.501  34.293  1.00  0.00    -0.237 OA
ATOM     75  O   UNL A   1      43.936  22.967  35.379  1.00  0.00    -0.237 OA
ATOM     76  O   UNL A   1      43.497  23.823  33.107  1.00  0.00    -0.744 OA
ENDBRANCH  69  73
ENDBRANCH  52  66
BRANCH  53  77
ATOM     77  C   UNL A   1      42.950  24.417  27.035  1.00  0.00     0.023 A 
ATOM     78  C   UNL A   1      43.774  24.168  25.924  1.00  0.00     0.031 A 
ATOM     79  C   UNL A   1      42.277  23.304  27.593  1.00  0.00     0.131 A 
ATOM     80  C   UNL A   1      43.904  22.857  25.417  1.00  0.00     0.055 A 
ATOM     81  C   UNL A   1      42.394  22.012  27.078  1.00  0.00     0.041 A 
ATOM     82  F   UNL A   1      41.549  23.420  28.714  1.00  0.00    -0.206 F 
ATOM     83  C   UNL A   1      43.220  21.781  25.991  1.00  0.00     0.022 A 
BRANCH  80  84
ATOM     84  S   UNL A   1      45.084  22.510  24.078  1.00  0.00     0.124 S 
ATOM     85  O   UNL A   1      45.824  23.763  23.991  1.00  0.00    -0.237 OA
ATOM     86  O   UNL A   1      45.816  21.357  24.593  1.00  0.00    -0.237 OA
ATOM     87  O   UNL A   1      44.218  22.221  22.934  1.00  0.00    -0.744 OA
ENDBRANCH  80  84
ENDBRANCH  53  77
BRANCH  65  88
ATOM     88  C   UNL A   1      45.060  30.062  28.964  1.00  0.00     0.023 A 
ATOM     89  C   UNL A   1      46.344  30.528  28.605  1.00  0.00     0.031 A 
ATOM     90  C   UNL A   1      43.989  30.390  28.111  1.00  0.00     0.131 A 
ATOM     91  C   UNL A   1      46.516  31.305  27.443  1.00  0.00     0.055 A 
ATOM     92  C   UNL A   1      44.166  31.142  26.951  1.00  0.00     0.041 A 
ATOM     93  F   UNL A   1      42.748  29.950  28.377  1.00  0.00    -0.206 F 
ATOM     94  C   UNL A   1      45.431  31.610  26.615  1.00  0.00     0.022 A 
BRANCH  91  95
ATOM     95  S   UNL A   1      48.164  31.942  26.995  1.00  0.00     0.124 S 
ATOM     96  O   UNL A   1      48.848  30.775  26.451  1.00  0.00    -0.237 OA
ATOM     97  O   UNL A   1      47.845  32.997  26.036  1.00  0.00    -0.237 OA
ATOM     98  O   UNL A   1      48.700  32.423  28.270  1.00  0.00    -0.744 OA
ENDBRANCH  91  95
ENDBRANCH  65  88
ENDBRANCH  39  40
ENDBRANCH  31  34
ENDBRANCH  29  30
ENDBRANCH   1  29
TORSDOF 16
ENDMDL
