MODEL 1
REMARK VINA RESULT:     -13.1      0.000      0.000
REMARK SMILES Cc1c(C)c2c(c(C)c1O)CC[C@@](C)(C(=O)NCCCNC(=O)c1ccc(-c3c4nc(c(-c5cc(S(=O)(=O)[O-])ccc5F)c5ccc([nH]5)c(-c5cc(S(=O)(=O)[O-])ccc5F)c5nc(c(-c6cc(S(=O)(=O)[O-])ccc6F)c6ccc3[nH]6)C=C5)C=C4)cc1)O2
REMARK SMILES IDX 20 1 19 2 18 3 17 4 15 5 16 6 13 8 1 9 2 10 3 11 9 12 4 13
REMARK SMILES IDX 5 14 7 15 6 16 87 17 8 18 11 19 12 20 14 21 10 22 21 24
REMARK SMILES IDX 22 25 23 27 24 28 25 29 86 30 26 31 85 32 27 33 28 34 29 35
REMARK SMILES IDX 79 36 30 37 84 38 78 39 80 40 31 41 83 42 77 43 76 44 32 46
REMARK SMILES IDX 64 47 44 48 63 49 45 50 48 51 62 52 81 53 46 54 47 55 61 57
REMARK SMILES IDX 82 58 49 59 33 60 34 61 42 62 35 63 41 64 43 65 40 66 36 67
REMARK SMILES IDX 37 68 38 69 39 70 65 71 66 72 74 73 67 74 73 75 75 76 72 77
REMARK SMILES IDX 68 78 69 79 70 80 71 81 50 82 51 83 59 84 52 85 58 86 60 87
REMARK SMILES IDX 57 88 53 89 54 90 55 91 56 92
REMARK H PARENT 17 7 10 23 21 26 80 45 48 56
REMARK Flexibility Score: inf
ROOT
ATOM      1  C   UNL A   1      32.968  29.054  25.307  1.00  0.00     0.118 C 
ENDROOT
BRANCH   1   2
ATOM      2  C   UNL A   1      33.147  28.976  23.801  1.00  0.00     0.042 C 
BRANCH   2   3
ATOM      3  C   UNL A   1      32.042  28.200  23.097  1.00  0.00     0.118 C 
BRANCH   3   4
ATOM      4  N   UNL A   1      32.541  27.374  22.006  1.00  0.00    -0.353 N 
ATOM      5  C   UNL A   1      32.898  26.051  21.953  1.00  0.00     0.263 C 
ATOM      6  O   UNL A   1      33.273  25.627  20.856  1.00  0.00    -0.270 OA
ATOM      7  H   UNL A   1      32.642  27.852  21.151  1.00  0.00     0.163 HD
BRANCH   5   8
ATOM      8  C   UNL A   1      32.808  25.143  23.212  1.00  0.00     0.184 C 
ATOM      9  C   UNL A   1      32.286  19.119  24.288  1.00  0.00     0.049 C 
ATOM     10  C   UNL A   1      32.705  20.539  24.572  1.00  0.00    -0.002 A 
ATOM     11  C   UNL A   1      32.651  21.510  23.540  1.00  0.00    -0.002 A 
ATOM     12  C   UNL A   1      33.180  20.922  25.842  1.00  0.00     0.122 A 
ATOM     13  C   UNL A   1      32.152  21.138  22.164  1.00  0.00     0.049 C 
ATOM     14  C   UNL A   1      33.031  22.834  23.820  1.00  0.00     0.127 A 
ATOM     15  C   UNL A   1      33.574  22.238  26.122  1.00  0.00    -0.002 A 
ATOM     16  C   UNL A   1      33.525  23.194  25.089  1.00  0.00     0.001 A 
ATOM     17  O   UNL A   1      32.882  23.756  22.802  1.00  0.00    -0.477 OA
ATOM     18  C   UNL A   1      34.057  22.636  27.495  1.00  0.00     0.049 C 
ATOM     19  C   UNL A   1      33.965  24.606  25.359  1.00  0.00     0.044 C 
ATOM     20  C   UNL A   1      34.041  25.405  24.080  1.00  0.00     0.063 C 
ATOM     21  C   UNL A   1      31.410  25.341  23.834  1.00  0.00     0.067 C 
BRANCH  12  22
ATOM     22  O   UNL A   1      33.275  20.020  26.869  1.00  0.00    -0.507 OA
ATOM     23  H   UNL A   1      33.230  19.100  26.691  1.00  0.00     0.293 HD
ENDBRANCH  12  22
ENDBRANCH   5   8
ENDBRANCH   3   4
ENDBRANCH   2   3
ENDBRANCH   1   2
BRANCH   1  24
ATOM     24  N   UNL A   1      32.489  30.361  25.734  1.00  0.00    -0.352 N 
ATOM     25  C   UNL A   1      32.887  31.152  26.783  1.00  0.00     0.251 C 
ATOM     26  H   UNL A   1      31.765  30.738  25.184  1.00  0.00     0.163 HD
ATOM     27  O   UNL A   1      32.184  32.106  27.112  1.00  0.00    -0.269 OA
BRANCH  25  28
ATOM     28  C   UNL A   1      34.133  30.853  27.522  1.00  0.00     0.039 A 
ATOM     29  C   UNL A   1      35.051  31.881  27.749  1.00  0.00     0.014 A 
ATOM     30  C   UNL A   1      34.416  29.557  27.963  1.00  0.00     0.014 A 
ATOM     31  C   UNL A   1      36.217  31.623  28.472  1.00  0.00     0.010 A 
ATOM     32  C   UNL A   1      35.531  29.321  28.760  1.00  0.00     0.010 A 
ATOM     33  C   UNL A   1      36.450  30.348  29.013  1.00  0.00    -0.014 A 
BRANCH  33  34
ATOM     34  C   UNL A   1      37.664  30.056  29.814  1.00  0.00     0.031 A 
ATOM     35  C   UNL A   1      38.760  29.207  29.229  1.00  0.00     0.074 A 
ATOM     36  C   UNL A   1      37.763  30.519  31.076  1.00  0.00     0.049 A 
ATOM     37  N   UNL A   1      39.856  28.770  29.792  1.00  0.00    -0.248 NA
ATOM     38  C   UNL A   1      38.588  28.772  27.833  1.00  0.00     0.031 C 
ATOM     39  C   UNL A   1      36.758  31.340  31.756  1.00  0.00     0.029 A 
ATOM     40  N   UNL A   1      38.754  30.366  32.013  1.00  0.00    -0.354 N 
ATOM     41  C   UNL A   1      40.499  28.006  28.825  1.00  0.00     0.074 A 
ATOM     42  C   UNL A   1      39.642  27.989  27.660  1.00  0.00     0.031 C 
ATOM     43  C   UNL A   1      37.202  31.648  32.985  1.00  0.00     0.029 A 
ATOM     44  C   UNL A   1      38.495  31.008  33.201  1.00  0.00     0.049 A 
ATOM     45  H   UNL A   1      39.574  29.848  31.849  1.00  0.00     0.167 HD
ATOM     46  C   UNL A   1      41.707  27.398  28.894  1.00  0.00     0.034 A 
ATOM     47  C   UNL A   1      39.213  31.064  34.342  1.00  0.00     0.034 A 
ATOM     48  C   UNL A   1      42.562  27.441  30.052  1.00  0.00     0.049 A 
ATOM     49  C   UNL A   1      40.531  30.339  34.410  1.00  0.00     0.074 A 
ATOM     50  C   UNL A   1      43.822  26.890  30.211  1.00  0.00     0.029 A 
ATOM     51  N   UNL A   1      42.248  28.069  31.250  1.00  0.00    -0.354 N 
ATOM     52  N   UNL A   1      41.127  29.625  33.483  1.00  0.00    -0.248 NA
ATOM     53  C   UNL A   1      41.270  30.423  35.676  1.00  0.00     0.031 C 
ATOM     54  C   UNL A   1      44.240  27.128  31.522  1.00  0.00     0.029 A 
ATOM     55  C   UNL A   1      43.275  27.891  32.162  1.00  0.00     0.049 A 
ATOM     56  H   UNL A   1      41.417  28.566  31.425  1.00  0.00     0.167 HD
ATOM     57  C   UNL A   1      42.322  29.193  34.048  1.00  0.00     0.074 A 
ATOM     58  C   UNL A   1      42.366  29.733  35.393  1.00  0.00     0.031 C 
ATOM     59  C   UNL A   1      43.296  28.420  33.505  1.00  0.00     0.034 A 
BRANCH  46  60
ATOM     60  C   UNL A   1      42.173  26.627  27.685  1.00  0.00     0.023 A 
ATOM     61  C   UNL A   1      41.918  25.252  27.549  1.00  0.00     0.031 A 
ATOM     62  C   UNL A   1      42.861  27.279  26.647  1.00  0.00     0.131 A 
ATOM     63  C   UNL A   1      42.387  24.563  26.420  1.00  0.00     0.055 A 
ATOM     64  C   UNL A   1      43.267  26.602  25.497  1.00  0.00     0.041 A 
ATOM     65  F   UNL A   1      43.147  28.588  26.735  1.00  0.00    -0.206 F 
ATOM     66  C   UNL A   1      43.038  25.234  25.381  1.00  0.00     0.022 A 
BRANCH  63  67
ATOM     67  S   UNL A   1      42.209  22.760  26.367  1.00  0.00     0.124 S 
ATOM     68  O   UNL A   1      42.640  22.462  25.003  1.00  0.00    -0.237 OA
ATOM     69  O   UNL A   1      43.106  22.321  27.430  1.00  0.00    -0.237 OA
ATOM     70  O   UNL A   1      40.786  22.548  26.625  1.00  0.00    -0.744 OA
ENDBRANCH  63  67
ENDBRANCH  46  60
BRANCH  47  71
ATOM     71  C   UNL A   1      38.698  31.832  35.509  1.00  0.00     0.023 A 
ATOM     72  C   UNL A   1      38.121  31.176  36.606  1.00  0.00     0.031 A 
ATOM     73  C   UNL A   1      38.783  33.237  35.546  1.00  0.00     0.131 A 
ATOM     74  C   UNL A   1      37.630  31.923  37.688  1.00  0.00     0.055 A 
ATOM     75  C   UNL A   1      38.330  33.972  36.641  1.00  0.00     0.041 A 
ATOM     76  F   UNL A   1      39.336  33.910  34.524  1.00  0.00    -0.206 F 
ATOM     77  C   UNL A   1      37.743  33.316  37.719  1.00  0.00     0.022 A 
BRANCH  74  78
ATOM     78  S   UNL A   1      36.814  31.050  39.051  1.00  0.00     0.124 S 
ATOM     79  O   UNL A   1      35.593  31.830  39.214  1.00  0.00    -0.237 OA
ATOM     80  O   UNL A   1      36.652  29.708  38.501  1.00  0.00    -0.237 OA
ATOM     81  O   UNL A   1      37.775  31.158  40.148  1.00  0.00    -0.744 OA
ENDBRANCH  74  78
ENDBRANCH  47  71
BRANCH  59  82
ATOM     82  C   UNL A   1      44.505  28.128  34.354  1.00  0.00     0.023 A 
ATOM     83  C   UNL A   1      44.577  26.974  35.152  1.00  0.00     0.031 A 
ATOM     84  C   UNL A   1      45.615  28.991  34.329  1.00  0.00     0.131 A 
ATOM     85  C   UNL A   1      45.724  26.730  35.921  1.00  0.00     0.055 A 
ATOM     86  C   UNL A   1      46.773  28.716  35.056  1.00  0.00     0.041 A 
ATOM     87  F   UNL A   1      45.597  30.105  33.580  1.00  0.00    -0.206 F 
ATOM     88  C   UNL A   1      46.830  27.584  35.863  1.00  0.00     0.022 A 
BRANCH  85  89
ATOM     89  S   UNL A   1      45.734  25.304  37.040  1.00  0.00     0.124 S 
ATOM     90  O   UNL A   1      47.096  25.343  37.567  1.00  0.00    -0.237 OA
ATOM     91  O   UNL A   1      44.675  25.638  37.986  1.00  0.00    -0.237 OA
ATOM     92  O   UNL A   1      45.443  24.174  36.159  1.00  0.00    -0.744 OA
ENDBRANCH  85  89
ENDBRANCH  59  82
ENDBRANCH  33  34
ENDBRANCH  25  28
ENDBRANCH   1  24
TORSDOF 14
ENDMDL
MODEL 2
REMARK VINA RESULT:     -13.1      5.228     10.324
REMARK SMILES Cc1c(C)c2c(c(C)c1O)CC[C@@](C)(C(=O)NCCCNC(=O)c1ccc(-c3c4nc(c(-c5cc(S(=O)(=O)[O-])ccc5F)c5ccc([nH]5)c(-c5cc(S(=O)(=O)[O-])ccc5F)c5nc(c(-c6cc(S(=O)(=O)[O-])ccc6F)c6ccc3[nH]6)C=C5)C=C4)cc1)O2
REMARK SMILES IDX 20 1 19 2 18 3 17 4 15 5 16 6 13 8 1 9 2 10 3 11 9 12 4 13
REMARK SMILES IDX 5 14 7 15 6 16 87 17 8 18 11 19 12 20 14 21 10 22 21 24
REMARK SMILES IDX 22 25 23 27 24 28 25 29 86 30 26 31 85 32 27 33 28 34 29 35
REMARK SMILES IDX 79 36 30 37 84 38 78 39 80 40 31 41 83 42 77 43 76 44 32 46
REMARK SMILES IDX 64 47 44 48 63 49 45 50 48 51 62 52 81 53 46 54 47 55 61 57
REMARK SMILES IDX 82 58 49 59 33 60 34 61 42 62 35 63 41 64 43 65 40 66 36 67
REMARK SMILES IDX 37 68 38 69 39 70 65 71 66 72 74 73 67 74 73 75 75 76 72 77
REMARK SMILES IDX 68 78 69 79 70 80 71 81 50 82 51 83 59 84 52 85 58 86 60 87
REMARK SMILES IDX 57 88 53 89 54 90 55 91 56 92
REMARK H PARENT 17 7 10 23 21 26 80 45 48 56
REMARK Flexibility Score: inf
ROOT
ATOM      1  C   UNL A   1      35.793  22.267  25.894  1.00  0.00     0.118 C 
ENDROOT
BRANCH   1   2
ATOM      2  C   UNL A   1      34.609  21.875  26.762  1.00  0.00     0.042 C 
BRANCH   2   3
ATOM      3  C   UNL A   1      33.320  21.674  25.977  1.00  0.00     0.118 C 
BRANCH   3   4
ATOM      4  N   UNL A   1      32.150  22.197  26.670  1.00  0.00    -0.353 N 
ATOM      5  C   UNL A   1      31.439  23.359  26.510  1.00  0.00     0.263 C 
ATOM      6  O   UNL A   1      30.465  23.513  27.251  1.00  0.00    -0.270 OA
ATOM      7  H   UNL A   1      31.809  21.612  27.384  1.00  0.00     0.163 HD
BRANCH   5   8
ATOM      8  C   UNL A   1      31.841  24.405  25.431  1.00  0.00     0.184 C 
ATOM      9  C   UNL A   1      29.004  28.917  22.379  1.00  0.00     0.049 C 
ATOM     10  C   UNL A   1      30.168  28.207  23.024  1.00  0.00    -0.002 A 
ATOM     11  C   UNL A   1      29.933  27.109  23.889  1.00  0.00    -0.002 A 
ATOM     12  C   UNL A   1      31.494  28.632  22.808  1.00  0.00     0.122 A 
ATOM     13  C   UNL A   1      28.526  26.626  24.149  1.00  0.00     0.049 C 
ATOM     14  C   UNL A   1      31.027  26.447  24.473  1.00  0.00     0.127 A 
ATOM     15  C   UNL A   1      32.587  27.984  23.400  1.00  0.00    -0.002 A 
ATOM     16  C   UNL A   1      32.345  26.899  24.265  1.00  0.00     0.001 A 
ATOM     17  O   UNL A   1      30.747  25.333  25.241  1.00  0.00    -0.477 OA
ATOM     18  C   UNL A   1      34.003  28.437  23.138  1.00  0.00     0.049 C 
ATOM     19  C   UNL A   1      33.499  26.203  24.930  1.00  0.00     0.044 C 
ATOM     20  C   UNL A   1      33.015  25.223  25.972  1.00  0.00     0.063 C 
ATOM     21  C   UNL A   1      32.015  23.655  24.093  1.00  0.00     0.067 C 
BRANCH  12  22
ATOM     22  O   UNL A   1      31.778  29.703  22.001  1.00  0.00    -0.507 OA
ATOM     23  H   UNL A   1      32.540  30.223  22.163  1.00  0.00     0.293 HD
ENDBRANCH  12  22
ENDBRANCH   5   8
ENDBRANCH   3   4
ENDBRANCH   2   3
ENDBRANCH   1   2
BRANCH   1  24
ATOM     24  N   UNL A   1      36.755  21.183  25.760  1.00  0.00    -0.352 N 
ATOM     25  C   UNL A   1      38.127  21.213  25.751  1.00  0.00     0.251 C 
ATOM     26  H   UNL A   1      36.360  20.287  25.661  1.00  0.00     0.163 HD
ATOM     27  O   UNL A   1      38.744  20.215  25.380  1.00  0.00    -0.269 OA
BRANCH  25  28
ATOM     28  C   UNL A   1      38.858  22.431  26.162  1.00  0.00     0.039 A 
ATOM     29  C   UNL A   1      40.027  22.300  26.917  1.00  0.00     0.014 A 
ATOM     30  C   UNL A   1      38.379  23.703  25.837  1.00  0.00     0.014 A 
ATOM     31  C   UNL A   1      40.745  23.439  27.286  1.00  0.00     0.010 A 
ATOM     32  C   UNL A   1      39.141  24.829  26.125  1.00  0.00     0.010 A 
ATOM     33  C   UNL A   1      40.327  24.711  26.864  1.00  0.00    -0.014 A 
BRANCH  33  34
ATOM     34  C   UNL A   1      41.091  25.934  27.214  1.00  0.00     0.031 A 
ATOM     35  C   UNL A   1      40.459  26.988  28.083  1.00  0.00     0.074 A 
ATOM     36  C   UNL A   1      42.332  26.114  26.720  1.00  0.00     0.049 A 
ATOM     37  N   UNL A   1      40.924  28.158  28.432  1.00  0.00    -0.248 NA
ATOM     38  C   UNL A   1      39.114  26.695  28.608  1.00  0.00     0.031 C 
ATOM     39  C   UNL A   1      43.043  25.168  25.856  1.00  0.00     0.029 A 
ATOM     40  N   UNL A   1      43.216  27.152  26.873  1.00  0.00    -0.354 N 
ATOM     41  C   UNL A   1      39.932  28.743  29.210  1.00  0.00     0.074 A 
ATOM     42  C   UNL A   1      38.815  27.825  29.231  1.00  0.00     0.031 C 
ATOM     43  C   UNL A   1      44.265  25.653  25.587  1.00  0.00     0.029 A 
ATOM     44  C   UNL A   1      44.408  26.964  26.214  1.00  0.00     0.049 A 
ATOM     45  H   UNL A   1      43.016  27.955  27.405  1.00  0.00     0.167 HD
ATOM     46  C   UNL A   1      39.962  29.926  29.869  1.00  0.00     0.034 A 
ATOM     47  C   UNL A   1      45.491  27.762  26.115  1.00  0.00     0.034 A 
ATOM     48  C   UNL A   1      41.089  30.822  29.857  1.00  0.00     0.049 A 
ATOM     49  C   UNL A   1      45.481  29.094  26.817  1.00  0.00     0.074 A 
ATOM     50  C   UNL A   1      41.235  32.027  30.523  1.00  0.00     0.029 A 
ATOM     51  N   UNL A   1      42.264  30.614  29.147  1.00  0.00    -0.354 N 
ATOM     52  N   UNL A   1      44.535  29.629  27.554  1.00  0.00    -0.248 NA
ATOM     53  C   UNL A   1      46.679  29.930  26.672  1.00  0.00     0.031 C 
ATOM     54  C   UNL A   1      42.469  32.577  30.164  1.00  0.00     0.029 A 
ATOM     55  C   UNL A   1      43.126  31.683  29.333  1.00  0.00     0.049 A 
ATOM     56  H   UNL A   1      42.456  29.823  28.594  1.00  0.00     0.167 HD
ATOM     57  C   UNL A   1      45.034  30.857  27.977  1.00  0.00     0.074 A 
ATOM     58  C   UNL A   1      46.367  30.978  27.421  1.00  0.00     0.031 C 
ATOM     59  C   UNL A   1      44.444  31.798  28.757  1.00  0.00     0.034 A 
BRANCH  46  60
ATOM     60  C   UNL A   1      38.735  30.323  30.650  1.00  0.00     0.023 A 
ATOM     61  C   UNL A   1      37.694  31.058  30.057  1.00  0.00     0.031 A 
ATOM     62  C   UNL A   1      38.597  29.945  31.996  1.00  0.00     0.131 A 
ATOM     63  C   UNL A   1      36.579  31.429  30.823  1.00  0.00     0.055 A 
ATOM     64  C   UNL A   1      37.455  30.261  32.734  1.00  0.00     0.041 A 
ATOM     65  F   UNL A   1      39.570  29.260  32.616  1.00  0.00    -0.206 F 
ATOM     66  C   UNL A   1      36.440  31.014  32.150  1.00  0.00     0.022 A 
BRANCH  63  67
ATOM     67  S   UNL A   1      35.348  32.535  30.083  1.00  0.00     0.124 S 
ATOM     68  O   UNL A   1      34.403  32.703  31.186  1.00  0.00    -0.237 OA
ATOM     69  O   UNL A   1      36.141  33.709  29.738  1.00  0.00    -0.237 OA
ATOM     70  O   UNL A   1      34.839  31.771  28.946  1.00  0.00    -0.744 OA
ENDBRANCH  63  67
ENDBRANCH  46  60
BRANCH  47  71
ATOM     71  C   UNL A   1      46.671  27.322  25.320  1.00  0.00     0.023 A 
ATOM     72  C   UNL A   1      46.851  27.756  23.999  1.00  0.00     0.031 A 
ATOM     73  C   UNL A   1      47.640  26.465  25.875  1.00  0.00     0.131 A 
ATOM     74  C   UNL A   1      47.965  27.316  23.265  1.00  0.00     0.055 A 
ATOM     75  C   UNL A   1      48.764  26.062  25.155  1.00  0.00     0.041 A 
ATOM     76  F   UNL A   1      47.516  26.030  27.139  1.00  0.00    -0.206 F 
ATOM     77  C   UNL A   1      48.929  26.483  23.839  1.00  0.00     0.022 A 
BRANCH  74  78
ATOM     78  S   UNL A   1      48.124  27.828  21.533  1.00  0.00     0.124 S 
ATOM     79  O   UNL A   1      49.131  28.878  21.626  1.00  0.00    -0.237 OA
ATOM     80  O   UNL A   1      48.545  26.589  20.886  1.00  0.00    -0.237 OA
ATOM     81  O   UNL A   1      46.778  28.282  21.187  1.00  0.00    -0.744 OA
ENDBRANCH  74  78
ENDBRANCH  47  71
BRANCH  59  82
ATOM     82  C   UNL A   1      45.242  33.035  29.075  1.00  0.00     0.023 A 
ATOM     83  C   UNL A   1      45.144  34.192  28.284  1.00  0.00     0.031 A 
ATOM     84  C   UNL A   1      46.074  33.071  30.208  1.00  0.00     0.131 A 
ATOM     85  C   UNL A   1      45.895  35.328  28.618  1.00  0.00     0.055 A 
ATOM     86  C   UNL A   1      46.778  34.221  30.564  1.00  0.00     0.041 A 
ATOM     87  F   UNL A   1      46.199  31.992  30.998  1.00  0.00    -0.206 F 
ATOM     88  C   UNL A   1      46.696  35.356  29.764  1.00  0.00     0.022 A 
BRANCH  85  89
ATOM     89  S   UNL A   1      45.849  36.759  27.506  1.00  0.00     0.124 S 
ATOM     90  O   UNL A   1      44.458  37.188  27.623  1.00  0.00    -0.237 OA
ATOM     91  O   UNL A   1      46.842  37.650  28.097  1.00  0.00    -0.237 OA
ATOM     92  O   UNL A   1      46.218  36.197  26.208  1.00  0.00    -0.744 OA
ENDBRANCH  85  89
ENDBRANCH  59  82
ENDBRANCH  33  34
ENDBRANCH  25  28
ENDBRANCH   1  24
TORSDOF 14
ENDMDL
MODEL 3
REMARK VINA RESULT:     -12.9      1.515      1.793
REMARK SMILES Cc1c(C)c2c(c(C)c1O)CC[C@@](C)(C(=O)NCCCNC(=O)c1ccc(-c3c4nc(c(-c5cc(S(=O)(=O)[O-])ccc5F)c5ccc([nH]5)c(-c5cc(S(=O)(=O)[O-])ccc5F)c5nc(c(-c6cc(S(=O)(=O)[O-])ccc6F)c6ccc3[nH]6)C=C5)C=C4)cc1)O2
REMARK SMILES IDX 20 1 19 2 18 3 17 4 15 5 16 6 13 8 1 9 2 10 3 11 9 12 4 13
REMARK SMILES IDX 5 14 7 15 6 16 87 17 8 18 11 19 12 20 14 21 10 22 21 24
REMARK SMILES IDX 22 25 23 27 24 28 25 29 86 30 26 31 85 32 27 33 28 34 29 35
REMARK SMILES IDX 79 36 30 37 84 38 78 39 80 40 31 41 83 42 77 43 76 44 32 46
REMARK SMILES IDX 64 47 44 48 63 49 45 50 48 51 62 52 81 53 46 54 47 55 61 57
REMARK SMILES IDX 82 58 49 59 33 60 34 61 42 62 35 63 41 64 43 65 40 66 36 67
REMARK SMILES IDX 37 68 38 69 39 70 65 71 66 72 74 73 67 74 73 75 75 76 72 77
REMARK SMILES IDX 68 78 69 79 70 80 71 81 50 82 51 83 59 84 52 85 58 86 60 87
REMARK SMILES IDX 57 88 53 89 54 90 55 91 56 92
REMARK H PARENT 17 7 10 23 21 26 80 45 48 56
REMARK Flexibility Score: inf
ROOT
ATOM      1  C   UNL A   1      33.101  29.094  25.383  1.00  0.00     0.118 C 
ENDROOT
BRANCH   1   2
ATOM      2  C   UNL A   1      33.243  29.008  23.872  1.00  0.00     0.042 C 
BRANCH   2   3
ATOM      3  C   UNL A   1      32.115  28.239  23.198  1.00  0.00     0.118 C 
BRANCH   3   4
ATOM      4  N   UNL A   1      32.576  27.428  22.079  1.00  0.00    -0.353 N 
ATOM      5  C   UNL A   1      32.902  26.099  21.990  1.00  0.00     0.263 C 
ATOM      6  O   UNL A   1      33.248  25.692  20.878  1.00  0.00    -0.270 OA
ATOM      7  H   UNL A   1      32.674  27.924  21.235  1.00  0.00     0.163 HD
BRANCH   5   8
ATOM      8  C   UNL A   1      32.812  25.164  23.230  1.00  0.00     0.184 C 
ATOM      9  C   UNL A   1      32.287  19.118  24.176  1.00  0.00     0.049 C 
ATOM     10  C   UNL A   1      32.707  20.532  24.490  1.00  0.00    -0.002 A 
ATOM     11  C   UNL A   1      32.653  21.525  23.479  1.00  0.00    -0.002 A 
ATOM     12  C   UNL A   1      33.183  20.887  25.768  1.00  0.00     0.122 A 
ATOM     13  C   UNL A   1      32.153  21.183  22.095  1.00  0.00     0.049 C 
ATOM     14  C   UNL A   1      33.034  22.843  23.787  1.00  0.00     0.127 A 
ATOM     15  C   UNL A   1      33.577  22.196  26.075  1.00  0.00    -0.002 A 
ATOM     16  C   UNL A   1      33.529  23.175  25.064  1.00  0.00     0.001 A 
ATOM     17  O   UNL A   1      32.885  23.787  22.790  1.00  0.00    -0.477 OA
ATOM     18  C   UNL A   1      34.061  22.565  27.457  1.00  0.00     0.049 C 
ATOM     19  C   UNL A   1      33.970  24.581  25.364  1.00  0.00     0.044 C 
ATOM     20  C   UNL A   1      34.045  25.407  24.102  1.00  0.00     0.063 C 
ATOM     21  C   UNL A   1      31.414  25.349  23.856  1.00  0.00     0.067 C 
BRANCH  12  22
ATOM     22  O   UNL A   1      33.278  19.963  26.775  1.00  0.00    -0.507 OA
ATOM     23  H   UNL A   1      34.120  19.701  27.093  1.00  0.00     0.293 HD
ENDBRANCH  12  22
ENDBRANCH   5   8
ENDBRANCH   3   4
ENDBRANCH   2   3
ENDBRANCH   1   2
BRANCH   1  24
ATOM     24  N   UNL A   1      32.658  30.412  25.817  1.00  0.00    -0.352 N 
ATOM     25  C   UNL A   1      33.101  31.198  26.851  1.00  0.00     0.251 C 
ATOM     26  H   UNL A   1      31.928  30.800  25.284  1.00  0.00     0.163 HD
ATOM     27  O   UNL A   1      32.426  32.168  27.195  1.00  0.00    -0.269 OA
BRANCH  25  28
ATOM     28  C   UNL A   1      34.359  30.877  27.557  1.00  0.00     0.039 A 
ATOM     29  C   UNL A   1      35.306  31.887  27.751  1.00  0.00     0.014 A 
ATOM     30  C   UNL A   1      34.627  29.579  27.999  1.00  0.00     0.014 A 
ATOM     31  C   UNL A   1      36.485  31.608  28.444  1.00  0.00     0.010 A 
ATOM     32  C   UNL A   1      35.758  29.324  28.768  1.00  0.00     0.010 A 
ATOM     33  C   UNL A   1      36.705  30.333  28.988  1.00  0.00    -0.014 A 
BRANCH  33  34
ATOM     34  C   UNL A   1      37.935  30.020  29.757  1.00  0.00     0.031 A 
ATOM     35  C   UNL A   1      38.962  29.085  29.178  1.00  0.00     0.074 A 
ATOM     36  C   UNL A   1      38.108  30.543  30.987  1.00  0.00     0.049 A 
ATOM     37  N   UNL A   1      40.056  28.621  29.722  1.00  0.00    -0.248 NA
ATOM     38  C   UNL A   1      38.711  28.586  27.816  1.00  0.00     0.031 C 
ATOM     39  C   UNL A   1      37.175  31.451  31.659  1.00  0.00     0.029 A 
ATOM     40  N   UNL A   1      39.128  30.388  31.892  1.00  0.00    -0.354 N 
ATOM     41  C   UNL A   1      40.621  27.774  28.775  1.00  0.00     0.074 A 
ATOM     42  C   UNL A   1      39.717  27.740  27.646  1.00  0.00     0.031 C 
ATOM     43  C   UNL A   1      37.683  31.800  32.851  1.00  0.00     0.029 A 
ATOM     44  C   UNL A   1      38.950  31.104  33.053  1.00  0.00     0.049 A 
ATOM     45  H   UNL A   1      39.913  29.820  31.726  1.00  0.00     0.167 HD
ATOM     46  C   UNL A   1      41.798  27.108  28.832  1.00  0.00     0.034 A 
ATOM     47  C   UNL A   1      39.715  31.183  34.161  1.00  0.00     0.034 A 
ATOM     48  C   UNL A   1      42.700  27.167  29.953  1.00  0.00     0.049 A 
ATOM     49  C   UNL A   1      40.996  30.394  34.219  1.00  0.00     0.074 A 
ATOM     50  C   UNL A   1      43.936  26.560  30.094  1.00  0.00     0.029 A 
ATOM     51  N   UNL A   1      42.467  27.873  31.126  1.00  0.00    -0.354 N 
ATOM     52  N   UNL A   1      41.518  29.602  33.310  1.00  0.00    -0.248 NA
ATOM     53  C   UNL A   1      41.790  30.506  35.450  1.00  0.00     0.031 C 
ATOM     54  C   UNL A   1      44.419  26.845  31.374  1.00  0.00     0.029 A 
ATOM     55  C   UNL A   1      43.521  27.690  32.006  1.00  0.00     0.049 A 
ATOM     56  H   UNL A   1      41.670  28.422  31.304  1.00  0.00     0.167 HD
ATOM     57  C   UNL A   1      42.712  29.138  33.853  1.00  0.00     0.074 A 
ATOM     58  C   UNL A   1      42.837  29.746  35.163  1.00  0.00     0.031 C 
ATOM     59  C   UNL A   1      43.623  28.288  33.316  1.00  0.00     0.034 A 
BRANCH  46  60
ATOM     60  C   UNL A   1      42.175  26.251  27.650  1.00  0.00     0.023 A 
ATOM     61  C   UNL A   1      41.793  24.900  27.572  1.00  0.00     0.031 A 
ATOM     62  C   UNL A   1      42.906  26.796  26.580  1.00  0.00     0.131 A 
ATOM     63  C   UNL A   1      42.182  24.128  26.468  1.00  0.00     0.055 A 
ATOM     64  C   UNL A   1      43.233  26.039  25.454  1.00  0.00     0.041 A 
ATOM     65  F   UNL A   1      43.312  28.074  26.613  1.00  0.00    -0.206 F 
ATOM     66  C   UNL A   1      42.878  24.695  25.396  1.00  0.00     0.022 A 
BRANCH  63  67
ATOM     67  S   UNL A   1      41.838  22.348  26.489  1.00  0.00     0.124 S 
ATOM     68  O   UNL A   1      42.316  21.972  27.818  1.00  0.00    -0.237 OA
ATOM     69  O   UNL A   1      40.394  22.301  26.293  1.00  0.00    -0.237 OA
ATOM     70  O   UNL A   1      42.635  21.833  25.378  1.00  0.00    -0.744 OA
ENDBRANCH  63  67
ENDBRANCH  46  60
BRANCH  47  71
ATOM     71  C   UNL A   1      39.288  32.038  35.302  1.00  0.00     0.023 A 
ATOM     72  C   UNL A   1      39.771  33.347  35.443  1.00  0.00     0.031 A 
ATOM     73  C   UNL A   1      38.381  31.560  36.266  1.00  0.00     0.131 A 
ATOM     74  C   UNL A   1      39.364  34.129  36.535  1.00  0.00     0.055 A 
ATOM     75  C   UNL A   1      37.948  32.354  37.328  1.00  0.00     0.041 A 
ATOM     76  F   UNL A   1      37.882  30.317  36.170  1.00  0.00    -0.206 F 
ATOM     77  C   UNL A   1      38.445  33.646  37.470  1.00  0.00     0.022 A 
BRANCH  74  78
ATOM     78  S   UNL A   1      40.073  35.786  36.733  1.00  0.00     0.124 S 
ATOM     79  O   UNL A   1      41.495  35.488  36.851  1.00  0.00    -0.237 OA
ATOM     80  O   UNL A   1      39.653  36.447  35.502  1.00  0.00    -0.237 OA
ATOM     81  O   UNL A   1      39.436  36.285  37.951  1.00  0.00    -0.744 OA
ENDBRANCH  74  78
ENDBRANCH  47  71
BRANCH  59  82
ATOM     82  C   UNL A   1      44.849  27.977  34.134  1.00  0.00     0.023 A 
ATOM     83  C   UNL A   1      44.899  26.857  34.980  1.00  0.00     0.031 A 
ATOM     84  C   UNL A   1      45.994  28.787  34.030  1.00  0.00     0.131 A 
ATOM     85  C   UNL A   1      46.063  26.595  35.718  1.00  0.00     0.055 A 
ATOM     86  C   UNL A   1      47.165  28.491  34.727  1.00  0.00     0.041 A 
ATOM     87  F   UNL A   1      45.997  29.867  33.233  1.00  0.00    -0.206 F 
ATOM     88  C   UNL A   1      47.202  27.393  35.582  1.00  0.00     0.022 A 
BRANCH  85  89
ATOM     89  S   UNL A   1      46.052  25.219  36.899  1.00  0.00     0.124 S 
ATOM     90  O   UNL A   1      46.104  24.060  36.012  1.00  0.00    -0.237 OA
ATOM     91  O   UNL A   1      47.254  25.472  37.687  1.00  0.00    -0.237 OA
ATOM     92  O   UNL A   1      44.792  25.394  37.618  1.00  0.00    -0.744 OA
ENDBRANCH  85  89
ENDBRANCH  59  82
ENDBRANCH  33  34
ENDBRANCH  25  28
ENDBRANCH   1  24
TORSDOF 14
ENDMDL
