MODEL 1
REMARK VINA RESULT:     -13.9      0.000      0.000
REMARK SMILES C[N@H+]1CCO[C@H](c2noc(-c3ccccc3C(=O)NCCCNC(=O)c3ccc(-c4c5nc(c(-c6cc(S(=O)(=O)[O-])ccc6F)c6ccc([nH]6)c(-c6cc(S(=O)(=O)[O-])ccc6F)c6nc(c(-c7cc(S(=O)(=O)[O-])ccc7F)c7ccc4[nH]7)C=C6)C=C5)cc3)n2)C1
REMARK SMILES IDX 21 1 20 2 19 3 17 4 18 5 16 7 11 8 12 9 13 10 15 11 14 12
REMARK SMILES IDX 10 13 7 14 8 15 89 16 9 17 6 18 1 19 2 20 3 21 90 22 4 24
REMARK SMILES IDX 5 25 22 26 23 27 24 28 25 30 26 31 27 32 88 33 28 34 87 35
REMARK SMILES IDX 29 36 30 37 31 38 81 39 32 40 86 41 80 42 82 43 33 44 85 45
REMARK SMILES IDX 79 46 78 47 34 49 66 50 46 51 65 52 47 53 50 54 64 55 83 56
REMARK SMILES IDX 48 57 49 58 63 60 84 61 51 62 35 63 36 64 44 65 37 66 43 67
REMARK SMILES IDX 45 68 42 69 38 70 39 71 40 72 41 73 67 74 68 75 76 76 69 77
REMARK SMILES IDX 75 78 77 79 74 80 70 81 71 82 72 83 73 84 52 85 53 86 61 87
REMARK SMILES IDX 54 88 60 89 62 90 59 91 55 92 56 93 57 94 58 95
REMARK H PARENT 19 6 2 23 23 29 82 48 50 59
REMARK Flexibility Score: inf
ROOT
ATOM      1  C   UNL A   1      32.503  30.202  26.784  1.00  0.00     0.042 C 
ENDROOT
BRANCH   1   2
ATOM      2  C   UNL A   1      32.411  28.945  25.955  1.00  0.00     0.118 C 
BRANCH   2   3
ATOM      3  N   UNL A   1      32.437  29.360  24.586  1.00  0.00    -0.352 N 
ATOM      4  C   UNL A   1      31.679  29.021  23.513  1.00  0.00     0.252 C 
ATOM      5  O   UNL A   1      32.250  29.197  22.429  1.00  0.00    -0.269 OA
ATOM      6  H   UNL A   1      33.140  30.018  24.383  1.00  0.00     0.163 HD
BRANCH   4   7
ATOM      7  C   UNL A   1      30.230  28.633  23.504  1.00  0.00     0.052 A 
ATOM      8  C   UNL A   1      29.536  27.426  23.769  1.00  0.00     0.053 A 
ATOM      9  C   UNL A   1      28.126  27.420  23.590  1.00  0.00     0.015 A 
ATOM     10  C   UNL A   1      27.417  28.531  23.126  1.00  0.00     0.001 A 
ATOM     11  C   UNL A   1      29.468  29.745  23.041  1.00  0.00     0.014 A 
ATOM     12  C   UNL A   1      28.095  29.698  22.837  1.00  0.00     0.001 A 
BRANCH   8  13
ATOM     13  C   UNL A   1      30.104  26.120  24.098  1.00  0.00     0.258 A 
ATOM     14  C   UNL A   1      31.127  24.408  24.788  1.00  0.00     0.206 A 
ATOM     15  N   UNL A   1      30.652  24.021  23.594  1.00  0.00    -0.059 NA
ATOM     16  N   UNL A   1      30.644  25.638  25.198  1.00  0.00    -0.189 NA
ATOM     17  O   UNL A   1      29.984  25.160  23.126  1.00  0.00    -0.334 OA
BRANCH  14  18
ATOM     18  C   UNL A   1      32.209  23.638  25.518  1.00  0.00     0.245 C 
ATOM     19  C   UNL A   1      36.604  23.576  25.153  1.00  0.00     0.332 C 
ATOM     20  N   UNL A   1      35.344  23.059  24.616  1.00  0.00    -0.333 N 
ATOM     21  C   UNL A   1      35.149  21.324  25.143  1.00  0.00     0.290 C 
ATOM     22  C   UNL A   1      33.972  24.233  24.968  1.00  0.00     0.303 C 
ATOM     23  H   UNL A   1      35.335  23.011  23.597  1.00  0.00     0.348 HD
ATOM     24  C   UNL A   1      33.416  20.558  25.567  1.00  0.00     0.222 C 
ATOM     25  O   UNL A   1      31.931  21.785  25.654  1.00  0.00    -0.358 OA
ENDBRANCH  14  18
ENDBRANCH   8  13
ENDBRANCH   4   7
ENDBRANCH   2   3
ENDBRANCH   1   2
BRANCH   1  26
ATOM     26  C   UNL A   1      31.648  31.304  26.233  1.00  0.00     0.118 C 
BRANCH  26  27
ATOM     27  N   UNL A   1      31.750  32.814  26.922  1.00  0.00    -0.352 N 
ATOM     28  C   UNL A   1      32.921  33.809  28.043  1.00  0.00     0.251 C 
ATOM     29  H   UNL A   1      30.968  33.358  26.674  1.00  0.00     0.163 HD
ATOM     30  O   UNL A   1      32.745  35.002  28.345  1.00  0.00    -0.269 OA
BRANCH  28  31
ATOM     31  C   UNL A   1      34.372  33.333  28.875  1.00  0.00     0.039 A 
ATOM     32  C   UNL A   1      35.585  33.835  28.358  1.00  0.00     0.014 A 
ATOM     33  C   UNL A   1      34.524  32.328  29.884  1.00  0.00     0.014 A 
ATOM     34  C   UNL A   1      36.833  33.295  28.752  1.00  0.00     0.010 A 
ATOM     35  C   UNL A   1      35.721  31.730  30.195  1.00  0.00     0.010 A 
ATOM     36  C   UNL A   1      36.888  32.213  29.639  1.00  0.00    -0.014 A 
BRANCH  36  37
ATOM     37  C   UNL A   1      38.090  31.656  30.278  1.00  0.00     0.031 A 
ATOM     38  C   UNL A   1      38.831  30.508  29.659  1.00  0.00     0.074 A 
ATOM     39  C   UNL A   1      38.202  31.940  31.590  1.00  0.00     0.049 A 
ATOM     40  N   UNL A   1      39.825  29.815  30.144  1.00  0.00    -0.248 NA
ATOM     41  C   UNL A   1      38.356  30.037  28.346  1.00  0.00     0.031 C 
ATOM     42  C   UNL A   1      37.311  32.855  32.320  1.00  0.00     0.029 A 
ATOM     43  N   UNL A   1      39.020  31.435  32.556  1.00  0.00    -0.354 N 
ATOM     44  C   UNL A   1      40.131  28.858  29.184  1.00  0.00     0.074 A 
ATOM     45  C   UNL A   1      39.156  29.002  28.123  1.00  0.00     0.031 C 
ATOM     46  C   UNL A   1      37.636  32.844  33.618  1.00  0.00     0.029 A 
ATOM     47  C   UNL A   1      38.755  31.936  33.808  1.00  0.00     0.049 A 
ATOM     48  H   UNL A   1      39.730  30.777  32.375  1.00  0.00     0.167 HD
ATOM     49  C   UNL A   1      41.155  27.967  29.195  1.00  0.00     0.034 A 
ATOM     50  C   UNL A   1      39.375  31.701  34.976  1.00  0.00     0.034 A 
ATOM     51  C   UNL A   1      42.043  27.828  30.327  1.00  0.00     0.049 A 
ATOM     52  C   UNL A   1      40.557  30.776  34.950  1.00  0.00     0.074 A 
ATOM     53  C   UNL A   1      43.188  27.063  30.449  1.00  0.00     0.029 A 
ATOM     54  N   UNL A   1      41.852  28.451  31.559  1.00  0.00    -0.354 N 
ATOM     55  N   UNL A   1      40.998  30.033  33.960  1.00  0.00    -0.248 NA
ATOM     56  C   UNL A   1      41.350  30.692  36.177  1.00  0.00     0.031 C 
ATOM     57  C   UNL A   1      43.642  27.164  31.769  1.00  0.00     0.029 A 
ATOM     58  C   UNL A   1      42.836  28.063  32.451  1.00  0.00     0.049 A 
ATOM     59  H   UNL A   1      41.121  29.079  31.765  1.00  0.00     0.167 HD
ATOM     60  C   UNL A   1      42.148  29.417  34.435  1.00  0.00     0.074 A 
ATOM     61  C   UNL A   1      42.335  29.895  35.792  1.00  0.00     0.031 C 
ATOM     62  C   UNL A   1      42.977  28.540  33.811  1.00  0.00     0.034 A 
BRANCH  49  63
ATOM     63  C   UNL A   1      41.373  27.111  27.965  1.00  0.00     0.023 A 
ATOM     64  C   UNL A   1      41.041  25.742  27.963  1.00  0.00     0.031 A 
ATOM     65  C   UNL A   1      41.892  27.651  26.776  1.00  0.00     0.131 A 
ATOM     66  C   UNL A   1      41.290  24.952  26.831  1.00  0.00     0.055 A 
ATOM     67  C   UNL A   1      42.064  26.877  25.624  1.00  0.00     0.041 A 
ATOM     68  F   UNL A   1      42.250  28.944  26.709  1.00  0.00    -0.206 F 
ATOM     69  C   UNL A   1      41.775  25.515  25.650  1.00  0.00     0.022 A 
BRANCH  66  70
ATOM     70  S   UNL A   1      41.095  23.153  26.969  1.00  0.00     0.124 S 
ATOM     71  O   UNL A   1      41.662  22.894  28.290  1.00  0.00    -0.237 OA
ATOM     72  O   UNL A   1      39.652  22.981  26.850  1.00  0.00    -0.237 OA
ATOM     73  O   UNL A   1      41.880  22.634  25.851  1.00  0.00    -0.744 OA
ENDBRANCH  66  70
ENDBRANCH  49  63
BRANCH  50  74
ATOM     74  C   UNL A   1      38.961  32.441  36.196  1.00  0.00     0.023 A 
ATOM     75  C   UNL A   1      38.152  31.819  37.159  1.00  0.00     0.031 A 
ATOM     76  C   UNL A   1      39.391  33.756  36.444  1.00  0.00     0.131 A 
ATOM     77  C   UNL A   1      37.749  32.528  38.298  1.00  0.00     0.055 A 
ATOM     78  C   UNL A   1      39.036  34.438  37.609  1.00  0.00     0.041 A 
ATOM     79  F   UNL A   1      40.195  34.383  35.570  1.00  0.00    -0.206 F 
ATOM     80  C   UNL A   1      38.196  33.828  38.537  1.00  0.00     0.022 A 
BRANCH  77  81
ATOM     81  S   UNL A   1      36.554  31.750  39.417  1.00  0.00     0.124 S 
ATOM     82  O   UNL A   1      36.477  30.397  38.876  1.00  0.00    -0.237 OA
ATOM     83  O   UNL A   1      37.217  31.885  40.711  1.00  0.00    -0.237 OA
ATOM     84  O   UNL A   1      35.351  32.560  39.246  1.00  0.00    -0.744 OA
ENDBRANCH  77  81
ENDBRANCH  50  74
BRANCH  62  85
ATOM     85  C   UNL A   1      44.170  28.072  34.602  1.00  0.00     0.023 A 
ATOM     86  C   UNL A   1      44.118  26.912  35.392  1.00  0.00     0.031 A 
ATOM     87  C   UNL A   1      45.363  28.814  34.586  1.00  0.00     0.131 A 
ATOM     88  C   UNL A   1      45.215  26.567  36.192  1.00  0.00     0.055 A 
ATOM     89  C   UNL A   1      46.479  28.420  35.322  1.00  0.00     0.041 A 
ATOM     90  F   UNL A   1      45.463  29.935  33.852  1.00  0.00    -0.206 F 
ATOM     91  C   UNL A   1      46.403  27.300  36.144  1.00  0.00     0.022 A 
BRANCH  88  92
ATOM     92  S   UNL A   1      45.022  25.218  37.386  1.00  0.00     0.124 S 
ATOM     93  O   UNL A   1      45.331  25.884  38.646  1.00  0.00    -0.237 OA
ATOM     94  O   UNL A   1      43.628  24.828  37.196  1.00  0.00    -0.237 OA
ATOM     95  O   UNL A   1      46.007  24.231  36.949  1.00  0.00    -0.744 OA
ENDBRANCH  88  92
ENDBRANCH  62  85
ENDBRANCH  36  37
ENDBRANCH  28  31
ENDBRANCH  26  27
ENDBRANCH   1  26
TORSDOF 15
ENDMDL
MODEL 2
REMARK VINA RESULT:     -13.6      5.439     11.147
REMARK SMILES C[N@H+]1CCO[C@H](c2noc(-c3ccccc3C(=O)NCCCNC(=O)c3ccc(-c4c5nc(c(-c6cc(S(=O)(=O)[O-])ccc6F)c6ccc([nH]6)c(-c6cc(S(=O)(=O)[O-])ccc6F)c6nc(c(-c7cc(S(=O)(=O)[O-])ccc7F)c7ccc4[nH]7)C=C6)C=C5)cc3)n2)C1
REMARK SMILES IDX 21 1 20 2 19 3 17 4 18 5 16 7 11 8 12 9 13 10 15 11 14 12
REMARK SMILES IDX 10 13 7 14 8 15 89 16 9 17 6 18 1 19 2 20 3 21 90 22 4 24
REMARK SMILES IDX 5 25 22 26 23 27 24 28 25 30 26 31 27 32 88 33 28 34 87 35
REMARK SMILES IDX 29 36 30 37 31 38 81 39 32 40 86 41 80 42 82 43 33 44 85 45
REMARK SMILES IDX 79 46 78 47 34 49 66 50 46 51 65 52 47 53 50 54 64 55 83 56
REMARK SMILES IDX 48 57 49 58 63 60 84 61 51 62 35 63 36 64 44 65 37 66 43 67
REMARK SMILES IDX 45 68 42 69 38 70 39 71 40 72 41 73 67 74 68 75 76 76 69 77
REMARK SMILES IDX 75 78 77 79 74 80 70 81 71 82 72 83 73 84 52 85 53 86 61 87
REMARK SMILES IDX 54 88 60 89 62 90 59 91 55 92 56 93 57 94 58 95
REMARK H PARENT 19 6 2 23 23 29 82 48 50 59
REMARK Flexibility Score: inf
ROOT
ATOM      1  C   UNL A   1      37.712  21.589  25.232  1.00  0.00     0.042 C 
ENDROOT
BRANCH   1   2
ATOM      2  C   UNL A   1      36.321  22.134  25.025  1.00  0.00     0.118 C 
BRANCH   2   3
ATOM      3  N   UNL A   1      35.487  21.493  25.994  1.00  0.00    -0.352 N 
ATOM      4  C   UNL A   1      34.215  21.023  25.938  1.00  0.00     0.252 C 
ATOM      5  O   UNL A   1      33.661  20.963  27.043  1.00  0.00    -0.269 OA
ATOM      6  H   UNL A   1      35.917  21.369  26.870  1.00  0.00     0.163 HD
BRANCH   4   7
ATOM      7  C   UNL A   1      33.508  20.439  24.750  1.00  0.00     0.052 A 
ATOM      8  C   UNL A   1      32.795  20.998  23.661  1.00  0.00     0.053 A 
ATOM      9  C   UNL A   1      32.189  20.104  22.737  1.00  0.00     0.015 A 
ATOM     10  C   UNL A   1      32.233  18.716  22.888  1.00  0.00     0.001 A 
ATOM     11  C   UNL A   1      33.535  19.019  24.863  1.00  0.00     0.014 A 
ATOM     12  C   UNL A   1      32.900  18.169  23.966  1.00  0.00     0.001 A 
BRANCH   8  13
ATOM     13  C   UNL A   1      32.492  22.408  23.417  1.00  0.00     0.258 A 
ATOM     14  C   UNL A   1      32.357  24.504  23.217  1.00  0.00     0.206 A 
ATOM     15  N   UNL A   1      31.077  24.106  23.149  1.00  0.00    -0.059 NA
ATOM     16  N   UNL A   1      33.259  23.455  23.196  1.00  0.00    -0.189 NA
ATOM     17  O   UNL A   1      31.161  22.716  23.296  1.00  0.00    -0.334 OA
BRANCH  14  18
ATOM     18  C   UNL A   1      32.745  25.949  23.457  1.00  0.00     0.245 C 
ATOM     19  C   UNL A   1      32.982  28.418  27.104  1.00  0.00     0.332 C 
ATOM     20  N   UNL A   1      32.098  27.889  26.064  1.00  0.00    -0.333 N 
ATOM     21  C   UNL A   1      31.664  29.241  24.919  1.00  0.00     0.290 C 
ATOM     22  C   UNL A   1      32.801  26.343  25.356  1.00  0.00     0.303 C 
ATOM     23  H   UNL A   1      31.199  27.573  26.428  1.00  0.00     0.348 HD
ATOM     24  C   UNL A   1      31.418  28.947  23.015  1.00  0.00     0.222 C 
ATOM     25  O   UNL A   1      31.905  27.207  22.343  1.00  0.00    -0.358 OA
ENDBRANCH  14  18
ENDBRANCH   8  13
ENDBRANCH   4   7
ENDBRANCH   2   3
ENDBRANCH   1   2
BRANCH   1  26
ATOM     26  C   UNL A   1      37.769  20.103  25.037  1.00  0.00     0.118 C 
BRANCH  26  27
ATOM     27  N   UNL A   1      39.203  19.314  25.333  1.00  0.00    -0.352 N 
ATOM     28  C   UNL A   1      40.938  19.688  26.017  1.00  0.00     0.251 C 
ATOM     29  H   UNL A   1      39.132  18.366  25.078  1.00  0.00     0.163 HD
ATOM     30  O   UNL A   1      41.819  18.826  26.184  1.00  0.00    -0.269 OA
BRANCH  28  31
ATOM     31  C   UNL A   1      41.668  21.190  26.499  1.00  0.00     0.039 A 
ATOM     32  C   UNL A   1      41.887  21.366  27.882  1.00  0.00     0.014 A 
ATOM     33  C   UNL A   1      41.881  22.364  25.708  1.00  0.00     0.014 A 
ATOM     34  C   UNL A   1      42.191  22.638  28.423  1.00  0.00     0.010 A 
ATOM     35  C   UNL A   1      42.076  23.618  26.234  1.00  0.00     0.010 A 
ATOM     36  C   UNL A   1      42.241  23.766  27.597  1.00  0.00    -0.014 A 
BRANCH  36  37
ATOM     37  C   UNL A   1      42.711  25.110  27.965  1.00  0.00     0.031 A 
ATOM     38  C   UNL A   1      41.748  26.163  28.430  1.00  0.00     0.074 A 
ATOM     39  C   UNL A   1      43.917  25.434  27.458  1.00  0.00     0.049 A 
ATOM     40  N   UNL A   1      41.969  27.427  28.671  1.00  0.00    -0.248 NA
ATOM     41  C   UNL A   1      40.342  25.757  28.592  1.00  0.00     0.031 C 
ATOM     42  C   UNL A   1      44.790  24.498  26.733  1.00  0.00     0.029 A 
ATOM     43  N   UNL A   1      44.572  26.626  27.380  1.00  0.00    -0.354 N 
ATOM     44  C   UNL A   1      40.745  27.962  29.058  1.00  0.00     0.074 A 
ATOM     45  C   UNL A   1      39.766  26.903  28.934  1.00  0.00     0.031 C 
ATOM     46  C   UNL A   1      45.866  25.156  26.287  1.00  0.00     0.029 A 
ATOM     47  C   UNL A   1      45.764  26.547  26.700  1.00  0.00     0.049 A 
ATOM     48  H   UNL A   1      44.227  27.461  27.772  1.00  0.00     0.167 HD
ATOM     49  C   UNL A   1      40.491  29.220  29.501  1.00  0.00     0.034 A 
ATOM     50  C   UNL A   1      46.683  27.497  26.464  1.00  0.00     0.034 A 
ATOM     51  C   UNL A   1      41.506  30.249  29.523  1.00  0.00     0.049 A 
ATOM     52  C   UNL A   1      46.420  28.861  27.033  1.00  0.00     0.074 A 
ATOM     53  C   UNL A   1      41.441  31.527  30.046  1.00  0.00     0.029 A 
ATOM     54  N   UNL A   1      42.772  30.118  28.955  1.00  0.00    -0.354 N 
ATOM     55  N   UNL A   1      45.334  29.312  27.619  1.00  0.00    -0.248 NA
ATOM     56  C   UNL A   1      47.517  29.826  26.954  1.00  0.00     0.031 C 
ATOM     57  C   UNL A   1      42.633  32.189  29.728  1.00  0.00     0.029 A 
ATOM     58  C   UNL A   1      43.481  31.300  29.086  1.00  0.00     0.049 A 
ATOM     59  H   UNL A   1      43.114  29.301  28.523  1.00  0.00     0.167 HD
ATOM     60  C   UNL A   1      45.629  30.610  28.012  1.00  0.00     0.074 A 
ATOM     61  C   UNL A   1      47.002  30.855  27.611  1.00  0.00     0.031 C 
ATOM     62  C   UNL A   1      44.844  31.518  28.648  1.00  0.00     0.034 A 
BRANCH  49  63
ATOM     63  C   UNL A   1      39.097  29.536  30.002  1.00  0.00     0.023 A 
ATOM     64  C   UNL A   1      38.193  30.278  29.218  1.00  0.00     0.031 A 
ATOM     65  C   UNL A   1      38.646  29.082  31.253  1.00  0.00     0.131 A 
ATOM     66  C   UNL A   1      36.921  30.600  29.713  1.00  0.00     0.055 A 
ATOM     67  C   UNL A   1      37.349  29.338  31.710  1.00  0.00     0.041 A 
ATOM     68  F   UNL A   1      39.459  28.385  32.064  1.00  0.00    -0.206 F 
ATOM     69  C   UNL A   1      36.481  30.113  30.944  1.00  0.00     0.022 A 
BRANCH  66  70
ATOM     70  S   UNL A   1      35.899  31.776  28.782  1.00  0.00     0.124 S 
ATOM     71  O   UNL A   1      34.801  32.017  29.714  1.00  0.00    -0.237 OA
ATOM     72  O   UNL A   1      36.814  32.891  28.571  1.00  0.00    -0.237 OA
ATOM     73  O   UNL A   1      35.531  31.034  27.577  1.00  0.00    -0.744 OA
ENDBRANCH  66  70
ENDBRANCH  49  63
BRANCH  50  74
ATOM     74  C   UNL A   1      47.952  27.146  25.776  1.00  0.00     0.023 A 
ATOM     75  C   UNL A   1      48.105  27.398  24.405  1.00  0.00     0.031 A 
ATOM     76  C   UNL A   1      49.041  26.592  26.471  1.00  0.00     0.131 A 
ATOM     77  C   UNL A   1      49.297  27.046  23.757  1.00  0.00     0.055 A 
ATOM     78  C   UNL A   1      50.247  26.298  25.834  1.00  0.00     0.041 A 
ATOM     79  F   UNL A   1      48.956  26.363  27.792  1.00  0.00    -0.206 F 
ATOM     80  C   UNL A   1      50.375  26.511  24.464  1.00  0.00     0.022 A 
BRANCH  77  81
ATOM     81  S   UNL A   1      49.379  27.218  21.954  1.00  0.00     0.124 S 
ATOM     82  O   UNL A   1      48.724  28.504  21.747  1.00  0.00    -0.237 OA
ATOM     83  O   UNL A   1      50.818  27.185  21.712  1.00  0.00    -0.237 OA
ATOM     84  O   UNL A   1      48.640  26.055  21.469  1.00  0.00    -0.744 OA
ENDBRANCH  77  81
ENDBRANCH  50  74
BRANCH  62  85
ATOM     85  C   UNL A   1      45.481  32.846  28.962  1.00  0.00     0.023 A 
ATOM     86  C   UNL A   1      45.350  33.945  28.098  1.00  0.00     0.031 A 
ATOM     87  C   UNL A   1      46.252  33.002  30.127  1.00  0.00     0.131 A 
ATOM     88  C   UNL A   1      46.041  35.133  28.375  1.00  0.00     0.055 A 
ATOM     89  C   UNL A   1      46.871  34.212  30.437  1.00  0.00     0.041 A 
ATOM     90  F   UNL A   1      46.415  31.979  30.982  1.00  0.00    -0.206 F 
ATOM     91  C   UNL A   1      46.782  35.280  29.550  1.00  0.00     0.022 A 
BRANCH  88  92
ATOM     92  S   UNL A   1      46.057  36.436  27.116  1.00  0.00     0.124 S 
ATOM     93  O   UNL A   1      46.582  35.726  25.955  1.00  0.00    -0.237 OA
ATOM     94  O   UNL A   1      44.650  36.820  27.045  1.00  0.00    -0.237 OA
ATOM     95  O   UNL A   1      46.948  37.446  27.681  1.00  0.00    -0.744 OA
ENDBRANCH  88  92
ENDBRANCH  62  85
ENDBRANCH  36  37
ENDBRANCH  28  31
ENDBRANCH  26  27
ENDBRANCH   1  26
TORSDOF 15
ENDMDL
MODEL 3
REMARK VINA RESULT:     -13.4      1.232      1.607
REMARK SMILES C[N@H+]1CCO[C@H](c2noc(-c3ccccc3C(=O)NCCCNC(=O)c3ccc(-c4c5nc(c(-c6cc(S(=O)(=O)[O-])ccc6F)c6ccc([nH]6)c(-c6cc(S(=O)(=O)[O-])ccc6F)c6nc(c(-c7cc(S(=O)(=O)[O-])ccc7F)c7ccc4[nH]7)C=C6)C=C5)cc3)n2)C1
REMARK SMILES IDX 21 1 20 2 19 3 17 4 18 5 16 7 11 8 12 9 13 10 15 11 14 12
REMARK SMILES IDX 10 13 7 14 8 15 89 16 9 17 6 18 1 19 2 20 3 21 90 22 4 24
REMARK SMILES IDX 5 25 22 26 23 27 24 28 25 30 26 31 27 32 88 33 28 34 87 35
REMARK SMILES IDX 29 36 30 37 31 38 81 39 32 40 86 41 80 42 82 43 33 44 85 45
REMARK SMILES IDX 79 46 78 47 34 49 66 50 46 51 65 52 47 53 50 54 64 55 83 56
REMARK SMILES IDX 48 57 49 58 63 60 84 61 51 62 35 63 36 64 44 65 37 66 43 67
REMARK SMILES IDX 45 68 42 69 38 70 39 71 40 72 41 73 67 74 68 75 76 76 69 77
REMARK SMILES IDX 75 78 77 79 74 80 70 81 71 82 72 83 73 84 52 85 53 86 61 87
REMARK SMILES IDX 54 88 60 89 62 90 59 91 55 92 56 93 57 94 58 95
REMARK H PARENT 19 6 2 23 23 29 82 48 50 59
REMARK Flexibility Score: inf
ROOT
ATOM      1  C   UNL A   1      32.485  30.261  27.086  1.00  0.00     0.042 C 
ENDROOT
BRANCH   1   2
ATOM      2  C   UNL A   1      33.412  29.628  26.078  1.00  0.00     0.118 C 
BRANCH   2   3
ATOM      3  N   UNL A   1      33.085  28.236  26.045  1.00  0.00    -0.352 N 
ATOM      4  C   UNL A   1      32.041  27.554  25.507  1.00  0.00     0.252 C 
ATOM      5  O   UNL A   1      31.835  26.461  26.047  1.00  0.00    -0.269 OA
ATOM      6  H   UNL A   1      33.743  27.662  26.498  1.00  0.00     0.163 HD
BRANCH   4   7
ATOM      7  C   UNL A   1      31.262  27.902  24.273  1.00  0.00     0.052 A 
ATOM      8  C   UNL A   1      31.155  27.320  22.985  1.00  0.00     0.053 A 
ATOM      9  C   UNL A   1      30.346  27.983  22.023  1.00  0.00     0.015 A 
ATOM     10  C   UNL A   1      29.699  29.194  22.285  1.00  0.00     0.001 A 
ATOM     11  C   UNL A   1      30.579  29.131  24.500  1.00  0.00     0.014 A 
ATOM     12  C   UNL A   1      29.827  29.778  23.529  1.00  0.00     0.001 A 
BRANCH   8  13
ATOM     13  C   UNL A   1      31.878  26.160  22.462  1.00  0.00     0.258 A 
ATOM     14  C   UNL A   1      32.920  24.377  22.034  1.00  0.00     0.206 A 
ATOM     15  N   UNL A   1      33.256  25.181  21.012  1.00  0.00    -0.059 NA
ATOM     16  N   UNL A   1      31.925  24.900  22.841  1.00  0.00    -0.189 NA
ATOM     17  O   UNL A   1      32.577  26.372  21.301  1.00  0.00    -0.334 OA
BRANCH  14  18
ATOM     18  C   UNL A   1      33.682  23.105  22.347  1.00  0.00     0.245 C 
ATOM     19  C   UNL A   1      32.683  19.526  24.723  1.00  0.00     0.332 C 
ATOM     20  N   UNL A   1      33.180  20.902  24.771  1.00  0.00    -0.333 N 
ATOM     21  C   UNL A   1      34.978  20.867  25.077  1.00  0.00     0.290 C 
ATOM     22  C   UNL A   1      32.564  21.852  23.320  1.00  0.00     0.303 C 
ATOM     23  H   UNL A   1      32.805  21.435  25.556  1.00  0.00     0.348 HD
ATOM     24  C   UNL A   1      36.189  22.166  24.291  1.00  0.00     0.222 C 
ATOM     25  O   UNL A   1      35.440  23.346  22.963  1.00  0.00    -0.358 OA
ENDBRANCH  14  18
ENDBRANCH   8  13
ENDBRANCH   4   7
ENDBRANCH   2   3
ENDBRANCH   1   2
BRANCH   1  26
ATOM     26  C   UNL A   1      31.685  31.381  26.490  1.00  0.00     0.118 C 
BRANCH  26  27
ATOM     27  N   UNL A   1      31.840  32.904  27.139  1.00  0.00    -0.352 N 
ATOM     28  C   UNL A   1      33.060  33.897  28.208  1.00  0.00     0.251 C 
ATOM     29  H   UNL A   1      31.065  33.461  26.896  1.00  0.00     0.163 HD
ATOM     30  O   UNL A   1      32.919  35.102  28.484  1.00  0.00    -0.269 OA
BRANCH  28  31
ATOM     31  C   UNL A   1      34.518  33.407  29.018  1.00  0.00     0.039 A 
ATOM     32  C   UNL A   1      35.725  33.933  28.511  1.00  0.00     0.014 A 
ATOM     33  C   UNL A   1      34.682  32.374  29.995  1.00  0.00     0.014 A 
ATOM     34  C   UNL A   1      36.978  33.390  28.882  1.00  0.00     0.010 A 
ATOM     35  C   UNL A   1      35.885  31.775  30.283  1.00  0.00     0.010 A 
ATOM     36  C   UNL A   1      37.046  32.283  29.735  1.00  0.00    -0.014 A 
BRANCH  36  37
ATOM     37  C   UNL A   1      38.255  31.716  30.352  1.00  0.00     0.031 A 
ATOM     38  C   UNL A   1      38.963  30.548  29.728  1.00  0.00     0.074 A 
ATOM     39  C   UNL A   1      38.403  32.014  31.657  1.00  0.00     0.049 A 
ATOM     40  N   UNL A   1      39.958  29.847  30.198  1.00  0.00    -0.248 NA
ATOM     41  C   UNL A   1      38.449  30.069  28.433  1.00  0.00     0.031 C 
ATOM     42  C   UNL A   1      37.544  32.951  32.397  1.00  0.00     0.029 A 
ATOM     43  N   UNL A   1      39.238  31.508  32.608  1.00  0.00    -0.354 N 
ATOM     44  C   UNL A   1      40.226  28.873  29.242  1.00  0.00     0.074 A 
ATOM     45  C   UNL A   1      39.228  29.020  28.204  1.00  0.00     0.031 C 
ATOM     46  C   UNL A   1      37.902  32.951  33.686  1.00  0.00     0.029 A 
ATOM     47  C   UNL A   1      39.012  32.028  33.860  1.00  0.00     0.049 A 
ATOM     48  H   UNL A   1      39.933  30.837  32.418  1.00  0.00     0.167 HD
ATOM     49  C   UNL A   1      41.237  27.968  29.239  1.00  0.00     0.034 A 
ATOM     50  C   UNL A   1      39.657  31.798  35.015  1.00  0.00     0.034 A 
ATOM     51  C   UNL A   1      42.150  27.828  30.351  1.00  0.00     0.049 A 
ATOM     52  C   UNL A   1      40.824  30.855  34.972  1.00  0.00     0.074 A 
ATOM     53  C   UNL A   1      43.287  27.048  30.453  1.00  0.00     0.029 A 
ATOM     54  N   UNL A   1      41.999  28.470  31.578  1.00  0.00    -0.354 N 
ATOM     55  N   UNL A   1      41.229  30.094  33.980  1.00  0.00    -0.248 NA
ATOM     56  C   UNL A   1      41.646  30.774  36.180  1.00  0.00     0.031 C 
ATOM     57  C   UNL A   1      43.775  27.158  31.760  1.00  0.00     0.029 A 
ATOM     58  C   UNL A   1      42.999  28.077  32.451  1.00  0.00     0.049 A 
ATOM     59  H   UNL A   1      41.283  29.110  31.795  1.00  0.00     0.167 HD
ATOM     60  C   UNL A   1      42.381  29.465  34.434  1.00  0.00     0.074 A 
ATOM     61  C   UNL A   1      42.609  29.957  35.780  1.00  0.00     0.031 C 
ATOM     62  C   UNL A   1      43.181  28.568  33.801  1.00  0.00     0.034 A 
BRANCH  49  63
ATOM     63  C   UNL A   1      41.411  27.093  28.015  1.00  0.00     0.023 A 
ATOM     64  C   UNL A   1      41.005  25.745  28.020  1.00  0.00     0.031 A 
ATOM     65  C   UNL A   1      41.962  27.597  26.824  1.00  0.00     0.131 A 
ATOM     66  C   UNL A   1      41.214  24.935  26.894  1.00  0.00     0.055 A 
ATOM     67  C   UNL A   1      42.095  26.808  25.677  1.00  0.00     0.041 A 
ATOM     68  F   UNL A   1      42.389  28.868  26.750  1.00  0.00    -0.206 F 
ATOM     69  C   UNL A   1      41.732  25.464  25.711  1.00  0.00     0.022 A 
BRANCH  66  70
ATOM     70  S   UNL A   1      40.921  23.150  27.042  1.00  0.00     0.124 S 
ATOM     71  O   UNL A   1      41.474  22.868  28.364  1.00  0.00    -0.237 OA
ATOM     72  O   UNL A   1      39.471  23.057  26.923  1.00  0.00    -0.237 OA
ATOM     73  O   UNL A   1      41.677  22.583  25.926  1.00  0.00    -0.744 OA
ENDBRANCH  66  70
ENDBRANCH  49  63
BRANCH  50  74
ATOM     74  C   UNL A   1      39.285  32.558  36.236  1.00  0.00     0.023 A 
ATOM     75  C   UNL A   1      38.413  31.996  37.180  1.00  0.00     0.031 A 
ATOM     76  C   UNL A   1      39.816  33.832  36.503  1.00  0.00     0.131 A 
ATOM     77  C   UNL A   1      38.050  32.726  38.320  1.00  0.00     0.055 A 
ATOM     78  C   UNL A   1      39.498  34.531  37.669  1.00  0.00     0.041 A 
ATOM     79  F   UNL A   1      40.682  34.400  35.648  1.00  0.00    -0.206 F 
ATOM     80  C   UNL A   1      38.597  33.984  38.578  1.00  0.00     0.022 A 
BRANCH  77  81
ATOM     81  S   UNL A   1      36.778  32.038  39.412  1.00  0.00     0.124 S 
ATOM     82  O   UNL A   1      35.556  32.568  38.818  1.00  0.00    -0.237 OA
ATOM     83  O   UNL A   1      36.994  30.602  39.262  1.00  0.00    -0.237 OA
ATOM     84  O   UNL A   1      37.123  32.586  40.722  1.00  0.00    -0.744 OA
ENDBRANCH  77  81
ENDBRANCH  50  74
BRANCH  62  85
ATOM     85  C   UNL A   1      44.386  28.092  34.568  1.00  0.00     0.023 A 
ATOM     86  C   UNL A   1      44.326  26.967  35.407  1.00  0.00     0.031 A 
ATOM     87  C   UNL A   1      45.602  28.791  34.479  1.00  0.00     0.131 A 
ATOM     88  C   UNL A   1      45.439  26.617  36.181  1.00  0.00     0.055 A 
ATOM     89  C   UNL A   1      46.731  28.389  35.191  1.00  0.00     0.041 A 
ATOM     90  F   UNL A   1      45.711  29.878  33.696  1.00  0.00    -0.206 F 
ATOM     91  C   UNL A   1      46.648  27.306  36.061  1.00  0.00     0.022 A 
BRANCH  88  92
ATOM     92  S   UNL A   1      45.246  25.324  37.436  1.00  0.00     0.124 S 
ATOM     93  O   UNL A   1      44.241  25.909  38.318  1.00  0.00    -0.237 OA
ATOM     94  O   UNL A   1      44.809  24.180  36.643  1.00  0.00    -0.237 OA
ATOM     95  O   UNL A   1      46.584  25.205  38.013  1.00  0.00    -0.744 OA
ENDBRANCH  88  92
ENDBRANCH  62  85
ENDBRANCH  36  37
ENDBRANCH  28  31
ENDBRANCH  26  27
ENDBRANCH   1  26
TORSDOF 15
ENDMDL
