MODEL 1
REMARK VINA RESULT:     -11.2      0.000      0.000
REMARK SMILES O=C(COCCNC(=O)Nc1cccc(F)c1)NCCCNC(=O)c1ccc(-c2c3nc(c(-c4cc(S(=O)(=O)[O-])ccc4F)c4ccc([nH]4)c(-c4cc(S(=O)(=O)[O-])ccc4F)c4nc(c(-c5cc(S(=O)(=O)[O-])ccc5F)c5ccc2[nH]5)C=C4)C=C3)cc1
REMARK SMILES IDX 19 1 18 2 1 3 2 4 3 6 4 7 5 8 6 9 7 10 8 11 9 13 10 14 11 16
REMARK SMILES IDX 12 17 17 18 13 19 15 20 14 21 16 22 20 23 21 24 22 25 23 26
REMARK SMILES IDX 24 28 25 29 26 30 87 31 27 32 86 33 28 34 29 35 30 36 80 37
REMARK SMILES IDX 31 38 85 39 79 40 81 41 32 42 84 43 78 44 77 45 33 47 65 48
REMARK SMILES IDX 45 49 64 50 46 51 49 52 63 53 82 54 47 55 48 56 62 58 83 59
REMARK SMILES IDX 50 60 34 61 35 62 43 63 36 64 42 65 44 66 41 67 37 68 38 69
REMARK SMILES IDX 39 70 40 71 66 72 67 73 75 74 68 75 74 76 76 77 73 78 69 79
REMARK SMILES IDX 70 80 71 81 72 82 51 83 52 84 60 85 53 86 59 87 61 88 58 89
REMARK SMILES IDX 54 90 55 91 56 92 57 93
REMARK H PARENT 18 5 7 12 10 15 22 27 81 46 49 57
REMARK Flexibility Score: inf
ROOT
ATOM      1  C   UNL A   1      31.148  28.061  24.341  1.00  0.00     0.117 C 
ENDROOT
BRANCH   1   2
ATOM      2  N   UNL A   1      30.823  26.700  24.697  1.00  0.00    -0.354 N 
ATOM      3  O   UNL A   1      31.048  26.964  26.973  1.00  0.00    -0.272 OA
ATOM      4  C   UNL A   1      30.768  26.268  26.006  1.00  0.00     0.245 C 
ATOM      5  H   UNL A   1      30.636  26.054  23.978  1.00  0.00     0.163 HD
BRANCH   4   6
ATOM      6  C   UNL A   1      30.327  24.808  26.131  1.00  0.00     0.260 C 
BRANCH   6   7
ATOM      7  O   UNL A   1      30.849  24.104  27.250  1.00  0.00    -0.370 OA
BRANCH   7   8
ATOM      8  C   UNL A   1      31.849  23.130  26.944  1.00  0.00     0.182 C 
BRANCH   8   9
ATOM      9  C   UNL A   1      31.617  22.371  25.638  1.00  0.00     0.146 C 
BRANCH   9  10
ATOM     10  N   UNL A   1      31.773  20.920  25.704  1.00  0.00    -0.336 N 
ATOM     11  C   UNL A   1      32.682  20.036  25.243  1.00  0.00     0.319 C 
ATOM     12  H   UNL A   1      31.044  20.483  26.202  1.00  0.00     0.165 HD
ATOM     13  O   UNL A   1      32.405  18.837  25.311  1.00  0.00    -0.249 OA
ATOM     14  N   UNL A   1      33.825  20.398  24.627  1.00  0.00    -0.308 N 
ATOM     15  H   UNL A   1      34.184  19.718  24.011  1.00  0.00     0.171 HD
BRANCH  14  16
ATOM     16  C   UNL A   1      34.594  21.561  24.704  1.00  0.00     0.045 A 
ATOM     17  C   UNL A   1      35.553  21.760  25.703  1.00  0.00     0.026 A 
ATOM     18  C   UNL A   1      34.360  22.555  23.755  1.00  0.00     0.065 A 
ATOM     19  C   UNL A   1      36.145  23.014  25.862  1.00  0.00     0.005 A 
ATOM     20  C   UNL A   1      34.952  23.799  23.926  1.00  0.00     0.125 A 
ATOM     21  C   UNL A   1      35.816  24.047  24.988  1.00  0.00     0.039 A 
ATOM     22  F   UNL A   1      34.646  24.792  23.082  1.00  0.00    -0.207 F 
ENDBRANCH  14  16
ENDBRANCH   9  10
ENDBRANCH   8   9
ENDBRANCH   7   8
ENDBRANCH   6   7
ENDBRANCH   4   6
ENDBRANCH   1   2
BRANCH   1  23
ATOM     23  C   UNL A   1      32.617  28.223  23.980  1.00  0.00     0.042 C 
BRANCH  23  24
ATOM     24  C   UNL A   1      33.427  28.990  25.018  1.00  0.00     0.118 C 
BRANCH  24  25
ATOM     25  N   UNL A   1      32.759  30.196  25.483  1.00  0.00    -0.352 N 
ATOM     26  C   UNL A   1      33.004  30.963  26.596  1.00  0.00     0.251 C 
ATOM     27  H   UNL A   1      32.019  30.510  24.915  1.00  0.00     0.163 HD
ATOM     28  O   UNL A   1      32.219  31.860  26.888  1.00  0.00    -0.269 OA
BRANCH  26  29
ATOM     29  C   UNL A   1      34.184  30.695  27.450  1.00  0.00     0.039 A 
ATOM     30  C   UNL A   1      34.335  29.420  28.002  1.00  0.00     0.014 A 
ATOM     31  C   UNL A   1      35.123  31.691  27.731  1.00  0.00     0.014 A 
ATOM     32  C   UNL A   1      35.451  29.133  28.791  1.00  0.00     0.010 A 
ATOM     33  C   UNL A   1      36.274  31.382  28.454  1.00  0.00     0.010 A 
ATOM     34  C   UNL A   1      36.445  30.103  29.003  1.00  0.00    -0.014 A 
BRANCH  34  35
ATOM     35  C   UNL A   1      37.646  29.801  29.825  1.00  0.00     0.031 A 
ATOM     36  C   UNL A   1      38.731  28.914  29.274  1.00  0.00     0.074 A 
ATOM     37  C   UNL A   1      37.753  30.304  31.071  1.00  0.00     0.049 A 
ATOM     38  N   UNL A   1      39.827  28.495  29.851  1.00  0.00    -0.248 NA
ATOM     39  C   UNL A   1      38.549  28.414  27.901  1.00  0.00     0.031 C 
ATOM     40  C   UNL A   1      36.758  31.155  31.726  1.00  0.00     0.029 A 
ATOM     41  N   UNL A   1      38.748  30.177  32.008  1.00  0.00    -0.354 N 
ATOM     42  C   UNL A   1      40.458  27.677  28.920  1.00  0.00     0.074 A 
ATOM     43  C   UNL A   1      39.595  27.613  27.760  1.00  0.00     0.031 C 
ATOM     44  C   UNL A   1      37.211  31.507  32.940  1.00  0.00     0.029 A 
ATOM     45  C   UNL A   1      38.504  30.870  33.172  1.00  0.00     0.049 A 
ATOM     46  H   UNL A   1      39.560  29.639  31.862  1.00  0.00     0.167 HD
ATOM     47  C   UNL A   1      41.660  27.058  29.011  1.00  0.00     0.034 A 
ATOM     48  C   UNL A   1      39.235  30.976  34.301  1.00  0.00     0.034 A 
ATOM     49  C   UNL A   1      42.528  27.155  30.156  1.00  0.00     0.049 A 
ATOM     50  C   UNL A   1      40.551  30.252  34.392  1.00  0.00     0.074 A 
ATOM     51  C   UNL A   1      43.791  26.616  30.322  1.00  0.00     0.029 A 
ATOM     52  N   UNL A   1      42.227  27.835  31.328  1.00  0.00    -0.354 N 
ATOM     53  N   UNL A   1      41.139  29.497  33.494  1.00  0.00    -0.248 NA
ATOM     54  C   UNL A   1      41.301  30.386  35.649  1.00  0.00     0.031 C 
ATOM     55  C   UNL A   1      44.229  26.916  31.615  1.00  0.00     0.029 A 
ATOM     56  C   UNL A   1      43.267  27.700  32.233  1.00  0.00     0.049 A 
ATOM     57  H   UNL A   1      41.398  28.339  31.491  1.00  0.00     0.167 HD
ATOM     58  C   UNL A   1      42.334  29.078  34.072  1.00  0.00     0.074 A 
ATOM     59  C   UNL A   1      42.389  29.672  35.392  1.00  0.00     0.031 C 
ATOM     60  C   UNL A   1      43.299  28.280  33.553  1.00  0.00     0.034 A 
BRANCH  47  61
ATOM     61  C   UNL A   1      42.106  26.216  27.845  1.00  0.00     0.023 A 
ATOM     62  C   UNL A   1      41.731  24.868  27.727  1.00  0.00     0.031 A 
ATOM     63  C   UNL A   1      42.894  26.777  26.825  1.00  0.00     0.131 A 
ATOM     64  C   UNL A   1      42.181  24.111  26.635  1.00  0.00     0.055 A 
ATOM     65  C   UNL A   1      43.285  26.036  25.708  1.00  0.00     0.041 A 
ATOM     66  F   UNL A   1      43.294  28.057  26.898  1.00  0.00    -0.206 F 
ATOM     67  C   UNL A   1      42.934  24.693  25.613  1.00  0.00     0.022 A 
BRANCH  64  68
ATOM     68  S   UNL A   1      41.834  22.333  26.609  1.00  0.00     0.124 S 
ATOM     69  O   UNL A   1      42.471  21.890  27.847  1.00  0.00    -0.237 OA
ATOM     70  O   UNL A   1      40.375  22.293  26.592  1.00  0.00    -0.237 OA
ATOM     71  O   UNL A   1      42.483  21.875  25.382  1.00  0.00    -0.744 OA
ENDBRANCH  64  68
ENDBRANCH  47  61
BRANCH  48  72
ATOM     72  C   UNL A   1      38.731  31.794  35.439  1.00  0.00     0.023 A 
ATOM     73  C   UNL A   1      38.141  31.187  36.558  1.00  0.00     0.031 A 
ATOM     74  C   UNL A   1      38.839  33.195  35.423  1.00  0.00     0.131 A 
ATOM     75  C   UNL A   1      37.662  31.982  37.611  1.00  0.00     0.055 A 
ATOM     76  C   UNL A   1      38.396  33.980  36.490  1.00  0.00     0.041 A 
ATOM     77  F   UNL A   1      39.403  33.820  34.378  1.00  0.00    -0.206 F 
ATOM     78  C   UNL A   1      37.798  33.374  37.590  1.00  0.00     0.022 A 
BRANCH  75  79
ATOM     79  S   UNL A   1      36.832  31.175  39.007  1.00  0.00     0.124 S 
ATOM     80  O   UNL A   1      36.654  29.818  38.501  1.00  0.00    -0.237 OA
ATOM     81  O   UNL A   1      37.807  31.339  40.079  1.00  0.00    -0.237 OA
ATOM     82  O   UNL A   1      35.603  31.949  39.165  1.00  0.00    -0.744 OA
ENDBRANCH  75  79
ENDBRANCH  48  72
BRANCH  60  83
ATOM     83  C   UNL A   1      44.508  28.005  34.404  1.00  0.00     0.023 A 
ATOM     84  C   UNL A   1      44.565  26.888  35.254  1.00  0.00     0.031 A 
ATOM     85  C   UNL A   1      45.642  28.831  34.312  1.00  0.00     0.131 A 
ATOM     86  C   UNL A   1      45.728  26.636  35.995  1.00  0.00     0.055 A 
ATOM     87  C   UNL A   1      46.812  28.552  35.018  1.00  0.00     0.041 A 
ATOM     88  F   UNL A   1      45.638  29.908  33.509  1.00  0.00    -0.206 F 
ATOM     89  C   UNL A   1      46.858  27.450  35.868  1.00  0.00     0.022 A 
BRANCH  86  90
ATOM     90  S   UNL A   1      45.744  25.237  37.148  1.00  0.00     0.124 S 
ATOM     91  O   UNL A   1      47.168  25.096  37.432  1.00  0.00    -0.237 OA
ATOM     92  O   UNL A   1      44.920  25.726  38.249  1.00  0.00    -0.237 OA
ATOM     93  O   UNL A   1      45.155  24.147  36.372  1.00  0.00    -0.744 OA
ENDBRANCH  86  90
ENDBRANCH  60  83
ENDBRANCH  34  35
ENDBRANCH  26  29
ENDBRANCH  24  25
ENDBRANCH  23  24
ENDBRANCH   1  23
TORSDOF 18
ENDMDL
MODEL 2
REMARK VINA RESULT:     -10.9      4.156     10.215
REMARK SMILES O=C(COCCNC(=O)Nc1cccc(F)c1)NCCCNC(=O)c1ccc(-c2c3nc(c(-c4cc(S(=O)(=O)[O-])ccc4F)c4ccc([nH]4)c(-c4cc(S(=O)(=O)[O-])ccc4F)c4nc(c(-c5cc(S(=O)(=O)[O-])ccc5F)c5ccc2[nH]5)C=C4)C=C3)cc1
REMARK SMILES IDX 19 1 18 2 1 3 2 4 3 6 4 7 5 8 6 9 7 10 8 11 9 13 10 14 11 16
REMARK SMILES IDX 12 17 17 18 13 19 15 20 14 21 16 22 20 23 21 24 22 25 23 26
REMARK SMILES IDX 24 28 25 29 26 30 87 31 27 32 86 33 28 34 29 35 30 36 80 37
REMARK SMILES IDX 31 38 85 39 79 40 81 41 32 42 84 43 78 44 77 45 33 47 65 48
REMARK SMILES IDX 45 49 64 50 46 51 49 52 63 53 82 54 47 55 48 56 62 58 83 59
REMARK SMILES IDX 50 60 34 61 35 62 43 63 36 64 42 65 44 66 41 67 37 68 38 69
REMARK SMILES IDX 39 70 40 71 66 72 67 73 75 74 68 75 74 76 76 77 73 78 69 79
REMARK SMILES IDX 70 80 71 81 72 82 51 83 52 84 60 85 53 86 59 87 61 88 58 89
REMARK SMILES IDX 54 90 55 91 56 92 57 93
REMARK H PARENT 18 5 7 12 10 15 22 27 81 46 49 57
REMARK Flexibility Score: inf
ROOT
ATOM      1  C   UNL A   1      34.779  35.375  28.381  1.00  0.00     0.117 C 
ENDROOT
BRANCH   1   2
ATOM      2  N   UNL A   1      34.198  35.498  29.698  1.00  0.00    -0.354 N 
ATOM      3  O   UNL A   1      32.215  36.453  29.021  1.00  0.00    -0.272 OA
ATOM      4  C   UNL A   1      32.932  36.005  29.906  1.00  0.00     0.245 C 
ATOM      5  H   UNL A   1      34.727  35.212  30.477  1.00  0.00     0.163 HD
BRANCH   4   6
ATOM      6  C   UNL A   1      32.510  35.962  31.376  1.00  0.00     0.260 C 
BRANCH   6   7
ATOM      7  O   UNL A   1      33.124  36.929  32.219  1.00  0.00    -0.370 OA
BRANCH   7   8
ATOM      8  C   UNL A   1      34.268  36.469  32.940  1.00  0.00     0.182 C 
BRANCH   8   9
ATOM      9  C   UNL A   1      34.197  35.008  33.378  1.00  0.00     0.146 C 
BRANCH   9  10
ATOM     10  N   UNL A   1      34.901  34.675  34.616  1.00  0.00    -0.336 N 
ATOM     11  C   UNL A   1      35.895  33.828  34.949  1.00  0.00     0.319 C 
ATOM     12  H   UNL A   1      34.571  35.191  35.388  1.00  0.00     0.165 HD
ATOM     13  O   UNL A   1      36.124  33.651  36.147  1.00  0.00    -0.249 OA
ATOM     14  N   UNL A   1      36.581  33.095  34.048  1.00  0.00    -0.308 N 
ATOM     15  H   UNL A   1      36.970  32.268  34.415  1.00  0.00     0.171 HD
BRANCH  14  16
ATOM     16  C   UNL A   1      36.841  33.296  32.692  1.00  0.00     0.045 A 
ATOM     17  C   UNL A   1      36.148  32.610  31.688  1.00  0.00     0.026 A 
ATOM     18  C   UNL A   1      37.849  34.195  32.352  1.00  0.00     0.065 A 
ATOM     19  C   UNL A   1      36.581  32.688  30.363  1.00  0.00     0.005 A 
ATOM     20  C   UNL A   1      38.274  34.261  31.032  1.00  0.00     0.125 A 
ATOM     21  C   UNL A   1      37.671  33.493  30.041  1.00  0.00     0.039 A 
ATOM     22  F   UNL A   1      39.315  35.041  30.716  1.00  0.00    -0.207 F 
ENDBRANCH  14  16
ENDBRANCH   9  10
ENDBRANCH   8   9
ENDBRANCH   7   8
ENDBRANCH   6   7
ENDBRANCH   4   6
ENDBRANCH   1   2
BRANCH   1  23
ATOM     23  C   UNL A   1      34.233  34.172  27.626  1.00  0.00     0.042 C 
BRANCH  23  24
ATOM     24  C   UNL A   1      34.412  32.848  28.361  1.00  0.00     0.118 C 
BRANCH  24  25
ATOM     25  N   UNL A   1      33.696  31.748  27.733  1.00  0.00    -0.352 N 
ATOM     26  C   UNL A   1      34.105  30.460  27.486  1.00  0.00     0.251 C 
ATOM     27  H   UNL A   1      32.780  31.958  27.441  1.00  0.00     0.163 HD
ATOM     28  O   UNL A   1      33.396  29.729  26.803  1.00  0.00    -0.269 OA
BRANCH  26  29
ATOM     29  C   UNL A   1      35.399  29.967  28.013  1.00  0.00     0.039 A 
ATOM     30  C   UNL A   1      36.545  30.128  27.231  1.00  0.00     0.014 A 
ATOM     31  C   UNL A   1      35.486  29.328  29.253  1.00  0.00     0.014 A 
ATOM     32  C   UNL A   1      37.782  29.694  27.713  1.00  0.00     0.010 A 
ATOM     33  C   UNL A   1      36.730  28.966  29.765  1.00  0.00     0.010 A 
ATOM     34  C   UNL A   1      37.891  29.133  28.996  1.00  0.00    -0.014 A 
BRANCH  34  35
ATOM     35  C   UNL A   1      39.205  28.686  29.527  1.00  0.00     0.031 A 
ATOM     36  C   UNL A   1      39.780  29.337  30.758  1.00  0.00     0.074 A 
ATOM     37  C   UNL A   1      39.893  27.715  28.894  1.00  0.00     0.049 A 
ATOM     38  N   UNL A   1      40.929  29.124  31.344  1.00  0.00    -0.248 NA
ATOM     39  C   UNL A   1      38.964  30.381  31.401  1.00  0.00     0.031 C 
ATOM     40  C   UNL A   1      39.454  27.025  27.679  1.00  0.00     0.029 A 
ATOM     41  N   UNL A   1      41.103  27.136  29.184  1.00  0.00    -0.354 N 
ATOM     42  C   UNL A   1      40.979  30.010  32.415  1.00  0.00     0.074 A 
ATOM     43  C   UNL A   1      39.770  30.802  32.365  1.00  0.00     0.031 C 
ATOM     44  C   UNL A   1      40.361  26.090  27.353  1.00  0.00     0.029 A 
ATOM     45  C   UNL A   1      41.467  26.142  28.304  1.00  0.00     0.049 A 
ATOM     46  H   UNL A   1      41.659  27.406  29.951  1.00  0.00     0.167 HD
ATOM     47  C   UNL A   1      41.932  30.132  33.370  1.00  0.00     0.034 A 
ATOM     48  C   UNL A   1      42.570  25.367  28.262  1.00  0.00     0.034 A 
ATOM     49  C   UNL A   1      43.116  29.315  33.433  1.00  0.00     0.049 A 
ATOM     50  C   UNL A   1      43.631  25.545  29.314  1.00  0.00     0.074 A 
ATOM     51  C   UNL A   1      44.112  29.320  34.394  1.00  0.00     0.029 A 
ATOM     52  N   UNL A   1      43.466  28.348  32.501  1.00  0.00    -0.354 N 
ATOM     53  N   UNL A   1      43.653  26.377  30.329  1.00  0.00    -0.248 NA
ATOM     54  C   UNL A   1      44.820  24.687  29.214  1.00  0.00     0.031 C 
ATOM     55  C   UNL A   1      45.093  28.401  34.012  1.00  0.00     0.029 A 
ATOM     56  C   UNL A   1      44.679  27.775  32.847  1.00  0.00     0.049 A 
ATOM     57  H   UNL A   1      42.931  28.105  31.711  1.00  0.00     0.167 HD
ATOM     58  C   UNL A   1      44.849  26.132  30.996  1.00  0.00     0.074 A 
ATOM     59  C   UNL A   1      45.519  25.069  30.275  1.00  0.00     0.031 C 
ATOM     60  C   UNL A   1      45.344  26.730  32.108  1.00  0.00     0.034 A 
BRANCH  47  61
ATOM     61  C   UNL A   1      41.738  31.191  34.424  1.00  0.00     0.023 A 
ATOM     62  C   UNL A   1      42.173  32.512  34.225  1.00  0.00     0.031 A 
ATOM     63  C   UNL A   1      41.087  30.881  35.630  1.00  0.00     0.131 A 
ATOM     64  C   UNL A   1      41.990  33.466  35.236  1.00  0.00     0.055 A 
ATOM     65  C   UNL A   1      40.850  31.851  36.606  1.00  0.00     0.041 A 
ATOM     66  F   UNL A   1      40.667  29.630  35.877  1.00  0.00    -0.206 F 
ATOM     67  C   UNL A   1      41.309  33.151  36.414  1.00  0.00     0.022 A 
BRANCH  64  68
ATOM     68  S   UNL A   1      42.725  35.109  35.023  1.00  0.00     0.124 S 
ATOM     69  O   UNL A   1      41.678  35.805  34.279  1.00  0.00    -0.237 OA
ATOM     70  O   UNL A   1      42.929  35.548  36.399  1.00  0.00    -0.237 OA
ATOM     71  O   UNL A   1      43.947  34.843  34.267  1.00  0.00    -0.744 OA
ENDBRANCH  64  68
ENDBRANCH  47  61
BRANCH  48  72
ATOM     72  C   UNL A   1      42.728  24.358  27.178  1.00  0.00     0.023 A 
ATOM     73  C   UNL A   1      42.117  23.099  27.268  1.00  0.00     0.031 A 
ATOM     74  C   UNL A   1      43.492  24.645  26.032  1.00  0.00     0.131 A 
ATOM     75  C   UNL A   1      42.294  22.161  26.239  1.00  0.00     0.055 A 
ATOM     76  C   UNL A   1      43.634  23.724  24.993  1.00  0.00     0.041 A 
ATOM     77  F   UNL A   1      44.089  25.838  25.897  1.00  0.00    -0.206 F 
ATOM     78  C   UNL A   1      43.038  22.471  25.095  1.00  0.00     0.022 A 
BRANCH  75  79
ATOM     79  S   UNL A   1      41.558  20.514  26.421  1.00  0.00     0.124 S 
ATOM     80  O   UNL A   1      40.145  20.795  26.192  1.00  0.00    -0.237 OA
ATOM     81  O   UNL A   1      42.241  19.756  25.378  1.00  0.00    -0.237 OA
ATOM     82  O   UNL A   1      41.906  20.135  27.789  1.00  0.00    -0.744 OA
ENDBRANCH  75  79
ENDBRANCH  48  72
BRANCH  60  83
ATOM     83  C   UNL A   1      46.669  26.246  32.629  1.00  0.00     0.023 A 
ATOM     84  C   UNL A   1      46.749  25.204  33.567  1.00  0.00     0.031 A 
ATOM     85  C   UNL A   1      47.867  26.788  32.129  1.00  0.00     0.131 A 
ATOM     86  C   UNL A   1      48.004  24.746  33.993  1.00  0.00     0.055 A 
ATOM     87  C   UNL A   1      49.113  26.299  32.524  1.00  0.00     0.041 A 
ATOM     88  F   UNL A   1      47.842  27.782  31.227  1.00  0.00    -0.206 F 
ATOM     89  C   UNL A   1      49.186  25.274  33.463  1.00  0.00     0.022 A 
BRANCH  86  90
ATOM     90  S   UNL A   1      48.078  23.459  35.268  1.00  0.00     0.124 S 
ATOM     91  O   UNL A   1      49.517  23.280  35.432  1.00  0.00    -0.237 OA
ATOM     92  O   UNL A   1      47.382  24.084  36.388  1.00  0.00    -0.237 OA
ATOM     93  O   UNL A   1      47.378  22.331  34.657  1.00  0.00    -0.744 OA
ENDBRANCH  86  90
ENDBRANCH  60  83
ENDBRANCH  34  35
ENDBRANCH  26  29
ENDBRANCH  24  25
ENDBRANCH  23  24
ENDBRANCH   1  23
TORSDOF 18
ENDMDL
MODEL 3
REMARK VINA RESULT:     -10.8      4.296      7.293
REMARK SMILES O=C(COCCNC(=O)Nc1cccc(F)c1)NCCCNC(=O)c1ccc(-c2c3nc(c(-c4cc(S(=O)(=O)[O-])ccc4F)c4ccc([nH]4)c(-c4cc(S(=O)(=O)[O-])ccc4F)c4nc(c(-c5cc(S(=O)(=O)[O-])ccc5F)c5ccc2[nH]5)C=C4)C=C3)cc1
REMARK SMILES IDX 19 1 18 2 1 3 2 4 3 6 4 7 5 8 6 9 7 10 8 11 9 13 10 14 11 16
REMARK SMILES IDX 12 17 17 18 13 19 15 20 14 21 16 22 20 23 21 24 22 25 23 26
REMARK SMILES IDX 24 28 25 29 26 30 87 31 27 32 86 33 28 34 29 35 30 36 80 37
REMARK SMILES IDX 31 38 85 39 79 40 81 41 32 42 84 43 78 44 77 45 33 47 65 48
REMARK SMILES IDX 45 49 64 50 46 51 49 52 63 53 82 54 47 55 48 56 62 58 83 59
REMARK SMILES IDX 50 60 34 61 35 62 43 63 36 64 42 65 44 66 41 67 37 68 38 69
REMARK SMILES IDX 39 70 40 71 66 72 67 73 75 74 68 75 74 76 76 77 73 78 69 79
REMARK SMILES IDX 70 80 71 81 72 82 51 83 52 84 60 85 53 86 59 87 61 88 58 89
REMARK SMILES IDX 54 90 55 91 56 92 57 93
REMARK H PARENT 18 5 7 12 10 15 22 27 81 46 49 57
REMARK Flexibility Score: inf
ROOT
ATOM      1  C   UNL A   1      34.622  35.039  28.399  1.00  0.00     0.117 C 
ENDROOT
BRANCH   1   2
ATOM      2  N   UNL A   1      34.137  35.473  29.687  1.00  0.00    -0.354 N 
ATOM      3  O   UNL A   1      32.227  36.502  28.915  1.00  0.00    -0.272 OA
ATOM      4  C   UNL A   1      32.945  36.150  29.842  1.00  0.00     0.245 C 
ATOM      5  H   UNL A   1      34.678  35.280  30.486  1.00  0.00     0.163 HD
BRANCH   4   6
ATOM      6  C   UNL A   1      32.609  36.433  31.308  1.00  0.00     0.260 C 
BRANCH   6   7
ATOM      7  O   UNL A   1      33.650  37.026  32.073  1.00  0.00    -0.370 OA
BRANCH   7   8
ATOM      8  C   UNL A   1      34.034  36.304  33.244  1.00  0.00     0.182 C 
BRANCH   8   9
ATOM      9  C   UNL A   1      35.215  35.356  33.045  1.00  0.00     0.146 C 
BRANCH   9  10
ATOM     10  N   UNL A   1      35.717  34.696  34.249  1.00  0.00    -0.336 N 
ATOM     11  C   UNL A   1      36.504  33.629  34.494  1.00  0.00     0.319 C 
ATOM     12  H   UNL A   1      35.408  35.133  35.076  1.00  0.00     0.165 HD
ATOM     13  O   UNL A   1      36.574  33.219  35.654  1.00  0.00    -0.249 OA
ATOM     14  N   UNL A   1      37.138  32.935  33.527  1.00  0.00    -0.308 N 
ATOM     15  H   UNL A   1      37.333  31.999  33.766  1.00  0.00     0.171 HD
BRANCH  14  16
ATOM     16  C   UNL A   1      37.566  33.299  32.250  1.00  0.00     0.045 A 
ATOM     17  C   UNL A   1      36.929  32.847  31.089  1.00  0.00     0.026 A 
ATOM     18  C   UNL A   1      38.687  34.121  32.154  1.00  0.00     0.065 A 
ATOM     19  C   UNL A   1      37.515  33.067  29.840  1.00  0.00     0.005 A 
ATOM     20  C   UNL A   1      39.263  34.330  30.908  1.00  0.00     0.125 A 
ATOM     21  C   UNL A   1      38.706  33.784  29.755  1.00  0.00     0.039 A 
ATOM     22  F   UNL A   1      40.402  35.028  30.820  1.00  0.00    -0.207 F 
ENDBRANCH  14  16
ENDBRANCH   9  10
ENDBRANCH   8   9
ENDBRANCH   7   8
ENDBRANCH   6   7
ENDBRANCH   4   6
ENDBRANCH   1   2
BRANCH   1  23
ATOM     23  C   UNL A   1      33.947  33.757  27.935  1.00  0.00     0.042 C 
BRANCH  23  24
ATOM     24  C   UNL A   1      34.525  32.493  28.562  1.00  0.00     0.118 C 
BRANCH  24  25
ATOM     25  N   UNL A   1      33.919  31.274  28.048  1.00  0.00    -0.352 N 
ATOM     26  C   UNL A   1      34.482  30.044  27.813  1.00  0.00     0.251 C 
ATOM     27  H   UNL A   1      32.959  31.341  27.838  1.00  0.00     0.163 HD
ATOM     28  O   UNL A   1      33.825  29.188  27.229  1.00  0.00    -0.269 OA
BRANCH  26  29
ATOM     29  C   UNL A   1      35.874  29.760  28.232  1.00  0.00     0.039 A 
ATOM     30  C   UNL A   1      36.099  29.287  29.527  1.00  0.00     0.014 A 
ATOM     31  C   UNL A   1      36.954  29.981  27.373  1.00  0.00     0.014 A 
ATOM     32  C   UNL A   1      37.399  28.988  29.941  1.00  0.00     0.010 A 
ATOM     33  C   UNL A   1      38.240  29.610  27.760  1.00  0.00     0.010 A 
ATOM     34  C   UNL A   1      38.480  29.122  29.053  1.00  0.00    -0.014 A 
BRANCH  34  35
ATOM     35  C   UNL A   1      39.865  28.787  29.477  1.00  0.00     0.031 A 
ATOM     36  C   UNL A   1      40.581  27.619  28.852  1.00  0.00     0.074 A 
ATOM     37  C   UNL A   1      40.470  29.516  30.436  1.00  0.00     0.049 A 
ATOM     38  N   UNL A   1      41.767  27.139  29.121  1.00  0.00    -0.248 NA
ATOM     39  C   UNL A   1      39.860  26.879  27.803  1.00  0.00     0.031 C 
ATOM     40  C   UNL A   1      39.871  30.656  31.134  1.00  0.00     0.029 A 
ATOM     41  N   UNL A   1      41.723  29.412  30.987  1.00  0.00    -0.354 N 
ATOM     42  C   UNL A   1      41.930  26.039  28.285  1.00  0.00     0.074 A 
ATOM     43  C   UNL A   1      40.700  25.889  27.540  1.00  0.00     0.031 C 
ATOM     44  C   UNL A   1      40.771  31.169  31.988  1.00  0.00     0.029 A 
ATOM     45  C   UNL A   1      41.992  30.370  31.937  1.00  0.00     0.049 A 
ATOM     46  H   UNL A   1      42.369  28.716  30.726  1.00  0.00     0.167 HD
ATOM     47  C   UNL A   1      43.017  25.245  28.132  1.00  0.00     0.034 A 
ATOM     48  C   UNL A   1      43.093  30.579  32.687  1.00  0.00     0.034 A 
ATOM     49  C   UNL A   1      44.251  25.423  28.853  1.00  0.00     0.049 A 
ATOM     50  C   UNL A   1      44.275  29.662  32.524  1.00  0.00     0.074 A 
ATOM     51  C   UNL A   1      45.429  24.709  28.726  1.00  0.00     0.029 A 
ATOM     52  N   UNL A   1      44.468  26.381  29.834  1.00  0.00    -0.354 N 
ATOM     53  N   UNL A   1      44.416  28.637  31.716  1.00  0.00    -0.248 NA
ATOM     54  C   UNL A   1      45.444  29.922  33.376  1.00  0.00     0.031 C 
ATOM     55  C   UNL A   1      46.338  25.193  29.671  1.00  0.00     0.029 A 
ATOM     56  C   UNL A   1      45.750  26.253  30.342  1.00  0.00     0.049 A 
ATOM     57  H   UNL A   1      43.809  27.051  30.124  1.00  0.00     0.167 HD
ATOM     58  C   UNL A   1      45.695  28.140  31.952  1.00  0.00     0.074 A 
ATOM     59  C   UNL A   1      46.288  28.981  32.971  1.00  0.00     0.031 C 
ATOM     60  C   UNL A   1      46.320  27.086  31.373  1.00  0.00     0.034 A 
BRANCH  47  61
ATOM     61  C   UNL A   1      42.921  24.106  27.151  1.00  0.00     0.023 A 
ATOM     62  C   UNL A   1      42.229  22.924  27.464  1.00  0.00     0.031 A 
ATOM     63  C   UNL A   1      43.505  24.215  25.878  1.00  0.00     0.131 A 
ATOM     64  C   UNL A   1      42.176  21.879  26.531  1.00  0.00     0.055 A 
ATOM     65  C   UNL A   1      43.393  23.196  24.930  1.00  0.00     0.041 A 
ATOM     66  F   UNL A   1      44.192  25.316  25.534  1.00  0.00    -0.206 F 
ATOM     67  C   UNL A   1      42.731  22.017  25.257  1.00  0.00     0.022 A 
BRANCH  64  68
ATOM     68  S   UNL A   1      41.437  20.302  27.034  1.00  0.00     0.124 S 
ATOM     69  O   UNL A   1      40.733  20.684  28.256  1.00  0.00    -0.237 OA
ATOM     70  O   UNL A   1      40.595  19.966  25.891  1.00  0.00    -0.237 OA
ATOM     71  O   UNL A   1      42.593  19.430  27.234  1.00  0.00    -0.744 OA
ENDBRANCH  64  68
ENDBRANCH  47  61
BRANCH  48  72
ATOM     72  C   UNL A   1      43.123  31.699  33.668  1.00  0.00     0.023 A 
ATOM     73  C   UNL A   1      42.690  31.514  34.990  1.00  0.00     0.031 A 
ATOM     74  C   UNL A   1      43.594  32.971  33.296  1.00  0.00     0.131 A 
ATOM     75  C   UNL A   1      42.716  32.590  35.890  1.00  0.00     0.055 A 
ATOM     76  C   UNL A   1      43.655  34.028  34.205  1.00  0.00     0.041 A 
ATOM     77  F   UNL A   1      44.027  33.194  32.046  1.00  0.00    -0.206 F 
ATOM     78  C   UNL A   1      43.208  33.842  35.510  1.00  0.00     0.022 A 
BRANCH  75  79
ATOM     79  S   UNL A   1      42.073  32.341  37.568  1.00  0.00     0.124 S 
ATOM     80  O   UNL A   1      42.825  33.338  38.323  1.00  0.00    -0.237 OA
ATOM     81  O   UNL A   1      40.649  32.605  37.393  1.00  0.00    -0.237 OA
ATOM     82  O   UNL A   1      42.413  30.950  37.859  1.00  0.00    -0.744 OA
ENDBRANCH  75  79
ENDBRANCH  48  72
BRANCH  60  83
ATOM     83  C   UNL A   1      47.726  26.782  31.813  1.00  0.00     0.023 A 
ATOM     84  C   UNL A   1      47.986  25.870  32.849  1.00  0.00     0.031 A 
ATOM     85  C   UNL A   1      48.819  27.359  31.143  1.00  0.00     0.131 A 
ATOM     86  C   UNL A   1      49.311  25.574  33.200  1.00  0.00     0.055 A 
ATOM     87  C   UNL A   1      50.135  27.028  31.467  1.00  0.00     0.041 A 
ATOM     88  F   UNL A   1      48.622  28.233  30.142  1.00  0.00    -0.206 F 
ATOM     89  C   UNL A   1      50.386  26.133  32.502  1.00  0.00     0.022 A 
BRANCH  86  90
ATOM     90  S   UNL A   1      49.617  24.458  34.596  1.00  0.00     0.124 S 
ATOM     91  O   UNL A   1      51.075  24.407  34.627  1.00  0.00    -0.237 OA
ATOM     92  O   UNL A   1      48.981  25.161  35.706  1.00  0.00    -0.237 OA
ATOM     93  O   UNL A   1      48.960  23.216  34.193  1.00  0.00    -0.744 OA
ENDBRANCH  86  90
ENDBRANCH  60  83
ENDBRANCH  34  35
ENDBRANCH  26  29
ENDBRANCH  24  25
ENDBRANCH  23  24
ENDBRANCH   1  23
TORSDOF 18
ENDMDL
