MODEL 1
REMARK VINA RESULT:     -10.8      0.000      0.000
REMARK SMILES CC(C)[C@H](NC(N)=O)C(=O)N[C@H](C)C(=O)NCCCNC(=O)c1ccc(-c2c3nc(c(-c4cc(S(=O)(=O)[O-])ccc4F)c4ccc([nH]4)c(-c4cc(S(=O)(=O)[O-])ccc4F)c4nc(c(-c5cc(S(=O)(=O)[O-])ccc5F)c5ccc2[nH]5)C=C4)C=C3)cc1
REMARK SMILES IDX 18 1 17 2 16 3 14 4 15 5 12 7 13 8 11 9 9 10 10 11 4 13 2 14
REMARK SMILES IDX 1 15 3 16 5 17 6 18 7 20 8 21 19 24 20 25 21 26 22 28 23 29
REMARK SMILES IDX 24 30 85 31 25 32 84 33 26 34 27 35 28 36 78 37 29 38 83 39
REMARK SMILES IDX 77 40 79 41 30 42 82 43 76 44 75 45 31 47 63 48 43 49 62 50
REMARK SMILES IDX 44 51 47 52 61 53 80 54 45 55 46 56 60 58 81 59 48 60 32 61
REMARK SMILES IDX 33 62 41 63 34 64 40 65 42 66 39 67 35 68 36 69 37 70 38 71
REMARK SMILES IDX 64 72 65 73 73 74 66 75 72 76 74 77 71 78 67 79 68 80 69 81
REMARK SMILES IDX 70 82 49 83 50 84 58 85 51 86 57 87 59 88 56 89 52 90 53 91
REMARK SMILES IDX 54 92 55 93
REMARK H PARENT 16 6 11 12 5 19 7 22 7 23 20 27 79 46 47 57
REMARK Flexibility Score: inf
ROOT
ATOM      1  C   UNL A   1      32.564  27.607  27.070  1.00  0.00     0.042 C 
ENDROOT
BRANCH   1   2
ATOM      2  C   UNL A   1      31.964  26.703  25.998  1.00  0.00     0.117 C 
BRANCH   2   3
ATOM      3  N   UNL A   1      31.097  25.656  26.520  1.00  0.00    -0.354 N 
ATOM      4  C   UNL A   1      31.301  24.315  26.688  1.00  0.00     0.242 C 
ATOM      5  O   UNL A   1      30.385  23.650  27.180  1.00  0.00    -0.273 OA
ATOM      6  H   UNL A   1      30.206  25.970  26.803  1.00  0.00     0.163 HD
BRANCH   4   7
ATOM      7  C   UNL A   1      32.576  23.617  26.154  1.00  0.00     0.168 C 
ATOM      8  C   UNL A   1      33.068  22.693  27.257  1.00  0.00     0.041 C 
BRANCH   7   9
ATOM      9  N   UNL A   1      32.302  23.041  24.831  1.00  0.00    -0.343 N 
ATOM     10  C   UNL A   1      32.874  23.122  23.601  1.00  0.00     0.243 C 
ATOM     11  O   UNL A   1      32.288  22.532  22.686  1.00  0.00    -0.273 OA
ATOM     12  H   UNL A   1      31.511  22.454  24.837  1.00  0.00     0.164 HD
BRANCH  10  13
ATOM     13  C   UNL A   1      34.232  23.802  23.342  1.00  0.00     0.175 C 
BRANCH  13  14
ATOM     14  C   UNL A   1      35.407  23.190  24.157  1.00  0.00     0.015 C 
ATOM     15  C   UNL A   1      36.610  22.734  23.318  1.00  0.00     0.010 C 
ATOM     16  C   UNL A   1      35.941  24.208  25.179  1.00  0.00     0.010 C 
ENDBRANCH  13  14
BRANCH  13  17
ATOM     17  N   UNL A   1      33.985  25.246  23.456  1.00  0.00    -0.326 N 
ATOM     18  C   UNL A   1      33.631  26.109  22.470  1.00  0.00     0.312 C 
ATOM     19  H   UNL A   1      34.090  25.635  24.354  1.00  0.00     0.166 HD
ATOM     20  N   UNL A   1      33.568  27.390  22.913  1.00  0.00    -0.352 N 
ATOM     21  O   UNL A   1      33.446  25.845  21.298  1.00  0.00    -0.249 OA
ATOM     22  H   UNL A   1      33.720  27.590  23.865  1.00  0.00     0.161 HD
ATOM     23  H   UNL A   1      33.369  28.120  22.282  1.00  0.00     0.161 HD
ENDBRANCH  13  17
ENDBRANCH  10  13
ENDBRANCH   7   9
ENDBRANCH   4   7
ENDBRANCH   2   3
ENDBRANCH   1   2
BRANCH   1  24
ATOM     24  C   UNL A   1      33.763  28.425  26.610  1.00  0.00     0.118 C 
BRANCH  24  25
ATOM     25  N   UNL A   1      33.608  29.844  26.888  1.00  0.00    -0.352 N 
ATOM     26  C   UNL A   1      34.370  30.688  27.657  1.00  0.00     0.251 C 
ATOM     27  H   UNL A   1      32.832  30.267  26.455  1.00  0.00     0.163 HD
ATOM     28  O   UNL A   1      33.932  31.804  27.921  1.00  0.00    -0.269 OA
BRANCH  26  29
ATOM     29  C   UNL A   1      35.689  30.262  28.177  1.00  0.00     0.039 A 
ATOM     30  C   UNL A   1      35.755  29.684  29.448  1.00  0.00     0.014 A 
ATOM     31  C   UNL A   1      36.862  30.458  27.442  1.00  0.00     0.014 A 
ATOM     32  C   UNL A   1      36.983  29.251  29.953  1.00  0.00     0.010 A 
ATOM     33  C   UNL A   1      38.070  29.948  27.909  1.00  0.00     0.010 A 
ATOM     34  C   UNL A   1      38.146  29.344  29.172  1.00  0.00    -0.014 A 
BRANCH  34  35
ATOM     35  C   UNL A   1      39.446  28.814  29.662  1.00  0.00     0.031 A 
ATOM     36  C   UNL A   1      40.180  29.509  30.776  1.00  0.00     0.074 A 
ATOM     37  C   UNL A   1      39.994  27.740  29.059  1.00  0.00     0.049 A 
ATOM     38  N   UNL A   1      41.351  29.239  31.292  1.00  0.00    -0.248 NA
ATOM     39  C   UNL A   1      39.520  30.684  31.365  1.00  0.00     0.031 C 
ATOM     40  C   UNL A   1      39.397  27.006  27.941  1.00  0.00     0.029 A 
ATOM     41  N   UNL A   1      41.176  27.084  29.292  1.00  0.00    -0.354 N 
ATOM     42  C   UNL A   1      41.577  30.217  32.257  1.00  0.00     0.074 A 
ATOM     43  C   UNL A   1      40.448  31.121  32.203  1.00  0.00     0.031 C 
ATOM     44  C   UNL A   1      40.203  25.987  27.605  1.00  0.00     0.029 A 
ATOM     45  C   UNL A   1      41.397  26.025  28.442  1.00  0.00     0.049 A 
ATOM     46  H   UNL A   1      41.807  27.345  30.001  1.00  0.00     0.167 HD
ATOM     47  C   UNL A   1      42.616  30.334  33.120  1.00  0.00     0.034 A 
ATOM     48  C   UNL A   1      42.449  25.190  28.333  1.00  0.00     0.034 A 
ATOM     49  C   UNL A   1      43.732  29.419  33.156  1.00  0.00     0.049 A 
ATOM     50  C   UNL A   1      43.612  25.358  29.276  1.00  0.00     0.074 A 
ATOM     51  C   UNL A   1      44.808  29.405  34.026  1.00  0.00     0.029 A 
ATOM     52  N   UNL A   1      43.928  28.364  32.272  1.00  0.00    -0.354 N 
ATOM     53  N   UNL A   1      43.783  26.251  30.225  1.00  0.00    -0.248 NA
ATOM     54  C   UNL A   1      44.717  24.402  29.142  1.00  0.00     0.031 C 
ATOM     55  C   UNL A   1      45.694  28.403  33.616  1.00  0.00     0.029 A 
ATOM     56  C   UNL A   1      45.129  27.724  32.548  1.00  0.00     0.049 A 
ATOM     57  H   UNL A   1      43.305  28.108  31.554  1.00  0.00     0.167 HD
ATOM     58  C   UNL A   1      45.005  25.947  30.817  1.00  0.00     0.074 A 
ATOM     59  C   UNL A   1      45.518  24.778  30.129  1.00  0.00     0.031 C 
ATOM     60  C   UNL A   1      45.642  26.572  31.841  1.00  0.00     0.034 A 
BRANCH  47  61
ATOM     61  C   UNL A   1      42.606  31.517  34.065  1.00  0.00     0.023 A 
ATOM     62  C   UNL A   1      41.991  31.451  35.328  1.00  0.00     0.031 A 
ATOM     63  C   UNL A   1      43.180  32.742  33.680  1.00  0.00     0.131 A 
ATOM     64  C   UNL A   1      41.879  32.607  36.115  1.00  0.00     0.055 A 
ATOM     65  C   UNL A   1      43.150  33.864  34.511  1.00  0.00     0.041 A 
ATOM     66  F   UNL A   1      43.762  32.878  32.478  1.00  0.00    -0.206 F 
ATOM     67  C   UNL A   1      42.478  33.807  35.728  1.00  0.00     0.022 A 
BRANCH  64  68
ATOM     68  S   UNL A   1      40.784  32.564  37.561  1.00  0.00     0.124 S 
ATOM     69  O   UNL A   1      40.574  33.989  37.815  1.00  0.00    -0.237 OA
ATOM     70  O   UNL A   1      39.630  31.827  37.061  1.00  0.00    -0.237 OA
ATOM     71  O   UNL A   1      41.579  31.871  38.574  1.00  0.00    -0.744 OA
ENDBRANCH  64  68
ENDBRANCH  47  61
BRANCH  48  72
ATOM     72  C   UNL A   1      42.458  24.133  27.282  1.00  0.00     0.023 A 
ATOM     73  C   UNL A   1      41.756  22.930  27.453  1.00  0.00     0.031 A 
ATOM     74  C   UNL A   1      43.184  24.309  26.089  1.00  0.00     0.131 A 
ATOM     75  C   UNL A   1      41.821  21.935  26.465  1.00  0.00     0.055 A 
ATOM     76  C   UNL A   1      43.201  23.339  25.085  1.00  0.00     0.041 A 
ATOM     77  F   UNL A   1      43.869  25.442  25.873  1.00  0.00    -0.206 F 
ATOM     78  C   UNL A   1      42.525  22.139  25.274  1.00  0.00     0.022 A 
BRANCH  75  79
ATOM     79  S   UNL A   1      41.026  20.337  26.784  1.00  0.00     0.124 S 
ATOM     80  O   UNL A   1      42.039  19.401  26.309  1.00  0.00    -0.237 OA
ATOM     81  O   UNL A   1      40.822  20.382  28.228  1.00  0.00    -0.237 OA
ATOM     82  O   UNL A   1      39.805  20.398  25.983  1.00  0.00    -0.744 OA
ENDBRANCH  75  79
ENDBRANCH  48  72
BRANCH  60  83
ATOM     83  C   UNL A   1      46.951  25.976  32.303  1.00  0.00     0.023 A 
ATOM     84  C   UNL A   1      48.164  26.235  31.638  1.00  0.00     0.031 A 
ATOM     85  C   UNL A   1      46.984  25.127  33.425  1.00  0.00     0.131 A 
ATOM     86  C   UNL A   1      49.344  25.608  32.065  1.00  0.00     0.055 A 
ATOM     87  C   UNL A   1      48.173  24.561  33.886  1.00  0.00     0.041 A 
ATOM     88  F   UNL A   1      45.858  24.837  34.096  1.00  0.00    -0.206 F 
ATOM     89  C   UNL A   1      49.360  24.788  33.196  1.00  0.00     0.022 A 
BRANCH  86  90
ATOM     90  S   UNL A   1      50.841  25.792  31.057  1.00  0.00     0.124 S 
ATOM     91  O   UNL A   1      51.021  27.240  31.045  1.00  0.00    -0.237 OA
ATOM     92  O   UNL A   1      51.826  25.033  31.821  1.00  0.00    -0.237 OA
ATOM     93  O   UNL A   1      50.465  25.203  29.773  1.00  0.00    -0.744 OA
ENDBRANCH  86  90
ENDBRANCH  60  83
ENDBRANCH  34  35
ENDBRANCH  26  29
ENDBRANCH  24  25
ENDBRANCH   1  24
TORSDOF 17
ENDMDL
MODEL 2
REMARK VINA RESULT:     -10.7      3.778      9.195
REMARK SMILES CC(C)[C@H](NC(N)=O)C(=O)N[C@H](C)C(=O)NCCCNC(=O)c1ccc(-c2c3nc(c(-c4cc(S(=O)(=O)[O-])ccc4F)c4ccc([nH]4)c(-c4cc(S(=O)(=O)[O-])ccc4F)c4nc(c(-c5cc(S(=O)(=O)[O-])ccc5F)c5ccc2[nH]5)C=C4)C=C3)cc1
REMARK SMILES IDX 18 1 17 2 16 3 14 4 15 5 12 7 13 8 11 9 9 10 10 11 4 13 2 14
REMARK SMILES IDX 1 15 3 16 5 17 6 18 7 20 8 21 19 24 20 25 21 26 22 28 23 29
REMARK SMILES IDX 24 30 85 31 25 32 84 33 26 34 27 35 28 36 78 37 29 38 83 39
REMARK SMILES IDX 77 40 79 41 30 42 82 43 76 44 75 45 31 47 63 48 43 49 62 50
REMARK SMILES IDX 44 51 47 52 61 53 80 54 45 55 46 56 60 58 81 59 48 60 32 61
REMARK SMILES IDX 33 62 41 63 34 64 40 65 42 66 39 67 35 68 36 69 37 70 38 71
REMARK SMILES IDX 64 72 65 73 73 74 66 75 72 76 74 77 71 78 67 79 68 80 69 81
REMARK SMILES IDX 70 82 49 83 50 84 58 85 51 86 57 87 59 88 56 89 52 90 53 91
REMARK SMILES IDX 54 92 55 93
REMARK H PARENT 16 6 11 12 5 19 7 22 7 23 20 27 79 46 47 57
REMARK Flexibility Score: inf
ROOT
ATOM      1  C   UNL A   1      31.649  31.643  26.766  1.00  0.00     0.042 C 
ENDROOT
BRANCH   1   2
ATOM      2  C   UNL A   1      31.847  30.272  26.129  1.00  0.00     0.117 C 
BRANCH   2   3
ATOM      3  N   UNL A   1      31.311  30.160  24.779  1.00  0.00    -0.354 N 
ATOM      4  C   UNL A   1      31.226  29.094  23.927  1.00  0.00     0.242 C 
ATOM      5  O   UNL A   1      30.697  29.277  22.826  1.00  0.00    -0.273 OA
ATOM      6  H   UNL A   1      30.945  31.000  24.417  1.00  0.00     0.163 HD
BRANCH   4   7
ATOM      7  C   UNL A   1      31.892  27.737  24.260  1.00  0.00     0.168 C 
ATOM      8  C   UNL A   1      30.827  26.873  24.919  1.00  0.00     0.041 C 
BRANCH   7   9
ATOM      9  N   UNL A   1      32.571  27.218  23.066  1.00  0.00    -0.343 N 
ATOM     10  C   UNL A   1      33.225  26.071  22.744  1.00  0.00     0.243 C 
ATOM     11  O   UNL A   1      33.745  26.034  21.623  1.00  0.00    -0.273 OA
ATOM     12  H   UNL A   1      32.546  27.856  22.316  1.00  0.00     0.164 HD
BRANCH  10  13
ATOM     13  C   UNL A   1      33.242  24.824  23.649  1.00  0.00     0.175 C 
BRANCH  13  14
ATOM     14  C   UNL A   1      34.549  24.667  24.479  1.00  0.00     0.015 C 
ATOM     15  C   UNL A   1      34.345  24.212  25.931  1.00  0.00     0.010 C 
ATOM     16  C   UNL A   1      35.484  23.639  23.820  1.00  0.00     0.010 C 
ENDBRANCH  13  14
BRANCH  13  17
ATOM     17  N   UNL A   1      32.822  23.704  22.796  1.00  0.00    -0.326 N 
ATOM     18  C   UNL A   1      32.182  22.568  23.170  1.00  0.00     0.312 C 
ATOM     19  H   UNL A   1      33.030  23.788  21.837  1.00  0.00     0.166 HD
ATOM     20  N   UNL A   1      32.020  21.708  22.133  1.00  0.00    -0.352 N 
ATOM     21  O   UNL A   1      31.828  22.264  24.293  1.00  0.00    -0.249 OA
ATOM     22  H   UNL A   1      32.311  21.967  21.229  1.00  0.00     0.161 HD
ATOM     23  H   UNL A   1      31.613  20.824  22.286  1.00  0.00     0.161 HD
ENDBRANCH  13  17
ENDBRANCH  10  13
ENDBRANCH   7   9
ENDBRANCH   4   7
ENDBRANCH   2   3
ENDBRANCH   1   2
BRANCH   1  24
ATOM     24  C   UNL A   1      32.936  32.328  27.206  1.00  0.00     0.118 C 
BRANCH  24  25
ATOM     25  N   UNL A   1      32.723  33.710  27.603  1.00  0.00    -0.352 N 
ATOM     26  C   UNL A   1      33.292  34.443  28.615  1.00  0.00     0.251 C 
ATOM     27  H   UNL A   1      32.065  34.200  27.059  1.00  0.00     0.163 HD
ATOM     28  O   UNL A   1      32.806  35.534  28.901  1.00  0.00    -0.269 OA
BRANCH  26  29
ATOM     29  C   UNL A   1      34.458  33.927  29.366  1.00  0.00     0.039 A 
ATOM     30  C   UNL A   1      34.233  33.126  30.490  1.00  0.00     0.014 A 
ATOM     31  C   UNL A   1      35.766  34.252  28.997  1.00  0.00     0.014 A 
ATOM     32  C   UNL A   1      35.316  32.605  31.202  1.00  0.00     0.010 A 
ATOM     33  C   UNL A   1      36.843  33.662  29.654  1.00  0.00     0.010 A 
ATOM     34  C   UNL A   1      36.631  32.837  30.769  1.00  0.00    -0.014 A 
BRANCH  34  35
ATOM     35  C   UNL A   1      37.791  32.224  31.468  1.00  0.00     0.031 A 
ATOM     36  C   UNL A   1      38.562  31.105  30.823  1.00  0.00     0.074 A 
ATOM     37  C   UNL A   1      38.109  32.635  32.711  1.00  0.00     0.049 A 
ATOM     38  N   UNL A   1      39.556  30.401  31.300  1.00  0.00    -0.248 NA
ATOM     39  C   UNL A   1      38.137  30.706  29.473  1.00  0.00     0.031 C 
ATOM     40  C   UNL A   1      37.408  33.683  33.457  1.00  0.00     0.029 A 
ATOM     41  N   UNL A   1      39.093  32.218  33.571  1.00  0.00    -0.354 N 
ATOM     42  C   UNL A   1      39.867  29.467  30.317  1.00  0.00     0.074 A 
ATOM     43  C   UNL A   1      38.910  29.655  29.247  1.00  0.00     0.031 C 
ATOM     44  C   UNL A   1      38.001  33.844  34.650  1.00  0.00     0.029 A 
ATOM     45  C   UNL A   1      39.087  32.878  34.778  1.00  0.00     0.049 A 
ATOM     46  H   UNL A   1      39.743  31.514  33.346  1.00  0.00     0.167 HD
ATOM     47  C   UNL A   1      40.870  28.553  30.300  1.00  0.00     0.034 A 
ATOM     48  C   UNL A   1      39.854  32.714  35.874  1.00  0.00     0.034 A 
ATOM     49  C   UNL A   1      41.815  28.384  31.379  1.00  0.00     0.049 A 
ATOM     50  C   UNL A   1      40.941  31.669  35.851  1.00  0.00     0.074 A 
ATOM     51  C   UNL A   1      42.906  27.535  31.444  1.00  0.00     0.029 A 
ATOM     52  N   UNL A   1      41.771  29.062  32.592  1.00  0.00    -0.354 N 
ATOM     53  N   UNL A   1      41.262  30.833  34.889  1.00  0.00    -0.248 NA
ATOM     54  C   UNL A   1      41.773  31.553  37.054  1.00  0.00     0.031 C 
ATOM     55  C   UNL A   1      43.466  27.635  32.722  1.00  0.00     0.029 A 
ATOM     56  C   UNL A   1      42.787  28.617  33.426  1.00  0.00     0.049 A 
ATOM     57  H   UNL A   1      41.114  29.758  32.825  1.00  0.00     0.167 HD
ATOM     58  C   UNL A   1      42.352  30.109  35.364  1.00  0.00     0.074 A 
ATOM     59  C   UNL A   1      42.641  30.619  36.690  1.00  0.00     0.031 C 
ATOM     60  C   UNL A   1      43.053  29.117  34.757  1.00  0.00     0.034 A 
BRANCH  47  61
ATOM     61  C   UNL A   1      40.967  27.648  29.091  1.00  0.00     0.023 A 
ATOM     62  C   UNL A   1      41.961  27.822  28.112  1.00  0.00     0.031 A 
ATOM     63  C   UNL A   1      40.024  26.624  28.891  1.00  0.00     0.131 A 
ATOM     64  C   UNL A   1      41.932  27.054  26.937  1.00  0.00     0.055 A 
ATOM     65  C   UNL A   1      40.060  25.798  27.764  1.00  0.00     0.041 A 
ATOM     66  F   UNL A   1      39.036  26.419  29.775  1.00  0.00    -0.206 F 
ATOM     67  C   UNL A   1      41.005  26.025  26.769  1.00  0.00     0.022 A 
BRANCH  64  68
ATOM     68  S   UNL A   1      43.007  27.543  25.560  1.00  0.00     0.124 S 
ATOM     69  O   UNL A   1      44.058  28.284  26.254  1.00  0.00    -0.237 OA
ATOM     70  O   UNL A   1      43.398  26.257  24.993  1.00  0.00    -0.237 OA
ATOM     71  O   UNL A   1      42.134  28.359  24.717  1.00  0.00    -0.744 OA
ENDBRANCH  64  68
ENDBRANCH  47  61
BRANCH  48  72
ATOM     72  C   UNL A   1      39.612  33.544  37.088  1.00  0.00     0.023 A 
ATOM     73  C   UNL A   1      40.385  34.685  37.356  1.00  0.00     0.031 A 
ATOM     74  C   UNL A   1      38.605  33.199  38.008  1.00  0.00     0.131 A 
ATOM     75  C   UNL A   1      40.162  35.421  38.531  1.00  0.00     0.055 A 
ATOM     76  C   UNL A   1      38.350  33.965  39.147  1.00  0.00     0.041 A 
ATOM     77  F   UNL A   1      37.835  32.120  37.797  1.00  0.00    -0.206 F 
ATOM     78  C   UNL A   1      39.138  35.078  39.419  1.00  0.00     0.022 A 
BRANCH  75  79
ATOM     79  S   UNL A   1      41.275  36.798  38.919  1.00  0.00     0.124 S 
ATOM     80  O   UNL A   1      42.071  36.239  40.006  1.00  0.00    -0.237 OA
ATOM     81  O   UNL A   1      41.968  36.996  37.651  1.00  0.00    -0.237 OA
ATOM     82  O   UNL A   1      40.363  37.875  39.302  1.00  0.00    -0.744 OA
ENDBRANCH  75  79
ENDBRANCH  48  72
BRANCH  60  83
ATOM     83  C   UNL A   1      44.230  28.545  35.512  1.00  0.00     0.023 A 
ATOM     84  C   UNL A   1      44.084  27.491  36.432  1.00  0.00     0.031 A 
ATOM     85  C   UNL A   1      45.520  29.071  35.313  1.00  0.00     0.131 A 
ATOM     86  C   UNL A   1      45.195  27.036  37.157  1.00  0.00     0.055 A 
ATOM     87  C   UNL A   1      46.634  28.567  35.987  1.00  0.00     0.041 A 
ATOM     88  F   UNL A   1      45.721  30.083  34.453  1.00  0.00    -0.206 F 
ATOM     89  C   UNL A   1      46.472  27.553  36.926  1.00  0.00     0.022 A 
BRANCH  86  90
ATOM     90  S   UNL A   1      44.933  25.830  38.487  1.00  0.00     0.124 S 
ATOM     91  O   UNL A   1      44.130  24.812  37.817  1.00  0.00    -0.237 OA
ATOM     92  O   UNL A   1      46.296  25.443  38.831  1.00  0.00    -0.237 OA
ATOM     93  O   UNL A   1      44.228  26.597  39.513  1.00  0.00    -0.744 OA
ENDBRANCH  86  90
ENDBRANCH  60  83
ENDBRANCH  34  35
ENDBRANCH  26  29
ENDBRANCH  24  25
ENDBRANCH   1  24
TORSDOF 17
ENDMDL
MODEL 3
REMARK VINA RESULT:     -10.6      4.874      8.025
REMARK SMILES CC(C)[C@H](NC(N)=O)C(=O)N[C@H](C)C(=O)NCCCNC(=O)c1ccc(-c2c3nc(c(-c4cc(S(=O)(=O)[O-])ccc4F)c4ccc([nH]4)c(-c4cc(S(=O)(=O)[O-])ccc4F)c4nc(c(-c5cc(S(=O)(=O)[O-])ccc5F)c5ccc2[nH]5)C=C4)C=C3)cc1
REMARK SMILES IDX 18 1 17 2 16 3 14 4 15 5 12 7 13 8 11 9 9 10 10 11 4 13 2 14
REMARK SMILES IDX 1 15 3 16 5 17 6 18 7 20 8 21 19 24 20 25 21 26 22 28 23 29
REMARK SMILES IDX 24 30 85 31 25 32 84 33 26 34 27 35 28 36 78 37 29 38 83 39
REMARK SMILES IDX 77 40 79 41 30 42 82 43 76 44 75 45 31 47 63 48 43 49 62 50
REMARK SMILES IDX 44 51 47 52 61 53 80 54 45 55 46 56 60 58 81 59 48 60 32 61
REMARK SMILES IDX 33 62 41 63 34 64 40 65 42 66 39 67 35 68 36 69 37 70 38 71
REMARK SMILES IDX 64 72 65 73 73 74 66 75 72 76 74 77 71 78 67 79 68 80 69 81
REMARK SMILES IDX 70 82 49 83 50 84 58 85 51 86 57 87 59 88 56 89 52 90 53 91
REMARK SMILES IDX 54 92 55 93
REMARK H PARENT 16 6 11 12 5 19 7 22 7 23 20 27 79 46 47 57
REMARK Flexibility Score: inf
ROOT
ATOM      1  C   UNL A   1      38.091  19.559  25.073  1.00  0.00     0.042 C 
ENDROOT
BRANCH   1   2
ATOM      2  C   UNL A   1      36.794  20.358  25.005  1.00  0.00     0.117 C 
BRANCH   2   3
ATOM      3  N   UNL A   1      36.778  21.377  23.964  1.00  0.00    -0.354 N 
ATOM      4  C   UNL A   1      36.691  22.740  24.036  1.00  0.00     0.242 C 
ATOM      5  O   UNL A   1      36.719  23.375  22.978  1.00  0.00    -0.273 OA
ATOM      6  H   UNL A   1      36.843  21.022  23.047  1.00  0.00     0.163 HD
BRANCH   4   7
ATOM      7  C   UNL A   1      36.422  23.464  25.378  1.00  0.00     0.168 C 
ATOM      8  C   UNL A   1      37.778  23.835  25.958  1.00  0.00     0.041 C 
BRANCH   7   9
ATOM      9  N   UNL A   1      35.436  24.532  25.169  1.00  0.00    -0.343 N 
ATOM     10  C   UNL A   1      34.090  24.586  24.985  1.00  0.00     0.243 C 
ATOM     11  O   UNL A   1      33.614  25.706  24.759  1.00  0.00    -0.273 OA
ATOM     12  H   UNL A   1      35.850  25.426  25.159  1.00  0.00     0.164 HD
BRANCH  10  13
ATOM     13  C   UNL A   1      33.163  23.369  25.154  1.00  0.00     0.175 C 
BRANCH  13  14
ATOM     14  C   UNL A   1      33.281  22.323  24.008  1.00  0.00     0.015 C 
ATOM     15  C   UNL A   1      32.278  21.163  24.081  1.00  0.00     0.010 C 
ATOM     16  C   UNL A   1      33.078  22.999  22.642  1.00  0.00     0.010 C 
ENDBRANCH  13  14
BRANCH  13  17
ATOM     17  N   UNL A   1      31.834  23.916  25.461  1.00  0.00    -0.326 N 
ATOM     18  C   UNL A   1      31.153  23.837  26.632  1.00  0.00     0.312 C 
ATOM     19  H   UNL A   1      31.384  24.398  24.730  1.00  0.00     0.166 HD
ATOM     20  N   UNL A   1      29.914  24.383  26.538  1.00  0.00    -0.352 N 
ATOM     21  O   UNL A   1      31.520  23.297  27.657  1.00  0.00    -0.249 OA
ATOM     22  H   UNL A   1      29.629  24.817  25.702  1.00  0.00     0.161 HD
ATOM     23  H   UNL A   1      29.300  24.345  27.307  1.00  0.00     0.161 HD
ENDBRANCH  13  17
ENDBRANCH  10  13
ENDBRANCH   7   9
ENDBRANCH   4   7
ENDBRANCH   2   3
ENDBRANCH   1   2
BRANCH   1  24
ATOM     24  C   UNL A   1      39.274  20.320  25.655  1.00  0.00     0.118 C 
BRANCH  24  25
ATOM     25  N   UNL A   1      40.331  19.436  26.119  1.00  0.00    -0.352 N 
ATOM     26  C   UNL A   1      41.610  19.719  26.531  1.00  0.00     0.251 C 
ATOM     27  H   UNL A   1      40.092  18.482  26.140  1.00  0.00     0.163 HD
ATOM     28  O   UNL A   1      42.402  18.792  26.679  1.00  0.00    -0.269 OA
BRANCH  26  29
ATOM     29  C   UNL A   1      42.040  21.113  26.777  1.00  0.00     0.039 A 
ATOM     30  C   UNL A   1      42.434  21.477  28.069  1.00  0.00     0.014 A 
ATOM     31  C   UNL A   1      42.026  22.072  25.761  1.00  0.00     0.014 A 
ATOM     32  C   UNL A   1      42.868  22.779  28.323  1.00  0.00     0.010 A 
ATOM     33  C   UNL A   1      42.540  23.344  25.995  1.00  0.00     0.010 A 
ATOM     34  C   UNL A   1      42.962  23.715  27.281  1.00  0.00    -0.014 A 
BRANCH  34  35
ATOM     35  C   UNL A   1      43.498  25.082  27.519  1.00  0.00     0.031 A 
ATOM     36  C   UNL A   1      42.608  26.164  28.065  1.00  0.00     0.074 A 
ATOM     37  C   UNL A   1      44.773  25.361  27.183  1.00  0.00     0.049 A 
ATOM     38  N   UNL A   1      42.873  27.427  28.277  1.00  0.00    -0.248 NA
ATOM     39  C   UNL A   1      41.226  25.778  28.388  1.00  0.00     0.031 C 
ATOM     40  C   UNL A   1      45.721  24.405  26.605  1.00  0.00     0.029 A 
ATOM     41  N   UNL A   1      45.490  26.528  27.268  1.00  0.00    -0.354 N 
ATOM     42  C   UNL A   1      41.690  27.992  28.743  1.00  0.00     0.074 A 
ATOM     43  C   UNL A   1      40.692  26.943  28.718  1.00  0.00     0.031 C 
ATOM     44  C   UNL A   1      46.900  25.017  26.414  1.00  0.00     0.029 A 
ATOM     45  C   UNL A   1      46.779  26.418  26.801  1.00  0.00     0.049 A 
ATOM     46  H   UNL A   1      45.117  27.364  27.629  1.00  0.00     0.167 HD
ATOM     47  C   UNL A   1      41.464  29.259  29.171  1.00  0.00     0.034 A 
ATOM     48  C   UNL A   1      47.752  27.344  26.679  1.00  0.00     0.034 A 
ATOM     49  C   UNL A   1      42.476  30.289  29.188  1.00  0.00     0.049 A 
ATOM     50  C   UNL A   1      47.471  28.756  27.126  1.00  0.00     0.074 A 
ATOM     51  C   UNL A   1      42.377  31.587  29.656  1.00  0.00     0.029 A 
ATOM     52  N   UNL A   1      43.769  30.145  28.696  1.00  0.00    -0.354 N 
ATOM     53  N   UNL A   1      46.364  29.261  27.622  1.00  0.00    -0.248 NA
ATOM     54  C   UNL A   1      48.573  29.718  27.007  1.00  0.00     0.031 C 
ATOM     55  C   UNL A   1      43.574  32.251  29.370  1.00  0.00     0.029 A 
ATOM     56  C   UNL A   1      44.460  31.344  28.810  1.00  0.00     0.049 A 
ATOM     57  H   UNL A   1      44.140  29.314  28.322  1.00  0.00     0.167 HD
ATOM     58  C   UNL A   1      46.646  30.595  27.898  1.00  0.00     0.074 A 
ATOM     59  C   UNL A   1      48.031  30.810  27.528  1.00  0.00     0.031 C 
ATOM     60  C   UNL A   1      45.835  31.554  28.416  1.00  0.00     0.034 A 
BRANCH  47  61
ATOM     61  C   UNL A   1      40.060  29.602  29.619  1.00  0.00     0.023 A 
ATOM     62  C   UNL A   1      39.720  29.702  30.980  1.00  0.00     0.031 A 
ATOM     63  C   UNL A   1      39.035  29.788  28.673  1.00  0.00     0.131 A 
ATOM     64  C   UNL A   1      38.379  29.883  31.358  1.00  0.00     0.055 A 
ATOM     65  C   UNL A   1      37.720  30.065  29.055  1.00  0.00     0.041 A 
ATOM     66  F   UNL A   1      39.288  29.684  27.360  1.00  0.00    -0.206 F 
ATOM     67  C   UNL A   1      37.382  30.092  30.405  1.00  0.00     0.022 A 
BRANCH  64  68
ATOM     68  S   UNL A   1      37.936  29.656  33.102  1.00  0.00     0.124 S 
ATOM     69  O   UNL A   1      36.998  30.757  33.314  1.00  0.00    -0.237 OA
ATOM     70  O   UNL A   1      37.361  28.316  33.110  1.00  0.00    -0.237 OA
ATOM     71  O   UNL A   1      39.213  29.794  33.802  1.00  0.00    -0.744 OA
ENDBRANCH  64  68
ENDBRANCH  47  61
BRANCH  48  72
ATOM     72  C   UNL A   1      49.071  26.970  26.094  1.00  0.00     0.023 A 
ATOM     73  C   UNL A   1      49.427  27.357  24.793  1.00  0.00     0.031 A 
ATOM     74  C   UNL A   1      49.995  26.206  26.831  1.00  0.00     0.131 A 
ATOM     75  C   UNL A   1      50.658  26.951  24.254  1.00  0.00     0.055 A 
ATOM     76  C   UNL A   1      51.241  25.851  26.311  1.00  0.00     0.041 A 
ATOM     77  F   UNL A   1      49.706  25.813  28.081  1.00  0.00    -0.206 F 
ATOM     78  C   UNL A   1      51.574  26.215  25.011  1.00  0.00     0.022 A 
BRANCH  75  79
ATOM     79  S   UNL A   1      51.021  27.341  22.521  1.00  0.00     0.124 S 
ATOM     80  O   UNL A   1      49.914  26.688  21.832  1.00  0.00    -0.237 OA
ATOM     81  O   UNL A   1      51.001  28.800  22.527  1.00  0.00    -0.237 OA
ATOM     82  O   UNL A   1      52.335  26.739  22.304  1.00  0.00    -0.744 OA
ENDBRANCH  75  79
ENDBRANCH  48  72
BRANCH  60  83
ATOM     83  C   UNL A   1      46.444  32.917  28.650  1.00  0.00     0.023 A 
ATOM     84  C   UNL A   1      46.642  33.833  27.601  1.00  0.00     0.031 A 
ATOM     85  C   UNL A   1      46.839  33.303  29.943  1.00  0.00     0.131 A 
ATOM     86  C   UNL A   1      47.270  35.062  27.854  1.00  0.00     0.055 A 
ATOM     87  C   UNL A   1      47.400  34.554  30.201  1.00  0.00     0.041 A 
ATOM     88  F   UNL A   1      46.683  32.468  30.983  1.00  0.00    -0.206 F 
ATOM     89  C   UNL A   1      47.632  35.437  29.150  1.00  0.00     0.022 A 
BRANCH  86  90
ATOM     90  S   UNL A   1      47.705  36.124  26.448  1.00  0.00     0.124 S 
ATOM     91  O   UNL A   1      48.375  35.184  25.556  1.00  0.00    -0.237 OA
ATOM     92  O   UNL A   1      46.401  36.606  26.006  1.00  0.00    -0.237 OA
ATOM     93  O   UNL A   1      48.572  37.140  27.042  1.00  0.00    -0.744 OA
ENDBRANCH  86  90
ENDBRANCH  60  83
ENDBRANCH  34  35
ENDBRANCH  26  29
ENDBRANCH  24  25
ENDBRANCH   1  24
TORSDOF 17
ENDMDL
