MODEL 1
REMARK VINA RESULT:     -12.2      0.000      0.000
REMARK SMILES [NH3+]Cc1c(-c2ccccc2)c(C(=O)NCCCNC(=O)c2ccc(-c3c4nc(c(-c5cc(S(=O)(=O)[O-])ccc5F)c5ccc([nH]5)c(-c5cc(S(=O)(=O)[O-])ccc5F)c5nc(c(-c6cc(S(=O)(=O)[O-])ccc6F)c6ccc3[nH]6)C=C5)C=C4)cc2)c2ccccn12
REMARK SMILES IDX 16 1 15 2 14 3 12 4 13 5 11 7 3 8 4 9 89 10 84 11 88 12
REMARK SMILES IDX 85 13 87 14 86 15 2 16 1 17 5 21 6 22 10 23 7 24 9 25 8 26
REMARK SMILES IDX 17 27 18 28 19 29 20 31 21 32 22 33 83 34 23 35 82 36 24 37
REMARK SMILES IDX 25 38 26 39 76 40 27 41 81 42 75 43 77 44 28 45 80 46 74 47
REMARK SMILES IDX 73 48 29 50 61 51 41 52 60 53 42 54 45 55 59 56 78 57 43 58
REMARK SMILES IDX 44 59 58 61 79 62 46 63 30 64 31 65 39 66 32 67 38 68 40 69
REMARK SMILES IDX 37 70 33 71 34 72 35 73 36 74 62 75 63 76 71 77 64 78 70 79
REMARK SMILES IDX 72 80 69 81 65 82 66 83 67 84 68 85 47 86 48 87 56 88 49 89
REMARK SMILES IDX 55 90 57 91 54 92 50 93 51 94 52 95 53 96
REMARK H PARENT 14 6 1 18 1 19 1 20 18 30 77 49 45 60
REMARK Flexibility Score: inf
ROOT
ATOM      1  C   UNL A   1      36.378  21.715  25.749  1.00  0.00     0.042 C 
ENDROOT
BRANCH   1   2
ATOM      2  C   UNL A   1      35.980  23.013  26.430  1.00  0.00     0.118 C 
BRANCH   2   3
ATOM      3  N   UNL A   1      34.836  22.933  27.313  1.00  0.00    -0.352 N 
ATOM      4  C   UNL A   1      33.489  22.804  27.062  1.00  0.00     0.254 C 
ATOM      5  O   UNL A   1      32.781  22.642  28.057  1.00  0.00    -0.269 OA
ATOM      6  H   UNL A   1      35.064  22.982  28.270  1.00  0.00     0.163 HD
BRANCH   4   7
ATOM      7  C   UNL A   1      32.911  22.929  25.716  1.00  0.00     0.073 A 
ATOM      8  C   UNL A   1      32.084  23.927  23.804  1.00  0.00     0.086 A 
ATOM      9  C   UNL A   1      32.543  24.181  25.094  1.00  0.00     0.022 A 
ATOM     10  N   UNL A   1      32.212  22.564  23.598  1.00  0.00    -0.314 N 
ATOM     11  C   UNL A   1      32.478  21.952  24.825  1.00  0.00     0.059 A 
ATOM     12  C   UNL A   1      32.091  21.833  22.409  1.00  0.00     0.092 A 
ATOM     13  C   UNL A   1      32.303  20.532  24.866  1.00  0.00     0.027 A 
ATOM     14  C   UNL A   1      32.128  20.491  22.439  1.00  0.00     0.018 A 
ATOM     15  C   UNL A   1      32.180  19.830  23.726  1.00  0.00     0.004 A 
BRANCH   8  16
ATOM     16  C   UNL A   1      31.488  24.839  22.780  1.00  0.00     0.315 C 
BRANCH  16  17
ATOM     17  N   UNL A   1      32.514  25.563  22.046  1.00  0.00    -0.353 N 
ATOM     18  H   UNL A   1      33.433  25.200  22.300  1.00  0.00     0.344 HD
ATOM     19  H   UNL A   1      32.464  26.555  22.280  1.00  0.00     0.344 HD
ATOM     20  H   UNL A   1      32.365  25.441  21.044  1.00  0.00     0.344 HD
ENDBRANCH  16  17
ENDBRANCH   8  16
BRANCH   9  21
ATOM     21  C   UNL A   1      32.561  25.519  25.671  1.00  0.00    -0.016 A 
ATOM     22  C   UNL A   1      33.725  26.295  25.646  1.00  0.00     0.009 A 
ATOM     23  C   UNL A   1      31.410  26.026  26.288  1.00  0.00     0.009 A 
ATOM     24  C   UNL A   1      33.735  27.562  26.236  1.00  0.00     0.001 A 
ATOM     25  C   UNL A   1      31.420  27.295  26.870  1.00  0.00     0.001 A 
ATOM     26  C   UNL A   1      32.584  28.061  26.848  1.00  0.00     0.000 A 
ENDBRANCH   9  21
ENDBRANCH   4   7
ENDBRANCH   2   3
ENDBRANCH   1   2
BRANCH   1  27
ATOM     27  C   UNL A   1      37.735  21.712  25.067  1.00  0.00     0.118 C 
BRANCH  27  28
ATOM     28  N   UNL A   1      38.715  20.834  25.694  1.00  0.00    -0.352 N 
ATOM     29  C   UNL A   1      39.822  21.100  26.473  1.00  0.00     0.251 C 
ATOM     30  H   UNL A   1      38.558  19.876  25.532  1.00  0.00     0.163 HD
ATOM     31  O   UNL A   1      40.567  20.176  26.775  1.00  0.00    -0.269 OA
BRANCH  29  32
ATOM     32  C   UNL A   1      40.146  22.483  26.903  1.00  0.00     0.039 A 
ATOM     33  C   UNL A   1      41.051  22.673  27.953  1.00  0.00     0.014 A 
ATOM     34  C   UNL A   1      39.566  23.594  26.295  1.00  0.00     0.014 A 
ATOM     35  C   UNL A   1      41.444  23.967  28.314  1.00  0.00     0.010 A 
ATOM     36  C   UNL A   1      40.052  24.870  26.564  1.00  0.00     0.010 A 
ATOM     37  C   UNL A   1      40.992  25.076  27.582  1.00  0.00    -0.014 A 
BRANCH  37  38
ATOM     38  C   UNL A   1      41.462  26.460  27.872  1.00  0.00     0.031 A 
ATOM     39  C   UNL A   1      42.859  26.876  27.488  1.00  0.00     0.074 A 
ATOM     40  C   UNL A   1      40.667  27.312  28.554  1.00  0.00     0.049 A 
ATOM     41  N   UNL A   1      43.500  27.984  27.758  1.00  0.00    -0.248 NA
ATOM     42  C   UNL A   1      43.656  25.894  26.735  1.00  0.00     0.031 C 
ATOM     43  C   UNL A   1      39.313  27.014  29.027  1.00  0.00     0.029 A 
ATOM     44  N   UNL A   1      40.885  28.600  28.977  1.00  0.00    -0.354 N 
ATOM     45  C   UNL A   1      44.780  27.820  27.235  1.00  0.00     0.074 A 
ATOM     46  C   UNL A   1      44.843  26.478  26.699  1.00  0.00     0.031 C 
ATOM     47  C   UNL A   1      38.812  28.096  29.644  1.00  0.00     0.029 A 
ATOM     48  C   UNL A   1      39.823  29.148  29.661  1.00  0.00     0.049 A 
ATOM     49  H   UNL A   1      41.724  29.087  28.808  1.00  0.00     0.167 HD
ATOM     50  C   UNL A   1      45.797  28.715  27.178  1.00  0.00     0.034 A 
ATOM     51  C   UNL A   1      39.683  30.354  30.246  1.00  0.00     0.034 A 
ATOM     52  C   UNL A   1      45.707  30.060  27.690  1.00  0.00     0.049 A 
ATOM     53  C   UNL A   1      40.830  31.330  30.179  1.00  0.00     0.074 A 
ATOM     54  C   UNL A   1      46.649  31.071  27.629  1.00  0.00     0.029 A 
ATOM     55  N   UNL A   1      44.608  30.581  28.362  1.00  0.00    -0.354 N 
ATOM     56  N   UNL A   1      42.016  31.177  29.633  1.00  0.00    -0.248 NA
ATOM     57  C   UNL A   1      40.618  32.646  30.795  1.00  0.00     0.031 C 
ATOM     58  C   UNL A   1      46.149  32.178  28.323  1.00  0.00     0.029 A 
ATOM     59  C   UNL A   1      44.861  31.890  28.746  1.00  0.00     0.049 A 
ATOM     60  H   UNL A   1      43.771  30.095  28.538  1.00  0.00     0.167 HD
ATOM     61  C   UNL A   1      42.676  32.389  29.814  1.00  0.00     0.074 A 
ATOM     62  C   UNL A   1      41.752  33.266  30.503  1.00  0.00     0.031 C 
ATOM     63  C   UNL A   1      43.931  32.748  29.439  1.00  0.00     0.034 A 
BRANCH  50  64
ATOM     64  C   UNL A   1      47.096  28.255  26.554  1.00  0.00     0.023 A 
ATOM     65  C   UNL A   1      47.301  28.285  25.163  1.00  0.00     0.031 A 
ATOM     66  C   UNL A   1      48.133  27.747  27.357  1.00  0.00     0.131 A 
ATOM     67  C   UNL A   1      48.469  27.740  24.613  1.00  0.00     0.055 A 
ATOM     68  C   UNL A   1      49.333  27.289  26.809  1.00  0.00     0.041 A 
ATOM     69  F   UNL A   1      47.991  27.672  28.690  1.00  0.00    -0.206 F 
ATOM     70  C   UNL A   1      49.500  27.267  25.427  1.00  0.00     0.022 A 
BRANCH  67  71
ATOM     71  S   UNL A   1      48.556  27.516  22.815  1.00  0.00     0.124 S 
ATOM     72  O   UNL A   1      47.352  28.215  22.374  1.00  0.00    -0.237 OA
ATOM     73  O   UNL A   1      49.823  28.152  22.477  1.00  0.00    -0.237 OA
ATOM     74  O   UNL A   1      48.520  26.065  22.648  1.00  0.00    -0.744 OA
ENDBRANCH  67  71
ENDBRANCH  50  64
BRANCH  51  75
ATOM     75  C   UNL A   1      38.417  30.713  30.950  1.00  0.00     0.023 A 
ATOM     76  C   UNL A   1      37.385  31.391  30.282  1.00  0.00     0.031 A 
ATOM     77  C   UNL A   1      38.238  30.425  32.315  1.00  0.00     0.131 A 
ATOM     78  C   UNL A   1      36.243  31.800  30.986  1.00  0.00     0.055 A 
ATOM     79  C   UNL A   1      37.074  30.784  32.999  1.00  0.00     0.041 A 
ATOM     80  F   UNL A   1      39.190  29.774  33.003  1.00  0.00    -0.206 F 
ATOM     81  C   UNL A   1      36.074  31.488  32.338  1.00  0.00     0.022 A 
BRANCH  78  82
ATOM     82  S   UNL A   1      35.014  32.826  30.132  1.00  0.00     0.124 S 
ATOM     83  O   UNL A   1      34.088  33.142  31.213  1.00  0.00    -0.237 OA
ATOM     84  O   UNL A   1      35.831  33.931  29.643  1.00  0.00    -0.237 OA
ATOM     85  O   UNL A   1      34.489  31.936  29.098  1.00  0.00    -0.744 OA
ENDBRANCH  78  82
ENDBRANCH  51  75
BRANCH  63  86
ATOM     86  C   UNL A   1      44.353  34.169  29.727  1.00  0.00     0.023 A 
ATOM     87  C   UNL A   1      44.089  35.218  28.831  1.00  0.00     0.031 A 
ATOM     88  C   UNL A   1      45.036  34.472  30.919  1.00  0.00     0.131 A 
ATOM     89  C   UNL A   1      44.556  36.511  29.111  1.00  0.00     0.055 A 
ATOM     90  C   UNL A   1      45.441  35.773  31.224  1.00  0.00     0.041 A 
ATOM     91  F   UNL A   1      45.316  33.509  31.811  1.00  0.00    -0.206 F 
ATOM     92  C   UNL A   1      45.213  36.798  30.310  1.00  0.00     0.022 A 
BRANCH  89  93
ATOM     93  S   UNL A   1      44.376  37.796  27.844  1.00  0.00     0.124 S 
ATOM     94  O   UNL A   1      43.952  38.946  28.636  1.00  0.00    -0.237 OA
ATOM     95  O   UNL A   1      45.721  37.869  27.282  1.00  0.00    -0.237 OA
ATOM     96  O   UNL A   1      43.359  37.252  26.946  1.00  0.00    -0.744 OA
ENDBRANCH  89  93
ENDBRANCH  63  86
ENDBRANCH  37  38
ENDBRANCH  29  32
ENDBRANCH  27  28
ENDBRANCH   1  27
TORSDOF 16
ENDMDL
MODEL 2
REMARK VINA RESULT:     -12.2      1.266      7.633
REMARK SMILES [NH3+]Cc1c(-c2ccccc2)c(C(=O)NCCCNC(=O)c2ccc(-c3c4nc(c(-c5cc(S(=O)(=O)[O-])ccc5F)c5ccc([nH]5)c(-c5cc(S(=O)(=O)[O-])ccc5F)c5nc(c(-c6cc(S(=O)(=O)[O-])ccc6F)c6ccc3[nH]6)C=C5)C=C4)cc2)c2ccccn12
REMARK SMILES IDX 16 1 15 2 14 3 12 4 13 5 11 7 3 8 4 9 89 10 84 11 88 12
REMARK SMILES IDX 85 13 87 14 86 15 2 16 1 17 5 21 6 22 10 23 7 24 9 25 8 26
REMARK SMILES IDX 17 27 18 28 19 29 20 31 21 32 22 33 83 34 23 35 82 36 24 37
REMARK SMILES IDX 25 38 26 39 76 40 27 41 81 42 75 43 77 44 28 45 80 46 74 47
REMARK SMILES IDX 73 48 29 50 61 51 41 52 60 53 42 54 45 55 59 56 78 57 43 58
REMARK SMILES IDX 44 59 58 61 79 62 46 63 30 64 31 65 39 66 32 67 38 68 40 69
REMARK SMILES IDX 37 70 33 71 34 72 35 73 36 74 62 75 63 76 71 77 64 78 70 79
REMARK SMILES IDX 72 80 69 81 65 82 66 83 67 84 68 85 47 86 48 87 56 88 49 89
REMARK SMILES IDX 55 90 57 91 54 92 50 93 51 94 52 95 53 96
REMARK H PARENT 14 6 1 18 1 19 1 20 18 30 77 49 45 60
REMARK Flexibility Score: inf
ROOT
ATOM      1  C   UNL A   1      35.164  21.754  26.117  1.00  0.00     0.042 C 
ENDROOT
BRANCH   1   2
ATOM      2  C   UNL A   1      34.941  22.987  26.974  1.00  0.00     0.118 C 
BRANCH   2   3
ATOM      3  N   UNL A   1      33.574  23.228  27.382  1.00  0.00    -0.352 N 
ATOM      4  C   UNL A   1      32.471  23.665  26.685  1.00  0.00     0.254 C 
ATOM      5  O   UNL A   1      31.410  23.648  27.312  1.00  0.00    -0.269 OA
ATOM      6  H   UNL A   1      33.402  23.047  28.335  1.00  0.00     0.163 HD
BRANCH   4   7
ATOM      7  C   UNL A   1      32.548  24.197  25.316  1.00  0.00     0.073 A 
ATOM      8  C   UNL A   1      32.772  25.730  23.603  1.00  0.00     0.086 A 
ATOM      9  C   UNL A   1      32.666  25.600  24.986  1.00  0.00     0.022 A 
ATOM     10  N   UNL A   1      32.778  24.448  23.082  1.00  0.00    -0.314 N 
ATOM     11  C   UNL A   1      32.402  23.556  24.090  1.00  0.00     0.059 A 
ATOM     12  C   UNL A   1      33.073  24.022  21.780  1.00  0.00     0.092 A 
ATOM     13  C   UNL A   1      32.025  22.246  23.656  1.00  0.00     0.027 A 
ATOM     14  C   UNL A   1      32.901  22.735  21.439  1.00  0.00     0.018 A 
ATOM     15  C   UNL A   1      32.301  21.838  22.405  1.00  0.00     0.004 A 
BRANCH   8  16
ATOM     16  C   UNL A   1      32.809  26.948  22.736  1.00  0.00     0.315 C 
BRANCH  16  17
ATOM     17  N   UNL A   1      31.472  27.380  22.363  1.00  0.00    -0.353 N 
ATOM     18  H   UNL A   1      30.876  26.563  22.226  1.00  0.00     0.344 HD
ATOM     19  H   UNL A   1      31.517  27.915  21.495  1.00  0.00     0.344 HD
ATOM     20  H   UNL A   1      31.083  27.964  23.103  1.00  0.00     0.344 HD
ENDBRANCH  16  17
ENDBRANCH   8  16
BRANCH   9  21
ATOM     21  C   UNL A   1      32.628  26.748  25.882  1.00  0.00    -0.016 A 
ATOM     22  C   UNL A   1      31.430  27.147  26.484  1.00  0.00     0.009 A 
ATOM     23  C   UNL A   1      33.796  27.482  26.123  1.00  0.00     0.009 A 
ATOM     24  C   UNL A   1      31.403  28.272  27.313  1.00  0.00     0.001 A 
ATOM     25  C   UNL A   1      33.769  28.601  26.956  1.00  0.00     0.001 A 
ATOM     26  C   UNL A   1      32.572  28.998  27.548  1.00  0.00     0.000 A 
ENDBRANCH   9  21
ENDBRANCH   4   7
ENDBRANCH   2   3
ENDBRANCH   1   2
BRANCH   1  27
ATOM     27  C   UNL A   1      36.327  21.825  25.141  1.00  0.00     0.118 C 
BRANCH  27  28
ATOM     28  N   UNL A   1      37.318  20.772  25.317  1.00  0.00    -0.352 N 
ATOM     29  C   UNL A   1      38.622  20.802  25.766  1.00  0.00     0.251 C 
ATOM     30  H   UNL A   1      36.998  19.874  25.070  1.00  0.00     0.163 HD
ATOM     31  O   UNL A   1      39.293  19.780  25.697  1.00  0.00    -0.269 OA
BRANCH  29  32
ATOM     32  C   UNL A   1      39.230  22.055  26.279  1.00  0.00     0.039 A 
ATOM     33  C   UNL A   1      40.342  21.973  27.125  1.00  0.00     0.014 A 
ATOM     34  C   UNL A   1      38.718  23.307  25.948  1.00  0.00     0.014 A 
ATOM     35  C   UNL A   1      40.990  23.140  27.545  1.00  0.00     0.010 A 
ATOM     36  C   UNL A   1      39.435  24.458  26.257  1.00  0.00     0.010 A 
ATOM     37  C   UNL A   1      40.577  24.392  27.066  1.00  0.00    -0.014 A 
BRANCH  37  38
ATOM     38  C   UNL A   1      41.300  25.649  27.412  1.00  0.00     0.031 A 
ATOM     39  C   UNL A   1      40.608  26.714  28.225  1.00  0.00     0.074 A 
ATOM     40  C   UNL A   1      42.539  25.869  26.927  1.00  0.00     0.049 A 
ATOM     41  N   UNL A   1      41.012  27.921  28.527  1.00  0.00    -0.248 NA
ATOM     42  C   UNL A   1      39.264  26.391  28.728  1.00  0.00     0.031 C 
ATOM     43  C   UNL A   1      43.298  24.939  26.086  1.00  0.00     0.029 A 
ATOM     44  N   UNL A   1      43.379  26.947  27.061  1.00  0.00    -0.354 N 
ATOM     45  C   UNL A   1      39.962  28.508  29.228  1.00  0.00     0.074 A 
ATOM     46  C   UNL A   1      38.880  27.549  29.240  1.00  0.00     0.031 C 
ATOM     47  C   UNL A   1      44.498  25.472  25.809  1.00  0.00     0.029 A 
ATOM     48  C   UNL A   1      44.579  26.803  26.403  1.00  0.00     0.049 A 
ATOM     49  H   UNL A   1      43.144  27.751  27.579  1.00  0.00     0.167 HD
ATOM     50  C   UNL A   1      39.916  29.721  29.834  1.00  0.00     0.034 A 
ATOM     51  C   UNL A   1      45.621  27.649  26.280  1.00  0.00     0.034 A 
ATOM     52  C   UNL A   1      41.016  30.653  29.839  1.00  0.00     0.049 A 
ATOM     53  C   UNL A   1      45.545  28.996  26.953  1.00  0.00     0.074 A 
ATOM     54  C   UNL A   1      41.105  31.880  30.473  1.00  0.00     0.029 A 
ATOM     55  N   UNL A   1      42.221  30.463  29.174  1.00  0.00    -0.354 N 
ATOM     56  N   UNL A   1      44.564  29.514  27.657  1.00  0.00    -0.248 NA
ATOM     57  C   UNL A   1      46.720  29.868  26.826  1.00  0.00     0.031 C 
ATOM     58  C   UNL A   1      42.332  32.460  30.136  1.00  0.00     0.029 A 
ATOM     59  C   UNL A   1      43.046  31.562  29.359  1.00  0.00     0.049 A 
ATOM     60  H   UNL A   1      42.456  29.664  28.649  1.00  0.00     0.167 HD
ATOM     61  C   UNL A   1      45.019  30.759  28.083  1.00  0.00     0.074 A 
ATOM     62  C   UNL A   1      46.366  30.905  27.570  1.00  0.00     0.031 C 
ATOM     63  C   UNL A   1      44.384  31.695  28.834  1.00  0.00     0.034 A 
BRANCH  50  64
ATOM     64  C   UNL A   1      38.626  30.107  30.523  1.00  0.00     0.023 A 
ATOM     65  C   UNL A   1      37.607  30.802  29.849  1.00  0.00     0.031 A 
ATOM     66  C   UNL A   1      38.424  29.805  31.881  1.00  0.00     0.131 A 
ATOM     67  C   UNL A   1      36.477  31.248  30.550  1.00  0.00     0.055 A 
ATOM     68  C   UNL A   1      37.255  30.172  32.552  1.00  0.00     0.041 A 
ATOM     69  F   UNL A   1      39.367  29.161  32.586  1.00  0.00    -0.206 F 
ATOM     70  C   UNL A   1      36.280  30.914  31.891  1.00  0.00     0.022 A 
BRANCH  67  71
ATOM     71  S   UNL A   1      35.346  32.401  29.725  1.00  0.00     0.124 S 
ATOM     72  O   UNL A   1      34.847  31.584  28.621  1.00  0.00    -0.237 OA
ATOM     73  O   UNL A   1      34.385  32.708  30.777  1.00  0.00    -0.237 OA
ATOM     74  O   UNL A   1      36.214  33.508  29.328  1.00  0.00    -0.744 OA
ENDBRANCH  67  71
ENDBRANCH  50  64
BRANCH  51  75
ATOM     75  C   UNL A   1      46.826  27.260  25.489  1.00  0.00     0.023 A 
ATOM     76  C   UNL A   1      47.029  27.754  24.190  1.00  0.00     0.031 A 
ATOM     77  C   UNL A   1      47.771  26.353  26.002  1.00  0.00     0.131 A 
ATOM     78  C   UNL A   1      48.120  27.304  23.431  1.00  0.00     0.055 A 
ATOM     79  C   UNL A   1      48.886  25.952  25.264  1.00  0.00     0.041 A 
ATOM     80  F   UNL A   1      47.630  25.853  27.241  1.00  0.00    -0.206 F 
ATOM     81  C   UNL A   1      49.058  26.416  23.964  1.00  0.00     0.022 A 
BRANCH  78  82
ATOM     82  S   UNL A   1      48.249  27.827  21.699  1.00  0.00     0.124 S 
ATOM     83  O   UNL A   1      49.498  28.581  21.709  1.00  0.00    -0.237 OA
ATOM     84  O   UNL A   1      48.276  26.548  20.998  1.00  0.00    -0.237 OA
ATOM     85  O   UNL A   1      47.040  28.623  21.493  1.00  0.00    -0.744 OA
ENDBRANCH  78  82
ENDBRANCH  51  75
BRANCH  63  86
ATOM     86  C   UNL A   1      45.165  32.938  29.185  1.00  0.00     0.023 A 
ATOM     87  C   UNL A   1      45.128  34.090  28.381  1.00  0.00     0.031 A 
ATOM     88  C   UNL A   1      45.965  32.964  30.342  1.00  0.00     0.131 A 
ATOM     89  C   UNL A   1      45.920  35.200  28.712  1.00  0.00     0.055 A 
ATOM     90  C   UNL A   1      46.701  34.094  30.702  1.00  0.00     0.041 A 
ATOM     91  F   UNL A   1      46.040  31.892  31.146  1.00  0.00    -0.206 F 
ATOM     92  C   UNL A   1      46.692  35.216  29.877  1.00  0.00     0.022 A 
BRANCH  89  93
ATOM     93  S   UNL A   1      46.004  36.588  27.548  1.00  0.00     0.124 S 
ATOM     94  O   UNL A   1      44.621  37.053  27.531  1.00  0.00    -0.237 OA
ATOM     95  O   UNL A   1      46.967  37.476  28.192  1.00  0.00    -0.237 OA
ATOM     96  O   UNL A   1      46.466  35.969  26.308  1.00  0.00    -0.744 OA
ENDBRANCH  89  93
ENDBRANCH  63  86
ENDBRANCH  37  38
ENDBRANCH  29  32
ENDBRANCH  27  28
ENDBRANCH   1  27
TORSDOF 16
ENDMDL
MODEL 3
REMARK VINA RESULT:     -12.0      4.903      9.871
REMARK SMILES [NH3+]Cc1c(-c2ccccc2)c(C(=O)NCCCNC(=O)c2ccc(-c3c4nc(c(-c5cc(S(=O)(=O)[O-])ccc5F)c5ccc([nH]5)c(-c5cc(S(=O)(=O)[O-])ccc5F)c5nc(c(-c6cc(S(=O)(=O)[O-])ccc6F)c6ccc3[nH]6)C=C5)C=C4)cc2)c2ccccn12
REMARK SMILES IDX 16 1 15 2 14 3 12 4 13 5 11 7 3 8 4 9 89 10 84 11 88 12
REMARK SMILES IDX 85 13 87 14 86 15 2 16 1 17 5 21 6 22 10 23 7 24 9 25 8 26
REMARK SMILES IDX 17 27 18 28 19 29 20 31 21 32 22 33 83 34 23 35 82 36 24 37
REMARK SMILES IDX 25 38 26 39 76 40 27 41 81 42 75 43 77 44 28 45 80 46 74 47
REMARK SMILES IDX 73 48 29 50 61 51 41 52 60 53 42 54 45 55 59 56 78 57 43 58
REMARK SMILES IDX 44 59 58 61 79 62 46 63 30 64 31 65 39 66 32 67 38 68 40 69
REMARK SMILES IDX 37 70 33 71 34 72 35 73 36 74 62 75 63 76 71 77 64 78 70 79
REMARK SMILES IDX 72 80 69 81 65 82 66 83 67 84 68 85 47 86 48 87 56 88 49 89
REMARK SMILES IDX 55 90 57 91 54 92 50 93 51 94 52 95 53 96
REMARK H PARENT 14 6 1 18 1 19 1 20 18 30 77 49 45 60
REMARK Flexibility Score: inf
ROOT
ATOM      1  C   UNL A   1      31.775  29.095  27.148  1.00  0.00     0.042 C 
ENDROOT
BRANCH   1   2
ATOM      2  C   UNL A   1      32.190  27.647  26.964  1.00  0.00     0.118 C 
BRANCH   2   3
ATOM      3  N   UNL A   1      31.110  26.684  26.927  1.00  0.00    -0.352 N 
ATOM      4  C   UNL A   1      30.885  25.587  26.127  1.00  0.00     0.254 C 
ATOM      5  O   UNL A   1      29.914  24.897  26.441  1.00  0.00    -0.269 OA
ATOM      6  H   UNL A   1      30.408  26.844  27.598  1.00  0.00     0.163 HD
BRANCH   4   7
ATOM      7  C   UNL A   1      31.686  25.291  24.930  1.00  0.00     0.073 A 
ATOM      8  C   UNL A   1      32.590  25.541  22.819  1.00  0.00     0.086 A 
ATOM      9  C   UNL A   1      31.669  26.077  23.716  1.00  0.00     0.022 A 
ATOM     10  N   UNL A   1      33.208  24.486  23.467  1.00  0.00    -0.314 N 
ATOM     11  C   UNL A   1      32.493  24.198  24.632  1.00  0.00     0.059 A 
ATOM     12  C   UNL A   1      34.343  23.756  23.088  1.00  0.00     0.092 A 
ATOM     13  C   UNL A   1      32.777  22.936  25.245  1.00  0.00     0.027 A 
ATOM     14  C   UNL A   1      34.717  22.679  23.797  1.00  0.00     0.018 A 
ATOM     15  C   UNL A   1      33.862  22.232  24.877  1.00  0.00     0.004 A 
BRANCH   8  16
ATOM     16  C   UNL A   1      32.892  25.897  21.399  1.00  0.00     0.315 C 
BRANCH  16  17
ATOM     17  N   UNL A   1      31.779  25.579  20.519  1.00  0.00    -0.353 N 
ATOM     18  H   UNL A   1      30.903  25.849  20.967  1.00  0.00     0.344 HD
ATOM     19  H   UNL A   1      31.768  24.576  20.332  1.00  0.00     0.344 HD
ATOM     20  H   UNL A   1      31.882  26.088  19.641  1.00  0.00     0.344 HD
ENDBRANCH  16  17
ENDBRANCH   8  16
BRANCH   9  21
ATOM     21  C   UNL A   1      30.820  27.213  23.385  1.00  0.00    -0.016 A 
ATOM     22  C   UNL A   1      29.428  27.120  23.483  1.00  0.00     0.009 A 
ATOM     23  C   UNL A   1      31.399  28.406  22.932  1.00  0.00     0.009 A 
ATOM     24  C   UNL A   1      28.626  28.208  23.126  1.00  0.00     0.001 A 
ATOM     25  C   UNL A   1      30.597  29.494  22.583  1.00  0.00     0.001 A 
ATOM     26  C   UNL A   1      29.210  29.393  22.677  1.00  0.00     0.000 A 
ENDBRANCH   9  21
ENDBRANCH   4   7
ENDBRANCH   2   3
ENDBRANCH   1   2
BRANCH   1  27
ATOM     27  C   UNL A   1      32.302  30.075  26.113  1.00  0.00     0.118 C 
BRANCH  27  28
ATOM     28  N   UNL A   1      32.232  31.471  26.524  1.00  0.00    -0.352 N 
ATOM     29  C   UNL A   1      33.049  32.234  27.331  1.00  0.00     0.251 C 
ATOM     30  H   UNL A   1      31.460  31.959  26.157  1.00  0.00     0.163 HD
ATOM     31  O   UNL A   1      32.694  33.369  27.627  1.00  0.00    -0.269 OA
BRANCH  29  32
ATOM     32  C   UNL A   1      34.314  31.687  27.882  1.00  0.00     0.039 A 
ATOM     33  C   UNL A   1      35.398  32.550  28.080  1.00  0.00     0.014 A 
ATOM     34  C   UNL A   1      34.454  30.337  28.196  1.00  0.00     0.014 A 
ATOM     35  C   UNL A   1      36.568  32.078  28.685  1.00  0.00     0.010 A 
ATOM     36  C   UNL A   1      35.562  29.898  28.912  1.00  0.00     0.010 A 
ATOM     37  C   UNL A   1      36.639  30.760  29.160  1.00  0.00    -0.014 A 
BRANCH  37  38
ATOM     38  C   UNL A   1      37.829  30.247  29.895  1.00  0.00     0.031 A 
ATOM     39  C   UNL A   1      38.087  30.692  31.313  1.00  0.00     0.074 A 
ATOM     40  C   UNL A   1      38.720  29.453  29.265  1.00  0.00     0.049 A 
ATOM     41  N   UNL A   1      39.122  30.463  32.080  1.00  0.00    -0.248 NA
ATOM     42  C   UNL A   1      37.062  31.545  31.933  1.00  0.00     0.031 C 
ATOM     43  C   UNL A   1      38.612  28.992  27.878  1.00  0.00     0.029 A 
ATOM     44  N   UNL A   1      39.898  28.899  29.702  1.00  0.00    -0.354 N 
ATOM     45  C   UNL A   1      38.884  31.165  33.258  1.00  0.00     0.074 A 
ATOM     46  C   UNL A   1      37.644  31.885  33.072  1.00  0.00     0.031 C 
ATOM     47  C   UNL A   1      39.659  28.203  27.591  1.00  0.00     0.029 A 
ATOM     48  C   UNL A   1      40.544  28.142  28.750  1.00  0.00     0.049 A 
ATOM     49  H   UNL A   1      40.250  29.033  30.612  1.00  0.00     0.167 HD
ATOM     50  C   UNL A   1      39.614  31.182  34.401  1.00  0.00     0.034 A 
ATOM     51  C   UNL A   1      41.719  27.484  28.801  1.00  0.00     0.034 A 
ATOM     52  C   UNL A   1      40.833  30.433  34.581  1.00  0.00     0.049 A 
ATOM     53  C   UNL A   1      42.519  27.524  30.078  1.00  0.00     0.074 A 
ATOM     54  C   UNL A   1      41.620  30.325  35.714  1.00  0.00     0.029 A 
ATOM     55  N   UNL A   1      41.445  29.665  33.598  1.00  0.00    -0.354 N 
ATOM     56  N   UNL A   1      42.253  28.152  31.201  1.00  0.00    -0.248 NA
ATOM     57  C   UNL A   1      43.773  26.760  30.099  1.00  0.00     0.031 C 
ATOM     58  C   UNL A   1      42.740  29.550  35.397  1.00  0.00     0.029 A 
ATOM     59  C   UNL A   1      42.614  29.105  34.091  1.00  0.00     0.049 A 
ATOM     60  H   UNL A   1      41.100  29.536  32.686  1.00  0.00     0.167 HD
ATOM     61  C   UNL A   1      43.290  27.829  32.071  1.00  0.00     0.074 A 
ATOM     62  C   UNL A   1      44.176  26.940  31.347  1.00  0.00     0.031 C 
ATOM     63  C   UNL A   1      43.491  28.226  33.354  1.00  0.00     0.034 A 
BRANCH  50  64
ATOM     64  C   UNL A   1      39.117  32.054  35.532  1.00  0.00     0.023 A 
ATOM     65  C   UNL A   1      39.530  33.391  35.673  1.00  0.00     0.031 A 
ATOM     66  C   UNL A   1      38.241  31.534  36.503  1.00  0.00     0.131 A 
ATOM     67  C   UNL A   1      39.143  34.132  36.799  1.00  0.00     0.055 A 
ATOM     68  C   UNL A   1      37.786  32.307  37.574  1.00  0.00     0.041 A 
ATOM     69  F   UNL A   1      37.825  30.260  36.436  1.00  0.00    -0.206 F 
ATOM     70  C   UNL A   1      38.251  33.608  37.737  1.00  0.00     0.022 A 
BRANCH  67  71
ATOM     71  S   UNL A   1      39.945  35.731  37.101  1.00  0.00     0.124 S 
ATOM     72  O   UNL A   1      41.337  35.330  37.290  1.00  0.00    -0.237 OA
ATOM     73  O   UNL A   1      39.653  36.466  35.877  1.00  0.00    -0.237 OA
ATOM     74  O   UNL A   1      39.278  36.227  38.303  1.00  0.00    -0.744 OA
ENDBRANCH  67  71
ENDBRANCH  50  64
BRANCH  51  75
ATOM     75  C   UNL A   1      42.219  26.732  27.612  1.00  0.00     0.023 A 
ATOM     76  C   UNL A   1      42.035  25.344  27.504  1.00  0.00     0.031 A 
ATOM     77  C   UNL A   1      42.927  27.383  26.586  1.00  0.00     0.131 A 
ATOM     78  C   UNL A   1      42.593  24.644  26.423  1.00  0.00     0.055 A 
ATOM     79  C   UNL A   1      43.432  26.690  25.483  1.00  0.00     0.041 A 
ATOM     80  F   UNL A   1      43.128  28.710  26.634  1.00  0.00    -0.206 F 
ATOM     81  C   UNL A   1      43.279  25.310  25.404  1.00  0.00     0.022 A 
BRANCH  78  82
ATOM     82  S   UNL A   1      42.487  22.833  26.412  1.00  0.00     0.124 S 
ATOM     83  O   UNL A   1      43.601  22.466  27.279  1.00  0.00    -0.237 OA
ATOM     84  O   UNL A   1      41.150  22.606  26.952  1.00  0.00    -0.237 OA
ATOM     85  O   UNL A   1      42.653  22.491  25.001  1.00  0.00    -0.744 OA
ENDBRANCH  78  82
ENDBRANCH  51  75
BRANCH  63  86
ATOM     86  C   UNL A   1      44.693  27.658  34.068  1.00  0.00     0.023 A 
ATOM     87  C   UNL A   1      44.626  26.458  34.796  1.00  0.00     0.031 A 
ATOM     88  C   UNL A   1      45.925  28.336  34.022  1.00  0.00     0.131 A 
ATOM     89  C   UNL A   1      45.753  26.001  35.495  1.00  0.00     0.055 A 
ATOM     90  C   UNL A   1      47.060  27.843  34.666  1.00  0.00     0.041 A 
ATOM     91  F   UNL A   1      46.046  29.488  33.343  1.00  0.00    -0.206 F 
ATOM     92  C   UNL A   1      46.974  26.676  35.420  1.00  0.00     0.022 A 
BRANCH  89  93
ATOM     93  S   UNL A   1      45.577  24.562  36.585  1.00  0.00     0.124 S 
ATOM     94  O   UNL A   1      46.234  25.024  37.805  1.00  0.00    -0.237 OA
ATOM     95  O   UNL A   1      44.129  24.404  36.662  1.00  0.00    -0.237 OA
ATOM     96  O   UNL A   1      46.279  23.500  35.867  1.00  0.00    -0.744 OA
ENDBRANCH  89  93
ENDBRANCH  63  86
ENDBRANCH  37  38
ENDBRANCH  29  32
ENDBRANCH  27  28
ENDBRANCH   1  27
TORSDOF 16
ENDMDL
