MODEL 1
REMARK VINA RESULT:     -11.5      0.000      0.000
REMARK SMILES O=C(NCCCNC(=O)[C@H](Cc1ccc(O)cc1)NC(=O)c1ccc(Cl)s1)c1ccc(-c2c3nc(c(-c4cc(S(=O)(=O)[O-])ccc4F)c4ccc([nH]4)c(-c4cc(S(=O)(=O)[O-])ccc4F)c4nc(c(-c5cc(S(=O)(=O)[O-])ccc5F)c5ccc2[nH]5)C=C4)C=C3)cc1
REMARK SMILES IDX 5 1 4 2 3 3 1 4 2 5 28 7 29 8 90 9 30 10 89 11 31 12 32 13
REMARK SMILES IDX 33 14 83 15 34 16 88 17 82 18 84 19 35 20 87 21 81 22 80 23
REMARK SMILES IDX 36 25 68 26 48 27 67 28 49 29 52 30 66 31 85 32 50 33 51 34
REMARK SMILES IDX 65 36 86 37 53 38 37 39 38 40 46 41 39 42 45 43 47 44 44 45
REMARK SMILES IDX 40 46 41 47 42 48 43 49 69 50 70 51 78 52 71 53 77 54 79 55
REMARK SMILES IDX 76 56 72 57 73 58 74 59 75 60 54 61 55 62 63 63 56 64 62 65
REMARK SMILES IDX 64 66 61 67 57 68 58 69 59 70 60 71 6 72 7 73 8 74 9 76
REMARK SMILES IDX 10 77 19 78 20 79 21 81 22 82 23 83 27 84 24 85 25 86 26 87
REMARK SMILES IDX 11 88 12 89 13 90 18 91 14 92 17 93 15 94 16 95
REMARK H PARENT 3 6 84 24 52 35 7 75 19 80 16 96
REMARK Flexibility Score: inf
ROOT
ATOM      1  C   UNL A   1      36.796  22.016  24.229  1.00  0.00     0.042 C 
ENDROOT
BRANCH   1   2
ATOM      2  C   UNL A   1      37.515  22.597  25.437  1.00  0.00     0.118 C 
BRANCH   2   3
ATOM      3  N   UNL A   1      38.769  21.908  25.705  1.00  0.00    -0.352 N 
ATOM      4  O   UNL A   1      40.931  21.540  26.080  1.00  0.00    -0.269 OA
ATOM      5  C   UNL A   1      39.989  22.328  26.186  1.00  0.00     0.251 C 
ATOM      6  H   UNL A   1      38.739  20.945  25.502  1.00  0.00     0.163 HD
BRANCH   5   7
ATOM      7  C   UNL A   1      40.227  23.663  26.806  1.00  0.00     0.039 A 
ATOM      8  C   UNL A   1      40.751  23.829  28.085  1.00  0.00     0.014 A 
ATOM      9  C   UNL A   1      40.032  24.811  26.019  1.00  0.00     0.014 A 
ATOM     10  C   UNL A   1      40.955  25.102  28.615  1.00  0.00     0.010 A 
ATOM     11  C   UNL A   1      40.357  26.088  26.507  1.00  0.00     0.010 A 
ATOM     12  C   UNL A   1      40.815  26.250  27.819  1.00  0.00    -0.014 A 
BRANCH  12  13
ATOM     13  C   UNL A   1      41.265  27.561  28.373  1.00  0.00     0.031 A 
ATOM     14  C   UNL A   1      42.709  27.984  28.335  1.00  0.00     0.074 A 
ATOM     15  C   UNL A   1      40.331  28.407  28.861  1.00  0.00     0.049 A 
ATOM     16  N   UNL A   1      43.240  29.124  28.703  1.00  0.00    -0.248 NA
ATOM     17  C   UNL A   1      43.683  27.003  27.838  1.00  0.00     0.031 C 
ATOM     18  C   UNL A   1      38.903  28.095  28.994  1.00  0.00     0.029 A 
ATOM     19  N   UNL A   1      40.420  29.707  29.295  1.00  0.00    -0.354 N 
ATOM     20  C   UNL A   1      44.609  28.994  28.498  1.00  0.00     0.074 A 
ATOM     21  C   UNL A   1      44.828  27.651  28.002  1.00  0.00     0.031 C 
ATOM     22  C   UNL A   1      38.244  29.193  29.387  1.00  0.00     0.029 A 
ATOM     23  C   UNL A   1      39.202  30.268  29.612  1.00  0.00     0.049 A 
ATOM     24  H   UNL A   1      41.273  30.192  29.371  1.00  0.00     0.167 HD
ATOM     25  C   UNL A   1      45.590  29.911  28.701  1.00  0.00     0.034 A 
ATOM     26  C   UNL A   1      38.885  31.504  30.043  1.00  0.00     0.034 A 
ATOM     27  C   UNL A   1      45.359  31.251  29.191  1.00  0.00     0.049 A 
ATOM     28  C   UNL A   1      39.989  32.507  30.230  1.00  0.00     0.074 A 
ATOM     29  C   UNL A   1      46.283  32.257  29.423  1.00  0.00     0.029 A 
ATOM     30  N   UNL A   1      44.117  31.775  29.523  1.00  0.00    -0.354 N 
ATOM     31  N   UNL A   1      41.278  32.361  30.024  1.00  0.00    -0.248 NA
ATOM     32  C   UNL A   1      39.599  33.840  30.705  1.00  0.00     0.031 C 
ATOM     33  C   UNL A   1      45.606  33.370  29.939  1.00  0.00     0.029 A 
ATOM     34  C   UNL A   1      44.252  33.082  29.971  1.00  0.00     0.049 A 
ATOM     35  H   UNL A   1      43.262  31.291  29.451  1.00  0.00     0.167 HD
ATOM     36  C   UNL A   1      41.853  33.583  30.354  1.00  0.00     0.074 A 
ATOM     37  C   UNL A   1      40.765  34.468  30.723  1.00  0.00     0.031 C 
ATOM     38  C   UNL A   1      43.161  33.941  30.367  1.00  0.00     0.034 A 
BRANCH  25  39
ATOM     39  C   UNL A   1      47.010  29.481  28.426  1.00  0.00     0.023 A 
ATOM     40  C   UNL A   1      47.802  28.869  29.412  1.00  0.00     0.031 A 
ATOM     41  C   UNL A   1      47.583  29.689  27.157  1.00  0.00     0.131 A 
ATOM     42  C   UNL A   1      49.137  28.537  29.133  1.00  0.00     0.055 A 
ATOM     43  C   UNL A   1      48.890  29.296  26.865  1.00  0.00     0.041 A 
ATOM     44  F   UNL A   1      46.880  30.284  26.180  1.00  0.00    -0.206 F 
ATOM     45  C   UNL A   1      49.679  28.725  27.860  1.00  0.00     0.022 A 
BRANCH  42  46
ATOM     46  S   UNL A   1      50.188  27.948  30.489  1.00  0.00     0.124 S 
ATOM     47  O   UNL A   1      50.308  29.151  31.310  1.00  0.00    -0.237 OA
ATOM     48  O   UNL A   1      49.395  26.863  31.055  1.00  0.00    -0.237 OA
ATOM     49  O   UNL A   1      51.418  27.537  29.815  1.00  0.00    -0.744 OA
ENDBRANCH  42  46
ENDBRANCH  25  39
BRANCH  26  50
ATOM     50  C   UNL A   1      37.469  31.855  30.362  1.00  0.00     0.023 A 
ATOM     51  C   UNL A   1      36.571  32.247  29.357  1.00  0.00     0.031 A 
ATOM     52  C   UNL A   1      37.007  31.838  31.690  1.00  0.00     0.131 A 
ATOM     53  C   UNL A   1      35.268  32.642  29.701  1.00  0.00     0.055 A 
ATOM     54  C   UNL A   1      35.696  32.179  32.020  1.00  0.00     0.041 A 
ATOM     55  F   UNL A   1      37.824  31.467  32.688  1.00  0.00    -0.206 F 
ATOM     56  C   UNL A   1      34.820  32.597  31.024  1.00  0.00     0.022 A 
BRANCH  53  57
ATOM     57  S   UNL A   1      34.186  33.304  28.404  1.00  0.00     0.124 S 
ATOM     58  O   UNL A   1      33.666  32.084  27.796  1.00  0.00    -0.237 OA
ATOM     59  O   UNL A   1      33.234  34.091  29.180  1.00  0.00    -0.237 OA
ATOM     60  O   UNL A   1      35.097  34.081  27.565  1.00  0.00    -0.744 OA
ENDBRANCH  53  57
ENDBRANCH  26  50
BRANCH  38  61
ATOM     61  C   UNL A   1      43.463  35.354  30.793  1.00  0.00     0.023 A 
ATOM     62  C   UNL A   1      43.461  35.723  32.150  1.00  0.00     0.031 A 
ATOM     63  C   UNL A   1      43.702  36.353  29.833  1.00  0.00     0.131 A 
ATOM     64  C   UNL A   1      43.621  37.069  32.508  1.00  0.00     0.055 A 
ATOM     65  C   UNL A   1      43.918  37.683  30.199  1.00  0.00     0.041 A 
ATOM     66  F   UNL A   1      43.713  36.054  28.525  1.00  0.00    -0.206 F 
ATOM     67  C   UNL A   1      43.861  38.049  31.542  1.00  0.00     0.022 A 
BRANCH  64  68
ATOM     68  S   UNL A   1      43.399  37.537  34.247  1.00  0.00     0.124 S 
ATOM     69  O   UNL A   1      42.448  36.534  34.713  1.00  0.00    -0.237 OA
ATOM     70  O   UNL A   1      44.755  37.425  34.774  1.00  0.00    -0.237 OA
ATOM     71  O   UNL A   1      42.875  38.900  34.170  1.00  0.00    -0.744 OA
ENDBRANCH  64  68
ENDBRANCH  38  61
ENDBRANCH  12  13
ENDBRANCH   5   7
ENDBRANCH   2   3
ENDBRANCH   1   2
BRANCH   1  72
ATOM     72  C   UNL A   1      35.473  21.352  24.593  1.00  0.00     0.117 C 
BRANCH  72  73
ATOM     73  N   UNL A   1      35.258  21.241  26.026  1.00  0.00    -0.354 N 
ATOM     74  C   UNL A   1      34.297  21.839  26.796  1.00  0.00     0.242 C 
ATOM     75  H   UNL A   1      35.889  20.657  26.508  1.00  0.00     0.163 HD
ATOM     76  O   UNL A   1      34.094  21.362  27.917  1.00  0.00    -0.273 OA
BRANCH  74  77
ATOM     77  C   UNL A   1      33.416  22.970  26.211  1.00  0.00     0.176 C 
BRANCH  77  78
ATOM     78  N   UNL A   1      32.221  23.047  27.066  1.00  0.00    -0.339 N 
ATOM     79  C   UNL A   1      30.953  23.485  26.761  1.00  0.00     0.262 C 
ATOM     80  H   UNL A   1      32.348  22.741  27.993  1.00  0.00     0.164 HD
ATOM     81  O   UNL A   1      30.049  23.173  27.536  1.00  0.00    -0.268 OA
BRANCH  79  82
ATOM     82  C   UNL A   1      30.705  24.196  25.521  1.00  0.00     0.093 A 
ATOM     83  C   UNL A   1      30.690  23.660  24.243  1.00  0.00     0.027 A 
ATOM     84  S   UNL A   1      30.261  25.853  25.501  1.00  0.00    -0.118 S 
ATOM     85  C   UNL A   1      30.451  24.649  23.242  1.00  0.00     0.033 A 
ATOM     86  C   UNL A   1      30.224  25.875  23.810  1.00  0.00     0.094 A 
ATOM     87  Cl  UNL A   1      29.928  27.343  22.975  1.00  0.00    -0.072 Cl
ENDBRANCH  79  82
ENDBRANCH  77  78
BRANCH  77  88
ATOM     88  C   UNL A   1      34.192  24.311  26.223  1.00  0.00     0.070 C 
BRANCH  88  89
ATOM     89  C   UNL A   1      34.045  25.205  25.006  1.00  0.00    -0.045 A 
ATOM     90  C   UNL A   1      33.799  26.584  25.089  1.00  0.00     0.007 A 
ATOM     91  C   UNL A   1      34.076  24.616  23.730  1.00  0.00     0.007 A 
ATOM     92  C   UNL A   1      33.677  27.366  23.936  1.00  0.00     0.046 A 
ATOM     93  C   UNL A   1      33.923  25.391  22.578  1.00  0.00     0.046 A 
ATOM     94  C   UNL A   1      33.747  26.761  22.688  1.00  0.00     0.115 A 
BRANCH  94  95
ATOM     95  O   UNL A   1      33.630  27.482  21.540  1.00  0.00    -0.508 OA
ATOM     96  H   UNL A   1      34.060  28.311  21.461  1.00  0.00     0.293 HD
ENDBRANCH  94  95
ENDBRANCH  88  89
ENDBRANCH  77  88
ENDBRANCH  74  77
ENDBRANCH  72  73
ENDBRANCH   1  72
TORSDOF 18
ENDMDL
MODEL 2
REMARK VINA RESULT:     -11.5      4.210      9.049
REMARK SMILES O=C(NCCCNC(=O)[C@H](Cc1ccc(O)cc1)NC(=O)c1ccc(Cl)s1)c1ccc(-c2c3nc(c(-c4cc(S(=O)(=O)[O-])ccc4F)c4ccc([nH]4)c(-c4cc(S(=O)(=O)[O-])ccc4F)c4nc(c(-c5cc(S(=O)(=O)[O-])ccc5F)c5ccc2[nH]5)C=C4)C=C3)cc1
REMARK SMILES IDX 5 1 4 2 3 3 1 4 2 5 28 7 29 8 90 9 30 10 89 11 31 12 32 13
REMARK SMILES IDX 33 14 83 15 34 16 88 17 82 18 84 19 35 20 87 21 81 22 80 23
REMARK SMILES IDX 36 25 68 26 48 27 67 28 49 29 52 30 66 31 85 32 50 33 51 34
REMARK SMILES IDX 65 36 86 37 53 38 37 39 38 40 46 41 39 42 45 43 47 44 44 45
REMARK SMILES IDX 40 46 41 47 42 48 43 49 69 50 70 51 78 52 71 53 77 54 79 55
REMARK SMILES IDX 76 56 72 57 73 58 74 59 75 60 54 61 55 62 63 63 56 64 62 65
REMARK SMILES IDX 64 66 61 67 57 68 58 69 59 70 60 71 6 72 7 73 8 74 9 76
REMARK SMILES IDX 10 77 19 78 20 79 21 81 22 82 23 83 27 84 24 85 25 86 26 87
REMARK SMILES IDX 11 88 12 89 13 90 18 91 14 92 17 93 15 94 16 95
REMARK H PARENT 3 6 84 24 52 35 7 75 19 80 16 96
REMARK Flexibility Score: inf
ROOT
ATOM      1  C   UNL A   1      31.907  28.031  26.259  1.00  0.00     0.042 C 
ENDROOT
BRANCH   1   2
ATOM      2  C   UNL A   1      32.801  28.988  25.485  1.00  0.00     0.118 C 
BRANCH   2   3
ATOM      3  N   UNL A   1      32.490  30.380  25.779  1.00  0.00    -0.352 N 
ATOM      4  O   UNL A   1      32.308  32.312  26.865  1.00  0.00    -0.269 OA
ATOM      5  C   UNL A   1      32.942  31.263  26.732  1.00  0.00     0.251 C 
ATOM      6  H   UNL A   1      31.820  30.768  25.170  1.00  0.00     0.163 HD
BRANCH   5   7
ATOM      7  C   UNL A   1      34.127  31.018  27.603  1.00  0.00     0.039 A 
ATOM      8  C   UNL A   1      34.498  29.754  28.051  1.00  0.00     0.014 A 
ATOM      9  C   UNL A   1      34.986  32.096  27.883  1.00  0.00     0.014 A 
ATOM     10  C   UNL A   1      35.618  29.583  28.863  1.00  0.00     0.010 A 
ATOM     11  C   UNL A   1      36.182  31.903  28.595  1.00  0.00     0.010 A 
ATOM     12  C   UNL A   1      36.509  30.641  29.103  1.00  0.00    -0.014 A 
BRANCH  12  13
ATOM     13  C   UNL A   1      37.803  30.344  29.785  1.00  0.00     0.031 A 
ATOM     14  C   UNL A   1      38.097  30.835  31.177  1.00  0.00     0.074 A 
ATOM     15  C   UNL A   1      38.700  29.558  29.148  1.00  0.00     0.049 A 
ATOM     16  N   UNL A   1      39.140  30.592  31.930  1.00  0.00    -0.248 NA
ATOM     17  C   UNL A   1      37.105  31.724  31.797  1.00  0.00     0.031 C 
ATOM     18  C   UNL A   1      38.552  29.056  27.777  1.00  0.00     0.029 A 
ATOM     19  N   UNL A   1      39.885  29.008  29.568  1.00  0.00    -0.354 N 
ATOM     20  C   UNL A   1      38.942  31.307  33.106  1.00  0.00     0.074 A 
ATOM     21  C   UNL A   1      37.689  32.019  32.950  1.00  0.00     0.031 C 
ATOM     22  C   UNL A   1      39.551  28.207  27.505  1.00  0.00     0.029 A 
ATOM     23  C   UNL A   1      40.458  28.159  28.645  1.00  0.00     0.049 A 
ATOM     24  H   UNL A   1      40.288  29.201  30.445  1.00  0.00     0.167 HD
ATOM     25  C   UNL A   1      39.728  31.361  34.211  1.00  0.00     0.034 A 
ATOM     26  C   UNL A   1      41.588  27.427  28.701  1.00  0.00     0.034 A 
ATOM     27  C   UNL A   1      40.973  30.642  34.357  1.00  0.00     0.049 A 
ATOM     28  C   UNL A   1      42.422  27.484  29.950  1.00  0.00     0.074 A 
ATOM     29  C   UNL A   1      41.838  30.624  35.439  1.00  0.00     0.029 A 
ATOM     30  N   UNL A   1      41.531  29.811  33.395  1.00  0.00    -0.354 N 
ATOM     31  N   UNL A   1      42.210  28.166  31.052  1.00  0.00    -0.248 NA
ATOM     32  C   UNL A   1      43.647  26.675  29.965  1.00  0.00     0.031 C 
ATOM     33  C   UNL A   1      42.940  29.821  35.113  1.00  0.00     0.029 A 
ATOM     34  C   UNL A   1      42.733  29.289  33.851  1.00  0.00     0.049 A 
ATOM     35  H   UNL A   1      41.132  29.619  32.515  1.00  0.00     0.167 HD
ATOM     36  C   UNL A   1      43.280  27.873  31.889  1.00  0.00     0.074 A 
ATOM     37  C   UNL A   1      44.109  26.915  31.183  1.00  0.00     0.031 C 
ATOM     38  C   UNL A   1      43.564  28.360  33.122  1.00  0.00     0.034 A 
BRANCH  25  39
ATOM     39  C   UNL A   1      39.280  32.258  35.339  1.00  0.00     0.023 A 
ATOM     40  C   UNL A   1      39.732  33.584  35.453  1.00  0.00     0.031 A 
ATOM     41  C   UNL A   1      38.388  31.780  36.317  1.00  0.00     0.131 A 
ATOM     42  C   UNL A   1      39.336  34.367  36.549  1.00  0.00     0.055 A 
ATOM     43  C   UNL A   1      37.947  32.585  37.369  1.00  0.00     0.041 A 
ATOM     44  F   UNL A   1      37.936  30.517  36.269  1.00  0.00    -0.206 F 
ATOM     45  C   UNL A   1      38.429  33.885  37.495  1.00  0.00     0.022 A 
BRANCH  42  46
ATOM     46  S   UNL A   1      40.105  35.994  36.777  1.00  0.00     0.124 S 
ATOM     47  O   UNL A   1      41.510  35.633  36.949  1.00  0.00    -0.237 OA
ATOM     48  O   UNL A   1      39.768  36.680  35.535  1.00  0.00    -0.237 OA
ATOM     49  O   UNL A   1      39.452  36.517  37.976  1.00  0.00    -0.744 OA
ENDBRANCH  42  46
ENDBRANCH  25  39
BRANCH  26  50
ATOM     50  C   UNL A   1      42.016  26.607  27.530  1.00  0.00     0.023 A 
ATOM     51  C   UNL A   1      41.862  25.211  27.521  1.00  0.00     0.031 A 
ATOM     52  C   UNL A   1      42.623  27.211  26.414  1.00  0.00     0.131 A 
ATOM     53  C   UNL A   1      42.344  24.463  26.435  1.00  0.00     0.055 A 
ATOM     54  C   UNL A   1      43.051  26.467  25.314  1.00  0.00     0.041 A 
ATOM     55  F   UNL A   1      42.791  28.542  26.370  1.00  0.00    -0.206 F 
ATOM     56  C   UNL A   1      42.925  25.083  25.326  1.00  0.00     0.022 A 
BRANCH  53  57
ATOM     57  S   UNL A   1      42.283  22.652  26.530  1.00  0.00     0.124 S 
ATOM     58  O   UNL A   1      40.913  22.375  26.112  1.00  0.00    -0.237 OA
ATOM     59  O   UNL A   1      43.330  22.267  25.589  1.00  0.00    -0.237 OA
ATOM     60  O   UNL A   1      42.577  22.375  27.934  1.00  0.00    -0.744 OA
ENDBRANCH  53  57
ENDBRANCH  26  50
BRANCH  38  61
ATOM     61  C   UNL A   1      44.826  27.848  33.769  1.00  0.00     0.023 A 
ATOM     62  C   UNL A   1      44.812  26.705  34.588  1.00  0.00     0.031 A 
ATOM     63  C   UNL A   1      46.039  28.539  33.611  1.00  0.00     0.131 A 
ATOM     64  C   UNL A   1      45.974  26.326  35.276  1.00  0.00     0.055 A 
ATOM     65  C   UNL A   1      47.207  28.123  34.254  1.00  0.00     0.041 A 
ATOM     66  F   UNL A   1      46.105  29.637  32.843  1.00  0.00    -0.206 F 
ATOM     67  C   UNL A   1      47.174  27.021  35.105  1.00  0.00     0.022 A 
BRANCH  64  68
ATOM     68  S   UNL A   1      45.866  24.978  36.485  1.00  0.00     0.124 S 
ATOM     69  O   UNL A   1      45.305  25.657  37.648  1.00  0.00    -0.237 OA
ATOM     70  O   UNL A   1      44.985  24.029  35.814  1.00  0.00    -0.237 OA
ATOM     71  O   UNL A   1      47.253  24.538  36.633  1.00  0.00    -0.744 OA
ENDBRANCH  64  68
ENDBRANCH  38  61
ENDBRANCH  12  13
ENDBRANCH   5   7
ENDBRANCH   2   3
ENDBRANCH   1   2
BRANCH   1  72
ATOM     72  C   UNL A   1      32.471  26.616  26.319  1.00  0.00     0.117 C 
BRANCH  72  73
ATOM     73  N   UNL A   1      31.540  25.648  26.871  1.00  0.00    -0.354 N 
ATOM     74  C   UNL A   1      31.177  24.426  26.369  1.00  0.00     0.242 C 
ATOM     75  H   UNL A   1      31.112  25.903  27.721  1.00  0.00     0.163 HD
ATOM     76  O   UNL A   1      30.633  23.635  27.145  1.00  0.00    -0.273 OA
BRANCH  74  77
ATOM     77  C   UNL A   1      31.574  24.023  24.928  1.00  0.00     0.176 C 
BRANCH  77  78
ATOM     78  N   UNL A   1      31.701  22.557  24.928  1.00  0.00    -0.339 N 
ATOM     79  C   UNL A   1      32.824  21.776  25.072  1.00  0.00     0.262 C 
ATOM     80  H   UNL A   1      30.858  22.064  24.808  1.00  0.00     0.164 HD
ATOM     81  O   UNL A   1      32.651  20.589  25.347  1.00  0.00    -0.268 OA
BRANCH  79  82
ATOM     82  C   UNL A   1      34.144  22.374  24.995  1.00  0.00     0.093 A 
ATOM     83  C   UNL A   1      34.860  22.665  23.845  1.00  0.00     0.027 A 
ATOM     84  S   UNL A   1      34.968  22.930  26.394  1.00  0.00    -0.118 S 
ATOM     85  C   UNL A   1      36.146  23.215  24.130  1.00  0.00     0.033 A 
ATOM     86  C   UNL A   1      36.317  23.384  25.480  1.00  0.00     0.094 A 
ATOM     87  Cl  UNL A   1      37.722  23.984  26.259  1.00  0.00    -0.072 Cl
ENDBRANCH  79  82
ENDBRANCH  77  78
BRANCH  77  88
ATOM     88  C   UNL A   1      30.484  24.483  23.926  1.00  0.00     0.070 C 
BRANCH  88  89
ATOM     89  C   UNL A   1      30.567  25.913  23.425  1.00  0.00    -0.045 A 
ATOM     90  C   UNL A   1      29.544  26.855  23.610  1.00  0.00     0.007 A 
ATOM     91  C   UNL A   1      31.688  26.297  22.667  1.00  0.00     0.007 A 
ATOM     92  C   UNL A   1      29.673  28.164  23.134  1.00  0.00     0.046 A 
ATOM     93  C   UNL A   1      31.803  27.594  22.164  1.00  0.00     0.046 A 
ATOM     94  C   UNL A   1      30.806  28.523  22.419  1.00  0.00     0.115 A 
BRANCH  94  95
ATOM     95  O   UNL A   1      30.972  29.784  21.933  1.00  0.00    -0.508 OA
ATOM     96  H   UNL A   1      31.345  30.450  22.475  1.00  0.00     0.293 HD
ENDBRANCH  94  95
ENDBRANCH  88  89
ENDBRANCH  77  88
ENDBRANCH  74  77
ENDBRANCH  72  73
ENDBRANCH   1  72
TORSDOF 18
ENDMDL
MODEL 3
REMARK VINA RESULT:     -11.4      2.718      3.177
REMARK SMILES O=C(NCCCNC(=O)[C@H](Cc1ccc(O)cc1)NC(=O)c1ccc(Cl)s1)c1ccc(-c2c3nc(c(-c4cc(S(=O)(=O)[O-])ccc4F)c4ccc([nH]4)c(-c4cc(S(=O)(=O)[O-])ccc4F)c4nc(c(-c5cc(S(=O)(=O)[O-])ccc5F)c5ccc2[nH]5)C=C4)C=C3)cc1
REMARK SMILES IDX 5 1 4 2 3 3 1 4 2 5 28 7 29 8 90 9 30 10 89 11 31 12 32 13
REMARK SMILES IDX 33 14 83 15 34 16 88 17 82 18 84 19 35 20 87 21 81 22 80 23
REMARK SMILES IDX 36 25 68 26 48 27 67 28 49 29 52 30 66 31 85 32 50 33 51 34
REMARK SMILES IDX 65 36 86 37 53 38 37 39 38 40 46 41 39 42 45 43 47 44 44 45
REMARK SMILES IDX 40 46 41 47 42 48 43 49 69 50 70 51 78 52 71 53 77 54 79 55
REMARK SMILES IDX 76 56 72 57 73 58 74 59 75 60 54 61 55 62 63 63 56 64 62 65
REMARK SMILES IDX 64 66 61 67 57 68 58 69 59 70 60 71 6 72 7 73 8 74 9 76
REMARK SMILES IDX 10 77 19 78 20 79 21 81 22 82 23 83 27 84 24 85 25 86 26 87
REMARK SMILES IDX 11 88 12 89 13 90 18 91 14 92 17 93 15 94 16 95
REMARK H PARENT 3 6 84 24 52 35 7 75 19 80 16 96
REMARK Flexibility Score: inf
ROOT
ATOM      1  C   UNL A   1      35.852  21.762  24.636  1.00  0.00     0.042 C 
ENDROOT
BRANCH   1   2
ATOM      2  C   UNL A   1      36.770  22.242  25.749  1.00  0.00     0.118 C 
BRANCH   2   3
ATOM      3  N   UNL A   1      37.932  21.380  25.905  1.00  0.00    -0.352 N 
ATOM      4  O   UNL A   1      40.044  20.704  26.085  1.00  0.00    -0.269 OA
ATOM      5  C   UNL A   1      39.237  21.617  26.273  1.00  0.00     0.251 C 
ATOM      6  H   UNL A   1      37.746  20.433  25.708  1.00  0.00     0.163 HD
BRANCH   5   7
ATOM      7  C   UNL A   1      39.718  22.897  26.866  1.00  0.00     0.039 A 
ATOM      8  C   UNL A   1      40.798  22.977  27.739  1.00  0.00     0.014 A 
ATOM      9  C   UNL A   1      39.134  24.099  26.427  1.00  0.00     0.014 A 
ATOM     10  C   UNL A   1      41.206  24.203  28.264  1.00  0.00     0.010 A 
ATOM     11  C   UNL A   1      39.627  25.343  26.857  1.00  0.00     0.010 A 
ATOM     12  C   UNL A   1      40.667  25.409  27.791  1.00  0.00    -0.014 A 
BRANCH  12  13
ATOM     13  C   UNL A   1      41.300  26.691  28.221  1.00  0.00     0.031 A 
ATOM     14  C   UNL A   1      42.713  27.042  27.844  1.00  0.00     0.074 A 
ATOM     15  C   UNL A   1      40.550  27.577  28.914  1.00  0.00     0.049 A 
ATOM     16  N   UNL A   1      43.373  28.151  28.075  1.00  0.00    -0.248 NA
ATOM     17  C   UNL A   1      43.493  26.019  27.134  1.00  0.00     0.031 C 
ATOM     18  C   UNL A   1      39.180  27.335  29.379  1.00  0.00     0.029 A 
ATOM     19  N   UNL A   1      40.804  28.866  29.312  1.00  0.00    -0.354 N 
ATOM     20  C   UNL A   1      44.648  27.956  27.554  1.00  0.00     0.074 A 
ATOM     21  C   UNL A   1      44.675  26.608  27.023  1.00  0.00     0.031 C 
ATOM     22  C   UNL A   1      38.687  28.460  29.914  1.00  0.00     0.029 A 
ATOM     23  C   UNL A   1      39.724  29.484  29.906  1.00  0.00     0.049 A 
ATOM     24  H   UNL A   1      41.674  29.308  29.185  1.00  0.00     0.167 HD
ATOM     25  C   UNL A   1      45.693  28.821  27.519  1.00  0.00     0.034 A 
ATOM     26  C   UNL A   1      39.580  30.730  30.397  1.00  0.00     0.034 A 
ATOM     27  C   UNL A   1      45.651  30.165  28.047  1.00  0.00     0.049 A 
ATOM     28  C   UNL A   1      40.746  31.675  30.317  1.00  0.00     0.074 A 
ATOM     29  C   UNL A   1      46.654  31.122  28.053  1.00  0.00     0.029 A 
ATOM     30  N   UNL A   1      44.550  30.747  28.660  1.00  0.00    -0.354 N 
ATOM     31  N   UNL A   1      41.941  31.467  29.814  1.00  0.00    -0.248 NA
ATOM     32  C   UNL A   1      40.546  33.021  30.868  1.00  0.00     0.031 C 
ATOM     33  C   UNL A   1      46.174  32.262  28.711  1.00  0.00     0.029 A 
ATOM     34  C   UNL A   1      44.853  32.041  29.061  1.00  0.00     0.049 A 
ATOM     35  H   UNL A   1      43.679  30.307  28.792  1.00  0.00     0.167 HD
ATOM     36  C   UNL A   1      42.639  32.656  29.997  1.00  0.00     0.074 A 
ATOM     37  C   UNL A   1      41.714  33.590  30.609  1.00  0.00     0.031 C 
ATOM     38  C   UNL A   1      43.930  32.949  29.701  1.00  0.00     0.034 A 
BRANCH  25  39
ATOM     39  C   UNL A   1      46.985  28.324  26.918  1.00  0.00     0.023 A 
ATOM     40  C   UNL A   1      47.167  28.232  25.528  1.00  0.00     0.031 A 
ATOM     41  C   UNL A   1      48.052  27.934  27.748  1.00  0.00     0.131 A 
ATOM     42  C   UNL A   1      48.363  27.710  25.010  1.00  0.00     0.055 A 
ATOM     43  C   UNL A   1      49.264  27.478  27.227  1.00  0.00     0.041 A 
ATOM     44  F   UNL A   1      47.930  27.984  29.085  1.00  0.00    -0.206 F 
ATOM     45  C   UNL A   1      49.422  27.355  25.849  1.00  0.00     0.022 A 
BRANCH  42  46
ATOM     46  S   UNL A   1      48.480  27.408  23.225  1.00  0.00     0.124 S 
ATOM     47  O   UNL A   1      47.325  28.151  22.727  1.00  0.00    -0.237 OA
ATOM     48  O   UNL A   1      49.788  27.961  22.896  1.00  0.00    -0.237 OA
ATOM     49  O   UNL A   1      48.371  25.954  23.117  1.00  0.00    -0.744 OA
ENDBRANCH  42  46
ENDBRANCH  25  39
BRANCH  26  50
ATOM     50  C   UNL A   1      38.299  31.147  31.039  1.00  0.00     0.023 A 
ATOM     51  C   UNL A   1      37.277  31.761  30.297  1.00  0.00     0.031 A 
ATOM     52  C   UNL A   1      38.096  30.969  32.419  1.00  0.00     0.131 A 
ATOM     53  C   UNL A   1      36.115  32.208  30.946  1.00  0.00     0.055 A 
ATOM     54  C   UNL A   1      36.917  31.366  33.050  1.00  0.00     0.041 A 
ATOM     55  F   UNL A   1      39.039  30.384  33.173  1.00  0.00    -0.206 F 
ATOM     56  C   UNL A   1      35.922  32.002  32.315  1.00  0.00     0.022 A 
BRANCH  53  57
ATOM     57  S   UNL A   1      34.890  33.146  29.993  1.00  0.00     0.124 S 
ATOM     58  O   UNL A   1      34.320  32.113  29.135  1.00  0.00    -0.237 OA
ATOM     59  O   UNL A   1      34.019  33.659  31.045  1.00  0.00    -0.237 OA
ATOM     60  O   UNL A   1      35.694  34.155  29.306  1.00  0.00    -0.744 OA
ENDBRANCH  53  57
ENDBRANCH  26  50
BRANCH  38  61
ATOM     61  C   UNL A   1      44.395  34.341  30.041  1.00  0.00     0.023 A 
ATOM     62  C   UNL A   1      44.268  35.397  29.121  1.00  0.00     0.031 A 
ATOM     63  C   UNL A   1      45.019  34.604  31.272  1.00  0.00     0.131 A 
ATOM     64  C   UNL A   1      44.822  36.651  29.416  1.00  0.00     0.055 A 
ATOM     65  C   UNL A   1      45.519  35.870  31.584  1.00  0.00     0.041 A 
ATOM     66  F   UNL A   1      45.168  33.631  32.184  1.00  0.00    -0.206 F 
ATOM     67  C   UNL A   1      45.436  36.897  30.646  1.00  0.00     0.022 A 
BRANCH  64  68
ATOM     68  S   UNL A   1      44.828  37.924  28.123  1.00  0.00     0.124 S 
ATOM     69  O   UNL A   1      45.441  37.217  27.004  1.00  0.00    -0.237 OA
ATOM     70  O   UNL A   1      43.409  38.231  27.983  1.00  0.00    -0.237 OA
ATOM     71  O   UNL A   1      45.639  38.994  28.701  1.00  0.00    -0.744 OA
ENDBRANCH  64  68
ENDBRANCH  38  61
ENDBRANCH  12  13
ENDBRANCH   5   7
ENDBRANCH   2   3
ENDBRANCH   1   2
BRANCH   1  72
ATOM     72  C   UNL A   1      34.463  22.386  24.706  1.00  0.00     0.117 C 
BRANCH  72  73
ATOM     73  N   UNL A   1      33.905  22.403  26.047  1.00  0.00    -0.354 N 
ATOM     74  C   UNL A   1      32.890  23.177  26.542  1.00  0.00     0.242 C 
ATOM     75  H   UNL A   1      34.311  21.772  26.686  1.00  0.00     0.163 HD
ATOM     76  O   UNL A   1      32.362  22.810  27.596  1.00  0.00    -0.273 OA
BRANCH  74  77
ATOM     77  C   UNL A   1      32.349  24.376  25.725  1.00  0.00     0.176 C 
BRANCH  77  78
ATOM     78  N   UNL A   1      31.368  23.821  24.778  1.00  0.00    -0.339 N 
ATOM     79  C   UNL A   1      30.777  24.410  23.686  1.00  0.00     0.262 C 
ATOM     80  H   UNL A   1      31.095  22.892  24.955  1.00  0.00     0.164 HD
ATOM     81  O   UNL A   1      30.231  23.665  22.872  1.00  0.00    -0.268 OA
BRANCH  79  82
ATOM     82  C   UNL A   1      30.895  25.841  23.474  1.00  0.00     0.093 A 
ATOM     83  C   UNL A   1      31.932  26.505  22.837  1.00  0.00     0.027 A 
ATOM     84  S   UNL A   1      29.639  26.926  23.908  1.00  0.00    -0.118 S 
ATOM     85  C   UNL A   1      31.750  27.921  22.836  1.00  0.00     0.033 A 
ATOM     86  C   UNL A   1      30.551  28.260  23.406  1.00  0.00     0.094 A 
ATOM     87  Cl  UNL A   1      29.950  29.849  23.639  1.00  0.00    -0.072 Cl
ENDBRANCH  79  82
ENDBRANCH  77  78
BRANCH  77  88
ATOM     88  C   UNL A   1      31.683  25.408  26.670  1.00  0.00     0.070 C 
BRANCH  88  89
ATOM     89  C   UNL A   1      32.265  26.809  26.682  1.00  0.00    -0.045 A 
ATOM     90  C   UNL A   1      31.580  27.923  27.189  1.00  0.00     0.007 A 
ATOM     91  C   UNL A   1      33.519  27.022  26.083  1.00  0.00     0.007 A 
ATOM     92  C   UNL A   1      32.164  29.194  27.183  1.00  0.00     0.046 A 
ATOM     93  C   UNL A   1      34.090  28.296  26.048  1.00  0.00     0.046 A 
ATOM     94  C   UNL A   1      33.419  29.368  26.616  1.00  0.00     0.115 A 
BRANCH  94  95
ATOM     95  O   UNL A   1      34.024  30.587  26.584  1.00  0.00    -0.508 OA
ATOM     96  H   UNL A   1      34.598  30.844  27.278  1.00  0.00     0.293 HD
ENDBRANCH  94  95
ENDBRANCH  88  89
ENDBRANCH  77  88
ENDBRANCH  74  77
ENDBRANCH  72  73
ENDBRANCH   1  72
TORSDOF 18
ENDMDL
