MODEL 1
REMARK VINA RESULT:     -12.9      0.000      0.000
REMARK SMILES O=C(Cn1c(=O)c2c3c(sc2n(Cc2ccc(Cl)cc2Cl)c1=O)CCCC3)NCCCNC(=O)c1ccc(-c2c3nc(c(-c4cc(S(=O)(=O)[O-])ccc4F)c4ccc([nH]4)c(-c4cc(S(=O)(=O)[O-])ccc4F)c4nc(c(-c5cc(S(=O)(=O)[O-])ccc5F)c5ccc2[nH]5)C=C4)C=C3)cc1
REMARK SMILES IDX 30 1 29 2 28 3 1 4 2 5 3 7 4 8 5 9 22 10 6 11 7 12 12 13
REMARK SMILES IDX 23 14 8 15 11 16 9 17 27 18 10 19 24 20 26 21 25 22 13 23
REMARK SMILES IDX 14 24 15 25 20 26 16 27 19 28 21 29 17 30 18 31 31 32 32 33
REMARK SMILES IDX 33 34 34 36 35 37 36 38 97 39 37 40 96 41 38 42 39 43 40 44
REMARK SMILES IDX 90 45 41 46 95 47 89 48 91 49 42 50 94 51 88 52 87 53 43 55
REMARK SMILES IDX 75 56 55 57 74 58 56 59 59 60 73 61 92 62 57 63 58 64 72 66
REMARK SMILES IDX 93 67 60 68 44 69 45 70 53 71 46 72 52 73 54 74 51 75 47 76
REMARK SMILES IDX 48 77 49 78 50 79 76 80 77 81 85 82 78 83 84 84 86 85 83 86
REMARK SMILES IDX 79 87 80 88 81 89 82 90 61 91 62 92 70 93 63 94 69 95 71 96
REMARK SMILES IDX 68 97 64 98 65 99 66 100 67 101
REMARK H PARENT 28 6 32 35 91 54 59 65
REMARK Flexibility Score: inf
ROOT
ATOM      1  C   UNL A   1      39.578  21.953  26.507  1.00  0.00     0.042 C 
ENDROOT
BRANCH   1   2
ATOM      2  C   UNL A   1      39.259  23.427  26.787  1.00  0.00     0.117 C 
BRANCH   2   3
ATOM      3  N   UNL A   1      37.835  23.698  26.836  1.00  0.00    -0.354 N 
ATOM      4  O   UNL A   1      37.459  23.701  24.564  1.00  0.00    -0.273 OA
ATOM      5  C   UNL A   1      37.040  23.829  25.711  1.00  0.00     0.240 C 
ATOM      6  H   UNL A   1      37.411  23.794  27.719  1.00  0.00     0.163 HD
BRANCH   5   7
ATOM      7  C   UNL A   1      35.551  24.024  26.031  1.00  0.00     0.230 C 
BRANCH   7   8
ATOM      8  N   UNL A   1      34.738  23.239  25.108  1.00  0.00    -0.250 N 
ATOM      9  C   UNL A   1      34.647  21.864  25.322  1.00  0.00     0.265 A 
ATOM     10  C   UNL A   1      34.219  23.925  23.998  1.00  0.00     0.332 A 
ATOM     11  O   UNL A   1      35.272  21.259  26.199  1.00  0.00    -0.268 OA
ATOM     12  C   UNL A   1      33.785  21.168  24.395  1.00  0.00     0.079 A 
ATOM     13  N   UNL A   1      33.313  23.249  23.176  1.00  0.00    -0.280 N 
ATOM     14  O   UNL A   1      34.550  25.094  23.775  1.00  0.00    -0.247 OA
ATOM     15  C   UNL A   1      33.534  19.757  24.229  1.00  0.00    -0.019 A 
ATOM     16  C   UNL A   1      33.124  21.901  23.440  1.00  0.00     0.113 A 
ATOM     17  C   UNL A   1      32.648  19.535  23.190  1.00  0.00     0.011 A 
ATOM     18  C   UNL A   1      34.179  18.609  24.955  1.00  0.00     0.037 C 
ATOM     19  S   UNL A   1      32.016  20.974  22.573  1.00  0.00    -0.122 S 
ATOM     20  C   UNL A   1      32.238  18.208  22.641  1.00  0.00     0.047 C 
ATOM     21  C   UNL A   1      33.501  17.264  24.622  1.00  0.00     0.005 C 
ATOM     22  C   UNL A   1      33.206  17.121  23.122  1.00  0.00     0.006 C 
BRANCH  13  23
ATOM     23  C   UNL A   1      32.678  23.994  22.064  1.00  0.00     0.165 C 
BRANCH  23  24
ATOM     24  C   UNL A   1      31.781  25.133  22.525  1.00  0.00    -0.009 A 
ATOM     25  C   UNL A   1      31.952  26.403  21.939  1.00  0.00     0.008 A 
ATOM     26  C   UNL A   1      30.782  25.002  23.509  1.00  0.00     0.047 A 
ATOM     27  C   UNL A   1      31.114  27.473  22.266  1.00  0.00     0.021 A 
ATOM     28  C   UNL A   1      29.898  26.051  23.782  1.00  0.00     0.041 A 
ATOM     29  Cl  UNL A   1      30.641  23.620  24.536  1.00  0.00    -0.084 Cl
ATOM     30  C   UNL A   1      30.066  27.281  23.158  1.00  0.00     0.042 A 
ATOM     31  Cl  UNL A   1      28.994  28.574  23.522  1.00  0.00    -0.084 Cl
ENDBRANCH  23  24
ENDBRANCH  13  23
ENDBRANCH   7   8
ENDBRANCH   5   7
ENDBRANCH   2   3
ENDBRANCH   1   2
BRANCH   1  32
ATOM     32  C   UNL A   1      40.577  21.286  27.467  1.00  0.00     0.118 C 
BRANCH  32  33
ATOM     33  N   UNL A   1      41.848  21.004  26.820  1.00  0.00    -0.352 N 
ATOM     34  C   UNL A   1      42.817  21.826  26.304  1.00  0.00     0.251 C 
ATOM     35  H   UNL A   1      42.050  20.045  26.736  1.00  0.00     0.163 HD
ATOM     36  O   UNL A   1      43.696  21.308  25.616  1.00  0.00    -0.269 OA
BRANCH  34  37
ATOM     37  C   UNL A   1      42.851  23.292  26.532  1.00  0.00     0.039 A 
ATOM     38  C   UNL A   1      42.839  23.742  27.861  1.00  0.00     0.014 A 
ATOM     39  C   UNL A   1      42.748  24.220  25.496  1.00  0.00     0.014 A 
ATOM     40  C   UNL A   1      42.783  25.110  28.153  1.00  0.00     0.010 A 
ATOM     41  C   UNL A   1      42.688  25.592  25.792  1.00  0.00     0.010 A 
ATOM     42  C   UNL A   1      42.731  26.052  27.121  1.00  0.00    -0.014 A 
BRANCH  42  43
ATOM     43  C   UNL A   1      42.853  27.490  27.471  1.00  0.00     0.031 A 
ATOM     44  C   UNL A   1      41.588  28.269  27.434  1.00  0.00     0.074 A 
ATOM     45  C   UNL A   1      43.789  28.003  28.302  1.00  0.00     0.049 A 
ATOM     46  N   UNL A   1      40.752  28.201  28.422  1.00  0.00    -0.248 NA
ATOM     47  C   UNL A   1      41.071  28.987  26.275  1.00  0.00     0.031 C 
ATOM     48  C   UNL A   1      44.501  27.227  29.324  1.00  0.00     0.029 A 
ATOM     49  N   UNL A   1      44.133  29.312  28.566  1.00  0.00    -0.354 N 
ATOM     50  C   UNL A   1      39.587  28.827  28.035  1.00  0.00     0.074 A 
ATOM     51  C   UNL A   1      39.828  29.298  26.687  1.00  0.00     0.031 C 
ATOM     52  C   UNL A   1      45.075  28.085  30.194  1.00  0.00     0.029 A 
ATOM     53  C   UNL A   1      44.920  29.449  29.702  1.00  0.00     0.049 A 
ATOM     54  H   UNL A   1      43.851  30.071  28.008  1.00  0.00     0.167 HD
ATOM     55  C   UNL A   1      38.534  28.936  28.886  1.00  0.00     0.034 A 
ATOM     56  C   UNL A   1      45.084  30.571  30.449  1.00  0.00     0.034 A 
ATOM     57  C   UNL A   1      38.751  28.507  30.253  1.00  0.00     0.049 A 
ATOM     58  C   UNL A   1      43.786  30.660  31.207  1.00  0.00     0.074 A 
ATOM     59  C   UNL A   1      38.064  27.875  31.267  1.00  0.00     0.029 A 
ATOM     60  N   UNL A   1      39.976  28.810  30.780  1.00  0.00    -0.354 N 
ATOM     61  N   UNL A   1      43.457  29.933  32.244  1.00  0.00    -0.248 NA
ATOM     62  C   UNL A   1      42.672  31.432  30.629  1.00  0.00     0.031 C 
ATOM     63  C   UNL A   1      38.896  27.909  32.439  1.00  0.00     0.029 A 
ATOM     64  C   UNL A   1      40.053  28.603  32.127  1.00  0.00     0.049 A 
ATOM     65  H   UNL A   1      40.728  29.144  30.242  1.00  0.00     0.167 HD
ATOM     66  C   UNL A   1      42.069  29.958  32.269  1.00  0.00     0.074 A 
ATOM     67  C   UNL A   1      41.652  31.010  31.367  1.00  0.00     0.031 C 
ATOM     68  C   UNL A   1      41.305  28.941  32.761  1.00  0.00     0.034 A 
BRANCH  55  69
ATOM     69  C   UNL A   1      37.296  29.676  28.551  1.00  0.00     0.023 A 
ATOM     70  C   UNL A   1      36.247  28.967  27.942  1.00  0.00     0.031 A 
ATOM     71  C   UNL A   1      37.180  31.065  28.678  1.00  0.00     0.131 A 
ATOM     72  C   UNL A   1      35.124  29.649  27.462  1.00  0.00     0.055 A 
ATOM     73  C   UNL A   1      36.057  31.744  28.193  1.00  0.00     0.041 A 
ATOM     74  F   UNL A   1      38.166  31.785  29.235  1.00  0.00    -0.206 F 
ATOM     75  C   UNL A   1      35.024  31.038  27.576  1.00  0.00     0.022 A 
BRANCH  72  76
ATOM     76  S   UNL A   1      33.813  28.693  26.655  1.00  0.00     0.124 S 
ATOM     77  O   UNL A   1      34.446  27.393  26.471  1.00  0.00    -0.237 OA
ATOM     78  O   UNL A   1      32.746  28.756  27.650  1.00  0.00    -0.237 OA
ATOM     79  O   UNL A   1      33.559  29.440  25.424  1.00  0.00    -0.744 OA
ENDBRANCH  72  76
ENDBRANCH  55  69
BRANCH  56  80
ATOM     80  C   UNL A   1      45.757  31.745  29.802  1.00  0.00     0.023 A 
ATOM     81  C   UNL A   1      45.408  32.068  28.469  1.00  0.00     0.031 A 
ATOM     82  C   UNL A   1      46.779  32.518  30.376  1.00  0.00     0.131 A 
ATOM     83  C   UNL A   1      45.989  33.165  27.809  1.00  0.00     0.055 A 
ATOM     84  C   UNL A   1      47.320  33.642  29.739  1.00  0.00     0.041 A 
ATOM     85  F   UNL A   1      47.301  32.210  31.571  1.00  0.00    -0.206 F 
ATOM     86  C   UNL A   1      46.914  33.981  28.455  1.00  0.00     0.022 A 
BRANCH  83  87
ATOM     87  S   UNL A   1      45.506  33.541  26.099  1.00  0.00     0.124 S 
ATOM     88  O   UNL A   1      45.123  32.226  25.596  1.00  0.00    -0.237 OA
ATOM     89  O   UNL A   1      44.419  34.500  26.273  1.00  0.00    -0.237 OA
ATOM     90  O   UNL A   1      46.728  34.098  25.521  1.00  0.00    -0.744 OA
ENDBRANCH  83  87
ENDBRANCH  56  80
BRANCH  68  91
ATOM     91  C   UNL A   1      41.904  28.096  33.823  1.00  0.00     0.023 A 
ATOM     92  C   UNL A   1      42.766  27.050  33.452  1.00  0.00     0.031 A 
ATOM     93  C   UNL A   1      41.694  28.340  35.186  1.00  0.00     0.131 A 
ATOM     94  C   UNL A   1      43.396  26.279  34.433  1.00  0.00     0.055 A 
ATOM     95  C   UNL A   1      42.331  27.573  36.164  1.00  0.00     0.041 A 
ATOM     96  F   UNL A   1      40.876  29.324  35.595  1.00  0.00    -0.206 F 
ATOM     97  C   UNL A   1      43.190  26.542  35.790  1.00  0.00     0.022 A 
BRANCH  94  98
ATOM     98  S   UNL A   1      44.541  24.974  33.915  1.00  0.00     0.124 S 
ATOM     99  O   UNL A   1      45.057  25.490  32.651  1.00  0.00    -0.237 OA
ATOM    100  O   UNL A   1      45.493  24.924  35.020  1.00  0.00    -0.237 OA
ATOM    101  O   UNL A   1      43.682  23.797  33.796  1.00  0.00    -0.744 OA
ENDBRANCH  94  98
ENDBRANCH  68  91
ENDBRANCH  42  43
ENDBRANCH  34  37
ENDBRANCH  32  33
ENDBRANCH   1  32
TORSDOF 16
ENDMDL
MODEL 2
REMARK VINA RESULT:     -12.9      2.114      2.593
REMARK SMILES O=C(Cn1c(=O)c2c3c(sc2n(Cc2ccc(Cl)cc2Cl)c1=O)CCCC3)NCCCNC(=O)c1ccc(-c2c3nc(c(-c4cc(S(=O)(=O)[O-])ccc4F)c4ccc([nH]4)c(-c4cc(S(=O)(=O)[O-])ccc4F)c4nc(c(-c5cc(S(=O)(=O)[O-])ccc5F)c5ccc2[nH]5)C=C4)C=C3)cc1
REMARK SMILES IDX 30 1 29 2 28 3 1 4 2 5 3 7 4 8 5 9 22 10 6 11 7 12 12 13
REMARK SMILES IDX 23 14 8 15 11 16 9 17 27 18 10 19 24 20 26 21 25 22 13 23
REMARK SMILES IDX 14 24 15 25 20 26 16 27 19 28 21 29 17 30 18 31 31 32 32 33
REMARK SMILES IDX 33 34 34 36 35 37 36 38 97 39 37 40 96 41 38 42 39 43 40 44
REMARK SMILES IDX 90 45 41 46 95 47 89 48 91 49 42 50 94 51 88 52 87 53 43 55
REMARK SMILES IDX 75 56 55 57 74 58 56 59 59 60 73 61 92 62 57 63 58 64 72 66
REMARK SMILES IDX 93 67 60 68 44 69 45 70 53 71 46 72 52 73 54 74 51 75 47 76
REMARK SMILES IDX 48 77 49 78 50 79 76 80 77 81 85 82 78 83 84 84 86 85 83 86
REMARK SMILES IDX 79 87 80 88 81 89 82 90 61 91 62 92 70 93 63 94 69 95 71 96
REMARK SMILES IDX 68 97 64 98 65 99 66 100 67 101
REMARK H PARENT 28 6 32 35 91 54 59 65
REMARK Flexibility Score: inf
ROOT
ATOM      1  C   UNL A   1      40.077  22.185  27.407  1.00  0.00     0.042 C 
ENDROOT
BRANCH   1   2
ATOM      2  C   UNL A   1      39.201  22.056  26.155  1.00  0.00     0.117 C 
BRANCH   2   3
ATOM      3  N   UNL A   1      37.840  22.510  26.367  1.00  0.00    -0.354 N 
ATOM      4  O   UNL A   1      37.782  24.063  24.667  1.00  0.00    -0.273 OA
ATOM      5  C   UNL A   1      37.235  23.497  25.610  1.00  0.00     0.240 C 
ATOM      6  H   UNL A   1      37.318  22.093  27.090  1.00  0.00     0.163 HD
BRANCH   5   7
ATOM      7  C   UNL A   1      35.762  23.734  25.974  1.00  0.00     0.230 C 
BRANCH   7   8
ATOM      8  N   UNL A   1      34.899  22.987  25.063  1.00  0.00    -0.250 N 
ATOM      9  C   UNL A   1      34.746  21.619  25.281  1.00  0.00     0.265 A 
ATOM     10  C   UNL A   1      34.398  23.695  23.959  1.00  0.00     0.332 A 
ATOM     11  O   UNL A   1      35.353  20.985  26.150  1.00  0.00    -0.268 OA
ATOM     12  C   UNL A   1      33.839  20.963  24.367  1.00  0.00     0.079 A 
ATOM     13  N   UNL A   1      33.449  23.063  23.151  1.00  0.00    -0.280 N 
ATOM     14  O   UNL A   1      34.782  24.848  23.729  1.00  0.00    -0.247 OA
ATOM     15  C   UNL A   1      33.518  19.565  24.208  1.00  0.00    -0.019 A 
ATOM     16  C   UNL A   1      33.201  21.726  23.420  1.00  0.00     0.113 A 
ATOM     17  C   UNL A   1      32.608  19.385  23.181  1.00  0.00     0.011 A 
ATOM     18  C   UNL A   1      34.118  18.389  24.926  1.00  0.00     0.037 C 
ATOM     19  S   UNL A   1      32.037  20.852  22.570  1.00  0.00    -0.122 S 
ATOM     20  C   UNL A   1      32.128  18.079  22.640  1.00  0.00     0.047 C 
ATOM     21  C   UNL A   1      33.372  17.077  24.605  1.00  0.00     0.005 C 
ATOM     22  C   UNL A   1      33.050  16.947  23.109  1.00  0.00     0.006 C 
BRANCH  13  23
ATOM     23  C   UNL A   1      32.836  23.836  22.046  1.00  0.00     0.165 C 
BRANCH  23  24
ATOM     24  C   UNL A   1      31.992  25.011  22.518  1.00  0.00    -0.009 A 
ATOM     25  C   UNL A   1      32.256  26.286  21.980  1.00  0.00     0.008 A 
ATOM     26  C   UNL A   1      30.956  24.908  23.466  1.00  0.00     0.047 A 
ATOM     27  C   UNL A   1      31.472  27.394  22.318  1.00  0.00     0.021 A 
ATOM     28  C   UNL A   1      30.126  25.999  23.747  1.00  0.00     0.041 A 
ATOM     29  Cl  UNL A   1      30.702  23.505  24.442  1.00  0.00    -0.084 Cl
ATOM     30  C   UNL A   1      30.386  27.236  23.170  1.00  0.00     0.042 A 
ATOM     31  Cl  UNL A   1      29.380  28.578  23.545  1.00  0.00    -0.084 Cl
ENDBRANCH  23  24
ENDBRANCH  13  23
ENDBRANCH   7   8
ENDBRANCH   5   7
ENDBRANCH   2   3
ENDBRANCH   1   2
BRANCH   1  32
ATOM     32  C   UNL A   1      41.597  22.152  27.172  1.00  0.00     0.118 C 
BRANCH  32  33
ATOM     33  N   UNL A   1      42.339  22.126  28.422  1.00  0.00    -0.352 N 
ATOM     34  C   UNL A   1      42.861  23.128  29.200  1.00  0.00     0.251 C 
ATOM     35  H   UNL A   1      42.497  21.222  28.774  1.00  0.00     0.163 HD
ATOM     36  O   UNL A   1      43.635  22.804  30.100  1.00  0.00    -0.269 OA
BRANCH  34  37
ATOM     37  C   UNL A   1      42.541  24.563  29.005  1.00  0.00     0.039 A 
ATOM     38  C   UNL A   1      43.533  25.500  29.334  1.00  0.00     0.014 A 
ATOM     39  C   UNL A   1      41.268  25.013  28.655  1.00  0.00     0.014 A 
ATOM     40  C   UNL A   1      43.275  26.874  29.257  1.00  0.00     0.010 A 
ATOM     41  C   UNL A   1      41.011  26.393  28.582  1.00  0.00     0.010 A 
ATOM     42  C   UNL A   1      42.018  27.336  28.857  1.00  0.00    -0.014 A 
BRANCH  42  43
ATOM     43  C   UNL A   1      41.844  28.791  28.618  1.00  0.00     0.031 A 
ATOM     44  C   UNL A   1      40.476  29.217  28.223  1.00  0.00     0.074 A 
ATOM     45  C   UNL A   1      42.567  29.761  29.220  1.00  0.00     0.049 A 
ATOM     46  N   UNL A   1      39.551  29.354  29.121  1.00  0.00    -0.248 NA
ATOM     47  C   UNL A   1      39.985  29.320  26.854  1.00  0.00     0.031 C 
ATOM     48  C   UNL A   1      43.275  29.595  30.495  1.00  0.00     0.029 A 
ATOM     49  N   UNL A   1      42.644  31.115  28.963  1.00  0.00    -0.354 N 
ATOM     50  C   UNL A   1      38.351  29.530  28.468  1.00  0.00     0.074 A 
ATOM     51  C   UNL A   1      38.667  29.497  27.056  1.00  0.00     0.031 C 
ATOM     52  C   UNL A   1      43.581  30.817  30.981  1.00  0.00     0.029 A 
ATOM     53  C   UNL A   1      43.251  31.831  29.986  1.00  0.00     0.049 A 
ATOM     54  H   UNL A   1      42.302  31.531  28.139  1.00  0.00     0.167 HD
ATOM     55  C   UNL A   1      37.199  29.731  29.161  1.00  0.00     0.034 A 
ATOM     56  C   UNL A   1      43.124  33.159  30.237  1.00  0.00     0.034 A 
ATOM     57  C   UNL A   1      37.321  29.904  30.594  1.00  0.00     0.049 A 
ATOM     58  C   UNL A   1      41.749  33.255  30.842  1.00  0.00     0.074 A 
ATOM     59  C   UNL A   1      36.636  29.573  31.745  1.00  0.00     0.029 A 
ATOM     60  N   UNL A   1      38.400  30.631  31.013  1.00  0.00    -0.354 N 
ATOM     61  N   UNL A   1      41.428  32.921  32.066  1.00  0.00    -0.248 NA
ATOM     62  C   UNL A   1      40.595  33.502  29.959  1.00  0.00     0.031 C 
ATOM     63  C   UNL A   1      37.302  30.218  32.843  1.00  0.00     0.029 A 
ATOM     64  C   UNL A   1      38.349  30.968  32.335  1.00  0.00     0.049 A 
ATOM     65  H   UNL A   1      39.143  30.886  30.420  1.00  0.00     0.167 HD
ATOM     66  C   UNL A   1      40.065  32.664  32.019  1.00  0.00     0.074 A 
ATOM     67  C   UNL A   1      39.582  33.187  30.758  1.00  0.00     0.031 C 
ATOM     68  C   UNL A   1      39.437  31.773  32.838  1.00  0.00     0.034 A 
BRANCH  55  69
ATOM     69  C   UNL A   1      35.901  30.015  28.508  1.00  0.00     0.023 A 
ATOM     70  C   UNL A   1      35.365  29.039  27.652  1.00  0.00     0.031 A 
ATOM     71  C   UNL A   1      35.262  31.257  28.589  1.00  0.00     0.131 A 
ATOM     72  C   UNL A   1      34.226  29.321  26.890  1.00  0.00     0.055 A 
ATOM     73  C   UNL A   1      34.126  31.538  27.823  1.00  0.00     0.041 A 
ATOM     74  F   UNL A   1      35.750  32.226  29.379  1.00  0.00    -0.206 F 
ATOM     75  C   UNL A   1      33.606  30.570  26.963  1.00  0.00     0.022 A 
BRANCH  72  76
ATOM     76  S   UNL A   1      33.593  28.040  25.776  1.00  0.00     0.124 S 
ATOM     77  O   UNL A   1      32.150  28.221  25.883  1.00  0.00    -0.237 OA
ATOM     78  O   UNL A   1      34.199  28.426  24.505  1.00  0.00    -0.237 OA
ATOM     79  O   UNL A   1      34.108  26.801  26.358  1.00  0.00    -0.744 OA
ENDBRANCH  72  76
ENDBRANCH  55  69
BRANCH  56  80
ATOM     80  C   UNL A   1      43.655  34.115  29.210  1.00  0.00     0.023 A 
ATOM     81  C   UNL A   1      43.891  33.631  27.901  1.00  0.00     0.031 A 
ATOM     82  C   UNL A   1      44.024  35.448  29.450  1.00  0.00     0.131 A 
ATOM     83  C   UNL A   1      44.372  34.478  26.887  1.00  0.00     0.055 A 
ATOM     84  C   UNL A   1      44.454  36.305  28.429  1.00  0.00     0.041 A 
ATOM     85  F   UNL A   1      43.994  35.971  30.684  1.00  0.00    -0.206 F 
ATOM     86  C   UNL A   1      44.615  35.826  27.136  1.00  0.00     0.022 A 
BRANCH  83  87
ATOM     87  S   UNL A   1      44.656  33.810  25.222  1.00  0.00     0.124 S 
ATOM     88  O   UNL A   1      43.413  34.156  24.541  1.00  0.00    -0.237 OA
ATOM     89  O   UNL A   1      45.847  34.532  24.783  1.00  0.00    -0.237 OA
ATOM     90  O   UNL A   1      44.859  32.383  25.463  1.00  0.00    -0.744 OA
ENDBRANCH  83  87
ENDBRANCH  56  80
BRANCH  68  91
ATOM     91  C   UNL A   1      40.041  31.535  34.171  1.00  0.00     0.023 A 
ATOM     92  C   UNL A   1      40.625  30.285  34.439  1.00  0.00     0.031 A 
ATOM     93  C   UNL A   1      40.109  32.530  35.154  1.00  0.00     0.131 A 
ATOM     94  C   UNL A   1      41.260  30.055  35.662  1.00  0.00     0.055 A 
ATOM     95  C   UNL A   1      40.750  32.300  36.373  1.00  0.00     0.041 A 
ATOM     96  F   UNL A   1      39.563  33.741  34.953  1.00  0.00    -0.206 F 
ATOM     97  C   UNL A   1      41.334  31.060  36.629  1.00  0.00     0.022 A 
BRANCH  94  98
ATOM     98  S   UNL A   1      42.047  28.448  35.947  1.00  0.00     0.124 S 
ATOM     99  O   UNL A   1      42.395  28.022  34.596  1.00  0.00    -0.237 OA
ATOM    100  O   UNL A   1      43.169  28.790  36.817  1.00  0.00    -0.237 OA
ATOM    101  O   UNL A   1      40.994  27.664  36.590  1.00  0.00    -0.744 OA
ENDBRANCH  94  98
ENDBRANCH  68  91
ENDBRANCH  42  43
ENDBRANCH  34  37
ENDBRANCH  32  33
ENDBRANCH   1  32
TORSDOF 16
ENDMDL
MODEL 3
REMARK VINA RESULT:     -12.7      8.528     14.541
REMARK SMILES O=C(Cn1c(=O)c2c3c(sc2n(Cc2ccc(Cl)cc2Cl)c1=O)CCCC3)NCCCNC(=O)c1ccc(-c2c3nc(c(-c4cc(S(=O)(=O)[O-])ccc4F)c4ccc([nH]4)c(-c4cc(S(=O)(=O)[O-])ccc4F)c4nc(c(-c5cc(S(=O)(=O)[O-])ccc5F)c5ccc2[nH]5)C=C4)C=C3)cc1
REMARK SMILES IDX 30 1 29 2 28 3 1 4 2 5 3 7 4 8 5 9 22 10 6 11 7 12 12 13
REMARK SMILES IDX 23 14 8 15 11 16 9 17 27 18 10 19 24 20 26 21 25 22 13 23
REMARK SMILES IDX 14 24 15 25 20 26 16 27 19 28 21 29 17 30 18 31 31 32 32 33
REMARK SMILES IDX 33 34 34 36 35 37 36 38 97 39 37 40 96 41 38 42 39 43 40 44
REMARK SMILES IDX 90 45 41 46 95 47 89 48 91 49 42 50 94 51 88 52 87 53 43 55
REMARK SMILES IDX 75 56 55 57 74 58 56 59 59 60 73 61 92 62 57 63 58 64 72 66
REMARK SMILES IDX 93 67 60 68 44 69 45 70 53 71 46 72 52 73 54 74 51 75 47 76
REMARK SMILES IDX 48 77 49 78 50 79 76 80 77 81 85 82 78 83 84 84 86 85 83 86
REMARK SMILES IDX 79 87 80 88 81 89 82 90 61 91 62 92 70 93 63 94 69 95 71 96
REMARK SMILES IDX 68 97 64 98 65 99 66 100 67 101
REMARK H PARENT 28 6 32 35 91 54 59 65
REMARK Flexibility Score: inf
ROOT
ATOM      1  C   UNL A   1      46.171  19.967  35.848  1.00  0.00     0.042 C 
ENDROOT
BRANCH   1   2
ATOM      2  C   UNL A   1      46.232  20.049  37.378  1.00  0.00     0.117 C 
BRANCH   2   3
ATOM      3  N   UNL A   1      46.405  18.754  38.007  1.00  0.00    -0.354 N 
ATOM      4  O   UNL A   1      45.627  19.337  40.095  1.00  0.00    -0.273 OA
ATOM      5  C   UNL A   1      46.100  18.499  39.332  1.00  0.00     0.240 C 
ATOM      6  H   UNL A   1      46.759  18.015  37.461  1.00  0.00     0.163 HD
BRANCH   5   7
ATOM      7  C   UNL A   1      46.286  17.028  39.732  1.00  0.00     0.230 C 
BRANCH   7   8
ATOM      8  N   UNL A   1      45.886  16.837  41.123  1.00  0.00    -0.250 N 
ATOM      9  C   UNL A   1      46.829  17.096  42.117  1.00  0.00     0.265 A 
ATOM     10  C   UNL A   1      44.614  16.281  41.334  1.00  0.00     0.332 A 
ATOM     11  O   UNL A   1      48.004  17.402  41.892  1.00  0.00    -0.268 OA
ATOM     12  C   UNL A   1      46.339  16.931  43.466  1.00  0.00     0.079 A 
ATOM     13  N   UNL A   1      44.133  16.226  42.645  1.00  0.00    -0.280 N 
ATOM     14  O   UNL A   1      43.945  15.870  40.380  1.00  0.00    -0.247 OA
ATOM     15  C   UNL A   1      47.035  16.995  44.729  1.00  0.00    -0.019 A 
ATOM     16  C   UNL A   1      45.023  16.583  43.646  1.00  0.00     0.113 A 
ATOM     17  C   UNL A   1      46.169  16.746  45.779  1.00  0.00     0.011 A 
ATOM     18  C   UNL A   1      48.507  17.185  44.968  1.00  0.00     0.037 C 
ATOM     19  S   UNL A   1      44.564  16.625  45.267  1.00  0.00    -0.122 S 
ATOM     20  C   UNL A   1      46.537  16.608  47.219  1.00  0.00     0.047 C 
ATOM     21  C   UNL A   1      48.826  17.384  46.464  1.00  0.00     0.005 C 
ATOM     22  C   UNL A   1      48.050  16.403  47.356  1.00  0.00     0.006 C 
BRANCH  13  23
ATOM     23  C   UNL A   1      42.752  15.738  42.870  1.00  0.00     0.165 C 
BRANCH  23  24
ATOM     24  C   UNL A   1      42.648  14.223  42.966  1.00  0.00    -0.009 A 
ATOM     25  C   UNL A   1      43.300  13.571  44.031  1.00  0.00     0.008 A 
ATOM     26  C   UNL A   1      41.938  13.421  42.052  1.00  0.00     0.047 A 
ATOM     27  C   UNL A   1      43.186  12.190  44.217  1.00  0.00     0.021 A 
ATOM     28  C   UNL A   1      41.763  12.052  42.280  1.00  0.00     0.041 A 
ATOM     29  Cl  UNL A   1      41.345  14.008  40.539  1.00  0.00    -0.084 Cl
ATOM     30  C   UNL A   1      42.385  11.443  43.362  1.00  0.00     0.042 A 
ATOM     31  Cl  UNL A   1      42.190   9.754  43.617  1.00  0.00    -0.084 Cl
ENDBRANCH  23  24
ENDBRANCH  13  23
ENDBRANCH   7   8
ENDBRANCH   5   7
ENDBRANCH   2   3
ENDBRANCH   1   2
BRANCH   1  32
ATOM     32  C   UNL A   1      45.630  21.214  35.127  1.00  0.00     0.118 C 
BRANCH  32  33
ATOM     33  N   UNL A   1      45.187  22.234  36.064  1.00  0.00    -0.352 N 
ATOM     34  C   UNL A   1      45.029  23.591  35.936  1.00  0.00     0.251 C 
ATOM     35  H   UNL A   1      44.958  21.886  36.955  1.00  0.00     0.163 HD
ATOM     36  O   UNL A   1      44.844  24.241  36.964  1.00  0.00    -0.269 OA
BRANCH  34  37
ATOM     37  C   UNL A   1      45.075  24.298  34.633  1.00  0.00     0.039 A 
ATOM     38  C   UNL A   1      46.103  25.233  34.438  1.00  0.00     0.014 A 
ATOM     39  C   UNL A   1      44.071  24.179  33.672  1.00  0.00     0.014 A 
ATOM     40  C   UNL A   1      46.162  26.001  33.269  1.00  0.00     0.010 A 
ATOM     41  C   UNL A   1      44.130  24.953  32.501  1.00  0.00     0.010 A 
ATOM     42  C   UNL A   1      45.188  25.853  32.276  1.00  0.00    -0.014 A 
BRANCH  42  43
ATOM     43  C   UNL A   1      45.387  26.552  30.982  1.00  0.00     0.031 A 
ATOM     44  C   UNL A   1      45.298  25.697  29.769  1.00  0.00     0.074 A 
ATOM     45  C   UNL A   1      45.094  27.853  30.757  1.00  0.00     0.049 A 
ATOM     46  N   UNL A   1      44.141  25.357  29.295  1.00  0.00    -0.248 NA
ATOM     47  C   UNL A   1      46.418  25.010  29.135  1.00  0.00     0.031 C 
ATOM     48  C   UNL A   1      44.137  28.634  31.549  1.00  0.00     0.029 A 
ATOM     49  N   UNL A   1      45.394  28.669  29.686  1.00  0.00    -0.354 N 
ATOM     50  C   UNL A   1      44.345  24.398  28.328  1.00  0.00     0.074 A 
ATOM     51  C   UNL A   1      45.779  24.208  28.264  1.00  0.00     0.031 C 
ATOM     52  C   UNL A   1      43.814  29.748  30.860  1.00  0.00     0.029 A 
ATOM     53  C   UNL A   1      44.659  29.847  29.676  1.00  0.00     0.049 A 
ATOM     54  H   UNL A   1      46.060  28.439  28.999  1.00  0.00     0.167 HD
ATOM     55  C   UNL A   1      43.303  23.872  27.631  1.00  0.00     0.034 A 
ATOM     56  C   UNL A   1      44.411  30.643  28.605  1.00  0.00     0.034 A 
ATOM     57  C   UNL A   1      42.004  24.476  27.844  1.00  0.00     0.049 A 
ATOM     58  C   UNL A   1      43.373  29.863  27.842  1.00  0.00     0.074 A 
ATOM     59  C   UNL A   1      40.680  24.097  27.929  1.00  0.00     0.029 A 
ATOM     60  N   UNL A   1      42.000  25.836  27.984  1.00  0.00    -0.354 N 
ATOM     61  N   UNL A   1      42.106  29.771  28.155  1.00  0.00    -0.248 NA
ATOM     62  C   UNL A   1      43.811  28.916  26.802  1.00  0.00     0.031 C 
ATOM     63  C   UNL A   1      39.894  25.296  28.023  1.00  0.00     0.029 A 
ATOM     64  C   UNL A   1      40.749  26.382  27.945  1.00  0.00     0.049 A 
ATOM     65  H   UNL A   1      42.817  26.370  28.102  1.00  0.00     0.167 HD
ATOM     66  C   UNL A   1      41.675  28.597  27.552  1.00  0.00     0.074 A 
ATOM     67  C   UNL A   1      42.705  28.206  26.613  1.00  0.00     0.031 C 
ATOM     68  C   UNL A   1      40.669  27.820  28.045  1.00  0.00     0.034 A 
BRANCH  55  69
ATOM     69  C   UNL A   1      43.477  22.907  26.522  1.00  0.00     0.023 A 
ATOM     70  C   UNL A   1      43.017  21.593  26.711  1.00  0.00     0.031 A 
ATOM     71  C   UNL A   1      44.201  23.201  25.362  1.00  0.00     0.131 A 
ATOM     72  C   UNL A   1      43.298  20.606  25.761  1.00  0.00     0.055 A 
ATOM     73  C   UNL A   1      44.485  22.211  24.415  1.00  0.00     0.041 A 
ATOM     74  F   UNL A   1      44.678  24.438  25.148  1.00  0.00    -0.206 F 
ATOM     75  C   UNL A   1      44.038  20.904  24.614  1.00  0.00     0.022 A 
BRANCH  72  76
ATOM     76  S   UNL A   1      42.710  18.920  26.067  1.00  0.00     0.124 S 
ATOM     77  O   UNL A   1      41.363  18.955  25.511  1.00  0.00    -0.237 OA
ATOM     78  O   UNL A   1      43.691  18.127  25.332  1.00  0.00    -0.237 OA
ATOM     79  O   UNL A   1      42.778  18.797  27.522  1.00  0.00    -0.744 OA
ENDBRANCH  72  76
ENDBRANCH  55  69
BRANCH  56  80
ATOM     80  C   UNL A   1      45.580  31.329  27.962  1.00  0.00     0.023 A 
ATOM     81  C   UNL A   1      46.868  30.770  28.141  1.00  0.00     0.031 A 
ATOM     82  C   UNL A   1      45.528  32.542  27.256  1.00  0.00     0.131 A 
ATOM     83  C   UNL A   1      48.004  31.354  27.553  1.00  0.00     0.055 A 
ATOM     84  C   UNL A   1      46.650  33.095  26.627  1.00  0.00     0.041 A 
ATOM     85  F   UNL A   1      44.391  33.244  27.156  1.00  0.00    -0.206 F 
ATOM     86  C   UNL A   1      47.894  32.493  26.760  1.00  0.00     0.022 A 
BRANCH  83  87
ATOM     87  S   UNL A   1      49.635  30.597  27.809  1.00  0.00     0.124 S 
ATOM     88  O   UNL A   1      49.310  29.456  28.658  1.00  0.00    -0.237 OA
ATOM     89  O   UNL A   1      50.062  30.280  26.450  1.00  0.00    -0.237 OA
ATOM     90  O   UNL A   1      50.399  31.660  28.460  1.00  0.00    -0.744 OA
ENDBRANCH  83  87
ENDBRANCH  56  80
BRANCH  68  91
ATOM     91  C   UNL A   1      39.620  28.497  28.845  1.00  0.00     0.023 A 
ATOM     92  C   UNL A   1      39.608  28.319  30.239  1.00  0.00     0.031 A 
ATOM     93  C   UNL A   1      38.677  29.359  28.271  1.00  0.00     0.131 A 
ATOM     94  C   UNL A   1      38.671  28.997  31.025  1.00  0.00     0.055 A 
ATOM     95  C   UNL A   1      37.747  30.041  29.059  1.00  0.00     0.041 A 
ATOM     96  F   UNL A   1      38.641  29.562  26.944  1.00  0.00    -0.206 F 
ATOM     97  C   UNL A   1      37.745  29.866  30.442  1.00  0.00     0.022 A 
BRANCH  94  98
ATOM     98  S   UNL A   1      38.723  28.782  32.822  1.00  0.00     0.124 S 
ATOM     99  O   UNL A   1      39.046  30.125  33.292  1.00  0.00    -0.237 OA
ATOM    100  O   UNL A   1      37.378  28.305  33.128  1.00  0.00    -0.237 OA
ATOM    101  O   UNL A   1      39.780  27.789  33.015  1.00  0.00    -0.744 OA
ENDBRANCH  94  98
ENDBRANCH  68  91
ENDBRANCH  42  43
ENDBRANCH  34  37
ENDBRANCH  32  33
ENDBRANCH   1  32
TORSDOF 16
ENDMDL
