MODEL 1
REMARK VINA RESULT:     -12.0      0.000      0.000
REMARK SMILES O=C(/C=C/C(=O)Nc1ccc(Br)c([N+](=O)[O-])c1)NCCCNC(=O)c1ccc(-c2c3nc(c(-c4cc(S(=O)(=O)[O-])ccc4F)c4ccc([nH]4)c(-c4cc(S(=O)(=O)[O-])ccc4F)c4nc(c(-c5cc(S(=O)(=O)[O-])ccc5F)c5ccc2[nH]5)C=C4)C=C3)cc1
REMARK SMILES IDX 20 1 19 2 18 3 1 4 2 5 3 7 4 8 5 9 6 10 7 11 8 13 9 14 17 15
REMARK SMILES IDX 10 16 13 17 11 18 12 19 14 20 15 21 16 22 21 23 22 24 23 25
REMARK SMILES IDX 24 27 25 28 26 29 87 30 27 31 86 32 28 33 29 34 30 35 80 36
REMARK SMILES IDX 31 37 85 38 79 39 81 40 32 41 84 42 78 43 77 44 33 46 65 47
REMARK SMILES IDX 45 48 64 49 46 50 49 51 63 52 82 53 47 54 48 55 62 57 83 58
REMARK SMILES IDX 50 59 34 60 35 61 43 62 36 63 42 64 44 65 41 66 37 67 38 68
REMARK SMILES IDX 39 69 40 70 66 71 67 72 75 73 68 74 74 75 76 76 73 77 69 78
REMARK SMILES IDX 70 79 71 80 72 81 51 82 52 83 60 84 53 85 59 86 61 87 58 88
REMARK SMILES IDX 54 89 55 90 56 91 57 92
REMARK H PARENT 18 6 7 12 22 26 81 45 49 56
REMARK Flexibility Score: inf
ROOT
ATOM      1  C   UNL A   1      36.091  21.799  25.735  1.00  0.00     0.042 C 
ENDROOT
BRANCH   1   2
ATOM      2  C   UNL A   1      34.972  20.847  25.322  1.00  0.00     0.118 C 
BRANCH   2   3
ATOM      3  N   UNL A   1      33.670  21.347  25.716  1.00  0.00    -0.352 N 
ATOM      4  O   UNL A   1      32.689  21.051  23.657  1.00  0.00    -0.270 OA
ATOM      5  C   UNL A   1      32.643  21.437  24.823  1.00  0.00     0.244 C 
ATOM      6  H   UNL A   1      33.523  21.627  26.648  1.00  0.00     0.163 HD
BRANCH   5   7
ATOM      7  C   UNL A   1      31.415  22.088  25.314  1.00  0.00     0.077 C 
ATOM      8  C   UNL A   1      31.386  23.022  26.276  1.00  0.00     0.077 C 
BRANCH   8   9
ATOM      9  C   UNL A   1      30.086  23.466  26.834  1.00  0.00     0.248 C 
ATOM     10  O   UNL A   1      29.386  22.660  27.439  1.00  0.00    -0.270 OA
ATOM     11  N   UNL A   1      29.709  24.780  26.715  1.00  0.00    -0.322 N 
ATOM     12  H   UNL A   1      28.962  25.057  27.294  1.00  0.00     0.170 HD
BRANCH  11  13
ATOM     13  C   UNL A   1      30.234  25.789  25.886  1.00  0.00     0.048 A 
ATOM     14  C   UNL A   1      29.982  25.848  24.516  1.00  0.00     0.028 A 
ATOM     15  C   UNL A   1      31.081  26.735  26.462  1.00  0.00     0.113 A 
ATOM     16  C   UNL A   1      30.673  26.753  23.708  1.00  0.00     0.025 A 
ATOM     17  C   UNL A   1      31.793  27.646  25.649  1.00  0.00     0.285 A 
ATOM     18  C   UNL A   1      31.609  27.638  24.259  1.00  0.00     0.095 A 
ATOM     19  Br  UNL A   1      32.562  28.682  22.988  1.00  0.00    -0.043 Br
BRANCH  17  20
ATOM     20  N   UNL A   1      32.733  28.544  26.333  1.00  0.00     0.064 N 
ATOM     21  O   UNL A   1      33.940  28.273  26.242  1.00  0.00    -0.258 OA
ATOM     22  O   UNL A   1      32.291  29.484  27.003  1.00  0.00    -0.258 OA
ENDBRANCH  17  20
ENDBRANCH  11  13
ENDBRANCH   8   9
ENDBRANCH   5   7
ENDBRANCH   2   3
ENDBRANCH   1   2
BRANCH   1  23
ATOM     23  C   UNL A   1      37.365  21.654  24.907  1.00  0.00     0.118 C 
BRANCH  23  24
ATOM     24  N   UNL A   1      38.239  20.594  25.391  1.00  0.00    -0.352 N 
ATOM     25  C   UNL A   1      39.419  20.678  26.088  1.00  0.00     0.251 C 
ATOM     26  H   UNL A   1      37.938  19.678  25.188  1.00  0.00     0.163 HD
ATOM     27  O   UNL A   1      40.090  19.663  26.262  1.00  0.00    -0.269 OA
BRANCH  25  28
ATOM     28  C   UNL A   1      39.893  21.985  26.590  1.00  0.00     0.039 A 
ATOM     29  C   UNL A   1      40.895  22.009  27.564  1.00  0.00     0.014 A 
ATOM     30  C   UNL A   1      39.363  23.182  26.099  1.00  0.00     0.014 A 
ATOM     31  C   UNL A   1      41.425  23.231  27.982  1.00  0.00     0.010 A 
ATOM     32  C   UNL A   1      39.937  24.396  26.470  1.00  0.00     0.010 A 
ATOM     33  C   UNL A   1      40.983  24.432  27.405  1.00  0.00    -0.014 A 
BRANCH  33  34
ATOM     34  C   UNL A   1      41.625  25.731  27.738  1.00  0.00     0.031 A 
ATOM     35  C   UNL A   1      40.858  26.788  28.484  1.00  0.00     0.074 A 
ATOM     36  C   UNL A   1      42.875  25.983  27.301  1.00  0.00     0.049 A 
ATOM     37  N   UNL A   1      41.209  28.014  28.776  1.00  0.00    -0.248 NA
ATOM     38  C   UNL A   1      39.507  26.423  28.936  1.00  0.00     0.031 C 
ATOM     39  C   UNL A   1      43.707  25.048  26.541  1.00  0.00     0.029 A 
ATOM     40  N   UNL A   1      43.660  27.103  27.419  1.00  0.00    -0.354 N 
ATOM     41  C   UNL A   1      40.122  28.573  29.439  1.00  0.00     0.074 A 
ATOM     42  C   UNL A   1      39.080  27.566  29.454  1.00  0.00     0.031 C 
ATOM     43  C   UNL A   1      44.889  25.628  26.275  1.00  0.00     0.029 A 
ATOM     44  C   UNL A   1      44.882  26.990  26.798  1.00  0.00     0.049 A 
ATOM     45  H   UNL A   1      43.374  27.911  27.903  1.00  0.00     0.167 HD
ATOM     46  C   UNL A   1      40.011  29.803  29.998  1.00  0.00     0.034 A 
ATOM     47  C   UNL A   1      45.876  27.888  26.645  1.00  0.00     0.034 A 
ATOM     48  C   UNL A   1      41.061  30.794  29.976  1.00  0.00     0.049 A 
ATOM     49  C   UNL A   1      45.710  29.265  27.234  1.00  0.00     0.074 A 
ATOM     50  C   UNL A   1      41.075  32.049  30.561  1.00  0.00     0.029 A 
ATOM     51  N   UNL A   1      42.280  30.649  29.326  1.00  0.00    -0.354 N 
ATOM     52  N   UNL A   1      44.694  29.762  27.901  1.00  0.00    -0.248 NA
ATOM     53  C   UNL A   1      46.828  30.200  27.053  1.00  0.00     0.031 C 
ATOM     54  C   UNL A   1      42.266  32.688  30.204  1.00  0.00     0.029 A 
ATOM     55  C   UNL A   1      43.035  31.806  29.462  1.00  0.00     0.049 A 
ATOM     56  H   UNL A   1      42.567  29.843  28.838  1.00  0.00     0.167 HD
ATOM     57  C   UNL A   1      45.062  31.061  28.240  1.00  0.00     0.074 A 
ATOM     58  C   UNL A   1      46.399  31.262  27.721  1.00  0.00     0.031 C 
ATOM     59  C   UNL A   1      44.360  32.001  28.921  1.00  0.00     0.034 A 
BRANCH  46  60
ATOM     60  C   UNL A   1      38.694  30.153  30.652  1.00  0.00     0.023 A 
ATOM     61  C   UNL A   1      37.672  30.813  29.946  1.00  0.00     0.031 A 
ATOM     62  C   UNL A   1      38.465  29.841  32.003  1.00  0.00     0.131 A 
ATOM     63  C   UNL A   1      36.502  31.207  30.614  1.00  0.00     0.055 A 
ATOM     64  C   UNL A   1      37.264  30.164  32.640  1.00  0.00     0.041 A 
ATOM     65  F   UNL A   1      39.410  29.230  32.734  1.00  0.00    -0.206 F 
ATOM     66  C   UNL A   1      36.280  30.865  31.949  1.00  0.00     0.022 A 
BRANCH  63  67
ATOM     67  S   UNL A   1      35.340  32.299  29.750  1.00  0.00     0.124 S 
ATOM     68  O   UNL A   1      34.379  32.602  30.808  1.00  0.00    -0.237 OA
ATOM     69  O   UNL A   1      36.195  33.401  29.328  1.00  0.00    -0.237 OA
ATOM     70  O   UNL A   1      34.821  31.461  28.670  1.00  0.00    -0.744 OA
ENDBRANCH  63  67
ENDBRANCH  46  60
BRANCH  47  71
ATOM     71  C   UNL A   1      47.106  27.530  25.882  1.00  0.00     0.023 A 
ATOM     72  C   UNL A   1      47.225  27.836  24.518  1.00  0.00     0.031 A 
ATOM     73  C   UNL A   1      48.164  26.836  26.497  1.00  0.00     0.131 A 
ATOM     74  C   UNL A   1      48.354  27.410  23.800  1.00  0.00     0.055 A 
ATOM     75  C   UNL A   1      49.309  26.462  25.792  1.00  0.00     0.041 A 
ATOM     76  F   UNL A   1      48.103  26.521  27.801  1.00  0.00    -0.206 F 
ATOM     77  C   UNL A   1      49.403  26.736  24.431  1.00  0.00     0.022 A 
BRANCH  74  78
ATOM     78  S   UNL A   1      48.392  27.673  22.006  1.00  0.00     0.124 S 
ATOM     79  O   UNL A   1      47.073  28.247  21.762  1.00  0.00    -0.237 OA
ATOM     80  O   UNL A   1      49.524  28.582  21.860  1.00  0.00    -0.237 OA
ATOM     81  O   UNL A   1      48.600  26.331  21.470  1.00  0.00    -0.744 OA
ENDBRANCH  74  78
ENDBRANCH  47  71
BRANCH  59  82
ATOM     82  C   UNL A   1      45.048  33.322  29.168  1.00  0.00     0.023 A 
ATOM     83  C   UNL A   1      44.967  34.381  28.247  1.00  0.00     0.031 A 
ATOM     84  C   UNL A   1      45.809  33.517  30.335  1.00  0.00     0.131 A 
ATOM     85  C   UNL A   1      45.680  35.567  28.481  1.00  0.00     0.055 A 
ATOM     86  C   UNL A   1      46.467  34.721  30.591  1.00  0.00     0.041 A 
ATOM     87  F   UNL A   1      45.925  32.539  31.247  1.00  0.00    -0.206 F 
ATOM     88  C   UNL A   1      46.415  35.750  29.654  1.00  0.00     0.022 A 
BRANCH  85  89
ATOM     89  S   UNL A   1      45.708  36.836  27.185  1.00  0.00     0.124 S 
ATOM     90  O   UNL A   1      46.537  37.872  27.792  1.00  0.00    -0.237 OA
ATOM     91  O   UNL A   1      46.302  36.122  26.060  1.00  0.00    -0.237 OA
ATOM     92  O   UNL A   1      44.298  37.189  27.019  1.00  0.00    -0.744 OA
ENDBRANCH  85  89
ENDBRANCH  59  82
ENDBRANCH  33  34
ENDBRANCH  25  28
ENDBRANCH  23  24
ENDBRANCH   1  23
TORSDOF 16
ENDMDL
MODEL 2
REMARK VINA RESULT:     -12.0      1.081      7.650
REMARK SMILES O=C(/C=C/C(=O)Nc1ccc(Br)c([N+](=O)[O-])c1)NCCCNC(=O)c1ccc(-c2c3nc(c(-c4cc(S(=O)(=O)[O-])ccc4F)c4ccc([nH]4)c(-c4cc(S(=O)(=O)[O-])ccc4F)c4nc(c(-c5cc(S(=O)(=O)[O-])ccc5F)c5ccc2[nH]5)C=C4)C=C3)cc1
REMARK SMILES IDX 20 1 19 2 18 3 1 4 2 5 3 7 4 8 5 9 6 10 7 11 8 13 9 14 17 15
REMARK SMILES IDX 10 16 13 17 11 18 12 19 14 20 15 21 16 22 21 23 22 24 23 25
REMARK SMILES IDX 24 27 25 28 26 29 87 30 27 31 86 32 28 33 29 34 30 35 80 36
REMARK SMILES IDX 31 37 85 38 79 39 81 40 32 41 84 42 78 43 77 44 33 46 65 47
REMARK SMILES IDX 45 48 64 49 46 50 49 51 63 52 82 53 47 54 48 55 62 57 83 58
REMARK SMILES IDX 50 59 34 60 35 61 43 62 36 63 42 64 44 65 41 66 37 67 38 68
REMARK SMILES IDX 39 69 40 70 66 71 67 72 75 73 68 74 74 75 76 76 73 77 69 78
REMARK SMILES IDX 70 79 71 80 72 81 51 82 52 83 60 84 53 85 59 86 61 87 58 88
REMARK SMILES IDX 54 89 55 90 56 91 57 92
REMARK H PARENT 18 6 7 12 22 26 81 45 49 56
REMARK Flexibility Score: inf
ROOT
ATOM      1  C   UNL A   1      36.204  21.537  25.737  1.00  0.00     0.042 C 
ENDROOT
BRANCH   1   2
ATOM      2  C   UNL A   1      35.020  21.037  24.917  1.00  0.00     0.118 C 
BRANCH   2   3
ATOM      3  N   UNL A   1      33.783  21.680  25.314  1.00  0.00    -0.352 N 
ATOM      4  O   UNL A   1      32.415  19.958  24.644  1.00  0.00    -0.270 OA
ATOM      5  C   UNL A   1      32.574  21.086  25.104  1.00  0.00     0.244 C 
ATOM      6  H   UNL A   1      33.816  22.565  25.744  1.00  0.00     0.163 HD
BRANCH   5   7
ATOM      7  C   UNL A   1      31.389  21.901  25.426  1.00  0.00     0.077 C 
ATOM      8  C   UNL A   1      31.223  22.577  26.573  1.00  0.00     0.077 C 
BRANCH   8   9
ATOM      9  C   UNL A   1      29.913  23.200  26.880  1.00  0.00     0.248 C 
ATOM     10  O   UNL A   1      29.007  22.503  27.326  1.00  0.00    -0.270 OA
ATOM     11  N   UNL A   1      29.750  24.553  26.714  1.00  0.00    -0.322 N 
ATOM     12  H   UNL A   1      28.951  24.935  27.144  1.00  0.00     0.170 HD
BRANCH  11  13
ATOM     13  C   UNL A   1      30.557  25.472  26.019  1.00  0.00     0.048 A 
ATOM     14  C   UNL A   1      31.789  25.911  26.502  1.00  0.00     0.028 A 
ATOM     15  C   UNL A   1      30.070  25.996  24.821  1.00  0.00     0.113 A 
ATOM     16  C   UNL A   1      32.462  26.959  25.871  1.00  0.00     0.025 A 
ATOM     17  C   UNL A   1      30.740  27.065  24.185  1.00  0.00     0.285 A 
ATOM     18  C   UNL A   1      31.931  27.570  24.727  1.00  0.00     0.095 A 
ATOM     19  Br  UNL A   1      32.906  29.077  24.103  1.00  0.00    -0.043 Br
BRANCH  17  20
ATOM     20  N   UNL A   1      30.106  27.616  22.979  1.00  0.00     0.064 N 
ATOM     21  O   UNL A   1      29.011  28.179  23.125  1.00  0.00    -0.258 OA
ATOM     22  O   UNL A   1      30.651  27.453  21.882  1.00  0.00    -0.258 OA
ENDBRANCH  17  20
ENDBRANCH  11  13
ENDBRANCH   8   9
ENDBRANCH   5   7
ENDBRANCH   2   3
ENDBRANCH   1   2
BRANCH   1  23
ATOM     23  C   UNL A   1      37.536  21.495  24.992  1.00  0.00     0.118 C 
BRANCH  23  24
ATOM     24  N   UNL A   1      38.476  20.540  25.564  1.00  0.00    -0.352 N 
ATOM     25  C   UNL A   1      39.636  20.762  26.265  1.00  0.00     0.251 C 
ATOM     26  H   UNL A   1      38.245  19.592  25.427  1.00  0.00     0.163 HD
ATOM     27  O   UNL A   1      40.375  19.815  26.522  1.00  0.00    -0.269 OA
BRANCH  25  28
ATOM     28  C   UNL A   1      40.007  22.134  26.672  1.00  0.00     0.039 A 
ATOM     29  C   UNL A   1      41.027  22.305  27.611  1.00  0.00     0.014 A 
ATOM     30  C   UNL A   1      39.361  23.248  26.126  1.00  0.00     0.014 A 
ATOM     31  C   UNL A   1      41.457  23.593  27.939  1.00  0.00     0.010 A 
ATOM     32  C   UNL A   1      39.836  24.528  26.405  1.00  0.00     0.010 A 
ATOM     33  C   UNL A   1      40.897  24.712  27.304  1.00  0.00    -0.014 A 
BRANCH  33  34
ATOM     34  C   UNL A   1      41.431  26.080  27.538  1.00  0.00     0.031 A 
ATOM     35  C   UNL A   1      42.811  26.447  27.067  1.00  0.00     0.074 A 
ATOM     36  C   UNL A   1      40.698  26.965  28.242  1.00  0.00     0.049 A 
ATOM     37  N   UNL A   1      43.487  27.549  27.265  1.00  0.00    -0.248 NA
ATOM     38  C   UNL A   1      43.534  25.427  26.293  1.00  0.00     0.031 C 
ATOM     39  C   UNL A   1      39.359  26.714  28.780  1.00  0.00     0.029 A 
ATOM     40  N   UNL A   1      40.978  28.249  28.641  1.00  0.00    -0.354 N 
ATOM     41  C   UNL A   1      44.719  27.356  26.649  1.00  0.00     0.074 A 
ATOM     42  C   UNL A   1      44.714  26.007  26.121  1.00  0.00     0.031 C 
ATOM     43  C   UNL A   1      38.930  27.812  29.423  1.00  0.00     0.029 A 
ATOM     44  C   UNL A   1      39.978  28.826  29.390  1.00  0.00     0.049 A 
ATOM     45  H   UNL A   1      41.816  28.713  28.412  1.00  0.00     0.167 HD
ATOM     46  C   UNL A   1      45.749  28.229  26.522  1.00  0.00     0.034 A 
ATOM     47  C   UNL A   1      39.921  30.026  30.001  1.00  0.00     0.034 A 
ATOM     48  C   UNL A   1      45.736  29.572  27.052  1.00  0.00     0.049 A 
ATOM     49  C   UNL A   1      41.098  30.960  29.885  1.00  0.00     0.074 A 
ATOM     50  C   UNL A   1      46.703  30.556  26.930  1.00  0.00     0.029 A 
ATOM     51  N   UNL A   1      44.713  30.116  27.817  1.00  0.00    -0.354 N 
ATOM     52  N   UNL A   1      42.237  30.780  29.257  1.00  0.00    -0.248 NA
ATOM     53  C   UNL A   1      40.979  32.261  30.557  1.00  0.00     0.031 C 
ATOM     54  C   UNL A   1      46.297  31.666  27.679  1.00  0.00     0.029 A 
ATOM     55  C   UNL A   1      45.042  31.408  28.206  1.00  0.00     0.049 A 
ATOM     56  H   UNL A   1      43.875  29.654  28.050  1.00  0.00     0.167 HD
ATOM     57  C   UNL A   1      42.959  31.956  29.439  1.00  0.00     0.074 A 
ATOM     58  C   UNL A   1      42.120  32.842  30.218  1.00  0.00     0.031 C 
ATOM     59  C   UNL A   1      44.204  32.275  29.000  1.00  0.00     0.034 A 
BRANCH  46  60
ATOM     60  C   UNL A   1      46.987  27.741  25.805  1.00  0.00     0.023 A 
ATOM     61  C   UNL A   1      47.215  28.028  24.448  1.00  0.00     0.031 A 
ATOM     62  C   UNL A   1      47.942  26.962  26.482  1.00  0.00     0.131 A 
ATOM     63  C   UNL A   1      48.327  27.477  23.792  1.00  0.00     0.055 A 
ATOM     64  C   UNL A   1      49.089  26.484  25.844  1.00  0.00     0.041 A 
ATOM     65  F   UNL A   1      47.769  26.637  27.773  1.00  0.00    -0.206 F 
ATOM     66  C   UNL A   1      49.279  26.727  24.487  1.00  0.00     0.022 A 
BRANCH  63  67
ATOM     67  S   UNL A   1      48.434  27.633  21.988  1.00  0.00     0.124 S 
ATOM     68  O   UNL A   1      49.570  28.539  21.838  1.00  0.00    -0.237 OA
ATOM     69  O   UNL A   1      48.653  26.256  21.565  1.00  0.00    -0.237 OA
ATOM     70  O   UNL A   1      47.140  28.202  21.617  1.00  0.00    -0.744 OA
ENDBRANCH  63  67
ENDBRANCH  46  60
BRANCH  47  71
ATOM     71  C   UNL A   1      38.722  30.409  30.801  1.00  0.00     0.023 A 
ATOM     72  C   UNL A   1      37.654  31.105  30.214  1.00  0.00     0.031 A 
ATOM     73  C   UNL A   1      38.648  30.125  32.176  1.00  0.00     0.131 A 
ATOM     74  C   UNL A   1      36.578  31.534  31.007  1.00  0.00     0.055 A 
ATOM     75  C   UNL A   1      37.550  30.506  32.950  1.00  0.00     0.041 A 
ATOM     76  F   UNL A   1      39.640  29.458  32.788  1.00  0.00    -0.206 F 
ATOM     77  C   UNL A   1      36.512  31.227  32.368  1.00  0.00     0.022 A 
BRANCH  74  78
ATOM     78  S   UNL A   1      35.303  32.577  30.248  1.00  0.00     0.124 S 
ATOM     79  O   UNL A   1      34.354  32.731  31.345  1.00  0.00    -0.237 OA
ATOM     80  O   UNL A   1      36.064  33.768  29.886  1.00  0.00    -0.237 OA
ATOM     81  O   UNL A   1      34.833  31.774  29.121  1.00  0.00    -0.744 OA
ENDBRANCH  74  78
ENDBRANCH  47  71
BRANCH  59  82
ATOM     82  C   UNL A   1      44.711  33.658  29.329  1.00  0.00     0.023 A 
ATOM     83  C   UNL A   1      44.497  34.748  28.468  1.00  0.00     0.031 A 
ATOM     84  C   UNL A   1      45.433  33.884  30.514  1.00  0.00     0.131 A 
ATOM     85  C   UNL A   1      45.046  36.002  28.776  1.00  0.00     0.055 A 
ATOM     86  C   UNL A   1      45.926  35.147  30.845  1.00  0.00     0.041 A 
ATOM     87  F   UNL A   1      45.672  32.879  31.372  1.00  0.00    -0.206 F 
ATOM     88  C   UNL A   1      45.744  36.212  29.967  1.00  0.00     0.022 A 
BRANCH  85  89
ATOM     89  S   UNL A   1      44.914  37.336  27.554  1.00  0.00     0.124 S 
ATOM     90  O   UNL A   1      44.996  38.526  28.393  1.00  0.00    -0.237 OA
ATOM     91  O   UNL A   1      46.063  37.083  26.691  1.00  0.00    -0.237 OA
ATOM     92  O   UNL A   1      43.611  37.104  26.932  1.00  0.00    -0.744 OA
ENDBRANCH  85  89
ENDBRANCH  59  82
ENDBRANCH  33  34
ENDBRANCH  25  28
ENDBRANCH  23  24
ENDBRANCH   1  23
TORSDOF 16
ENDMDL
MODEL 3
REMARK VINA RESULT:     -12.0      5.321     10.155
REMARK SMILES O=C(/C=C/C(=O)Nc1ccc(Br)c([N+](=O)[O-])c1)NCCCNC(=O)c1ccc(-c2c3nc(c(-c4cc(S(=O)(=O)[O-])ccc4F)c4ccc([nH]4)c(-c4cc(S(=O)(=O)[O-])ccc4F)c4nc(c(-c5cc(S(=O)(=O)[O-])ccc5F)c5ccc2[nH]5)C=C4)C=C3)cc1
REMARK SMILES IDX 20 1 19 2 18 3 1 4 2 5 3 7 4 8 5 9 6 10 7 11 8 13 9 14 17 15
REMARK SMILES IDX 10 16 13 17 11 18 12 19 14 20 15 21 16 22 21 23 22 24 23 25
REMARK SMILES IDX 24 27 25 28 26 29 87 30 27 31 86 32 28 33 29 34 30 35 80 36
REMARK SMILES IDX 31 37 85 38 79 39 81 40 32 41 84 42 78 43 77 44 33 46 65 47
REMARK SMILES IDX 45 48 64 49 46 50 49 51 63 52 82 53 47 54 48 55 62 57 83 58
REMARK SMILES IDX 50 59 34 60 35 61 43 62 36 63 42 64 44 65 41 66 37 67 38 68
REMARK SMILES IDX 39 69 40 70 66 71 67 72 75 73 68 74 74 75 76 76 73 77 69 78
REMARK SMILES IDX 70 79 71 80 72 81 51 82 52 83 60 84 53 85 59 86 61 87 58 88
REMARK SMILES IDX 54 89 55 90 56 91 57 92
REMARK H PARENT 18 6 7 12 22 26 81 45 49 56
REMARK Flexibility Score: inf
ROOT
ATOM      1  C   UNL A   1      33.395  28.165  23.883  1.00  0.00     0.042 C 
ENDROOT
BRANCH   1   2
ATOM      2  C   UNL A   1      31.876  28.233  23.773  1.00  0.00     0.118 C 
BRANCH   2   3
ATOM      3  N   UNL A   1      31.249  27.006  24.224  1.00  0.00    -0.352 N 
ATOM      4  O   UNL A   1      31.265  27.557  26.455  1.00  0.00    -0.270 OA
ATOM      5  C   UNL A   1      31.031  26.763  25.547  1.00  0.00     0.244 C 
ATOM      6  H   UNL A   1      30.975  26.333  23.559  1.00  0.00     0.163 HD
BRANCH   5   7
ATOM      7  C   UNL A   1      30.514  25.424  25.882  1.00  0.00     0.077 C 
ATOM      8  C   UNL A   1      31.091  24.587  26.758  1.00  0.00     0.077 C 
BRANCH   8   9
ATOM      9  C   UNL A   1      30.605  23.191  26.873  1.00  0.00     0.248 C 
ATOM     10  O   UNL A   1      29.647  22.947  27.599  1.00  0.00    -0.270 OA
ATOM     11  N   UNL A   1      31.196  22.202  26.126  1.00  0.00    -0.322 N 
ATOM     12  H   UNL A   1      30.692  21.359  26.071  1.00  0.00     0.170 HD
BRANCH  11  13
ATOM     13  C   UNL A   1      32.418  22.220  25.428  1.00  0.00     0.048 A 
ATOM     14  C   UNL A   1      33.584  21.645  25.932  1.00  0.00     0.028 A 
ATOM     15  C   UNL A   1      32.463  22.886  24.203  1.00  0.00     0.113 A 
ATOM     16  C   UNL A   1      34.807  21.850  25.291  1.00  0.00     0.025 A 
ATOM     17  C   UNL A   1      33.700  23.109  23.556  1.00  0.00     0.285 A 
ATOM     18  C   UNL A   1      34.885  22.611  24.117  1.00  0.00     0.095 A 
ATOM     19  Br  UNL A   1      36.650  22.913  23.478  1.00  0.00    -0.043 Br
BRANCH  17  20
ATOM     20  N   UNL A   1      33.664  23.901  22.319  1.00  0.00     0.064 N 
ATOM     21  O   UNL A   1      33.403  23.296  21.269  1.00  0.00    -0.258 OA
ATOM     22  O   UNL A   1      33.942  25.104  22.365  1.00  0.00    -0.258 OA
ENDBRANCH  17  20
ENDBRANCH  11  13
ENDBRANCH   8   9
ENDBRANCH   5   7
ENDBRANCH   2   3
ENDBRANCH   1   2
BRANCH   1  23
ATOM     23  C   UNL A   1      33.963  28.904  25.092  1.00  0.00     0.118 C 
BRANCH  23  24
ATOM     24  N   UNL A   1      33.138  30.030  25.507  1.00  0.00    -0.352 N 
ATOM     25  C   UNL A   1      33.225  30.814  26.631  1.00  0.00     0.251 C 
ATOM     26  H   UNL A   1      32.408  30.264  24.889  1.00  0.00     0.163 HD
ATOM     27  O   UNL A   1      32.327  31.616  26.876  1.00  0.00    -0.269 OA
BRANCH  25  28
ATOM     28  C   UNL A   1      34.370  30.667  27.554  1.00  0.00     0.039 A 
ATOM     29  C   UNL A   1      34.449  29.523  28.353  1.00  0.00     0.014 A 
ATOM     30  C   UNL A   1      35.368  31.643  27.626  1.00  0.00     0.014 A 
ATOM     31  C   UNL A   1      35.569  29.318  29.160  1.00  0.00     0.010 A 
ATOM     32  C   UNL A   1      36.514  31.406  28.382  1.00  0.00     0.010 A 
ATOM     33  C   UNL A   1      36.632  30.235  29.147  1.00  0.00    -0.014 A 
BRANCH  33  34
ATOM     34  C   UNL A   1      37.889  29.971  29.895  1.00  0.00     0.031 A 
ATOM     35  C   UNL A   1      38.914  29.019  29.344  1.00  0.00     0.074 A 
ATOM     36  C   UNL A   1      38.069  30.533  31.107  1.00  0.00     0.049 A 
ATOM     37  N   UNL A   1      40.019  28.584  29.893  1.00  0.00    -0.248 NA
ATOM     38  C   UNL A   1      38.645  28.464  28.010  1.00  0.00     0.031 C 
ATOM     39  C   UNL A   1      37.130  31.447  31.761  1.00  0.00     0.029 A 
ATOM     40  N   UNL A   1      39.093  30.408  32.013  1.00  0.00    -0.354 N 
ATOM     41  C   UNL A   1      40.576  27.698  28.978  1.00  0.00     0.074 A 
ATOM     42  C   UNL A   1      39.654  27.617  27.863  1.00  0.00     0.031 C 
ATOM     43  C   UNL A   1      37.629  31.812  32.953  1.00  0.00     0.029 A 
ATOM     44  C   UNL A   1      38.895  31.121  33.173  1.00  0.00     0.049 A 
ATOM     45  H   UNL A   1      39.894  29.861  31.847  1.00  0.00     0.167 HD
ATOM     46  C   UNL A   1      41.753  27.029  29.053  1.00  0.00     0.034 A 
ATOM     47  C   UNL A   1      39.635  31.191  34.297  1.00  0.00     0.034 A 
ATOM     48  C   UNL A   1      42.662  27.125  30.171  1.00  0.00     0.049 A 
ATOM     49  C   UNL A   1      40.916  30.401  34.376  1.00  0.00     0.074 A 
ATOM     50  C   UNL A   1      43.906  26.536  30.324  1.00  0.00     0.029 A 
ATOM     51  N   UNL A   1      42.422  27.844  31.334  1.00  0.00    -0.354 N 
ATOM     52  N   UNL A   1      41.453  29.605  33.481  1.00  0.00    -0.248 NA
ATOM     53  C   UNL A   1      41.694  30.524  35.617  1.00  0.00     0.031 C 
ATOM     54  C   UNL A   1      44.383  26.839  31.603  1.00  0.00     0.029 A 
ATOM     55  C   UNL A   1      43.475  27.682  32.224  1.00  0.00     0.049 A 
ATOM     56  H   UNL A   1      41.620  28.390  31.505  1.00  0.00     0.167 HD
ATOM     57  C   UNL A   1      42.644  29.152  34.042  1.00  0.00     0.074 A 
ATOM     58  C   UNL A   1      42.754  29.779  35.343  1.00  0.00     0.031 C 
ATOM     59  C   UNL A   1      43.564  28.297  33.528  1.00  0.00     0.034 A 
BRANCH  46  60
ATOM     60  C   UNL A   1      42.106  26.113  27.905  1.00  0.00     0.023 A 
ATOM     61  C   UNL A   1      41.658  24.781  27.859  1.00  0.00     0.031 A 
ATOM     62  C   UNL A   1      42.918  26.570  26.851  1.00  0.00     0.131 A 
ATOM     63  C   UNL A   1      42.086  23.932  26.827  1.00  0.00     0.055 A 
ATOM     64  C   UNL A   1      43.274  25.743  25.784  1.00  0.00     0.041 A 
ATOM     65  F   UNL A   1      43.393  27.825  26.850  1.00  0.00    -0.206 F 
ATOM     66  C   UNL A   1      42.870  24.411  25.775  1.00  0.00     0.022 A 
BRANCH  63  67
ATOM     67  S   UNL A   1      41.722  22.160  26.956  1.00  0.00     0.124 S 
ATOM     68  O   UNL A   1      42.664  21.741  27.993  1.00  0.00    -0.237 OA
ATOM     69  O   UNL A   1      40.314  22.153  27.331  1.00  0.00    -0.237 OA
ATOM     70  O   UNL A   1      42.015  21.652  25.617  1.00  0.00    -0.744 OA
ENDBRANCH  63  67
ENDBRANCH  46  60
BRANCH  47  71
ATOM     71  C   UNL A   1      39.178  32.016  35.453  1.00  0.00     0.023 A 
ATOM     72  C   UNL A   1      38.517  31.429  36.543  1.00  0.00     0.031 A 
ATOM     73  C   UNL A   1      39.356  33.411  35.462  1.00  0.00     0.131 A 
ATOM     74  C   UNL A   1      38.017  32.237  37.575  1.00  0.00     0.055 A 
ATOM     75  C   UNL A   1      38.904  34.205  36.518  1.00  0.00     0.041 A 
ATOM     76  F   UNL A   1      39.985  34.023  34.446  1.00  0.00    -0.206 F 
ATOM     77  C   UNL A   1      38.217  33.620  37.577  1.00  0.00     0.022 A 
BRANCH  74  78
ATOM     78  S   UNL A   1      37.020  31.463  38.878  1.00  0.00     0.124 S 
ATOM     79  O   UNL A   1      37.902  31.578  40.035  1.00  0.00    -0.237 OA
ATOM     80  O   UNL A   1      35.831  32.309  38.891  1.00  0.00    -0.237 OA
ATOM     81  O   UNL A   1      36.811  30.104  38.384  1.00  0.00    -0.744 OA
ENDBRANCH  74  78
ENDBRANCH  47  71
BRANCH  59  82
ATOM     82  C   UNL A   1      44.787  28.021  34.369  1.00  0.00     0.023 A 
ATOM     83  C   UNL A   1      44.832  26.950  35.278  1.00  0.00     0.031 A 
ATOM     84  C   UNL A   1      45.916  28.854  34.271  1.00  0.00     0.131 A 
ATOM     85  C   UNL A   1      45.961  26.772  36.092  1.00  0.00     0.055 A 
ATOM     86  C   UNL A   1      47.059  28.636  35.041  1.00  0.00     0.041 A 
ATOM     87  F   UNL A   1      45.927  29.895  33.423  1.00  0.00    -0.206 F 
ATOM     88  C   UNL A   1      47.081  27.597  35.967  1.00  0.00     0.022 A 
BRANCH  85  89
ATOM     89  S   UNL A   1      45.910  25.499  37.385  1.00  0.00     0.124 S 
ATOM     90  O   UNL A   1      44.548  25.633  37.889  1.00  0.00    -0.237 OA
ATOM     91  O   UNL A   1      46.197  24.281  36.635  1.00  0.00    -0.237 OA
ATOM     92  O   UNL A   1      46.959  25.914  38.315  1.00  0.00    -0.744 OA
ENDBRANCH  85  89
ENDBRANCH  59  82
ENDBRANCH  33  34
ENDBRANCH  25  28
ENDBRANCH  23  24
ENDBRANCH   1  23
TORSDOF 16
ENDMDL
