MODEL 1
REMARK VINA RESULT:     -12.1      0.000      0.000
REMARK SMILES C[C@@H]1[C@H](C(=O)NCCCNC(=O)c2ccc(-c3c4nc(c(-c5cc(S(=O)(=O)[O-])ccc5F)c5ccc([nH]5)c(-c5cc(S(=O)(=O)[O-])ccc5F)c5nc(c(-c6cc(S(=O)(=O)[O-])ccc6F)c6ccc3[nH]6)C=C5)C=C4)cc2)CCN1C(=O)[C@H]1CC[C@@H](C(C)(C)C)CC1
REMARK SMILES IDX 8 1 7 2 6 3 4 4 5 5 3 7 1 8 2 9 78 10 76 11 77 12 79 13
REMARK SMILES IDX 80 14 81 15 82 16 90 17 83 18 89 19 84 20 85 21 86 22 87 23
REMARK SMILES IDX 88 24 9 25 10 26 11 27 12 29 13 30 14 31 75 32 15 33 74 34
REMARK SMILES IDX 16 35 17 36 18 37 68 38 19 39 73 40 67 41 69 42 20 43 72 44
REMARK SMILES IDX 66 45 65 46 21 48 53 49 33 50 52 51 34 52 37 53 51 54 70 55
REMARK SMILES IDX 35 56 36 57 50 59 71 60 38 61 22 62 23 63 31 64 24 65 30 66
REMARK SMILES IDX 32 67 29 68 25 69 26 70 27 71 28 72 54 73 55 74 63 75 56 76
REMARK SMILES IDX 62 77 64 78 61 79 57 80 58 81 59 82 60 83 39 84 40 85 48 86
REMARK SMILES IDX 41 87 47 88 49 89 46 90 42 91 43 92 44 93 45 94
REMARK H PARENT 6 6 10 28 69 47 37 58
REMARK Flexibility Score: inf
ROOT
ATOM      1  C   UNL A   1      33.759  27.949  26.451  1.00  0.00     0.042 C 
ENDROOT
BRANCH   1   2
ATOM      2  C   UNL A   1      33.615  28.231  24.946  1.00  0.00     0.117 C 
BRANCH   2   3
ATOM      3  N   UNL A   1      32.241  28.351  24.462  1.00  0.00    -0.356 N 
ATOM      4  C   UNL A   1      31.242  27.479  24.171  1.00  0.00     0.225 C 
ATOM      5  O   UNL A   1      30.150  28.006  23.909  1.00  0.00    -0.275 OA
ATOM      6  H   UNL A   1      31.978  29.287  24.310  1.00  0.00     0.163 HD
BRANCH   4   7
ATOM      7  C   UNL A   1      31.342  25.954  24.056  1.00  0.00     0.102 C 
ATOM      8  C   UNL A   1      29.954  25.630  26.141  1.00  0.00     0.032 C 
ATOM      9  C   UNL A   1      31.161  25.170  25.365  1.00  0.00     0.094 C 
ATOM     10  N   UNL A   1      31.007  23.779  24.957  1.00  0.00    -0.339 N 
ATOM     11  C   UNL A   1      30.517  25.165  23.055  1.00  0.00     0.037 C 
ATOM     12  C   UNL A   1      30.716  23.717  23.523  1.00  0.00     0.120 C 
BRANCH  10  13
ATOM     13  C   UNL A   1      31.125  22.609  25.687  1.00  0.00     0.225 C 
ATOM     14  O   UNL A   1      30.097  22.083  26.137  1.00  0.00    -0.275 OA
BRANCH  13  15
ATOM     15  C   UNL A   1      32.482  21.903  25.983  1.00  0.00     0.078 C 
ATOM     16  C   UNL A   1      33.321  21.564  24.755  1.00  0.00     0.014 C 
ATOM     17  C   UNL A   1      33.232  22.439  27.206  1.00  0.00     0.014 C 
ATOM     18  C   UNL A   1      34.739  21.101  25.076  1.00  0.00     0.005 C 
ATOM     19  C   UNL A   1      34.770  22.433  27.218  1.00  0.00     0.005 C 
ATOM     20  C   UNL A   1      35.570  22.062  25.944  1.00  0.00    -0.006 C 
BRANCH  20  21
ATOM     21  C   UNL A   1      36.350  23.220  25.185  1.00  0.00    -0.035 C 
ATOM     22  C   UNL A   1      36.721  22.809  23.740  1.00  0.00     0.011 C 
ATOM     23  C   UNL A   1      35.480  24.493  25.085  1.00  0.00     0.011 C 
ATOM     24  C   UNL A   1      37.639  23.643  25.873  1.00  0.00     0.011 C 
ENDBRANCH  20  21
ENDBRANCH  13  15
ENDBRANCH  10  13
ENDBRANCH   4   7
ENDBRANCH   2   3
ENDBRANCH   1   2
BRANCH   1  25
ATOM     25  C   UNL A   1      32.885  28.796  27.367  1.00  0.00     0.118 C 
BRANCH  25  26
ATOM     26  N   UNL A   1      33.193  30.204  27.214  1.00  0.00    -0.352 N 
ATOM     27  C   UNL A   1      34.251  30.933  27.707  1.00  0.00     0.251 C 
ATOM     28  H   UNL A   1      32.548  30.716  26.675  1.00  0.00     0.163 HD
ATOM     29  O   UNL A   1      34.116  32.152  27.800  1.00  0.00    -0.269 OA
BRANCH  27  30
ATOM     30  C   UNL A   1      35.531  30.297  28.125  1.00  0.00     0.039 A 
ATOM     31  C   UNL A   1      35.631  29.790  29.429  1.00  0.00     0.014 A 
ATOM     32  C   UNL A   1      36.666  30.294  27.311  1.00  0.00     0.014 A 
ATOM     33  C   UNL A   1      36.845  29.275  29.900  1.00  0.00     0.010 A 
ATOM     34  C   UNL A   1      37.857  29.708  27.755  1.00  0.00     0.010 A 
ATOM     35  C   UNL A   1      37.971  29.216  29.065  1.00  0.00    -0.014 A 
BRANCH  35  36
ATOM     36  C   UNL A   1      39.281  28.703  29.561  1.00  0.00     0.031 A 
ATOM     37  C   UNL A   1      39.973  29.385  30.717  1.00  0.00     0.074 A 
ATOM     38  C   UNL A   1      39.870  27.650  28.961  1.00  0.00     0.049 A 
ATOM     39  N   UNL A   1      41.146  29.143  31.246  1.00  0.00    -0.248 NA
ATOM     40  C   UNL A   1      39.259  30.510  31.341  1.00  0.00     0.031 C 
ATOM     41  C   UNL A   1      39.321  26.913  27.822  1.00  0.00     0.029 A 
ATOM     42  N   UNL A   1      41.063  27.018  29.218  1.00  0.00    -0.354 N 
ATOM     43  C   UNL A   1      41.319  30.093  32.248  1.00  0.00     0.074 A 
ATOM     44  C   UNL A   1      40.154  30.953  32.210  1.00  0.00     0.031 C 
ATOM     45  C   UNL A   1      40.162  25.917  27.495  1.00  0.00     0.029 A 
ATOM     46  C   UNL A   1      41.331  25.970  28.367  1.00  0.00     0.049 A 
ATOM     47  H   UNL A   1      41.670  27.291  29.944  1.00  0.00     0.167 HD
ATOM     48  C   UNL A   1      42.339  30.226  33.135  1.00  0.00     0.034 A 
ATOM     49  C   UNL A   1      42.400  25.151  28.289  1.00  0.00     0.034 A 
ATOM     50  C   UNL A   1      43.485  29.349  33.179  1.00  0.00     0.049 A 
ATOM     51  C   UNL A   1      43.533  25.331  29.269  1.00  0.00     0.074 A 
ATOM     52  C   UNL A   1      44.550  29.364  34.064  1.00  0.00     0.029 A 
ATOM     53  N   UNL A   1      43.719  28.301  32.298  1.00  0.00    -0.354 N 
ATOM     54  N   UNL A   1      43.663  26.215  30.230  1.00  0.00    -0.248 NA
ATOM     55  C   UNL A   1      44.659  24.393  29.159  1.00  0.00     0.031 C 
ATOM     56  C   UNL A   1      45.455  28.369  33.681  1.00  0.00     0.029 A 
ATOM     57  C   UNL A   1      44.923  27.682  32.602  1.00  0.00     0.049 A 
ATOM     58  H   UNL A   1      43.119  28.037  31.564  1.00  0.00     0.167 HD
ATOM     59  C   UNL A   1      44.871  25.918  30.858  1.00  0.00     0.074 A 
ATOM     60  C   UNL A   1      45.421  24.766  30.175  1.00  0.00     0.031 C 
ATOM     61  C   UNL A   1      45.467  26.539  31.907  1.00  0.00     0.034 A 
BRANCH  48  62
ATOM     62  C   UNL A   1      42.268  31.379  34.112  1.00  0.00     0.023 A 
ATOM     63  C   UNL A   1      41.407  31.354  35.223  1.00  0.00     0.031 A 
ATOM     64  C   UNL A   1      43.049  32.531  33.914  1.00  0.00     0.131 A 
ATOM     65  C   UNL A   1      41.287  32.485  36.044  1.00  0.00     0.055 A 
ATOM     66  C   UNL A   1      42.988  33.623  34.785  1.00  0.00     0.041 A 
ATOM     67  F   UNL A   1      43.877  32.625  32.861  1.00  0.00    -0.206 F 
ATOM     68  C   UNL A   1      42.091  33.611  35.848  1.00  0.00     0.022 A 
BRANCH  65  69
ATOM     69  S   UNL A   1      39.957  32.522  37.277  1.00  0.00     0.124 S 
ATOM     70  O   UNL A   1      40.709  32.394  38.523  1.00  0.00    -0.237 OA
ATOM     71  O   UNL A   1      39.337  33.819  37.035  1.00  0.00    -0.237 OA
ATOM     72  O   UNL A   1      39.136  31.362  36.932  1.00  0.00    -0.744 OA
ENDBRANCH  65  69
ENDBRANCH  48  62
BRANCH  49  73
ATOM     73  C   UNL A   1      42.464  24.090  27.243  1.00  0.00     0.023 A 
ATOM     74  C   UNL A   1      41.651  22.948  27.321  1.00  0.00     0.031 A 
ATOM     75  C   UNL A   1      43.369  24.182  26.170  1.00  0.00     0.131 A 
ATOM     76  C   UNL A   1      41.790  21.923  26.373  1.00  0.00     0.055 A 
ATOM     77  C   UNL A   1      43.467  23.184  25.200  1.00  0.00     0.041 A 
ATOM     78  F   UNL A   1      44.167  25.255  26.046  1.00  0.00    -0.206 F 
ATOM     79  C   UNL A   1      42.683  22.039  25.305  1.00  0.00     0.022 A 
BRANCH  76  80
ATOM     80  S   UNL A   1      40.842  20.393  26.602  1.00  0.00     0.124 S 
ATOM     81  O   UNL A   1      40.905  20.219  28.048  1.00  0.00    -0.237 OA
ATOM     82  O   UNL A   1      39.540  20.760  26.055  1.00  0.00    -0.237 OA
ATOM     83  O   UNL A   1      41.590  19.410  25.821  1.00  0.00    -0.744 OA
ENDBRANCH  76  80
ENDBRANCH  49  73
BRANCH  61  84
ATOM     84  C   UNL A   1      46.763  25.948  32.408  1.00  0.00     0.023 A 
ATOM     85  C   UNL A   1      47.993  26.230  31.790  1.00  0.00     0.031 A 
ATOM     86  C   UNL A   1      46.761  25.079  33.514  1.00  0.00     0.131 A 
ATOM     87  C   UNL A   1      49.164  25.605  32.247  1.00  0.00     0.055 A 
ATOM     88  C   UNL A   1      47.937  24.506  34.000  1.00  0.00     0.041 A 
ATOM     89  F   UNL A   1      45.614  24.772  34.141  1.00  0.00    -0.206 F 
ATOM     90  C   UNL A   1      49.146  24.758  33.358  1.00  0.00     0.022 A 
BRANCH  87  91
ATOM     91  S   UNL A   1      50.701  25.845  31.313  1.00  0.00     0.124 S 
ATOM     92  O   UNL A   1      50.767  27.299  31.207  1.00  0.00    -0.237 OA
ATOM     93  O   UNL A   1      51.695  25.223  32.182  1.00  0.00    -0.237 OA
ATOM     94  O   UNL A   1      50.452  25.142  30.056  1.00  0.00    -0.744 OA
ENDBRANCH  87  91
ENDBRANCH  61  84
ENDBRANCH  35  36
ENDBRANCH  27  30
ENDBRANCH  25  26
ENDBRANCH   1  25
TORSDOF 16
ENDMDL
MODEL 2
REMARK VINA RESULT:     -12.1      3.728      8.864
REMARK SMILES C[C@@H]1[C@H](C(=O)NCCCNC(=O)c2ccc(-c3c4nc(c(-c5cc(S(=O)(=O)[O-])ccc5F)c5ccc([nH]5)c(-c5cc(S(=O)(=O)[O-])ccc5F)c5nc(c(-c6cc(S(=O)(=O)[O-])ccc6F)c6ccc3[nH]6)C=C5)C=C4)cc2)CCN1C(=O)[C@H]1CC[C@@H](C(C)(C)C)CC1
REMARK SMILES IDX 8 1 7 2 6 3 4 4 5 5 3 7 1 8 2 9 78 10 76 11 77 12 79 13
REMARK SMILES IDX 80 14 81 15 82 16 90 17 83 18 89 19 84 20 85 21 86 22 87 23
REMARK SMILES IDX 88 24 9 25 10 26 11 27 12 29 13 30 14 31 75 32 15 33 74 34
REMARK SMILES IDX 16 35 17 36 18 37 68 38 19 39 73 40 67 41 69 42 20 43 72 44
REMARK SMILES IDX 66 45 65 46 21 48 53 49 33 50 52 51 34 52 37 53 51 54 70 55
REMARK SMILES IDX 35 56 36 57 50 59 71 60 38 61 22 62 23 63 31 64 24 65 30 66
REMARK SMILES IDX 32 67 29 68 25 69 26 70 27 71 28 72 54 73 55 74 63 75 56 76
REMARK SMILES IDX 62 77 64 78 61 79 57 80 58 81 59 82 60 83 39 84 40 85 48 86
REMARK SMILES IDX 41 87 47 88 49 89 46 90 42 91 43 92 44 93 45 94
REMARK H PARENT 6 6 10 28 69 47 37 58
REMARK Flexibility Score: inf
ROOT
ATOM      1  C   UNL A   1      31.417  31.944  26.406  1.00  0.00     0.042 C 
ENDROOT
BRANCH   1   2
ATOM      2  C   UNL A   1      31.532  30.551  25.764  1.00  0.00     0.117 C 
BRANCH   2   3
ATOM      3  N   UNL A   1      32.342  29.587  26.506  1.00  0.00    -0.356 N 
ATOM      4  C   UNL A   1      33.290  28.671  26.180  1.00  0.00     0.225 C 
ATOM      5  O   UNL A   1      33.847  28.131  27.147  1.00  0.00    -0.275 OA
ATOM      6  H   UNL A   1      32.155  29.605  27.472  1.00  0.00     0.163 HD
BRANCH   4   7
ATOM      7  C   UNL A   1      33.675  28.190  24.776  1.00  0.00     0.102 C 
ATOM      8  C   UNL A   1      31.557  26.827  24.581  1.00  0.00     0.032 C 
ATOM      9  C   UNL A   1      33.042  26.865  24.326  1.00  0.00     0.094 C 
ATOM     10  N   UNL A   1      33.317  26.779  22.896  1.00  0.00    -0.339 N 
ATOM     11  C   UNL A   1      33.538  29.081  23.554  1.00  0.00     0.037 C 
ATOM     12  C   UNL A   1      33.729  28.091  22.396  1.00  0.00     0.120 C 
BRANCH  10  13
ATOM     13  C   UNL A   1      33.272  25.696  22.035  1.00  0.00     0.225 C 
ATOM     14  O   UNL A   1      33.046  25.901  20.834  1.00  0.00    -0.275 OA
BRANCH  13  15
ATOM     15  C   UNL A   1      33.491  24.221  22.483  1.00  0.00     0.078 C 
ATOM     16  C   UNL A   1      34.792  23.955  23.235  1.00  0.00     0.014 C 
ATOM     17  C   UNL A   1      32.236  23.514  23.003  1.00  0.00     0.014 C 
ATOM     18  C   UNL A   1      34.872  22.571  23.872  1.00  0.00     0.005 C 
ATOM     19  C   UNL A   1      32.364  22.449  24.106  1.00  0.00     0.005 C 
ATOM     20  C   UNL A   1      33.717  22.210  24.821  1.00  0.00    -0.006 C 
BRANCH  20  21
ATOM     21  C   UNL A   1      33.858  22.679  26.334  1.00  0.00    -0.035 C 
ATOM     22  C   UNL A   1      35.287  23.180  26.647  1.00  0.00     0.011 C 
ATOM     23  C   UNL A   1      32.892  23.846  26.638  1.00  0.00     0.011 C 
ATOM     24  C   UNL A   1      33.534  21.590  27.345  1.00  0.00     0.011 C 
ENDBRANCH  20  21
ENDBRANCH  13  15
ENDBRANCH  10  13
ENDBRANCH   4   7
ENDBRANCH   2   3
ENDBRANCH   1   2
BRANCH   1  25
ATOM     25  C   UNL A   1      32.615  32.390  27.233  1.00  0.00     0.118 C 
BRANCH  25  26
ATOM     26  N   UNL A   1      32.565  33.817  27.482  1.00  0.00    -0.352 N 
ATOM     27  C   UNL A   1      33.105  34.551  28.513  1.00  0.00     0.251 C 
ATOM     28  H   UNL A   1      32.070  34.340  26.811  1.00  0.00     0.163 HD
ATOM     29  O   UNL A   1      32.621  35.656  28.748  1.00  0.00    -0.269 OA
BRANCH  27  30
ATOM     30  C   UNL A   1      34.240  34.051  29.339  1.00  0.00     0.039 A 
ATOM     31  C   UNL A   1      35.547  34.334  28.920  1.00  0.00     0.014 A 
ATOM     32  C   UNL A   1      34.051  33.215  30.443  1.00  0.00     0.014 A 
ATOM     33  C   UNL A   1      36.645  33.800  29.607  1.00  0.00     0.010 A 
ATOM     34  C   UNL A   1      35.148  32.747  31.175  1.00  0.00     0.010 A 
ATOM     35  C   UNL A   1      36.460  33.009  30.751  1.00  0.00    -0.014 A 
BRANCH  35  36
ATOM     36  C   UNL A   1      37.616  32.404  31.473  1.00  0.00     0.031 A 
ATOM     37  C   UNL A   1      38.392  31.270  30.847  1.00  0.00     0.074 A 
ATOM     38  C   UNL A   1      37.955  32.843  32.702  1.00  0.00     0.049 A 
ATOM     39  N   UNL A   1      39.375  30.560  31.341  1.00  0.00    -0.248 NA
ATOM     40  C   UNL A   1      37.984  30.862  29.494  1.00  0.00     0.031 C 
ATOM     41  C   UNL A   1      37.277  33.916  33.431  1.00  0.00     0.029 A 
ATOM     42  N   UNL A   1      38.949  32.439  33.560  1.00  0.00    -0.354 N 
ATOM     43  C   UNL A   1      39.690  29.613  30.371  1.00  0.00     0.074 A 
ATOM     44  C   UNL A   1      38.750  29.802  29.286  1.00  0.00     0.031 C 
ATOM     45  C   UNL A   1      37.889  34.101  34.612  1.00  0.00     0.029 A 
ATOM     46  C   UNL A   1      38.972  33.131  34.749  1.00  0.00     0.049 A 
ATOM     47  H   UNL A   1      39.586  31.719  33.344  1.00  0.00     0.167 HD
ATOM     48  C   UNL A   1      40.683  28.687  30.370  1.00  0.00     0.034 A 
ATOM     49  C   UNL A   1      39.765  32.996  35.831  1.00  0.00     0.034 A 
ATOM     50  C   UNL A   1      41.629  28.522  31.448  1.00  0.00     0.049 A 
ATOM     51  C   UNL A   1      40.847  31.945  35.819  1.00  0.00     0.074 A 
ATOM     52  C   UNL A   1      42.701  27.649  31.530  1.00  0.00     0.029 A 
ATOM     53  N   UNL A   1      41.616  29.242  32.636  1.00  0.00    -0.354 N 
ATOM     54  N   UNL A   1      41.149  31.081  34.879  1.00  0.00    -0.248 NA
ATOM     55  C   UNL A   1      41.702  31.861  37.011  1.00  0.00     0.031 C 
ATOM     56  C   UNL A   1      43.296  27.797  32.787  1.00  0.00     0.029 A 
ATOM     57  C   UNL A   1      42.643  28.814  33.465  1.00  0.00     0.049 A 
ATOM     58  H   UNL A   1      40.971  29.952  32.857  1.00  0.00     0.167 HD
ATOM     59  C   UNL A   1      42.250  30.372  35.356  1.00  0.00     0.074 A 
ATOM     60  C   UNL A   1      42.565  30.920  36.658  1.00  0.00     0.031 C 
ATOM     61  C   UNL A   1      42.941  29.363  34.767  1.00  0.00     0.034 A 
BRANCH  48  62
ATOM     62  C   UNL A   1      40.776  27.765  29.174  1.00  0.00     0.023 A 
ATOM     63  C   UNL A   1      41.715  27.977  28.149  1.00  0.00     0.031 A 
ATOM     64  C   UNL A   1      39.895  26.677  29.040  1.00  0.00     0.131 A 
ATOM     65  C   UNL A   1      41.699  27.169  27.003  1.00  0.00     0.055 A 
ATOM     66  C   UNL A   1      39.940  25.823  27.936  1.00  0.00     0.041 A 
ATOM     67  F   UNL A   1      38.963  26.432  29.975  1.00  0.00    -0.206 F 
ATOM     68  C   UNL A   1      40.835  26.076  26.900  1.00  0.00     0.022 A 
BRANCH  65  69
ATOM     69  S   UNL A   1      42.717  27.658  25.584  1.00  0.00     0.124 S 
ATOM     70  O   UNL A   1      42.641  26.466  24.743  1.00  0.00    -0.237 OA
ATOM     71  O   UNL A   1      42.021  28.837  25.087  1.00  0.00    -0.237 OA
ATOM     72  O   UNL A   1      44.031  27.910  26.175  1.00  0.00    -0.744 OA
ENDBRANCH  65  69
ENDBRANCH  48  62
BRANCH  49  73
ATOM     73  C   UNL A   1      39.568  33.867  37.026  1.00  0.00     0.023 A 
ATOM     74  C   UNL A   1      38.937  33.379  38.181  1.00  0.00     0.031 A 
ATOM     75  C   UNL A   1      39.969  35.216  37.015  1.00  0.00     0.131 A 
ATOM     76  C   UNL A   1      38.685  34.241  39.260  1.00  0.00     0.055 A 
ATOM     77  C   UNL A   1      39.763  36.056  38.110  1.00  0.00     0.041 A 
ATOM     78  F   UNL A   1      40.580  35.733  35.937  1.00  0.00    -0.206 F 
ATOM     79  C   UNL A   1      39.105  35.573  39.237  1.00  0.00     0.022 A 
BRANCH  76  80
ATOM     80  S   UNL A   1      37.722  33.615  40.664  1.00  0.00     0.124 S 
ATOM     81  O   UNL A   1      37.456  34.839  41.411  1.00  0.00    -0.237 OA
ATOM     82  O   UNL A   1      36.575  33.008  39.997  1.00  0.00    -0.237 OA
ATOM     83  O   UNL A   1      38.635  32.674  41.309  1.00  0.00    -0.744 OA
ENDBRANCH  76  80
ENDBRANCH  49  73
BRANCH  61  84
ATOM     84  C   UNL A   1      44.136  28.822  35.514  1.00  0.00     0.023 A 
ATOM     85  C   UNL A   1      44.035  27.714  36.372  1.00  0.00     0.031 A 
ATOM     86  C   UNL A   1      45.393  29.437  35.372  1.00  0.00     0.131 A 
ATOM     87  C   UNL A   1      45.158  27.287  37.098  1.00  0.00     0.055 A 
ATOM     88  C   UNL A   1      46.520  28.972  36.053  1.00  0.00     0.041 A 
ATOM     89  F   UNL A   1      45.548  30.501  34.568  1.00  0.00    -0.206 F 
ATOM     90  C   UNL A   1      46.403  27.899  36.932  1.00  0.00     0.022 A 
BRANCH  87  91
ATOM     91  S   UNL A   1      44.949  25.975  38.334  1.00  0.00     0.124 S 
ATOM     92  O   UNL A   1      46.327  25.727  38.747  1.00  0.00    -0.237 OA
ATOM     93  O   UNL A   1      44.090  26.613  39.326  1.00  0.00    -0.237 OA
ATOM     94  O   UNL A   1      44.323  24.890  37.579  1.00  0.00    -0.744 OA
ENDBRANCH  87  91
ENDBRANCH  61  84
ENDBRANCH  35  36
ENDBRANCH  27  30
ENDBRANCH  25  26
ENDBRANCH   1  25
TORSDOF 16
ENDMDL
MODEL 3
REMARK VINA RESULT:     -12.0      1.833      2.196
REMARK SMILES C[C@@H]1[C@H](C(=O)NCCCNC(=O)c2ccc(-c3c4nc(c(-c5cc(S(=O)(=O)[O-])ccc5F)c5ccc([nH]5)c(-c5cc(S(=O)(=O)[O-])ccc5F)c5nc(c(-c6cc(S(=O)(=O)[O-])ccc6F)c6ccc3[nH]6)C=C5)C=C4)cc2)CCN1C(=O)[C@H]1CC[C@@H](C(C)(C)C)CC1
REMARK SMILES IDX 8 1 7 2 6 3 4 4 5 5 3 7 1 8 2 9 78 10 76 11 77 12 79 13
REMARK SMILES IDX 80 14 81 15 82 16 90 17 83 18 89 19 84 20 85 21 86 22 87 23
REMARK SMILES IDX 88 24 9 25 10 26 11 27 12 29 13 30 14 31 75 32 15 33 74 34
REMARK SMILES IDX 16 35 17 36 18 37 68 38 19 39 73 40 67 41 69 42 20 43 72 44
REMARK SMILES IDX 66 45 65 46 21 48 53 49 33 50 52 51 34 52 37 53 51 54 70 55
REMARK SMILES IDX 35 56 36 57 50 59 71 60 38 61 22 62 23 63 31 64 24 65 30 66
REMARK SMILES IDX 32 67 29 68 25 69 26 70 27 71 28 72 54 73 55 74 63 75 56 76
REMARK SMILES IDX 62 77 64 78 61 79 57 80 58 81 59 82 60 83 39 84 40 85 48 86
REMARK SMILES IDX 41 87 47 88 49 89 46 90 42 91 43 92 44 93 45 94
REMARK H PARENT 6 6 10 28 69 47 37 58
REMARK Flexibility Score: inf
ROOT
ATOM      1  C   UNL A   1      33.778  27.933  26.352  1.00  0.00     0.042 C 
ENDROOT
BRANCH   1   2
ATOM      2  C   UNL A   1      33.646  28.235  24.849  1.00  0.00     0.117 C 
BRANCH   2   3
ATOM      3  N   UNL A   1      32.277  28.356  24.355  1.00  0.00    -0.356 N 
ATOM      4  C   UNL A   1      31.273  27.486  24.072  1.00  0.00     0.225 C 
ATOM      5  O   UNL A   1      30.187  28.017  23.793  1.00  0.00    -0.275 OA
ATOM      6  H   UNL A   1      32.021  29.292  24.184  1.00  0.00     0.163 HD
BRANCH   4   7
ATOM      7  C   UNL A   1      31.364  25.959  23.984  1.00  0.00     0.102 C 
ATOM      8  C   UNL A   1      29.982  25.682  26.080  1.00  0.00     0.032 C 
ATOM      9  C   UNL A   1      31.182  25.200  25.307  1.00  0.00     0.094 C 
ATOM     10  N   UNL A   1      31.018  23.803  24.925  1.00  0.00    -0.339 N 
ATOM     11  C   UNL A   1      30.530  25.158  23.000  1.00  0.00     0.037 C 
ATOM     12  C   UNL A   1      30.722  23.717  23.494  1.00  0.00     0.120 C 
BRANCH  10  13
ATOM     13  C   UNL A   1      31.132  22.646  25.676  1.00  0.00     0.225 C 
ATOM     14  O   UNL A   1      30.101  22.131  26.135  1.00  0.00    -0.275 OA
BRANCH  13  15
ATOM     15  C   UNL A   1      32.486  21.940  25.985  1.00  0.00     0.078 C 
ATOM     16  C   UNL A   1      33.320  21.570  24.763  1.00  0.00     0.014 C 
ATOM     17  C   UNL A   1      33.241  22.500  27.194  1.00  0.00     0.014 C 
ATOM     18  C   UNL A   1      34.737  21.107  25.092  1.00  0.00     0.005 C 
ATOM     19  C   UNL A   1      34.779  22.487  27.202  1.00  0.00     0.005 C 
ATOM     20  C   UNL A   1      35.574  22.083  25.936  1.00  0.00    -0.006 C 
BRANCH  20  21
ATOM     21  C   UNL A   1      36.359  23.220  25.149  1.00  0.00    -0.035 C 
ATOM     22  C   UNL A   1      35.502  24.497  24.982  1.00  0.00     0.011 C 
ATOM     23  C   UNL A   1      37.639  23.629  25.911  1.00  0.00     0.011 C 
ATOM     24  C   UNL A   1      36.812  22.801  23.759  1.00  0.00     0.011 C 
ENDBRANCH  20  21
ENDBRANCH  13  15
ENDBRANCH  10  13
ENDBRANCH   4   7
ENDBRANCH   2   3
ENDBRANCH   1   2
BRANCH   1  25
ATOM     25  C   UNL A   1      32.921  28.790  27.274  1.00  0.00     0.118 C 
BRANCH  25  26
ATOM     26  N   UNL A   1      33.257  30.193  27.131  1.00  0.00    -0.352 N 
ATOM     27  C   UNL A   1      34.313  30.904  27.654  1.00  0.00     0.251 C 
ATOM     28  H   UNL A   1      32.636  30.716  26.574  1.00  0.00     0.163 HD
ATOM     29  O   UNL A   1      34.196  32.125  27.744  1.00  0.00    -0.269 OA
BRANCH  27  30
ATOM     30  C   UNL A   1      35.570  30.246  28.107  1.00  0.00     0.039 A 
ATOM     31  C   UNL A   1      35.633  29.760  29.420  1.00  0.00     0.014 A 
ATOM     32  C   UNL A   1      36.720  30.203  27.315  1.00  0.00     0.014 A 
ATOM     33  C   UNL A   1      36.827  29.225  29.923  1.00  0.00     0.010 A 
ATOM     34  C   UNL A   1      37.888  29.598  27.791  1.00  0.00     0.010 A 
ATOM     35  C   UNL A   1      37.967  29.126  29.111  1.00  0.00    -0.014 A 
BRANCH  35  36
ATOM     36  C   UNL A   1      39.254  28.592  29.641  1.00  0.00     0.031 A 
ATOM     37  C   UNL A   1      39.901  29.231  30.847  1.00  0.00     0.074 A 
ATOM     38  C   UNL A   1      39.866  27.559  29.028  1.00  0.00     0.049 A 
ATOM     39  N   UNL A   1      41.052  28.967  31.413  1.00  0.00    -0.248 NA
ATOM     40  C   UNL A   1      39.164  30.335  31.481  1.00  0.00     0.031 C 
ATOM     41  C   UNL A   1      39.362  26.864  27.842  1.00  0.00     0.029 A 
ATOM     42  N   UNL A   1      41.047  26.915  29.310  1.00  0.00    -0.354 N 
ATOM     43  C   UNL A   1      41.185  29.881  32.455  1.00  0.00     0.074 A 
ATOM     44  C   UNL A   1      40.025  30.745  32.400  1.00  0.00     0.031 C 
ATOM     45  C   UNL A   1      40.214  25.879  27.514  1.00  0.00     0.029 A 
ATOM     46  C   UNL A   1      41.347  25.897  28.434  1.00  0.00     0.049 A 
ATOM     47  H   UNL A   1      41.625  27.161  30.069  1.00  0.00     0.167 HD
ATOM     48  C   UNL A   1      42.169  29.979  33.385  1.00  0.00     0.034 A 
ATOM     49  C   UNL A   1      42.417  25.079  28.370  1.00  0.00     0.034 A 
ATOM     50  C   UNL A   1      43.311  29.099  33.444  1.00  0.00     0.049 A 
ATOM     51  C   UNL A   1      43.511  25.220  29.400  1.00  0.00     0.074 A 
ATOM     52  C   UNL A   1      44.340  29.079  34.371  1.00  0.00     0.029 A 
ATOM     53  N   UNL A   1      43.579  28.082  32.537  1.00  0.00    -0.354 N 
ATOM     54  N   UNL A   1      43.603  26.070  30.395  1.00  0.00    -0.248 NA
ATOM     55  C   UNL A   1      44.638  24.283  29.302  1.00  0.00     0.031 C 
ATOM     56  C   UNL A   1      45.259  28.095  33.990  1.00  0.00     0.029 A 
ATOM     57  C   UNL A   1      44.769  27.448  32.867  1.00  0.00     0.049 A 
ATOM     58  H   UNL A   1      43.009  27.845  31.771  1.00  0.00     0.167 HD
ATOM     59  C   UNL A   1      44.784  25.747  31.061  1.00  0.00     0.074 A 
ATOM     60  C   UNL A   1      45.359  24.618  30.361  1.00  0.00     0.031 C 
ATOM     61  C   UNL A   1      45.338  26.329  32.154  1.00  0.00     0.034 A 
BRANCH  48  62
ATOM     62  C   UNL A   1      42.061  31.098  34.399  1.00  0.00     0.023 A 
ATOM     63  C   UNL A   1      42.646  32.356  34.176  1.00  0.00     0.031 A 
ATOM     64  C   UNL A   1      41.388  30.894  35.617  1.00  0.00     0.131 A 
ATOM     65  C   UNL A   1      42.621  33.331  35.184  1.00  0.00     0.055 A 
ATOM     66  C   UNL A   1      41.292  31.899  36.583  1.00  0.00     0.041 A 
ATOM     67  F   UNL A   1      40.823  29.709  35.898  1.00  0.00    -0.206 F 
ATOM     68  C   UNL A   1      41.925  33.121  36.377  1.00  0.00     0.022 A 
BRANCH  65  69
ATOM     69  S   UNL A   1      43.639  34.818  34.976  1.00  0.00     0.124 S 
ATOM     70  O   UNL A   1      43.203  35.291  33.664  1.00  0.00    -0.237 OA
ATOM     71  O   UNL A   1      43.240  35.635  36.115  1.00  0.00    -0.237 OA
ATOM     72  O   UNL A   1      45.008  34.307  35.022  1.00  0.00    -0.744 OA
ENDBRANCH  65  69
ENDBRANCH  48  62
BRANCH  49  73
ATOM     73  C   UNL A   1      42.521  24.055  27.290  1.00  0.00     0.023 A 
ATOM     74  C   UNL A   1      41.708  22.910  27.298  1.00  0.00     0.031 A 
ATOM     75  C   UNL A   1      43.465  24.185  26.256  1.00  0.00     0.131 A 
ATOM     76  C   UNL A   1      41.884  21.919  26.320  1.00  0.00     0.055 A 
ATOM     77  C   UNL A   1      43.601  23.221  25.255  1.00  0.00     0.041 A 
ATOM     78  F   UNL A   1      44.266  25.262  26.199  1.00  0.00    -0.206 F 
ATOM     79  C   UNL A   1      42.815  22.073  25.291  1.00  0.00     0.022 A 
BRANCH  76  80
ATOM     80  S   UNL A   1      40.930  20.382  26.461  1.00  0.00     0.124 S 
ATOM     81  O   UNL A   1      41.689  19.482  25.601  1.00  0.00    -0.237 OA
ATOM     82  O   UNL A   1      40.999  20.114  27.894  1.00  0.00    -0.237 OA
ATOM     83  O   UNL A   1      39.608  20.756  25.962  1.00  0.00    -0.744 OA
ENDBRANCH  76  80
ENDBRANCH  49  73
BRANCH  61  84
ATOM     84  C   UNL A   1      46.612  25.717  32.685  1.00  0.00     0.023 A 
ATOM     85  C   UNL A   1      46.598  24.713  33.668  1.00  0.00     0.031 A 
ATOM     86  C   UNL A   1      47.859  26.158  32.207  1.00  0.00     0.131 A 
ATOM     87  C   UNL A   1      47.808  24.221  34.182  1.00  0.00     0.055 A 
ATOM     88  C   UNL A   1      49.059  25.624  32.680  1.00  0.00     0.041 A 
ATOM     89  F   UNL A   1      47.932  27.117  31.270  1.00  0.00    -0.206 F 
ATOM     90  C   UNL A   1      49.038  24.658  33.682  1.00  0.00     0.022 A 
BRANCH  87  91
ATOM     91  S   UNL A   1      47.756  23.063  35.578  1.00  0.00     0.124 S 
ATOM     92  O   UNL A   1      46.744  23.669  36.437  1.00  0.00    -0.237 OA
ATOM     93  O   UNL A   1      47.376  21.811  34.931  1.00  0.00    -0.237 OA
ATOM     94  O   UNL A   1      49.119  23.098  36.104  1.00  0.00    -0.744 OA
ENDBRANCH  87  91
ENDBRANCH  61  84
ENDBRANCH  35  36
ENDBRANCH  27  30
ENDBRANCH  25  26
ENDBRANCH   1  25
TORSDOF 16
ENDMDL
