MODEL 1
REMARK VINA RESULT:     -13.0      0.000      0.000
REMARK SMILES CC[NH+]1CCC2(CC1)OC[C@@H](C(=O)NCCCNC(=O)c1ccc(-c3c4nc(c(-c5cc(S(=O)(=O)[O-])ccc5F)c5ccc([nH]5)c(-c5cc(S(=O)(=O)[O-])ccc5F)c5nc(c(-c6cc(S(=O)(=O)[O-])ccc6F)c6ccc3[nH]6)C=C5)C=C4)cc1)N2C(=O)c1ccc(Cl)c([N+](=O)[O-])c1
REMARK SMILES IDX 16 1 15 2 14 3 12 4 13 5 11 7 3 8 4 9 8 10 5 12 7 13 6 14
REMARK SMILES IDX 9 15 84 16 10 17 2 18 1 19 85 20 86 21 87 22 88 23 96 24
REMARK SMILES IDX 89 25 92 26 90 27 91 28 93 29 94 30 95 31 17 32 18 33 19 34
REMARK SMILES IDX 20 36 21 37 22 38 83 39 23 40 82 41 24 42 25 43 26 44 76 45
REMARK SMILES IDX 27 46 81 47 75 48 77 49 28 50 80 51 74 52 73 53 29 55 61 56
REMARK SMILES IDX 41 57 60 58 42 59 45 60 59 61 78 62 43 63 44 64 58 66 79 67
REMARK SMILES IDX 46 68 30 69 31 70 39 71 32 72 38 73 40 74 37 75 33 76 34 77
REMARK SMILES IDX 35 78 36 79 62 80 63 81 71 82 64 83 70 84 72 85 69 86 65 87
REMARK SMILES IDX 66 88 67 89 68 90 47 91 48 92 56 93 49 94 55 95 57 96 54 97
REMARK SMILES IDX 50 98 51 99 52 100 53 101
REMARK H PARENT 14 6 3 11 18 35 77 54 45 65
REMARK Flexibility Score: inf
ROOT
ATOM      1  C   UNL A   1      31.644  31.464  26.408  1.00  0.00     0.042 C 
ENDROOT
BRANCH   1   2
ATOM      2  C   UNL A   1      31.842  30.007  26.045  1.00  0.00     0.117 C 
BRANCH   2   3
ATOM      3  N   UNL A   1      32.845  29.853  25.014  1.00  0.00    -0.354 N 
ATOM      4  C   UNL A   1      33.426  28.729  24.516  1.00  0.00     0.245 C 
ATOM      5  O   UNL A   1      34.140  28.874  23.516  1.00  0.00    -0.273 OA
ATOM      6  H   UNL A   1      33.157  30.694  24.609  1.00  0.00     0.163 HD
BRANCH   4   7
ATOM      7  C   UNL A   1      33.026  27.315  24.974  1.00  0.00     0.203 C 
ATOM      8  N   UNL A   1      32.813  22.284  24.017  1.00  0.00    -0.335 N 
ATOM      9  C   UNL A   1      32.023  23.094  24.927  1.00  0.00     0.267 C 
ATOM     10  C   UNL A   1      33.861  22.925  23.238  1.00  0.00     0.267 C 
ATOM     11  H   UNL A   1      32.124  22.155  23.276  1.00  0.00     0.348 HD
ATOM     12  C   UNL A   1      32.776  24.197  25.631  1.00  0.00     0.120 C 
ATOM     13  C   UNL A   1      34.568  24.112  23.874  1.00  0.00     0.120 C 
ATOM     14  C   UNL A   1      33.675  25.030  24.704  1.00  0.00     0.155 C 
ATOM     15  O   UNL A   1      34.602  25.687  25.622  1.00  0.00    -0.352 OA
ATOM     16  N   UNL A   1      33.013  26.178  24.048  1.00  0.00    -0.295 N 
ATOM     17  C   UNL A   1      34.001  26.910  26.068  1.00  0.00     0.198 C 
BRANCH   8  18
ATOM     18  C   UNL A   1      33.101  20.926  24.471  1.00  0.00     0.258 C 
ATOM     19  C   UNL A   1      32.439  19.825  23.655  1.00  0.00     0.071 C 
ENDBRANCH   8  18
BRANCH  16  20
ATOM     20  C   UNL A   1      32.163  26.313  22.948  1.00  0.00     0.257 C 
ATOM     21  O   UNL A   1      32.504  25.974  21.816  1.00  0.00    -0.269 OA
BRANCH  20  22
ATOM     22  C   UNL A   1      30.781  26.821  23.047  1.00  0.00     0.047 A 
ATOM     23  C   UNL A   1      29.774  26.073  23.660  1.00  0.00     0.016 A 
ATOM     24  C   UNL A   1      30.444  28.021  22.421  1.00  0.00     0.101 A 
ATOM     25  C   UNL A   1      28.481  26.600  23.784  1.00  0.00     0.028 A 
ATOM     26  C   UNL A   1      29.178  28.606  22.642  1.00  0.00     0.288 A 
ATOM     27  C   UNL A   1      28.183  27.890  23.322  1.00  0.00     0.118 A 
ATOM     28  Cl  UNL A   1      26.583  28.451  23.641  1.00  0.00    -0.077 Cl
BRANCH  26  29
ATOM     29  N   UNL A   1      29.020  30.009  22.242  1.00  0.00     0.064 N 
ATOM     30  O   UNL A   1      28.674  30.274  21.085  1.00  0.00    -0.258 OA
ATOM     31  O   UNL A   1      29.178  30.867  23.125  1.00  0.00    -0.258 OA
ENDBRANCH  26  29
ENDBRANCH  20  22
ENDBRANCH  16  20
ENDBRANCH   4   7
ENDBRANCH   2   3
ENDBRANCH   1   2
BRANCH   1  32
ATOM     32  C   UNL A   1      32.782  32.066  27.218  1.00  0.00     0.118 C 
BRANCH  32  33
ATOM     33  N   UNL A   1      32.598  33.486  27.463  1.00  0.00    -0.352 N 
ATOM     34  C   UNL A   1      33.195  34.309  28.388  1.00  0.00     0.251 C 
ATOM     35  H   UNL A   1      31.945  33.929  26.874  1.00  0.00     0.163 HD
ATOM     36  O   UNL A   1      32.743  35.433  28.568  1.00  0.00    -0.269 OA
BRANCH  34  37
ATOM     37  C   UNL A   1      34.348  33.826  29.182  1.00  0.00     0.039 A 
ATOM     38  C   UNL A   1      34.114  32.943  30.239  1.00  0.00     0.014 A 
ATOM     39  C   UNL A   1      35.650  34.243  28.896  1.00  0.00     0.014 A 
ATOM     40  C   UNL A   1      35.192  32.428  30.961  1.00  0.00     0.010 A 
ATOM     41  C   UNL A   1      36.728  33.652  29.549  1.00  0.00     0.010 A 
ATOM     42  C   UNL A   1      36.511  32.744  30.596  1.00  0.00    -0.014 A 
BRANCH  42  43
ATOM     43  C   UNL A   1      37.674  32.149  31.305  1.00  0.00     0.031 A 
ATOM     44  C   UNL A   1      38.446  31.021  30.673  1.00  0.00     0.074 A 
ATOM     45  C   UNL A   1      38.000  32.585  32.538  1.00  0.00     0.049 A 
ATOM     46  N   UNL A   1      39.441  30.325  31.159  1.00  0.00    -0.248 NA
ATOM     47  C   UNL A   1      38.022  30.603  29.328  1.00  0.00     0.031 C 
ATOM     48  C   UNL A   1      37.304  33.649  33.269  1.00  0.00     0.029 A 
ATOM     49  N   UNL A   1      38.993  32.192  33.398  1.00  0.00    -0.354 N 
ATOM     50  C   UNL A   1      39.754  29.381  30.186  1.00  0.00     0.074 A 
ATOM     51  C   UNL A   1      38.795  29.550  29.115  1.00  0.00     0.031 C 
ATOM     52  C   UNL A   1      37.912  33.842  34.450  1.00  0.00     0.029 A 
ATOM     53  C   UNL A   1      39.003  32.882  34.589  1.00  0.00     0.049 A 
ATOM     54  H   UNL A   1      39.638  31.479  33.184  1.00  0.00     0.167 HD
ATOM     55  C   UNL A   1      40.762  28.473  30.177  1.00  0.00     0.034 A 
ATOM     56  C   UNL A   1      39.791  32.749  35.674  1.00  0.00     0.034 A 
ATOM     57  C   UNL A   1      41.714  28.324  31.251  1.00  0.00     0.049 A 
ATOM     58  C   UNL A   1      40.880  31.706  35.657  1.00  0.00     0.074 A 
ATOM     59  C   UNL A   1      42.803  27.475  31.323  1.00  0.00     0.029 A 
ATOM     60  N   UNL A   1      41.684  29.034  32.445  1.00  0.00    -0.354 N 
ATOM     61  N   UNL A   1      41.195  30.855  34.707  1.00  0.00    -0.248 NA
ATOM     62  C   UNL A   1      41.728  31.613  36.852  1.00  0.00     0.031 C 
ATOM     63  C   UNL A   1      43.382  27.611  32.589  1.00  0.00     0.029 A 
ATOM     64  C   UNL A   1      42.713  28.614  33.273  1.00  0.00     0.049 A 
ATOM     65  H   UNL A   1      41.028  29.734  32.670  1.00  0.00     0.167 HD
ATOM     66  C   UNL A   1      42.298  30.150  35.180  1.00  0.00     0.074 A 
ATOM     67  C   UNL A   1      42.604  30.688  36.489  1.00  0.00     0.031 C 
ATOM     68  C   UNL A   1      43.001  29.152  34.584  1.00  0.00     0.034 A 
BRANCH  55  69
ATOM     69  C   UNL A   1      40.866  27.558  28.979  1.00  0.00     0.023 A 
ATOM     70  C   UNL A   1      41.862  27.729  28.001  1.00  0.00     0.031 A 
ATOM     71  C   UNL A   1      39.942  26.513  28.797  1.00  0.00     0.131 A 
ATOM     72  C   UNL A   1      41.864  26.923  26.853  1.00  0.00     0.055 A 
ATOM     73  C   UNL A   1      40.005  25.656  27.696  1.00  0.00     0.041 A 
ATOM     74  F   UNL A   1      38.954  26.312  29.684  1.00  0.00    -0.206 F 
ATOM     75  C   UNL A   1      40.960  25.868  26.707  1.00  0.00     0.022 A 
BRANCH  72  76
ATOM     76  S   UNL A   1      42.967  27.370  25.484  1.00  0.00     0.124 S 
ATOM     77  O   UNL A   1      43.196  26.072  24.854  1.00  0.00    -0.237 OA
ATOM     78  O   UNL A   1      42.160  28.317  24.724  1.00  0.00    -0.237 OA
ATOM     79  O   UNL A   1      44.133  27.941  26.156  1.00  0.00    -0.744 OA
ENDBRANCH  72  76
ENDBRANCH  55  69
BRANCH  56  80
ATOM     80  C   UNL A   1      39.579  33.611  36.874  1.00  0.00     0.023 A 
ATOM     81  C   UNL A   1      38.929  33.115  38.016  1.00  0.00     0.031 A 
ATOM     82  C   UNL A   1      39.981  34.959  36.880  1.00  0.00     0.131 A 
ATOM     83  C   UNL A   1      38.652  33.973  39.091  1.00  0.00     0.055 A 
ATOM     84  C   UNL A   1      39.757  35.792  37.977  1.00  0.00     0.041 A 
ATOM     85  F   UNL A   1      40.613  35.484  35.818  1.00  0.00    -0.206 F 
ATOM     86  C   UNL A   1      39.074  35.305  39.086  1.00  0.00     0.022 A 
BRANCH  83  87
ATOM     87  S   UNL A   1      37.639  33.348  40.460  1.00  0.00     0.124 S 
ATOM     88  O   UNL A   1      37.321  34.576  41.179  1.00  0.00    -0.237 OA
ATOM     89  O   UNL A   1      36.532  32.713  39.752  1.00  0.00    -0.237 OA
ATOM     90  O   UNL A   1      38.539  32.430  41.156  1.00  0.00    -0.744 OA
ENDBRANCH  83  87
ENDBRANCH  56  80
BRANCH  68  91
ATOM     91  C   UNL A   1      44.201  28.615  35.327  1.00  0.00     0.023 A 
ATOM     92  C   UNL A   1      44.089  27.581  36.273  1.00  0.00     0.031 A 
ATOM     93  C   UNL A   1      45.479  29.152  35.085  1.00  0.00     0.131 A 
ATOM     94  C   UNL A   1      45.221  27.161  36.987  1.00  0.00     0.055 A 
ATOM     95  C   UNL A   1      46.613  28.680  35.747  1.00  0.00     0.041 A 
ATOM     96  F   UNL A   1      45.647  30.144  34.196  1.00  0.00    -0.206 F 
ATOM     97  C   UNL A   1      46.486  27.689  36.715  1.00  0.00     0.022 A 
BRANCH  94  98
ATOM     98  S   UNL A   1      45.004  25.984  38.349  1.00  0.00     0.124 S 
ATOM     99  O   UNL A   1      44.284  26.788  39.331  1.00  0.00    -0.237 OA
ATOM    100  O   UNL A   1      44.239  24.912  37.718  1.00  0.00    -0.237 OA
ATOM    101  O   UNL A   1      46.373  25.631  38.720  1.00  0.00    -0.744 OA
ENDBRANCH  94  98
ENDBRANCH  68  91
ENDBRANCH  42  43
ENDBRANCH  34  37
ENDBRANCH  32  33
ENDBRANCH   1  32
TORSDOF 17
ENDMDL
MODEL 2
REMARK VINA RESULT:     -12.8      1.785      7.580
REMARK SMILES CC[NH+]1CCC2(CC1)OC[C@@H](C(=O)NCCCNC(=O)c1ccc(-c3c4nc(c(-c5cc(S(=O)(=O)[O-])ccc5F)c5ccc([nH]5)c(-c5cc(S(=O)(=O)[O-])ccc5F)c5nc(c(-c6cc(S(=O)(=O)[O-])ccc6F)c6ccc3[nH]6)C=C5)C=C4)cc1)N2C(=O)c1ccc(Cl)c([N+](=O)[O-])c1
REMARK SMILES IDX 16 1 15 2 14 3 12 4 13 5 11 7 3 8 4 9 8 10 5 12 7 13 6 14
REMARK SMILES IDX 9 15 84 16 10 17 2 18 1 19 85 20 86 21 87 22 88 23 96 24
REMARK SMILES IDX 89 25 92 26 90 27 91 28 93 29 94 30 95 31 17 32 18 33 19 34
REMARK SMILES IDX 20 36 21 37 22 38 83 39 23 40 82 41 24 42 25 43 26 44 76 45
REMARK SMILES IDX 27 46 81 47 75 48 77 49 28 50 80 51 74 52 73 53 29 55 61 56
REMARK SMILES IDX 41 57 60 58 42 59 45 60 59 61 78 62 43 63 44 64 58 66 79 67
REMARK SMILES IDX 46 68 30 69 31 70 39 71 32 72 38 73 40 74 37 75 33 76 34 77
REMARK SMILES IDX 35 78 36 79 62 80 63 81 71 82 64 83 70 84 72 85 69 86 65 87
REMARK SMILES IDX 66 88 67 89 68 90 47 91 48 92 56 93 49 94 55 95 57 96 54 97
REMARK SMILES IDX 50 98 51 99 52 100 53 101
REMARK H PARENT 14 6 3 11 18 35 77 54 45 65
REMARK Flexibility Score: inf
ROOT
ATOM      1  C   UNL A   1      31.414  31.203  26.118  1.00  0.00     0.042 C 
ENDROOT
BRANCH   1   2
ATOM      2  C   UNL A   1      31.484  29.847  25.446  1.00  0.00     0.117 C 
BRANCH   2   3
ATOM      3  N   UNL A   1      32.730  29.677  24.731  1.00  0.00    -0.354 N 
ATOM      4  C   UNL A   1      33.466  28.557  24.503  1.00  0.00     0.245 C 
ATOM      5  O   UNL A   1      34.413  28.670  23.715  1.00  0.00    -0.273 OA
ATOM      6  H   UNL A   1      33.105  30.504  24.348  1.00  0.00     0.163 HD
BRANCH   4   7
ATOM      7  C   UNL A   1      33.015  27.160  24.965  1.00  0.00     0.203 C 
ATOM      8  N   UNL A   1      32.589  22.143  24.006  1.00  0.00    -0.335 N 
ATOM      9  C   UNL A   1      31.841  22.983  24.925  1.00  0.00     0.267 C 
ATOM     10  C   UNL A   1      33.652  22.742  23.216  1.00  0.00     0.267 C 
ATOM     11  H   UNL A   1      31.887  22.043  23.273  1.00  0.00     0.348 HD
ATOM     12  C   UNL A   1      32.646  24.054  25.622  1.00  0.00     0.120 C 
ATOM     13  C   UNL A   1      34.413  23.899  23.845  1.00  0.00     0.120 C 
ATOM     14  C   UNL A   1      33.568  24.851  24.686  1.00  0.00     0.155 C 
ATOM     15  O   UNL A   1      34.530  25.469  25.594  1.00  0.00    -0.352 OA
ATOM     16  N   UNL A   1      32.946  26.026  24.038  1.00  0.00    -0.295 N 
ATOM     17  C   UNL A   1      33.984  26.714  26.047  1.00  0.00     0.198 C 
BRANCH   8  18
ATOM     18  C   UNL A   1      32.826  20.774  24.456  1.00  0.00     0.258 C 
ATOM     19  C   UNL A   1      32.388  19.693  23.477  1.00  0.00     0.071 C 
ENDBRANCH   8  18
BRANCH  16  20
ATOM     20  C   UNL A   1      32.089  26.196  22.948  1.00  0.00     0.257 C 
ATOM     21  O   UNL A   1      32.422  25.887  21.805  1.00  0.00    -0.269 OA
BRANCH  20  22
ATOM     22  C   UNL A   1      30.711  26.709  23.069  1.00  0.00     0.047 A 
ATOM     23  C   UNL A   1      29.718  25.976  23.724  1.00  0.00     0.016 A 
ATOM     24  C   UNL A   1      30.360  27.895  22.427  1.00  0.00     0.101 A 
ATOM     25  C   UNL A   1      28.430  26.508  23.868  1.00  0.00     0.028 A 
ATOM     26  C   UNL A   1      29.100  28.488  22.666  1.00  0.00     0.288 A 
ATOM     27  C   UNL A   1      28.122  27.788  23.386  1.00  0.00     0.118 A 
ATOM     28  Cl  UNL A   1      26.531  28.358  23.732  1.00  0.00    -0.077 Cl
BRANCH  26  29
ATOM     29  N   UNL A   1      28.934  29.881  22.239  1.00  0.00     0.064 N 
ATOM     30  O   UNL A   1      29.241  30.793  23.015  1.00  0.00    -0.258 OA
ATOM     31  O   UNL A   1      28.551  30.072  21.073  1.00  0.00    -0.258 OA
ENDBRANCH  26  29
ENDBRANCH  20  22
ENDBRANCH  16  20
ENDBRANCH   4   7
ENDBRANCH   2   3
ENDBRANCH   1   2
BRANCH   1  32
ATOM     32  C   UNL A   1      32.559  31.484  27.079  1.00  0.00     0.118 C 
BRANCH  32  33
ATOM     33  N   UNL A   1      32.803  32.906  27.252  1.00  0.00    -0.352 N 
ATOM     34  C   UNL A   1      33.804  33.555  27.933  1.00  0.00     0.251 C 
ATOM     35  H   UNL A   1      32.149  33.496  26.812  1.00  0.00     0.163 HD
ATOM     36  O   UNL A   1      33.707  34.760  28.133  1.00  0.00    -0.269 OA
BRANCH  34  37
ATOM     37  C   UNL A   1      34.967  32.799  28.449  1.00  0.00     0.039 A 
ATOM     38  C   UNL A   1      36.246  33.336  28.284  1.00  0.00     0.014 A 
ATOM     39  C   UNL A   1      34.806  31.565  29.082  1.00  0.00     0.014 A 
ATOM     40  C   UNL A   1      37.351  32.669  28.816  1.00  0.00     0.010 A 
ATOM     41  C   UNL A   1      35.893  30.953  29.699  1.00  0.00     0.010 A 
ATOM     42  C   UNL A   1      37.181  31.493  29.565  1.00  0.00    -0.014 A 
BRANCH  42  43
ATOM     43  C   UNL A   1      38.335  30.808  30.203  1.00  0.00     0.031 A 
ATOM     44  C   UNL A   1      38.755  31.179  31.600  1.00  0.00     0.074 A 
ATOM     45  C   UNL A   1      39.038  29.894  29.504  1.00  0.00     0.049 A 
ATOM     46  N   UNL A   1      39.774  30.749  32.300  1.00  0.00    -0.248 NA
ATOM     47  C   UNL A   1      37.937  32.189  32.289  1.00  0.00     0.031 C 
ATOM     48  C   UNL A   1      38.749  29.476  28.129  1.00  0.00     0.029 A 
ATOM     49  N   UNL A   1      40.139  29.151  29.848  1.00  0.00    -0.354 N 
ATOM     50  C   UNL A   1      39.725  31.443  33.505  1.00  0.00     0.074 A 
ATOM     51  C   UNL A   1      38.619  32.372  33.409  1.00  0.00     0.031 C 
ATOM     52  C   UNL A   1      39.629  28.532  27.762  1.00  0.00     0.029 A 
ATOM     53  C   UNL A   1      40.580  28.315  28.847  1.00  0.00     0.049 A 
ATOM     54  H   UNL A   1      40.575  29.212  30.729  1.00  0.00     0.167 HD
ATOM     55  C   UNL A   1      40.515  31.302  34.598  1.00  0.00     0.034 A 
ATOM     56  C   UNL A   1      41.636  27.480  28.804  1.00  0.00     0.034 A 
ATOM     57  C   UNL A   1      41.609  30.364  34.679  1.00  0.00     0.049 A 
ATOM     58  C   UNL A   1      42.525  27.368  30.017  1.00  0.00     0.074 A 
ATOM     59  C   UNL A   1      42.440  30.102  35.753  1.00  0.00     0.029 A 
ATOM     60  N   UNL A   1      42.032  29.543  33.641  1.00  0.00    -0.354 N 
ATOM     61  N   UNL A   1      42.434  27.995  31.168  1.00  0.00    -0.248 NA
ATOM     62  C   UNL A   1      43.650  26.429  29.931  1.00  0.00     0.031 C 
ATOM     63  C   UNL A   1      43.413  29.186  35.341  1.00  0.00     0.029 A 
ATOM     64  C   UNL A   1      43.134  28.802  34.039  1.00  0.00     0.049 A 
ATOM     65  H   UNL A   1      41.610  29.494  32.752  1.00  0.00     0.167 HD
ATOM     66  C   UNL A   1      43.472  27.499  31.953  1.00  0.00     0.074 A 
ATOM     67  C   UNL A   1      44.161  26.510  31.150  1.00  0.00     0.031 C 
ATOM     68  C   UNL A   1      43.820  27.826  33.224  1.00  0.00     0.034 A 
BRANCH  55  69
ATOM     69  C   UNL A   1      40.237  32.201  35.781  1.00  0.00     0.023 A 
ATOM     70  C   UNL A   1      39.219  31.911  36.707  1.00  0.00     0.031 A 
ATOM     71  C   UNL A   1      40.984  33.376  35.975  1.00  0.00     0.131 A 
ATOM     72  C   UNL A   1      38.925  32.821  37.734  1.00  0.00     0.055 A 
ATOM     73  C   UNL A   1      40.745  34.233  37.052  1.00  0.00     0.041 A 
ATOM     74  F   UNL A   1      41.954  33.720  35.112  1.00  0.00    -0.206 F 
ATOM     75  C   UNL A   1      39.700  33.966  37.930  1.00  0.00     0.022 A 
BRANCH  72  76
ATOM     76  S   UNL A   1      37.421  32.562  38.714  1.00  0.00     0.124 S 
ATOM     77  O   UNL A   1      37.460  31.119  38.938  1.00  0.00    -0.237 OA
ATOM     78  O   UNL A   1      37.659  33.397  39.885  1.00  0.00    -0.237 OA
ATOM     79  O   UNL A   1      36.351  33.018  37.828  1.00  0.00    -0.744 OA
ENDBRANCH  72  76
ENDBRANCH  55  69
BRANCH  56  80
ATOM     80  C   UNL A   1      41.927  26.690  27.571  1.00  0.00     0.023 A 
ATOM     81  C   UNL A   1      41.597  25.328  27.489  1.00  0.00     0.031 A 
ATOM     82  C   UNL A   1      42.585  27.274  26.473  1.00  0.00     0.131 A 
ATOM     83  C   UNL A   1      41.972  24.583  26.360  1.00  0.00     0.055 A 
ATOM     84  C   UNL A   1      42.902  26.543  25.327  1.00  0.00     0.041 A 
ATOM     85  F   UNL A   1      42.920  28.574  26.495  1.00  0.00    -0.206 F 
ATOM     86  C   UNL A   1      42.609  25.184  25.272  1.00  0.00     0.022 A 
BRANCH  83  87
ATOM     87  S   UNL A   1      41.702  22.789  26.376  1.00  0.00     0.124 S 
ATOM     88  O   UNL A   1      42.406  22.373  25.169  1.00  0.00    -0.237 OA
ATOM     89  O   UNL A   1      42.315  22.403  27.643  1.00  0.00    -0.237 OA
ATOM     90  O   UNL A   1      40.246  22.664  26.327  1.00  0.00    -0.744 OA
ENDBRANCH  83  87
ENDBRANCH  56  80
BRANCH  68  91
ATOM     91  C   UNL A   1      44.971  27.066  33.840  1.00  0.00     0.023 A 
ATOM     92  C   UNL A   1      44.803  25.789  34.402  1.00  0.00     0.031 A 
ATOM     93  C   UNL A   1      46.258  27.635  33.868  1.00  0.00     0.131 A 
ATOM     94  C   UNL A   1      45.888  25.150  35.023  1.00  0.00     0.055 A 
ATOM     95  C   UNL A   1      47.348  26.964  34.423  1.00  0.00     0.041 A 
ATOM     96  F   UNL A   1      46.477  28.854  33.350  1.00  0.00    -0.206 F 
ATOM     97  C   UNL A   1      47.163  25.720  35.018  1.00  0.00     0.022 A 
BRANCH  94  98
ATOM     98  S   UNL A   1      45.587  23.607  35.927  1.00  0.00     0.124 S 
ATOM     99  O   UNL A   1      46.436  22.664  35.205  1.00  0.00    -0.237 OA
ATOM    100  O   UNL A   1      46.019  23.947  37.279  1.00  0.00    -0.237 OA
ATOM    101  O   UNL A   1      44.150  23.392  35.771  1.00  0.00    -0.744 OA
ENDBRANCH  94  98
ENDBRANCH  68  91
ENDBRANCH  42  43
ENDBRANCH  34  37
ENDBRANCH  32  33
ENDBRANCH   1  32
TORSDOF 17
ENDMDL
MODEL 3
REMARK VINA RESULT:     -12.8      5.654      9.130
REMARK SMILES CC[NH+]1CCC2(CC1)OC[C@@H](C(=O)NCCCNC(=O)c1ccc(-c3c4nc(c(-c5cc(S(=O)(=O)[O-])ccc5F)c5ccc([nH]5)c(-c5cc(S(=O)(=O)[O-])ccc5F)c5nc(c(-c6cc(S(=O)(=O)[O-])ccc6F)c6ccc3[nH]6)C=C5)C=C4)cc1)N2C(=O)c1ccc(Cl)c([N+](=O)[O-])c1
REMARK SMILES IDX 16 1 15 2 14 3 12 4 13 5 11 7 3 8 4 9 8 10 5 12 7 13 6 14
REMARK SMILES IDX 9 15 84 16 10 17 2 18 1 19 85 20 86 21 87 22 88 23 96 24
REMARK SMILES IDX 89 25 92 26 90 27 91 28 93 29 94 30 95 31 17 32 18 33 19 34
REMARK SMILES IDX 20 36 21 37 22 38 83 39 23 40 82 41 24 42 25 43 26 44 76 45
REMARK SMILES IDX 27 46 81 47 75 48 77 49 28 50 80 51 74 52 73 53 29 55 61 56
REMARK SMILES IDX 41 57 60 58 42 59 45 60 59 61 78 62 43 63 44 64 58 66 79 67
REMARK SMILES IDX 46 68 30 69 31 70 39 71 32 72 38 73 40 74 37 75 33 76 34 77
REMARK SMILES IDX 35 78 36 79 62 80 63 81 71 82 64 83 70 84 72 85 69 86 65 87
REMARK SMILES IDX 66 88 67 89 68 90 47 91 48 92 56 93 49 94 55 95 57 96 54 97
REMARK SMILES IDX 50 98 51 99 52 100 53 101
REMARK H PARENT 14 6 3 11 18 35 77 54 45 65
REMARK Flexibility Score: inf
ROOT
ATOM      1  C   UNL A   1      37.276  20.230  24.989  1.00  0.00     0.042 C 
ENDROOT
BRANCH   1   2
ATOM      2  C   UNL A   1      35.974  20.997  24.874  1.00  0.00     0.117 C 
BRANCH   2   3
ATOM      3  N   UNL A   1      35.563  21.532  26.154  1.00  0.00    -0.354 N 
ATOM      4  C   UNL A   1      34.871  22.664  26.450  1.00  0.00     0.245 C 
ATOM      5  O   UNL A   1      34.511  22.798  27.626  1.00  0.00    -0.273 OA
ATOM      6  H   UNL A   1      35.827  20.991  26.933  1.00  0.00     0.163 HD
BRANCH   4   7
ATOM      7  C   UNL A   1      34.317  23.606  25.366  1.00  0.00     0.203 C 
ATOM      8  N   UNL A   1      30.613  26.771  23.773  1.00  0.00    -0.335 N 
ATOM      9  C   UNL A   1      31.603  26.034  23.007  1.00  0.00     0.267 C 
ATOM     10  C   UNL A   1      30.625  26.661  25.223  1.00  0.00     0.267 C 
ATOM     11  H   UNL A   1      29.796  26.192  23.579  1.00  0.00     0.348 HD
ATOM     12  C   UNL A   1      32.969  25.935  23.642  1.00  0.00     0.120 C 
ATOM     13  C   UNL A   1      31.975  26.450  25.890  1.00  0.00     0.120 C 
ATOM     14  C   UNL A   1      32.941  25.546  25.128  1.00  0.00     0.155 C 
ATOM     15  O   UNL A   1      34.258  25.949  25.615  1.00  0.00    -0.352 OA
ATOM     16  N   UNL A   1      32.934  24.093  25.400  1.00  0.00    -0.295 N 
ATOM     17  C   UNL A   1      35.169  24.864  25.392  1.00  0.00     0.198 C 
BRANCH   8  18
ATOM     18  C   UNL A   1      30.252  28.081  23.239  1.00  0.00     0.258 C 
ATOM     19  C   UNL A   1      30.764  29.265  24.048  1.00  0.00     0.071 C 
ENDBRANCH   8  18
BRANCH  16  20
ATOM     20  C   UNL A   1      31.950  23.102  25.369  1.00  0.00     0.257 C 
ATOM     21  O   UNL A   1      30.927  23.178  26.048  1.00  0.00    -0.269 OA
BRANCH  20  22
ATOM     22  C   UNL A   1      32.022  21.913  24.497  1.00  0.00     0.047 A 
ATOM     23  C   UNL A   1      31.819  22.009  23.119  1.00  0.00     0.016 A 
ATOM     24  C   UNL A   1      32.186  20.651  25.068  1.00  0.00     0.101 A 
ATOM     25  C   UNL A   1      31.941  20.873  22.307  1.00  0.00     0.028 A 
ATOM     26  C   UNL A   1      32.423  19.526  24.248  1.00  0.00     0.288 A 
ATOM     27  C   UNL A   1      32.293  19.632  22.857  1.00  0.00     0.118 A 
ATOM     28  Cl  UNL A   1      32.516  18.348  21.726  1.00  0.00    -0.077 Cl
BRANCH  26  29
ATOM     29  N   UNL A   1      32.922  18.317  24.914  1.00  0.00     0.064 N 
ATOM     30  O   UNL A   1      32.139  17.617  25.565  1.00  0.00    -0.258 OA
ATOM     31  O   UNL A   1      34.113  18.022  24.725  1.00  0.00    -0.258 OA
ENDBRANCH  26  29
ENDBRANCH  20  22
ENDBRANCH  16  20
ENDBRANCH   4   7
ENDBRANCH   2   3
ENDBRANCH   1   2
BRANCH   1  32
ATOM     32  C   UNL A   1      38.438  21.051  25.522  1.00  0.00     0.118 C 
BRANCH  32  33
ATOM     33  N   UNL A   1      39.471  20.226  26.124  1.00  0.00    -0.352 N 
ATOM     34  C   UNL A   1      40.642  20.587  26.747  1.00  0.00     0.251 C 
ATOM     35  H   UNL A   1      39.306  19.256  26.081  1.00  0.00     0.163 HD
ATOM     36  O   UNL A   1      41.476  19.726  26.998  1.00  0.00    -0.269 OA
BRANCH  34  37
ATOM     37  C   UNL A   1      40.904  22.007  27.076  1.00  0.00     0.039 A 
ATOM     38  C   UNL A   1      41.571  22.310  28.265  1.00  0.00     0.014 A 
ATOM     39  C   UNL A   1      40.491  23.036  26.227  1.00  0.00     0.014 A 
ATOM     40  C   UNL A   1      41.882  23.637  28.565  1.00  0.00     0.010 A 
ATOM     41  C   UNL A   1      40.890  24.346  26.477  1.00  0.00     0.010 A 
ATOM     42  C   UNL A   1      41.582  24.663  27.654  1.00  0.00    -0.014 A 
BRANCH  42  43
ATOM     43  C   UNL A   1      41.971  26.073  27.920  1.00  0.00     0.031 A 
ATOM     44  C   UNL A   1      43.352  26.555  27.562  1.00  0.00     0.074 A 
ATOM     45  C   UNL A   1      41.102  26.900  28.534  1.00  0.00     0.049 A 
ATOM     46  N   UNL A   1      43.903  27.722  27.778  1.00  0.00    -0.248 NA
ATOM     47  C   UNL A   1      44.239  25.586  26.900  1.00  0.00     0.031 C 
ATOM     48  C   UNL A   1      39.747  26.538  28.961  1.00  0.00     0.029 A 
ATOM     49  N   UNL A   1      41.223  28.214  28.909  1.00  0.00    -0.354 N 
ATOM     50  C   UNL A   1      45.201  27.624  27.291  1.00  0.00     0.074 A 
ATOM     51  C   UNL A   1      45.375  26.262  26.833  1.00  0.00     0.031 C 
ATOM     52  C   UNL A   1      39.156  27.611  29.508  1.00  0.00     0.029 A 
ATOM     53  C   UNL A   1      40.102  28.722  29.526  1.00  0.00     0.049 A 
ATOM     54  H   UNL A   1      42.038  28.745  28.753  1.00  0.00     0.167 HD
ATOM     55  C   UNL A   1      46.153  28.587  27.209  1.00  0.00     0.034 A 
ATOM     56  C   UNL A   1      39.867  29.938  30.057  1.00  0.00     0.034 A 
ATOM     57  C   UNL A   1      45.959  29.943  27.662  1.00  0.00     0.049 A 
ATOM     58  C   UNL A   1      40.954  30.981  29.990  1.00  0.00     0.074 A 
ATOM     59  C   UNL A   1      46.834  31.011  27.581  1.00  0.00     0.029 A 
ATOM     60  N   UNL A   1      44.814  30.416  28.292  1.00  0.00    -0.354 N 
ATOM     61  N   UNL A   1      42.160  30.887  29.479  1.00  0.00    -0.248 NA
ATOM     62  C   UNL A   1      40.645  32.298  30.562  1.00  0.00     0.031 C 
ATOM     63  C   UNL A   1      46.254  32.104  28.232  1.00  0.00     0.029 A 
ATOM     64  C   UNL A   1      44.977  31.749  28.637  1.00  0.00     0.049 A 
ATOM     65  H   UNL A   1      44.005  29.883  28.467  1.00  0.00     0.167 HD
ATOM     66  C   UNL A   1      42.739  32.143  29.638  1.00  0.00     0.074 A 
ATOM     67  C   UNL A   1      41.744  32.980  30.275  1.00  0.00     0.031 C 
ATOM     68  C   UNL A   1      43.979  32.570  29.283  1.00  0.00     0.034 A 
BRANCH  55  69
ATOM     69  C   UNL A   1      47.494  28.197  26.631  1.00  0.00     0.023 A 
ATOM     70  C   UNL A   1      47.689  28.053  25.245  1.00  0.00     0.031 A 
ATOM     71  C   UNL A   1      48.588  27.942  27.476  1.00  0.00     0.131 A 
ATOM     72  C   UNL A   1      48.919  27.592  24.754  1.00  0.00     0.055 A 
ATOM     73  C   UNL A   1      49.837  27.570  26.974  1.00  0.00     0.041 A 
ATOM     74  F   UNL A   1      48.459  28.039  28.810  1.00  0.00    -0.206 F 
ATOM     75  C   UNL A   1      50.004  27.377  25.607  1.00  0.00     0.022 A 
BRANCH  72  76
ATOM     76  S   UNL A   1      49.034  27.132  23.004  1.00  0.00     0.124 S 
ATOM     77  O   UNL A   1      48.326  25.854  22.987  1.00  0.00    -0.237 OA
ATOM     78  O   UNL A   1      48.362  28.243  22.340  1.00  0.00    -0.237 OA
ATOM     79  O   UNL A   1      50.474  27.040  22.766  1.00  0.00    -0.744 OA
ENDBRANCH  72  76
ENDBRANCH  55  69
BRANCH  56  80
ATOM     80  C   UNL A   1      38.559  30.240  30.710  1.00  0.00     0.023 A 
ATOM     81  C   UNL A   1      37.562  30.962  30.034  1.00  0.00     0.031 A 
ATOM     82  C   UNL A   1      38.305  29.853  32.038  1.00  0.00     0.131 A 
ATOM     83  C   UNL A   1      36.382  31.320  30.704  1.00  0.00     0.055 A 
ATOM     84  C   UNL A   1      37.104  30.160  32.680  1.00  0.00     0.041 A 
ATOM     85  F   UNL A   1      39.221  29.156  32.730  1.00  0.00    -0.206 F 
ATOM     86  C   UNL A   1      36.140  30.912  32.017  1.00  0.00     0.022 A 
BRANCH  83  87
ATOM     87  S   UNL A   1      35.208  32.417  29.863  1.00  0.00     0.124 S 
ATOM     88  O   UNL A   1      34.292  32.757  30.946  1.00  0.00    -0.237 OA
ATOM     89  O   UNL A   1      36.078  33.491  29.396  1.00  0.00    -0.237 OA
ATOM     90  O   UNL A   1      34.646  31.571  28.811  1.00  0.00    -0.744 OA
ENDBRANCH  83  87
ENDBRANCH  56  80
BRANCH  68  91
ATOM     91  C   UNL A   1      44.305  34.023  29.534  1.00  0.00     0.023 A 
ATOM     92  C   UNL A   1      44.025  35.023  28.586  1.00  0.00     0.031 A 
ATOM     93  C   UNL A   1      44.912  34.412  30.743  1.00  0.00     0.131 A 
ATOM     94  C   UNL A   1      44.407  36.350  28.836  1.00  0.00     0.055 A 
ATOM     95  C   UNL A   1      45.226  35.744  31.015  1.00  0.00     0.041 A 
ATOM     96  F   UNL A   1      45.208  33.500  31.683  1.00  0.00    -0.206 F 
ATOM     97  C   UNL A   1      44.986  36.720  30.052  1.00  0.00     0.022 A 
BRANCH  94  98
ATOM     98  S   UNL A   1      44.229  37.571  27.507  1.00  0.00     0.124 S 
ATOM     99  O   UNL A   1      44.039  38.808  28.258  1.00  0.00    -0.237 OA
ATOM    100  O   UNL A   1      45.497  37.445  26.795  1.00  0.00    -0.237 OA
ATOM    101  O   UNL A   1      43.056  37.107  26.770  1.00  0.00    -0.744 OA
ENDBRANCH  94  98
ENDBRANCH  68  91
ENDBRANCH  42  43
ENDBRANCH  34  37
ENDBRANCH  32  33
ENDBRANCH   1  32
TORSDOF 17
ENDMDL
