MODEL 1
REMARK VINA RESULT:     -12.6      0.000      0.000
REMARK SMILES Cc1ccc(S(=O)(=O)Nc2ccccn2)cc1C(=O)NCCCNC(=O)c1ccc(-c2c3nc(c(-c4cc(S(=O)(=O)[O-])ccc4F)c4ccc([nH]4)c(-c4cc(S(=O)(=O)[O-])ccc4F)c4nc(c(-c5cc(S(=O)(=O)[O-])ccc5F)c5ccc2[nH]5)C=C4)C=C3)cc1
REMARK SMILES IDX 22 1 21 2 20 3 18 4 19 5 17 7 1 8 2 9 3 10 4 11 16 12 5 13
REMARK SMILES IDX 6 14 7 15 8 16 9 17 10 19 11 20 15 21 12 22 14 23 13 24
REMARK SMILES IDX 23 25 24 26 25 27 26 29 27 30 28 31 89 32 29 33 88 34 30 35
REMARK SMILES IDX 31 36 32 37 82 38 33 39 87 40 81 41 83 42 34 43 86 44 80 45
REMARK SMILES IDX 79 46 35 48 67 49 47 50 66 51 48 52 51 53 65 54 84 55 49 56
REMARK SMILES IDX 50 57 64 59 85 60 52 61 36 62 37 63 45 64 38 65 44 66 46 67
REMARK SMILES IDX 43 68 39 69 40 70 41 71 42 72 68 73 69 74 77 75 70 76 76 77
REMARK SMILES IDX 78 78 75 79 71 80 72 81 73 82 74 83 53 84 54 85 62 86 55 87
REMARK SMILES IDX 61 88 63 89 60 90 56 91 57 92 58 93 59 94
REMARK H PARENT 20 6 9 18 24 28 83 47 51 58
REMARK Flexibility Score: inf
ROOT
ATOM      1  C   UNL A   1      33.777  31.320  27.334  1.00  0.00     0.042 C 
ENDROOT
BRANCH   1   2
ATOM      2  C   UNL A   1      33.400  30.080  26.525  1.00  0.00     0.118 C 
BRANCH   2   3
ATOM      3  N   UNL A   1      32.159  29.486  27.003  1.00  0.00    -0.352 N 
ATOM      4  C   UNL A   1      31.722  28.190  27.026  1.00  0.00     0.251 C 
ATOM      5  O   UNL A   1      31.152  27.882  28.081  1.00  0.00    -0.269 OA
ATOM      6  H   UNL A   1      31.519  30.135  27.377  1.00  0.00     0.163 HD
BRANCH   4   7
ATOM      7  C   UNL A   1      31.677  27.193  25.882  1.00  0.00     0.044 A 
ATOM      8  C   UNL A   1      30.518  28.512  23.983  1.00  0.00     0.045 C 
ATOM      9  C   UNL A   1      31.132  27.294  24.585  1.00  0.00    -0.038 A 
ATOM     10  C   UNL A   1      31.056  26.148  23.760  1.00  0.00     0.005 A 
ATOM     11  C   UNL A   1      31.358  24.884  24.242  1.00  0.00     0.022 A 
ATOM     12  C   UNL A   1      32.090  25.896  26.296  1.00  0.00     0.036 A 
ATOM     13  C   UNL A   1      31.817  24.752  25.544  1.00  0.00     0.088 A 
BRANCH  13  14
ATOM     14  S   UNL A   1      31.768  23.104  26.218  1.00  0.00     0.263 S 
ATOM     15  O   UNL A   1      31.146  23.242  27.536  1.00  0.00    -0.201 OA
ATOM     16  O   UNL A   1      31.157  22.274  25.219  1.00  0.00    -0.201 OA
BRANCH  14  17
ATOM     17  N   UNL A   1      33.293  22.509  26.439  1.00  0.00    -0.263 N 
ATOM     18  H   UNL A   1      33.432  21.888  27.191  1.00  0.00     0.182 HD
BRANCH  17  19
ATOM     19  C   UNL A   1      34.404  22.816  25.646  1.00  0.00     0.139 A 
ATOM     20  C   UNL A   1      34.568  22.521  24.303  1.00  0.00     0.048 A 
ATOM     21  N   UNL A   1      35.340  23.404  26.416  1.00  0.00    -0.239 NA
ATOM     22  C   UNL A   1      35.828  22.739  23.748  1.00  0.00     0.005 A 
ATOM     23  C   UNL A   1      36.548  23.604  25.848  1.00  0.00     0.113 A 
ATOM     24  C   UNL A   1      36.842  23.277  24.537  1.00  0.00     0.020 A 
ENDBRANCH  17  19
ENDBRANCH  14  17
ENDBRANCH  13  14
ENDBRANCH   4   7
ENDBRANCH   2   3
ENDBRANCH   1   2
BRANCH   1  25
ATOM     25  C   UNL A   1      34.403  31.032  28.686  1.00  0.00     0.118 C 
BRANCH  25  26
ATOM     26  N   UNL A   1      35.519  31.914  29.032  1.00  0.00    -0.352 N 
ATOM     27  C   UNL A   1      36.854  31.572  29.190  1.00  0.00     0.251 C 
ATOM     28  H   UNL A   1      35.296  32.863  29.170  1.00  0.00     0.163 HD
ATOM     29  O   UNL A   1      37.714  32.393  29.487  1.00  0.00    -0.269 OA
BRANCH  27  30
ATOM     30  C   UNL A   1      37.242  30.189  28.829  1.00  0.00     0.039 A 
ATOM     31  C   UNL A   1      37.496  29.336  29.905  1.00  0.00     0.014 A 
ATOM     32  C   UNL A   1      37.787  29.949  27.572  1.00  0.00     0.014 A 
ATOM     33  C   UNL A   1      38.552  28.440  29.810  1.00  0.00     0.010 A 
ATOM     34  C   UNL A   1      38.902  29.134  27.509  1.00  0.00     0.010 A 
ATOM     35  C   UNL A   1      39.332  28.451  28.654  1.00  0.00    -0.014 A 
BRANCH  35  36
ATOM     36  C   UNL A   1      40.649  27.830  28.602  1.00  0.00     0.031 A 
ATOM     37  C   UNL A   1      40.738  26.375  28.400  1.00  0.00     0.074 A 
ATOM     38  C   UNL A   1      41.781  28.542  28.794  1.00  0.00     0.049 A 
ATOM     39  N   UNL A   1      41.666  25.629  28.892  1.00  0.00    -0.248 NA
ATOM     40  C   UNL A   1      39.722  25.634  27.665  1.00  0.00     0.031 C 
ATOM     41  C   UNL A   1      43.157  28.073  28.640  1.00  0.00     0.029 A 
ATOM     42  N   UNL A   1      41.910  29.781  29.411  1.00  0.00    -0.354 N 
ATOM     43  C   UNL A   1      41.536  24.384  28.329  1.00  0.00     0.074 A 
ATOM     44  C   UNL A   1      40.271  24.420  27.631  1.00  0.00     0.031 C 
ATOM     45  C   UNL A   1      43.969  28.866  29.356  1.00  0.00     0.029 A 
ATOM     46  C   UNL A   1      43.141  29.804  30.091  1.00  0.00     0.049 A 
ATOM     47  H   UNL A   1      41.254  30.515  29.377  1.00  0.00     0.167 HD
ATOM     48  C   UNL A   1      42.572  23.502  28.404  1.00  0.00     0.034 A 
ATOM     49  C   UNL A   1      43.177  30.002  31.440  1.00  0.00     0.034 A 
ATOM     50  C   UNL A   1      43.694  24.043  29.176  1.00  0.00     0.049 A 
ATOM     51  C   UNL A   1      43.647  28.788  32.228  1.00  0.00     0.074 A 
ATOM     52  C   UNL A   1      44.917  24.603  28.842  1.00  0.00     0.029 A 
ATOM     53  N   UNL A   1      43.512  24.320  30.523  1.00  0.00    -0.354 N 
ATOM     54  N   UNL A   1      44.059  27.662  31.710  1.00  0.00    -0.248 NA
ATOM     55  C   UNL A   1      43.580  28.732  33.688  1.00  0.00     0.031 C 
ATOM     56  C   UNL A   1      45.455  25.233  30.003  1.00  0.00     0.029 A 
ATOM     57  C   UNL A   1      44.575  25.032  31.052  1.00  0.00     0.049 A 
ATOM     58  H   UNL A   1      42.721  24.044  31.040  1.00  0.00     0.167 HD
ATOM     59  C   UNL A   1      44.215  26.725  32.707  1.00  0.00     0.074 A 
ATOM     60  C   UNL A   1      43.903  27.451  33.927  1.00  0.00     0.031 C 
ATOM     61  C   UNL A   1      44.530  25.414  32.458  1.00  0.00     0.034 A 
BRANCH  48  62
ATOM     62  C   UNL A   1      42.665  22.275  27.524  1.00  0.00     0.023 A 
ATOM     63  C   UNL A   1      43.695  22.187  26.569  1.00  0.00     0.031 A 
ATOM     64  C   UNL A   1      41.757  21.197  27.531  1.00  0.00     0.131 A 
ATOM     65  C   UNL A   1      43.715  21.160  25.607  1.00  0.00     0.055 A 
ATOM     66  C   UNL A   1      41.727  20.219  26.528  1.00  0.00     0.041 A 
ATOM     67  F   UNL A   1      40.896  21.008  28.541  1.00  0.00    -0.206 F 
ATOM     68  C   UNL A   1      42.703  20.207  25.545  1.00  0.00     0.022 A 
BRANCH  65  69
ATOM     69  S   UNL A   1      45.101  21.076  24.443  1.00  0.00     0.124 S 
ATOM     70  O   UNL A   1      44.984  19.719  23.919  1.00  0.00    -0.237 OA
ATOM     71  O   UNL A   1      44.788  22.157  23.516  1.00  0.00    -0.237 OA
ATOM     72  O   UNL A   1      46.270  21.311  25.291  1.00  0.00    -0.744 OA
ENDBRANCH  65  69
ENDBRANCH  48  62
BRANCH  49  73
ATOM     73  C   UNL A   1      42.133  30.973  31.889  1.00  0.00     0.023 A 
ATOM     74  C   UNL A   1      40.880  30.456  32.290  1.00  0.00     0.031 A 
ATOM     75  C   UNL A   1      42.482  32.261  32.319  1.00  0.00     0.131 A 
ATOM     76  C   UNL A   1      40.097  31.156  33.221  1.00  0.00     0.055 A 
ATOM     77  C   UNL A   1      41.677  32.969  33.218  1.00  0.00     0.041 A 
ATOM     78  F   UNL A   1      43.668  32.795  31.992  1.00  0.00    -0.206 F 
ATOM     79  C   UNL A   1      40.509  32.396  33.714  1.00  0.00     0.022 A 
BRANCH  76  80
ATOM     80  S   UNL A   1      38.654  30.356  33.983  1.00  0.00     0.124 S 
ATOM     81  O   UNL A   1      38.609  29.074  33.292  1.00  0.00    -0.237 OA
ATOM     82  O   UNL A   1      39.011  30.306  35.398  1.00  0.00    -0.237 OA
ATOM     83  O   UNL A   1      37.567  31.285  33.673  1.00  0.00    -0.744 OA
ENDBRANCH  76  80
ENDBRANCH  49  73
BRANCH  61  84
ATOM     84  C   UNL A   1      44.761  24.360  33.531  1.00  0.00     0.023 A 
ATOM     85  C   UNL A   1      45.992  23.707  33.704  1.00  0.00     0.031 A 
ATOM     86  C   UNL A   1      43.724  23.921  34.392  1.00  0.00     0.131 A 
ATOM     87  C   UNL A   1      46.199  22.794  34.756  1.00  0.00     0.055 A 
ATOM     88  C   UNL A   1      43.908  22.958  35.390  1.00  0.00     0.041 A 
ATOM     89  F   UNL A   1      42.479  24.412  34.319  1.00  0.00    -0.206 F 
ATOM     90  C   UNL A   1      45.160  22.406  35.596  1.00  0.00     0.022 A 
BRANCH  87  91
ATOM     91  S   UNL A   1      47.874  22.168  35.040  1.00  0.00     0.124 S 
ATOM     92  O   UNL A   1      47.822  20.840  34.440  1.00  0.00    -0.237 OA
ATOM     93  O   UNL A   1      48.683  23.154  34.327  1.00  0.00    -0.237 OA
ATOM     94  O   UNL A   1      48.010  22.190  36.494  1.00  0.00    -0.744 OA
ENDBRANCH  87  91
ENDBRANCH  61  84
ENDBRANCH  35  36
ENDBRANCH  27  30
ENDBRANCH  25  26
ENDBRANCH   1  25
TORSDOF 16
ENDMDL
MODEL 2
REMARK VINA RESULT:     -12.6      1.674      2.080
REMARK SMILES Cc1ccc(S(=O)(=O)Nc2ccccn2)cc1C(=O)NCCCNC(=O)c1ccc(-c2c3nc(c(-c4cc(S(=O)(=O)[O-])ccc4F)c4ccc([nH]4)c(-c4cc(S(=O)(=O)[O-])ccc4F)c4nc(c(-c5cc(S(=O)(=O)[O-])ccc5F)c5ccc2[nH]5)C=C4)C=C3)cc1
REMARK SMILES IDX 22 1 21 2 20 3 18 4 19 5 17 7 1 8 2 9 3 10 4 11 16 12 5 13
REMARK SMILES IDX 6 14 7 15 8 16 9 17 10 19 11 20 15 21 12 22 14 23 13 24
REMARK SMILES IDX 23 25 24 26 25 27 26 29 27 30 28 31 89 32 29 33 88 34 30 35
REMARK SMILES IDX 31 36 32 37 82 38 33 39 87 40 81 41 83 42 34 43 86 44 80 45
REMARK SMILES IDX 79 46 35 48 67 49 47 50 66 51 48 52 51 53 65 54 84 55 49 56
REMARK SMILES IDX 50 57 64 59 85 60 52 61 36 62 37 63 45 64 38 65 44 66 46 67
REMARK SMILES IDX 43 68 39 69 40 70 41 71 42 72 68 73 69 74 77 75 70 76 76 77
REMARK SMILES IDX 78 78 75 79 71 80 72 81 73 82 74 83 53 84 54 85 62 86 55 87
REMARK SMILES IDX 61 88 63 89 60 90 56 91 57 92 58 93 59 94
REMARK H PARENT 20 6 9 18 24 28 83 47 51 58
REMARK Flexibility Score: inf
ROOT
ATOM      1  C   UNL A   1      33.519  31.313  27.494  1.00  0.00     0.042 C 
ENDROOT
BRANCH   1   2
ATOM      2  C   UNL A   1      32.743  30.522  26.442  1.00  0.00     0.118 C 
BRANCH   2   3
ATOM      3  N   UNL A   1      31.737  29.665  27.053  1.00  0.00    -0.352 N 
ATOM      4  C   UNL A   1      31.604  28.304  27.086  1.00  0.00     0.251 C 
ATOM      5  O   UNL A   1      31.260  27.870  28.193  1.00  0.00    -0.269 OA
ATOM      6  H   UNL A   1      31.025  30.151  27.527  1.00  0.00     0.163 HD
BRANCH   4   7
ATOM      7  C   UNL A   1      31.631  27.327  25.923  1.00  0.00     0.044 A 
ATOM      8  C   UNL A   1      30.549  28.666  23.993  1.00  0.00     0.045 C 
ATOM      9  C   UNL A   1      31.150  27.446  24.603  1.00  0.00    -0.038 A 
ATOM     10  C   UNL A   1      31.132  26.314  23.754  1.00  0.00     0.005 A 
ATOM     11  C   UNL A   1      31.427  25.046  24.228  1.00  0.00     0.022 A 
ATOM     12  C   UNL A   1      32.041  26.028  26.333  1.00  0.00     0.036 A 
ATOM     13  C   UNL A   1      31.823  24.895  25.549  1.00  0.00     0.088 A 
BRANCH  13  14
ATOM     14  S   UNL A   1      31.764  23.234  26.189  1.00  0.00     0.263 S 
ATOM     15  O   UNL A   1      31.205  23.358  27.536  1.00  0.00    -0.201 OA
ATOM     16  O   UNL A   1      31.089  22.441  25.201  1.00  0.00    -0.201 OA
BRANCH  14  17
ATOM     17  N   UNL A   1      33.282  22.600  26.328  1.00  0.00    -0.263 N 
ATOM     18  H   UNL A   1      33.436  21.949  27.052  1.00  0.00     0.182 HD
BRANCH  17  19
ATOM     19  C   UNL A   1      34.368  22.911  25.503  1.00  0.00     0.139 A 
ATOM     20  C   UNL A   1      34.458  22.696  24.138  1.00  0.00     0.048 A 
ATOM     21  N   UNL A   1      35.363  23.409  26.262  1.00  0.00    -0.239 NA
ATOM     22  C   UNL A   1      35.700  22.897  23.538  1.00  0.00     0.005 A 
ATOM     23  C   UNL A   1      36.552  23.596  25.650  1.00  0.00     0.113 A 
ATOM     24  C   UNL A   1      36.771  23.341  24.308  1.00  0.00     0.020 A 
ENDBRANCH  17  19
ENDBRANCH  14  17
ENDBRANCH  13  14
ENDBRANCH   4   7
ENDBRANCH   2   3
ENDBRANCH   1   2
BRANCH   1  25
ATOM     25  C   UNL A   1      34.546  30.508  28.267  1.00  0.00     0.118 C 
BRANCH  25  26
ATOM     26  N   UNL A   1      35.392  31.306  29.157  1.00  0.00    -0.352 N 
ATOM     27  C   UNL A   1      36.577  30.926  29.769  1.00  0.00     0.251 C 
ATOM     28  H   UNL A   1      35.081  32.221  29.344  1.00  0.00     0.163 HD
ATOM     29  O   UNL A   1      37.208  31.675  30.504  1.00  0.00    -0.269 OA
BRANCH  27  30
ATOM     30  C   UNL A   1      37.149  29.618  29.374  1.00  0.00     0.039 A 
ATOM     31  C   UNL A   1      37.540  28.791  30.430  1.00  0.00     0.014 A 
ATOM     32  C   UNL A   1      37.698  29.477  28.104  1.00  0.00     0.014 A 
ATOM     33  C   UNL A   1      38.709  28.054  30.300  1.00  0.00     0.010 A 
ATOM     34  C   UNL A   1      38.915  28.829  28.008  1.00  0.00     0.010 A 
ATOM     35  C   UNL A   1      39.458  28.194  29.133  1.00  0.00    -0.014 A 
BRANCH  35  36
ATOM     36  C   UNL A   1      40.848  27.765  29.048  1.00  0.00     0.031 A 
ATOM     37  C   UNL A   1      41.141  26.403  28.576  1.00  0.00     0.074 A 
ATOM     38  C   UNL A   1      41.865  28.561  29.447  1.00  0.00     0.049 A 
ATOM     39  N   UNL A   1      42.142  25.697  28.974  1.00  0.00    -0.248 NA
ATOM     40  C   UNL A   1      40.265  25.703  27.647  1.00  0.00     0.031 C 
ATOM     41  C   UNL A   1      43.297  28.308  29.295  1.00  0.00     0.029 A 
ATOM     42  N   UNL A   1      41.800  29.659  30.298  1.00  0.00    -0.354 N 
ATOM     43  C   UNL A   1      42.204  24.582  28.175  1.00  0.00     0.074 A 
ATOM     44  C   UNL A   1      40.974  24.598  27.416  1.00  0.00     0.031 C 
ATOM     45  C   UNL A   1      43.966  29.038  30.202  1.00  0.00     0.029 A 
ATOM     46  C   UNL A   1      42.990  29.699  31.048  1.00  0.00     0.049 A 
ATOM     47  H   UNL A   1      41.053  30.296  30.364  1.00  0.00     0.167 HD
ATOM     48  C   UNL A   1      43.346  23.839  28.146  1.00  0.00     0.034 A 
ATOM     49  C   UNL A   1      42.946  29.627  32.410  1.00  0.00     0.034 A 
ATOM     50  C   UNL A   1      44.353  24.352  29.078  1.00  0.00     0.049 A 
ATOM     51  C   UNL A   1      43.544  28.348  32.978  1.00  0.00     0.074 A 
ATOM     52  C   UNL A   1      45.501  25.115  28.939  1.00  0.00     0.029 A 
ATOM     53  N   UNL A   1      44.083  24.329  30.439  1.00  0.00    -0.354 N 
ATOM     54  N   UNL A   1      44.125  27.408  32.280  1.00  0.00    -0.248 NA
ATOM     55  C   UNL A   1      43.429  27.994  34.392  1.00  0.00     0.031 C 
ATOM     56  C   UNL A   1      45.903  25.563  30.233  1.00  0.00     0.029 A 
ATOM     57  C   UNL A   1      45.018  25.048  31.163  1.00  0.00     0.049 A 
ATOM     58  H   UNL A   1      43.317  23.859  30.841  1.00  0.00     0.167 HD
ATOM     59  C   UNL A   1      44.368  26.319  33.086  1.00  0.00     0.074 A 
ATOM     60  C   UNL A   1      43.913  26.742  34.400  1.00  0.00     0.031 C 
ATOM     61  C   UNL A   1      44.866  25.133  32.611  1.00  0.00     0.034 A 
BRANCH  48  62
ATOM     62  C   UNL A   1      43.638  22.834  27.053  1.00  0.00     0.023 A 
ATOM     63  C   UNL A   1      42.981  21.590  27.067  1.00  0.00     0.031 A 
ATOM     64  C   UNL A   1      44.575  23.008  26.015  1.00  0.00     0.131 A 
ATOM     65  C   UNL A   1      43.352  20.557  26.186  1.00  0.00     0.055 A 
ATOM     66  C   UNL A   1      45.003  21.960  25.190  1.00  0.00     0.041 A 
ATOM     67  F   UNL A   1      45.076  24.215  25.714  1.00  0.00    -0.206 F 
ATOM     68  C   UNL A   1      44.401  20.716  25.285  1.00  0.00     0.022 A 
BRANCH  65  69
ATOM     69  S   UNL A   1      42.427  18.999  26.221  1.00  0.00     0.124 S 
ATOM     70  O   UNL A   1      42.491  18.633  27.631  1.00  0.00    -0.237 OA
ATOM     71  O   UNL A   1      41.121  19.408  25.716  1.00  0.00    -0.237 OA
ATOM     72  O   UNL A   1      43.190  18.132  25.323  1.00  0.00    -0.744 OA
ENDBRANCH  65  69
ENDBRANCH  48  62
BRANCH  49  73
ATOM     73  C   UNL A   1      41.763  30.350  32.968  1.00  0.00     0.023 A 
ATOM     74  C   UNL A   1      41.789  31.764  32.957  1.00  0.00     0.031 A 
ATOM     75  C   UNL A   1      40.519  29.716  33.088  1.00  0.00     0.131 A 
ATOM     76  C   UNL A   1      40.587  32.488  32.904  1.00  0.00     0.055 A 
ATOM     77  C   UNL A   1      39.327  30.447  33.072  1.00  0.00     0.041 A 
ATOM     78  F   UNL A   1      40.429  28.377  33.078  1.00  0.00    -0.206 F 
ATOM     79  C   UNL A   1      39.355  31.831  32.925  1.00  0.00     0.022 A 
BRANCH  76  80
ATOM     80  S   UNL A   1      40.613  34.273  32.565  1.00  0.00     0.124 S 
ATOM     81  O   UNL A   1      39.900  34.818  33.713  1.00  0.00    -0.237 OA
ATOM     82  O   UNL A   1      42.039  34.576  32.496  1.00  0.00    -0.237 OA
ATOM     83  O   UNL A   1      39.919  34.369  31.280  1.00  0.00    -0.744 OA
ENDBRANCH  76  80
ENDBRANCH  49  73
BRANCH  61  84
ATOM     84  C   UNL A   1      45.195  23.924  33.473  1.00  0.00     0.023 A 
ATOM     85  C   UNL A   1      46.487  23.665  33.960  1.00  0.00     0.031 A 
ATOM     86  C   UNL A   1      44.227  22.939  33.793  1.00  0.00     0.131 A 
ATOM     87  C   UNL A   1      46.745  22.582  34.821  1.00  0.00     0.055 A 
ATOM     88  C   UNL A   1      44.500  21.820  34.586  1.00  0.00     0.041 A 
ATOM     89  F   UNL A   1      42.961  23.017  33.362  1.00  0.00    -0.206 F 
ATOM     90  C   UNL A   1      45.761  21.648  35.130  1.00  0.00     0.022 A 
BRANCH  87  91
ATOM     91  S   UNL A   1      48.386  22.450  35.577  1.00  0.00     0.124 S 
ATOM     92  O   UNL A   1      48.494  23.702  36.319  1.00  0.00    -0.237 OA
ATOM     93  O   UNL A   1      48.242  21.244  36.388  1.00  0.00    -0.237 OA
ATOM     94  O   UNL A   1      49.285  22.324  34.433  1.00  0.00    -0.744 OA
ENDBRANCH  87  91
ENDBRANCH  61  84
ENDBRANCH  35  36
ENDBRANCH  27  30
ENDBRANCH  25  26
ENDBRANCH   1  25
TORSDOF 16
ENDMDL
MODEL 3
REMARK VINA RESULT:     -12.4      4.231     10.460
REMARK SMILES Cc1ccc(S(=O)(=O)Nc2ccccn2)cc1C(=O)NCCCNC(=O)c1ccc(-c2c3nc(c(-c4cc(S(=O)(=O)[O-])ccc4F)c4ccc([nH]4)c(-c4cc(S(=O)(=O)[O-])ccc4F)c4nc(c(-c5cc(S(=O)(=O)[O-])ccc5F)c5ccc2[nH]5)C=C4)C=C3)cc1
REMARK SMILES IDX 22 1 21 2 20 3 18 4 19 5 17 7 1 8 2 9 3 10 4 11 16 12 5 13
REMARK SMILES IDX 6 14 7 15 8 16 9 17 10 19 11 20 15 21 12 22 14 23 13 24
REMARK SMILES IDX 23 25 24 26 25 27 26 29 27 30 28 31 89 32 29 33 88 34 30 35
REMARK SMILES IDX 31 36 32 37 82 38 33 39 87 40 81 41 83 42 34 43 86 44 80 45
REMARK SMILES IDX 79 46 35 48 67 49 47 50 66 51 48 52 51 53 65 54 84 55 49 56
REMARK SMILES IDX 50 57 64 59 85 60 52 61 36 62 37 63 45 64 38 65 44 66 46 67
REMARK SMILES IDX 43 68 39 69 40 70 41 71 42 72 68 73 69 74 77 75 70 76 76 77
REMARK SMILES IDX 78 78 75 79 71 80 72 81 73 82 74 83 53 84 54 85 62 86 55 87
REMARK SMILES IDX 61 88 63 89 60 90 56 91 57 92 58 93 59 94
REMARK H PARENT 20 6 9 18 24 28 83 47 51 58
REMARK Flexibility Score: inf
ROOT
ATOM      1  C   UNL A   1      38.568  21.720  25.580  1.00  0.00     0.042 C 
ENDROOT
BRANCH   1   2
ATOM      2  C   UNL A   1      37.079  21.508  25.310  1.00  0.00     0.118 C 
BRANCH   2   3
ATOM      3  N   UNL A   1      36.255  22.322  26.191  1.00  0.00    -0.352 N 
ATOM      4  C   UNL A   1      34.899  22.391  26.359  1.00  0.00     0.251 C 
ATOM      5  O   UNL A   1      34.554  22.469  27.545  1.00  0.00    -0.269 OA
ATOM      6  H   UNL A   1      36.764  22.934  26.770  1.00  0.00     0.163 HD
BRANCH   4   7
ATOM      7  C   UNL A   1      33.828  22.577  25.298  1.00  0.00     0.044 A 
ATOM      8  C   UNL A   1      33.387  20.169  24.463  1.00  0.00     0.045 C 
ATOM      9  C   UNL A   1      33.195  21.647  24.447  1.00  0.00    -0.038 A 
ATOM     10  C   UNL A   1      32.352  22.104  23.407  1.00  0.00     0.005 A 
ATOM     11  C   UNL A   1      32.248  23.449  23.093  1.00  0.00     0.022 A 
ATOM     12  C   UNL A   1      33.596  23.952  25.018  1.00  0.00     0.036 A 
ATOM     13  C   UNL A   1      32.929  24.377  23.868  1.00  0.00     0.088 A 
BRANCH  13  14
ATOM     14  S   UNL A   1      33.097  26.003  23.160  1.00  0.00     0.263 S 
ATOM     15  O   UNL A   1      33.939  25.825  21.976  1.00  0.00    -0.201 OA
ATOM     16  O   UNL A   1      31.766  26.525  23.024  1.00  0.00    -0.201 OA
BRANCH  14  17
ATOM     17  N   UNL A   1      33.886  27.019  24.194  1.00  0.00    -0.263 N 
ATOM     18  H   UNL A   1      34.857  27.128  24.068  1.00  0.00     0.182 HD
BRANCH  17  19
ATOM     19  C   UNL A   1      33.289  27.738  25.236  1.00  0.00     0.139 A 
ATOM     20  C   UNL A   1      32.708  27.212  26.377  1.00  0.00     0.048 A 
ATOM     21  N   UNL A   1      33.312  29.049  24.930  1.00  0.00    -0.239 NA
ATOM     22  C   UNL A   1      31.997  28.087  27.197  1.00  0.00     0.005 A 
ATOM     23  C   UNL A   1      32.617  29.871  25.745  1.00  0.00     0.113 A 
ATOM     24  C   UNL A   1      31.937  29.438  26.869  1.00  0.00     0.020 A 
ENDBRANCH  17  19
ENDBRANCH  14  17
ENDBRANCH  13  14
ENDBRANCH   4   7
ENDBRANCH   2   3
ENDBRANCH   1   2
BRANCH   1  25
ATOM     25  C   UNL A   1      38.923  23.075  26.162  1.00  0.00     0.118 C 
BRANCH  25  26
ATOM     26  N   UNL A   1      40.354  23.273  26.399  1.00  0.00    -0.352 N 
ATOM     27  C   UNL A   1      41.016  24.465  26.651  1.00  0.00     0.251 C 
ATOM     28  H   UNL A   1      40.913  22.463  26.375  1.00  0.00     0.163 HD
ATOM     29  O   UNL A   1      42.227  24.520  26.832  1.00  0.00    -0.269 OA
BRANCH  27  30
ATOM     30  C   UNL A   1      40.180  25.670  26.855  1.00  0.00     0.039 A 
ATOM     31  C   UNL A   1      40.689  26.852  26.314  1.00  0.00     0.014 A 
ATOM     32  C   UNL A   1      39.271  25.689  27.908  1.00  0.00     0.014 A 
ATOM     33  C   UNL A   1      40.547  28.030  27.035  1.00  0.00     0.010 A 
ATOM     34  C   UNL A   1      39.218  26.835  28.680  1.00  0.00     0.010 A 
ATOM     35  C   UNL A   1      39.930  27.975  28.284  1.00  0.00    -0.014 A 
BRANCH  35  36
ATOM     36  C   UNL A   1      40.056  29.050  29.259  1.00  0.00     0.031 A 
ATOM     37  C   UNL A   1      39.000  30.072  29.327  1.00  0.00     0.074 A 
ATOM     38  C   UNL A   1      41.142  29.167  30.056  1.00  0.00     0.049 A 
ATOM     39  N   UNL A   1      39.201  31.304  29.645  1.00  0.00    -0.248 NA
ATOM     40  C   UNL A   1      37.620  29.779  28.968  1.00  0.00     0.031 C 
ATOM     41  C   UNL A   1      41.334  30.111  31.155  1.00  0.00     0.029 A 
ATOM     42  N   UNL A   1      42.399  28.604  29.865  1.00  0.00    -0.354 N 
ATOM     43  C   UNL A   1      37.972  31.896  29.799  1.00  0.00     0.074 A 
ATOM     44  C   UNL A   1      37.025  30.927  29.296  1.00  0.00     0.031 C 
ATOM     45  C   UNL A   1      42.650  30.256  31.377  1.00  0.00     0.029 A 
ATOM     46  C   UNL A   1      43.360  29.505  30.359  1.00  0.00     0.049 A 
ATOM     47  H   UNL A   1      42.584  27.727  29.456  1.00  0.00     0.167 HD
ATOM     48  C   UNL A   1      37.878  33.087  30.455  1.00  0.00     0.034 A 
ATOM     49  C   UNL A   1      44.320  30.008  29.530  1.00  0.00     0.034 A 
ATOM     50  C   UNL A   1      39.193  33.595  30.854  1.00  0.00     0.049 A 
ATOM     51  C   UNL A   1      44.186  31.501  29.267  1.00  0.00     0.074 A 
ATOM     52  C   UNL A   1      39.900  33.622  32.046  1.00  0.00     0.029 A 
ATOM     53  N   UNL A   1      40.110  33.932  29.868  1.00  0.00    -0.354 N 
ATOM     54  N   UNL A   1      43.299  32.289  29.813  1.00  0.00    -0.248 NA
ATOM     55  C   UNL A   1      44.998  32.192  28.266  1.00  0.00     0.031 C 
ATOM     56  C   UNL A   1      41.255  33.962  31.757  1.00  0.00     0.029 A 
ATOM     57  C   UNL A   1      41.367  34.173  30.394  1.00  0.00     0.049 A 
ATOM     58  H   UNL A   1      39.892  33.992  28.910  1.00  0.00     0.167 HD
ATOM     59  C   UNL A   1      43.340  33.522  29.203  1.00  0.00     0.074 A 
ATOM     60  C   UNL A   1      44.425  33.406  28.242  1.00  0.00     0.031 C 
ATOM     61  C   UNL A   1      42.450  34.526  29.484  1.00  0.00     0.034 A 
BRANCH  48  62
ATOM     62  C   UNL A   1      36.567  33.624  30.985  1.00  0.00     0.023 A 
ATOM     63  C   UNL A   1      35.640  34.189  30.089  1.00  0.00     0.031 A 
ATOM     64  C   UNL A   1      36.192  33.664  32.343  1.00  0.00     0.131 A 
ATOM     65  C   UNL A   1      34.495  34.866  30.550  1.00  0.00     0.055 A 
ATOM     66  C   UNL A   1      35.098  34.404  32.811  1.00  0.00     0.041 A 
ATOM     67  F   UNL A   1      36.833  32.940  33.272  1.00  0.00    -0.206 F 
ATOM     68  C   UNL A   1      34.249  35.027  31.911  1.00  0.00     0.022 A 
BRANCH  65  69
ATOM     69  S   UNL A   1      33.315  35.520  29.340  1.00  0.00     0.124 S 
ATOM     70  O   UNL A   1      32.605  34.318  28.920  1.00  0.00    -0.237 OA
ATOM     71  O   UNL A   1      32.556  36.475  30.140  1.00  0.00    -0.237 OA
ATOM     72  O   UNL A   1      34.175  36.118  28.319  1.00  0.00    -0.744 OA
ENDBRANCH  65  69
ENDBRANCH  48  62
BRANCH  49  73
ATOM     73  C   UNL A   1      44.785  28.993  28.537  1.00  0.00     0.023 A 
ATOM     74  C   UNL A   1      45.586  27.927  29.008  1.00  0.00     0.031 A 
ATOM     75  C   UNL A   1      44.127  28.829  27.310  1.00  0.00     0.131 A 
ATOM     76  C   UNL A   1      45.580  26.694  28.337  1.00  0.00     0.055 A 
ATOM     77  C   UNL A   1      44.156  27.608  26.628  1.00  0.00     0.041 A 
ATOM     78  F   UNL A   1      43.333  29.794  26.824  1.00  0.00    -0.206 F 
ATOM     79  C   UNL A   1      44.838  26.520  27.167  1.00  0.00     0.022 A 
BRANCH  76  80
ATOM     80  S   UNL A   1      46.341  25.234  29.106  1.00  0.00     0.124 S 
ATOM     81  O   UNL A   1      46.291  24.254  28.029  1.00  0.00    -0.237 OA
ATOM     82  O   UNL A   1      47.671  25.709  29.475  1.00  0.00    -0.237 OA
ATOM     83  O   UNL A   1      45.462  24.973  30.246  1.00  0.00    -0.744 OA
ENDBRANCH  76  80
ENDBRANCH  49  73
BRANCH  61  84
ATOM     84  C   UNL A   1      42.491  35.918  28.869  1.00  0.00     0.023 A 
ATOM     85  C   UNL A   1      43.063  37.022  29.523  1.00  0.00     0.031 A 
ATOM     86  C   UNL A   1      41.896  36.207  27.616  1.00  0.00     0.131 A 
ATOM     87  C   UNL A   1      43.157  38.279  28.897  1.00  0.00     0.055 A 
ATOM     88  C   UNL A   1      41.922  37.474  27.026  1.00  0.00     0.041 A 
ATOM     89  F   UNL A   1      41.268  35.271  26.892  1.00  0.00    -0.206 F 
ATOM     90  C   UNL A   1      42.579  38.517  27.654  1.00  0.00     0.022 A 
BRANCH  87  91
ATOM     91  S   UNL A   1      44.103  39.585  29.720  1.00  0.00     0.124 S 
ATOM     92  O   UNL A   1      43.077  40.290  30.481  1.00  0.00    -0.237 OA
ATOM     93  O   UNL A   1      45.056  38.808  30.509  1.00  0.00    -0.237 OA
ATOM     94  O   UNL A   1      44.687  40.340  28.613  1.00  0.00    -0.744 OA
ENDBRANCH  87  91
ENDBRANCH  61  84
ENDBRANCH  35  36
ENDBRANCH  27  30
ENDBRANCH  25  26
ENDBRANCH   1  25
TORSDOF 16
ENDMDL
