MODEL 1
REMARK VINA RESULT:     -12.4      0.000      0.000
REMARK SMILES O=C(NCCCNC(=O)[C@@H]1C=C[C@@H](NS(=O)(=O)c2ccc(F)c(F)c2F)C1)c1ccc(-c2c3nc(c(-c4cc(S(=O)(=O)[O-])ccc4F)c4ccc([nH]4)c(-c4cc(S(=O)(=O)[O-])ccc4F)c4nc(c(-c5cc(S(=O)(=O)[O-])ccc5F)c5ccc2[nH]5)C=C4)C=C3)cc1
REMARK SMILES IDX 5 1 4 2 3 3 1 4 2 5 28 7 29 8 90 9 30 10 89 11 31 12 32 13
REMARK SMILES IDX 33 14 83 15 34 16 88 17 82 18 84 19 35 20 87 21 81 22 80 23
REMARK SMILES IDX 36 25 68 26 48 27 67 28 49 29 52 30 66 31 85 32 50 33 51 34
REMARK SMILES IDX 65 36 86 37 53 38 37 39 38 40 46 41 39 42 45 43 47 44 44 45
REMARK SMILES IDX 40 46 41 47 42 48 43 49 69 50 70 51 78 52 71 53 77 54 79 55
REMARK SMILES IDX 76 56 72 57 73 58 74 59 75 60 54 61 55 62 63 63 56 64 62 65
REMARK SMILES IDX 64 66 61 67 57 68 58 69 59 70 60 71 6 72 7 73 8 74 9 76
REMARK SMILES IDX 10 77 11 78 27 79 12 80 13 81 14 82 15 84 16 85 17 86 18 87
REMARK SMILES IDX 19 88 25 89 20 90 23 91 26 92 21 93 24 94 22 95
REMARK H PARENT 3 6 84 24 52 35 7 75 14 83
REMARK Flexibility Score: inf
ROOT
ATOM      1  C   UNL A   1      31.436  32.288  26.757  1.00  0.00     0.042 C 
ENDROOT
BRANCH   1   2
ATOM      2  C   UNL A   1      32.757  32.962  27.132  1.00  0.00     0.118 C 
BRANCH   2   3
ATOM      3  N   UNL A   1      32.570  34.275  27.736  1.00  0.00    -0.352 N 
ATOM      4  O   UNL A   1      32.720  35.913  29.258  1.00  0.00    -0.269 OA
ATOM      5  C   UNL A   1      33.163  34.849  28.833  1.00  0.00     0.251 C 
ATOM      6  H   UNL A   1      31.909  34.845  27.280  1.00  0.00     0.163 HD
BRANCH   5   7
ATOM      7  C   UNL A   1      34.308  34.202  29.514  1.00  0.00     0.039 A 
ATOM      8  C   UNL A   1      34.123  33.330  30.589  1.00  0.00     0.014 A 
ATOM      9  C   UNL A   1      35.597  34.433  29.021  1.00  0.00     0.014 A 
ATOM     10  C   UNL A   1      35.227  32.790  31.248  1.00  0.00     0.010 A 
ATOM     11  C   UNL A   1      36.699  33.837  29.641  1.00  0.00     0.010 A 
ATOM     12  C   UNL A   1      36.527  33.033  30.780  1.00  0.00    -0.014 A 
BRANCH  12  13
ATOM     13  C   UNL A   1      37.701  32.435  31.468  1.00  0.00     0.031 A 
ATOM     14  C   UNL A   1      38.456  31.296  30.838  1.00  0.00     0.074 A 
ATOM     15  C   UNL A   1      38.079  32.907  32.672  1.00  0.00     0.049 A 
ATOM     16  N   UNL A   1      39.452  30.595  31.316  1.00  0.00    -0.248 NA
ATOM     17  C   UNL A   1      38.019  30.884  29.497  1.00  0.00     0.031 C 
ATOM     18  C   UNL A   1      37.431  34.010  33.383  1.00  0.00     0.029 A 
ATOM     19  N   UNL A   1      39.089  32.515  33.514  1.00  0.00    -0.354 N 
ATOM     20  C   UNL A   1      39.754  29.647  30.345  1.00  0.00     0.074 A 
ATOM     21  C   UNL A   1      38.803  29.840  29.269  1.00  0.00     0.031 C 
ATOM     22  C   UNL A   1      38.067  34.214  34.547  1.00  0.00     0.029 A 
ATOM     23  C   UNL A   1      39.122  33.217  34.695  1.00  0.00     0.049 A 
ATOM     24  H   UNL A   1      39.729  31.800  33.293  1.00  0.00     0.167 HD
ATOM     25  C   UNL A   1      40.737  28.710  30.346  1.00  0.00     0.034 A 
ATOM     26  C   UNL A   1      39.888  33.058  35.792  1.00  0.00     0.034 A 
ATOM     27  C   UNL A   1      41.669  28.528  31.435  1.00  0.00     0.049 A 
ATOM     28  C   UNL A   1      40.930  31.971  35.805  1.00  0.00     0.074 A 
ATOM     29  C   UNL A   1      42.719  27.630  31.531  1.00  0.00     0.029 A 
ATOM     30  N   UNL A   1      41.655  29.243  32.627  1.00  0.00    -0.354 N 
ATOM     31  N   UNL A   1      41.215  31.090  34.872  1.00  0.00    -0.248 NA
ATOM     32  C   UNL A   1      41.758  31.860  37.012  1.00  0.00     0.031 C 
ATOM     33  C   UNL A   1      43.289  27.751  32.803  1.00  0.00     0.029 A 
ATOM     34  C   UNL A   1      42.654  28.783  33.474  1.00  0.00     0.049 A 
ATOM     35  H   UNL A   1      41.027  29.971  32.840  1.00  0.00     0.167 HD
ATOM     36  C   UNL A   1      42.277  30.341  35.370  1.00  0.00     0.074 A 
ATOM     37  C   UNL A   1      42.583  30.875  36.682  1.00  0.00     0.031 C 
ATOM     38  C   UNL A   1      42.946  29.315  34.787  1.00  0.00     0.034 A 
BRANCH  25  39
ATOM     39  C   UNL A   1      40.811  27.783  29.154  1.00  0.00     0.023 A 
ATOM     40  C   UNL A   1      41.758  27.964  28.131  1.00  0.00     0.031 A 
ATOM     41  C   UNL A   1      39.890  26.730  29.013  1.00  0.00     0.131 A 
ATOM     42  C   UNL A   1      41.704  27.173  26.974  1.00  0.00     0.055 A 
ATOM     43  C   UNL A   1      39.899  25.885  27.900  1.00  0.00     0.041 A 
ATOM     44  F   UNL A   1      38.947  26.515  29.944  1.00  0.00    -0.206 F 
ATOM     45  C   UNL A   1      40.797  26.117  26.862  1.00  0.00     0.022 A 
BRANCH  42  46
ATOM     46  S   UNL A   1      42.712  27.660  25.546  1.00  0.00     0.124 S 
ATOM     47  O   UNL A   1      42.629  26.470  24.703  1.00  0.00    -0.237 OA
ATOM     48  O   UNL A   1      42.013  28.841  25.054  1.00  0.00    -0.237 OA
ATOM     49  O   UNL A   1      44.031  27.909  26.126  1.00  0.00    -0.744 OA
ENDBRANCH  42  46
ENDBRANCH  25  39
BRANCH  26  50
ATOM     50  C   UNL A   1      39.667  33.926  36.981  1.00  0.00     0.023 A 
ATOM     51  C   UNL A   1      39.039  33.434  38.136  1.00  0.00     0.031 A 
ATOM     52  C   UNL A   1      40.086  35.269  36.977  1.00  0.00     0.131 A 
ATOM     53  C   UNL A   1      38.826  34.287  39.230  1.00  0.00     0.055 A 
ATOM     54  C   UNL A   1      39.916  36.099  38.085  1.00  0.00     0.041 A 
ATOM     55  F   UNL A   1      40.698  35.785  35.899  1.00  0.00    -0.206 F 
ATOM     56  C   UNL A   1      39.274  35.611  39.218  1.00  0.00     0.022 A 
BRANCH  53  57
ATOM     57  S   UNL A   1      37.903  33.655  40.657  1.00  0.00     0.124 S 
ATOM     58  O   UNL A   1      37.676  34.874  41.427  1.00  0.00    -0.237 OA
ATOM     59  O   UNL A   1      36.727  33.069  40.023  1.00  0.00    -0.237 OA
ATOM     60  O   UNL A   1      38.826  32.697  41.262  1.00  0.00    -0.744 OA
ENDBRANCH  53  57
ENDBRANCH  26  50
BRANCH  38  61
ATOM     61  C   UNL A   1      44.121  28.739  35.539  1.00  0.00     0.023 A 
ATOM     62  C   UNL A   1      43.979  27.683  36.457  1.00  0.00     0.031 A 
ATOM     63  C   UNL A   1      45.412  29.257  35.323  1.00  0.00     0.131 A 
ATOM     64  C   UNL A   1      45.101  27.207  37.154  1.00  0.00     0.055 A 
ATOM     65  C   UNL A   1      46.531  28.743  35.977  1.00  0.00     0.041 A 
ATOM     66  F   UNL A   1      45.605  30.269  34.461  1.00  0.00    -0.206 F 
ATOM     67  C   UNL A   1      46.378  27.718  36.906  1.00  0.00     0.022 A 
BRANCH  64  68
ATOM     68  S   UNL A   1      44.863  25.955  38.445  1.00  0.00     0.124 S 
ATOM     69  O   UNL A   1      44.066  24.950  37.748  1.00  0.00    -0.237 OA
ATOM     70  O   UNL A   1      46.233  25.572  38.768  1.00  0.00    -0.237 OA
ATOM     71  O   UNL A   1      44.159  26.681  39.500  1.00  0.00    -0.744 OA
ENDBRANCH  64  68
ENDBRANCH  38  61
ENDBRANCH  12  13
ENDBRANCH   5   7
ENDBRANCH   2   3
ENDBRANCH   1   2
BRANCH   1  72
ATOM     72  C   UNL A   1      31.529  30.775  26.588  1.00  0.00     0.117 C 
BRANCH  72  73
ATOM     73  N   UNL A   1      31.455  30.363  25.197  1.00  0.00    -0.356 N 
ATOM     74  C   UNL A   1      31.563  29.113  24.654  1.00  0.00     0.226 C 
ATOM     75  H   UNL A   1      31.305  31.091  24.550  1.00  0.00     0.163 HD
ATOM     76  O   UNL A   1      31.421  28.992  23.436  1.00  0.00    -0.274 OA
BRANCH  74  77
ATOM     77  C   UNL A   1      31.772  27.920  25.587  1.00  0.00     0.103 C 
ATOM     78  C   UNL A   1      33.215  27.661  25.891  1.00  0.00    -0.016 C 
ATOM     79  C   UNL A   1      31.342  26.626  24.881  1.00  0.00     0.042 C 
ATOM     80  C   UNL A   1      33.673  26.573  25.263  1.00  0.00    -0.011 C 
ATOM     81  C   UNL A   1      32.641  25.956  24.389  1.00  0.00     0.093 C 
BRANCH  81  82
ATOM     82  N   UNL A   1      32.547  24.519  24.570  1.00  0.00    -0.204 NA
ATOM     83  H   UNL A   1      31.893  24.378  25.340  1.00  0.00     0.142 HD
BRANCH  82  84
ATOM     84  S   UNL A   1      32.071  23.465  23.373  1.00  0.00     0.244 S 
ATOM     85  O   UNL A   1      30.640  23.562  23.220  1.00  0.00    -0.207 OA
ATOM     86  O   UNL A   1      32.949  23.690  22.243  1.00  0.00    -0.207 OA
BRANCH  84  87
ATOM     87  C   UNL A   1      32.432  21.858  23.991  1.00  0.00     0.121 A 
ATOM     88  C   UNL A   1      32.919  21.718  25.300  1.00  0.00     0.028 A 
ATOM     89  C   UNL A   1      32.217  20.742  23.194  1.00  0.00     0.181 A 
ATOM     90  C   UNL A   1      33.188  20.445  25.804  1.00  0.00     0.044 A 
ATOM     91  C   UNL A   1      32.491  19.477  23.701  1.00  0.00     0.195 A 
ATOM     92  F   UNL A   1      31.760  20.861  21.940  1.00  0.00    -0.202 F 
ATOM     93  C   UNL A   1      32.972  19.331  24.998  1.00  0.00     0.161 A 
ATOM     94  F   UNL A   1      32.294  18.391  22.939  1.00  0.00    -0.200 F 
ATOM     95  F   UNL A   1      33.230  18.112  25.490  1.00  0.00    -0.204 F 
ENDBRANCH  84  87
ENDBRANCH  82  84
ENDBRANCH  81  82
ENDBRANCH  74  77
ENDBRANCH  72  73
ENDBRANCH   1  72
TORSDOF 16
ENDMDL
MODEL 2
REMARK VINA RESULT:     -12.4      1.144      1.656
REMARK SMILES O=C(NCCCNC(=O)[C@@H]1C=C[C@@H](NS(=O)(=O)c2ccc(F)c(F)c2F)C1)c1ccc(-c2c3nc(c(-c4cc(S(=O)(=O)[O-])ccc4F)c4ccc([nH]4)c(-c4cc(S(=O)(=O)[O-])ccc4F)c4nc(c(-c5cc(S(=O)(=O)[O-])ccc5F)c5ccc2[nH]5)C=C4)C=C3)cc1
REMARK SMILES IDX 5 1 4 2 3 3 1 4 2 5 28 7 29 8 90 9 30 10 89 11 31 12 32 13
REMARK SMILES IDX 33 14 83 15 34 16 88 17 82 18 84 19 35 20 87 21 81 22 80 23
REMARK SMILES IDX 36 25 68 26 48 27 67 28 49 29 52 30 66 31 85 32 50 33 51 34
REMARK SMILES IDX 65 36 86 37 53 38 37 39 38 40 46 41 39 42 45 43 47 44 44 45
REMARK SMILES IDX 40 46 41 47 42 48 43 49 69 50 70 51 78 52 71 53 77 54 79 55
REMARK SMILES IDX 76 56 72 57 73 58 74 59 75 60 54 61 55 62 63 63 56 64 62 65
REMARK SMILES IDX 64 66 61 67 57 68 58 69 59 70 60 71 6 72 7 73 8 74 9 76
REMARK SMILES IDX 10 77 11 78 27 79 12 80 13 81 14 82 15 84 16 85 17 86 18 87
REMARK SMILES IDX 19 88 25 89 20 90 23 91 26 92 21 93 24 94 22 95
REMARK H PARENT 3 6 84 24 52 35 7 75 14 83
REMARK Flexibility Score: inf
ROOT
ATOM      1  C   UNL A   1      31.484  32.122  26.715  1.00  0.00     0.042 C 
ENDROOT
BRANCH   1   2
ATOM      2  C   UNL A   1      32.768  32.811  27.178  1.00  0.00     0.118 C 
BRANCH   2   3
ATOM      3  N   UNL A   1      32.533  34.147  27.709  1.00  0.00    -0.352 N 
ATOM      4  O   UNL A   1      32.638  35.877  29.131  1.00  0.00    -0.269 OA
ATOM      5  C   UNL A   1      33.122  34.811  28.757  1.00  0.00     0.251 C 
ATOM      6  H   UNL A   1      31.837  34.659  27.238  1.00  0.00     0.163 HD
BRANCH   5   7
ATOM      7  C   UNL A   1      34.310  34.258  29.447  1.00  0.00     0.039 A 
ATOM      8  C   UNL A   1      35.607  34.555  29.022  1.00  0.00     0.014 A 
ATOM      9  C   UNL A   1      34.116  33.469  30.586  1.00  0.00     0.014 A 
ATOM     10  C   UNL A   1      36.701  33.965  29.655  1.00  0.00     0.010 A 
ATOM     11  C   UNL A   1      35.217  32.934  31.261  1.00  0.00     0.010 A 
ATOM     12  C   UNL A   1      36.520  33.152  30.783  1.00  0.00    -0.014 A 
BRANCH  12  13
ATOM     13  C   UNL A   1      37.689  32.545  31.472  1.00  0.00     0.031 A 
ATOM     14  C   UNL A   1      38.441  31.407  30.838  1.00  0.00     0.074 A 
ATOM     15  C   UNL A   1      38.064  33.007  32.681  1.00  0.00     0.049 A 
ATOM     16  N   UNL A   1      39.432  30.698  31.317  1.00  0.00    -0.248 NA
ATOM     17  C   UNL A   1      38.008  31.005  29.493  1.00  0.00     0.031 C 
ATOM     18  C   UNL A   1      37.418  34.109  33.396  1.00  0.00     0.029 A 
ATOM     19  N   UNL A   1      39.069  32.606  33.524  1.00  0.00    -0.354 N 
ATOM     20  C   UNL A   1      39.735  29.754  30.340  1.00  0.00     0.074 A 
ATOM     21  C   UNL A   1      38.788  29.959  29.262  1.00  0.00     0.031 C 
ATOM     22  C   UNL A   1      38.049  34.303  34.564  1.00  0.00     0.029 A 
ATOM     23  C   UNL A   1      39.099  33.300  34.710  1.00  0.00     0.049 A 
ATOM     24  H   UNL A   1      39.706  31.889  33.301  1.00  0.00     0.167 HD
ATOM     25  C   UNL A   1      40.714  28.814  30.340  1.00  0.00     0.034 A 
ATOM     26  C   UNL A   1      39.861  33.131  35.809  1.00  0.00     0.034 A 
ATOM     27  C   UNL A   1      41.640  28.620  31.431  1.00  0.00     0.049 A 
ATOM     28  C   UNL A   1      40.898  32.040  35.819  1.00  0.00     0.074 A 
ATOM     29  C   UNL A   1      42.686  27.718  31.526  1.00  0.00     0.029 A 
ATOM     30  N   UNL A   1      41.624  29.328  32.628  1.00  0.00    -0.354 N 
ATOM     31  N   UNL A   1      41.182  31.164  34.883  1.00  0.00    -0.248 NA
ATOM     32  C   UNL A   1      41.720  31.917  37.029  1.00  0.00     0.031 C 
ATOM     33  C   UNL A   1      43.250  27.828  32.802  1.00  0.00     0.029 A 
ATOM     34  C   UNL A   1      42.617  28.859  33.476  1.00  0.00     0.049 A 
ATOM     35  H   UNL A   1      40.999  30.057  32.842  1.00  0.00     0.167 HD
ATOM     36  C   UNL A   1      42.239  30.407  35.381  1.00  0.00     0.074 A 
ATOM     37  C   UNL A   1      42.542  30.931  36.697  1.00  0.00     0.031 C 
ATOM     38  C   UNL A   1      42.907  29.381  34.793  1.00  0.00     0.034 A 
BRANCH  25  39
ATOM     39  C   UNL A   1      40.789  27.893  29.143  1.00  0.00     0.023 A 
ATOM     40  C   UNL A   1      41.705  28.108  28.099  1.00  0.00     0.031 A 
ATOM     41  C   UNL A   1      39.897  26.812  29.018  1.00  0.00     0.131 A 
ATOM     42  C   UNL A   1      41.648  27.319  26.939  1.00  0.00     0.055 A 
ATOM     43  C   UNL A   1      39.907  25.972  27.902  1.00  0.00     0.041 A 
ATOM     44  F   UNL A   1      38.984  26.565  29.970  1.00  0.00    -0.206 F 
ATOM     45  C   UNL A   1      40.772  26.236  26.844  1.00  0.00     0.022 A 
BRANCH  42  46
ATOM     46  S   UNL A   1      42.607  27.843  25.490  1.00  0.00     0.124 S 
ATOM     47  O   UNL A   1      42.559  26.646  24.654  1.00  0.00    -0.237 OA
ATOM     48  O   UNL A   1      41.848  28.990  25.008  1.00  0.00    -0.237 OA
ATOM     49  O   UNL A   1      43.925  28.151  26.045  1.00  0.00    -0.744 OA
ENDBRANCH  42  46
ENDBRANCH  25  39
BRANCH  26  50
ATOM     50  C   UNL A   1      39.638  33.993  37.003  1.00  0.00     0.023 A 
ATOM     51  C   UNL A   1      39.027  33.489  38.162  1.00  0.00     0.031 A 
ATOM     52  C   UNL A   1      40.039  35.342  36.999  1.00  0.00     0.131 A 
ATOM     53  C   UNL A   1      38.812  34.336  39.260  1.00  0.00     0.055 A 
ATOM     54  C   UNL A   1      39.867  36.166  38.111  1.00  0.00     0.041 A 
ATOM     55  F   UNL A   1      40.634  35.869  35.916  1.00  0.00    -0.206 F 
ATOM     56  C   UNL A   1      39.242  35.666  39.248  1.00  0.00     0.022 A 
BRANCH  53  57
ATOM     57  S   UNL A   1      37.911  33.688  40.694  1.00  0.00     0.124 S 
ATOM     58  O   UNL A   1      38.881  32.755  41.257  1.00  0.00    -0.237 OA
ATOM     59  O   UNL A   1      37.661  34.899  41.468  1.00  0.00    -0.237 OA
ATOM     60  O   UNL A   1      36.725  33.074  40.101  1.00  0.00    -0.744 OA
ENDBRANCH  53  57
ENDBRANCH  26  50
BRANCH  38  61
ATOM     61  C   UNL A   1      44.076  28.796  35.547  1.00  0.00     0.023 A 
ATOM     62  C   UNL A   1      43.929  27.719  36.439  1.00  0.00     0.031 A 
ATOM     63  C   UNL A   1      45.366  29.326  35.357  1.00  0.00     0.131 A 
ATOM     64  C   UNL A   1      45.046  27.234  37.139  1.00  0.00     0.055 A 
ATOM     65  C   UNL A   1      46.480  28.804  36.014  1.00  0.00     0.041 A 
ATOM     66  F   UNL A   1      45.563  30.357  34.521  1.00  0.00    -0.206 F 
ATOM     67  C   UNL A   1      46.322  27.757  36.918  1.00  0.00     0.022 A 
BRANCH  64  68
ATOM     68  S   UNL A   1      44.800  25.952  38.399  1.00  0.00     0.124 S 
ATOM     69  O   UNL A   1      46.168  25.691  38.834  1.00  0.00    -0.237 OA
ATOM     70  O   UNL A   1      43.939  26.623  39.366  1.00  0.00    -0.237 OA
ATOM     71  O   UNL A   1      44.167  24.862  37.659  1.00  0.00    -0.744 OA
ENDBRANCH  64  68
ENDBRANCH  38  61
ENDBRANCH  12  13
ENDBRANCH   5   7
ENDBRANCH   2   3
ENDBRANCH   1   2
BRANCH   1  72
ATOM     72  C   UNL A   1      31.669  30.668  26.292  1.00  0.00     0.117 C 
BRANCH  72  73
ATOM     73  N   UNL A   1      32.846  30.058  26.887  1.00  0.00    -0.356 N 
ATOM     74  C   UNL A   1      33.384  28.820  26.675  1.00  0.00     0.226 C 
ATOM     75  H   UNL A   1      33.327  30.620  27.537  1.00  0.00     0.163 HD
ATOM     76  O   UNL A   1      34.426  28.528  27.262  1.00  0.00    -0.274 OA
BRANCH  74  77
ATOM     77  C   UNL A   1      32.716  27.890  25.661  1.00  0.00     0.103 C 
ATOM     78  C   UNL A   1      31.585  27.104  26.247  1.00  0.00    -0.016 C 
ATOM     79  C   UNL A   1      33.700  26.791  25.235  1.00  0.00     0.042 C 
ATOM     80  C   UNL A   1      31.903  25.816  26.420  1.00  0.00    -0.011 C 
ATOM     81  C   UNL A   1      33.313  25.535  26.041  1.00  0.00     0.093 C 
BRANCH  81  82
ATOM     82  N   UNL A   1      33.437  24.359  25.198  1.00  0.00    -0.204 NA
ATOM     83  H   UNL A   1      33.359  24.695  24.238  1.00  0.00     0.142 HD
BRANCH  82  84
ATOM     84  S   UNL A   1      34.755  23.344  25.215  1.00  0.00     0.244 S 
ATOM     85  O   UNL A   1      35.632  23.713  24.131  1.00  0.00    -0.207 OA
ATOM     86  O   UNL A   1      35.243  23.313  26.579  1.00  0.00    -0.207 OA
BRANCH  84  87
ATOM     87  C   UNL A   1      34.119  21.741  24.863  1.00  0.00     0.121 A 
ATOM     88  C   UNL A   1      32.763  21.598  24.530  1.00  0.00     0.028 A 
ATOM     89  C   UNL A   1      34.959  20.637  24.898  1.00  0.00     0.181 A 
ATOM     90  C   UNL A   1      32.256  20.333  24.229  1.00  0.00     0.044 A 
ATOM     91  C   UNL A   1      34.446  19.379  24.601  1.00  0.00     0.195 A 
ATOM     92  F   UNL A   1      36.253  20.758  25.221  1.00  0.00    -0.202 F 
ATOM     93  C   UNL A   1      33.104  19.230  24.268  1.00  0.00     0.161 A 
ATOM     94  F   UNL A   1      35.246  18.303  24.637  1.00  0.00    -0.200 F 
ATOM     95  F   UNL A   1      32.610  18.020  23.976  1.00  0.00    -0.204 F 
ENDBRANCH  84  87
ENDBRANCH  82  84
ENDBRANCH  81  82
ENDBRANCH  74  77
ENDBRANCH  72  73
ENDBRANCH   1  72
TORSDOF 16
ENDMDL
MODEL 3
REMARK VINA RESULT:     -12.3      5.861     10.294
REMARK SMILES O=C(NCCCNC(=O)[C@@H]1C=C[C@@H](NS(=O)(=O)c2ccc(F)c(F)c2F)C1)c1ccc(-c2c3nc(c(-c4cc(S(=O)(=O)[O-])ccc4F)c4ccc([nH]4)c(-c4cc(S(=O)(=O)[O-])ccc4F)c4nc(c(-c5cc(S(=O)(=O)[O-])ccc5F)c5ccc2[nH]5)C=C4)C=C3)cc1
REMARK SMILES IDX 5 1 4 2 3 3 1 4 2 5 28 7 29 8 90 9 30 10 89 11 31 12 32 13
REMARK SMILES IDX 33 14 83 15 34 16 88 17 82 18 84 19 35 20 87 21 81 22 80 23
REMARK SMILES IDX 36 25 68 26 48 27 67 28 49 29 52 30 66 31 85 32 50 33 51 34
REMARK SMILES IDX 65 36 86 37 53 38 37 39 38 40 46 41 39 42 45 43 47 44 44 45
REMARK SMILES IDX 40 46 41 47 42 48 43 49 69 50 70 51 78 52 71 53 77 54 79 55
REMARK SMILES IDX 76 56 72 57 73 58 74 59 75 60 54 61 55 62 63 63 56 64 62 65
REMARK SMILES IDX 64 66 61 67 57 68 58 69 59 70 60 71 6 72 7 73 8 74 9 76
REMARK SMILES IDX 10 77 11 78 27 79 12 80 13 81 14 82 15 84 16 85 17 86 18 87
REMARK SMILES IDX 19 88 25 89 20 90 23 91 26 92 21 93 24 94 22 95
REMARK H PARENT 3 6 84 24 52 35 7 75 14 83
REMARK Flexibility Score: inf
ROOT
ATOM      1  C   UNL A   1      40.952  20.615  27.182  1.00  0.00     0.042 C 
ENDROOT
BRANCH   1   2
ATOM      2  C   UNL A   1      40.842  22.053  26.672  1.00  0.00     0.118 C 
BRANCH   2   3
ATOM      3  N   UNL A   1      39.535  22.353  26.103  1.00  0.00    -0.352 N 
ATOM      4  O   UNL A   1      37.575  23.400  25.812  1.00  0.00    -0.269 OA
ATOM      5  C   UNL A   1      38.718  23.444  26.262  1.00  0.00     0.251 C 
ATOM      6  H   UNL A   1      39.179  21.657  25.505  1.00  0.00     0.163 HD
BRANCH   5   7
ATOM      7  C   UNL A   1      39.185  24.657  26.973  1.00  0.00     0.039 A 
ATOM      8  C   UNL A   1      39.042  24.794  28.356  1.00  0.00     0.014 A 
ATOM      9  C   UNL A   1      39.835  25.655  26.240  1.00  0.00     0.014 A 
ATOM     10  C   UNL A   1      39.433  25.976  28.984  1.00  0.00     0.010 A 
ATOM     11  C   UNL A   1      40.289  26.811  26.882  1.00  0.00     0.010 A 
ATOM     12  C   UNL A   1      40.065  26.996  28.256  1.00  0.00    -0.014 A 
BRANCH  12  13
ATOM     13  C   UNL A   1      40.505  28.245  28.932  1.00  0.00     0.031 A 
ATOM     14  C   UNL A   1      41.964  28.489  29.207  1.00  0.00     0.074 A 
ATOM     15  C   UNL A   1      39.587  29.153  29.317  1.00  0.00     0.049 A 
ATOM     16  N   UNL A   1      42.533  29.476  29.852  1.00  0.00    -0.248 NA
ATOM     17  C   UNL A   1      42.904  27.481  28.699  1.00  0.00     0.031 C 
ATOM     18  C   UNL A   1      38.144  29.032  29.102  1.00  0.00     0.029 A 
ATOM     19  N   UNL A   1      39.728  30.349  29.974  1.00  0.00    -0.354 N 
ATOM     20  C   UNL A   1      43.897  29.202  29.844  1.00  0.00     0.074 A 
ATOM     21  C   UNL A   1      44.059  27.932  29.164  1.00  0.00     0.031 C 
ATOM     22  C   UNL A   1      37.534  30.115  29.608  1.00  0.00     0.029 A 
ATOM     23  C   UNL A   1      38.532  30.973  30.240  1.00  0.00     0.049 A 
ATOM     24  H   UNL A   1      40.601  30.723  30.232  1.00  0.00     0.167 HD
ATOM     25  C   UNL A   1      44.917  29.944  30.347  1.00  0.00     0.034 A 
ATOM     26  C   UNL A   1      38.260  32.090  30.941  1.00  0.00     0.034 A 
ATOM     27  C   UNL A   1      44.731  31.203  31.030  1.00  0.00     0.049 A 
ATOM     28  C   UNL A   1      39.397  32.867  31.550  1.00  0.00     0.074 A 
ATOM     29  C   UNL A   1      45.693  32.050  31.555  1.00  0.00     0.029 A 
ATOM     30  N   UNL A   1      43.501  31.792  31.301  1.00  0.00    -0.354 N 
ATOM     31  N   UNL A   1      40.683  32.604  31.522  1.00  0.00    -0.248 NA
ATOM     32  C   UNL A   1      39.047  34.093  32.279  1.00  0.00     0.031 C 
ATOM     33  C   UNL A   1      45.044  33.106  32.206  1.00  0.00     0.029 A 
ATOM     34  C   UNL A   1      43.679  32.969  32.013  1.00  0.00     0.049 A 
ATOM     35  H   UNL A   1      42.629  31.426  31.027  1.00  0.00     0.167 HD
ATOM     36  C   UNL A   1      41.298  33.650  32.203  1.00  0.00     0.074 A 
ATOM     37  C   UNL A   1      40.243  34.548  32.627  1.00  0.00     0.031 C 
ATOM     38  C   UNL A   1      42.619  33.855  32.442  1.00  0.00     0.034 A 
BRANCH  25  39
ATOM     39  C   UNL A   1      46.313  29.377  30.220  1.00  0.00     0.023 A 
ATOM     40  C   UNL A   1      47.119  29.637  29.098  1.00  0.00     0.031 A 
ATOM     41  C   UNL A   1      46.829  28.524  31.212  1.00  0.00     0.131 A 
ATOM     42  C   UNL A   1      48.350  28.979  28.948  1.00  0.00     0.055 A 
ATOM     43  C   UNL A   1      48.095  27.945  31.102  1.00  0.00     0.041 A 
ATOM     44  F   UNL A   1      46.102  28.220  32.298  1.00  0.00    -0.206 F 
ATOM     45  C   UNL A   1      48.855  28.155  29.955  1.00  0.00     0.022 A 
BRANCH  42  46
ATOM     46  S   UNL A   1      49.191  29.075  27.344  1.00  0.00     0.124 S 
ATOM     47  O   UNL A   1      50.288  29.994  27.637  1.00  0.00    -0.237 OA
ATOM     48  O   UNL A   1      49.567  27.688  27.101  1.00  0.00    -0.237 OA
ATOM     49  O   UNL A   1      48.165  29.611  26.450  1.00  0.00    -0.744 OA
ENDBRANCH  42  46
ENDBRANCH  25  39
BRANCH  26  50
ATOM     50  C   UNL A   1      36.845  32.514  31.136  1.00  0.00     0.023 A 
ATOM     51  C   UNL A   1      36.100  33.071  30.086  1.00  0.00     0.031 A 
ATOM     52  C   UNL A   1      36.216  32.362  32.386  1.00  0.00     0.131 A 
ATOM     53  C   UNL A   1      34.777  33.480  30.311  1.00  0.00     0.055 A 
ATOM     54  C   UNL A   1      34.886  32.725  32.591  1.00  0.00     0.041 A 
ATOM     55  F   UNL A   1      36.885  31.828  33.421  1.00  0.00    -0.206 F 
ATOM     56  C   UNL A   1      34.159  33.297  31.551  1.00  0.00     0.022 A 
BRANCH  53  57
ATOM     57  S   UNL A   1      33.883  34.308  28.968  1.00  0.00     0.124 S 
ATOM     58  O   UNL A   1      33.620  33.199  28.058  1.00  0.00    -0.237 OA
ATOM     59  O   UNL A   1      32.723  34.854  29.666  1.00  0.00    -0.237 OA
ATOM     60  O   UNL A   1      34.840  35.300  28.483  1.00  0.00    -0.744 OA
ENDBRANCH  53  57
ENDBRANCH  26  50
BRANCH  38  61
ATOM     61  C   UNL A   1      43.005  35.134  33.144  1.00  0.00     0.023 A 
ATOM     62  C   UNL A   1      43.016  35.245  34.546  1.00  0.00     0.031 A 
ATOM     63  C   UNL A   1      43.376  36.262  32.389  1.00  0.00     0.131 A 
ATOM     64  C   UNL A   1      43.352  36.468  35.147  1.00  0.00     0.055 A 
ATOM     65  C   UNL A   1      43.762  37.458  32.993  1.00  0.00     0.041 A 
ATOM     66  F   UNL A   1      43.378  36.214  31.047  1.00  0.00    -0.206 F 
ATOM     67  C   UNL A   1      43.742  37.569  34.380  1.00  0.00     0.022 A 
BRANCH  64  68
ATOM     68  S   UNL A   1      43.205  36.628  36.949  1.00  0.00     0.124 S 
ATOM     69  O   UNL A   1      43.988  35.489  37.418  1.00  0.00    -0.237 OA
ATOM     70  O   UNL A   1      43.782  37.945  37.195  1.00  0.00    -0.237 OA
ATOM     71  O   UNL A   1      41.766  36.529  37.185  1.00  0.00    -0.744 OA
ENDBRANCH  64  68
ENDBRANCH  38  61
ENDBRANCH  12  13
ENDBRANCH   5   7
ENDBRANCH   2   3
ENDBRANCH   1   2
BRANCH   1  72
ATOM     72  C   UNL A   1      41.151  19.573  26.085  1.00  0.00     0.117 C 
BRANCH  72  73
ATOM     73  N   UNL A   1      42.238  18.654  26.379  1.00  0.00    -0.356 N 
ATOM     74  C   UNL A   1      43.496  18.599  25.849  1.00  0.00     0.226 C 
ATOM     75  H   UNL A   1      42.039  17.971  27.060  1.00  0.00     0.163 HD
ATOM     76  O   UNL A   1      44.277  17.753  26.285  1.00  0.00    -0.274 OA
BRANCH  74  77
ATOM     77  C   UNL A   1      43.900  19.638  24.801  1.00  0.00     0.103 C 
ATOM     78  C   UNL A   1      45.212  19.330  24.148  1.00  0.00    -0.016 C 
ATOM     79  C   UNL A   1      44.176  20.985  25.484  1.00  0.00     0.042 C 
ATOM     80  C   UNL A   1      46.184  20.149  24.563  1.00  0.00    -0.011 C 
ATOM     81  C   UNL A   1      45.709  21.098  25.604  1.00  0.00     0.093 C 
BRANCH  81  82
ATOM     82  N   UNL A   1      46.119  22.465  25.338  1.00  0.00    -0.204 NA
ATOM     83  H   UNL A   1      45.465  22.821  24.640  1.00  0.00     0.142 HD
BRANCH  82  84
ATOM     84  S   UNL A   1      46.220  23.645  26.506  1.00  0.00     0.244 S 
ATOM     85  O   UNL A   1      45.672  23.122  27.734  1.00  0.00    -0.207 OA
ATOM     86  O   UNL A   1      47.573  24.162  26.465  1.00  0.00    -0.207 OA
BRANCH  84  87
ATOM     87  C   UNL A   1      45.161  24.940  25.961  1.00  0.00     0.121 A 
ATOM     88  C   UNL A   1      43.938  24.617  25.351  1.00  0.00     0.028 A 
ATOM     89  C   UNL A   1      45.527  26.265  26.152  1.00  0.00     0.181 A 
ATOM     90  C   UNL A   1      43.084  25.638  24.934  1.00  0.00     0.044 A 
ATOM     91  C   UNL A   1      44.672  27.278  25.731  1.00  0.00     0.195 A 
ATOM     92  F   UNL A   1      46.693  26.588  26.726  1.00  0.00    -0.202 F 
ATOM     93  C   UNL A   1      43.458  26.964  25.128  1.00  0.00     0.161 A 
ATOM     94  F   UNL A   1      45.017  28.562  25.904  1.00  0.00    -0.200 F 
ATOM     95  F   UNL A   1      42.632  27.939  24.727  1.00  0.00    -0.204 F 
ENDBRANCH  84  87
ENDBRANCH  82  84
ENDBRANCH  81  82
ENDBRANCH  74  77
ENDBRANCH  72  73
ENDBRANCH   1  72
TORSDOF 16
ENDMDL
