MODEL 1
REMARK VINA RESULT:     -11.8      0.000      0.000
REMARK SMILES CCCOC(=O)c1c(NC(=O)[C@@H]2CC=CC[C@H]2C(=O)NCCCNC(=O)c2ccc(-c3c4nc(c(-c5cc(S(=O)(=O)[O-])ccc5F)c5ccc([nH]5)c(-c5cc(S(=O)(=O)[O-])ccc5F)c5nc(c(-c6cc(S(=O)(=O)[O-])ccc6F)c6ccc3[nH]6)C=C5)C=C4)cc2)sc2c1CCCC2
REMARK SMILES IDX 18 1 19 2 20 3 17 5 12 6 13 7 14 8 16 9 15 10 10 11 9 12
REMARK SMILES IDX 11 14 8 15 7 16 92 17 90 18 91 19 93 20 96 21 94 22 95 23
REMARK SMILES IDX 5 24 6 25 4 26 3 27 2 28 1 29 21 30 22 31 23 32 24 33 25 34
REMARK SMILES IDX 26 36 27 37 28 38 89 39 29 40 88 41 30 42 31 43 32 44 82 45
REMARK SMILES IDX 33 46 87 47 81 48 83 49 34 50 86 51 80 52 79 53 35 55 67 56
REMARK SMILES IDX 47 57 66 58 48 59 51 60 65 61 84 62 49 63 50 64 64 66 85 67
REMARK SMILES IDX 52 68 36 69 37 70 45 71 38 72 44 73 46 74 43 75 39 76 40 77
REMARK SMILES IDX 41 78 42 79 68 80 69 81 77 82 70 83 76 84 78 85 75 86 71 87
REMARK SMILES IDX 72 88 73 89 74 90 53 91 54 92 62 93 55 94 61 95 63 96 60 97
REMARK SMILES IDX 56 98 57 99 58 100 59 101
REMARK H PARENT 20 4 9 13 24 35 83 54 51 65
REMARK Flexibility Score: inf
ROOT
ATOM      1  C   UNL A   1      33.937  21.766  24.580  1.00  0.00     0.224 C 
ATOM      2  O   UNL A   1      33.289  20.723  24.685  1.00  0.00    -0.275 OA
ATOM      3  N   UNL A   1      35.224  21.721  24.141  1.00  0.00    -0.356 N 
ATOM      4  H   UNL A   1      35.582  20.804  24.142  1.00  0.00     0.163 HD
ENDROOT
BRANCH   1   5
ATOM      5  C   UNL A   1      33.192  22.992  24.960  1.00  0.00     0.095 C 
ATOM      6  C   UNL A   1      32.004  23.162  24.036  1.00  0.00     0.095 C 
ATOM      7  C   UNL A   1      30.812  23.798  24.795  1.00  0.00     0.041 C 
ATOM      8  C   UNL A   1      30.606  23.269  26.188  1.00  0.00    -0.030 C 
ATOM      9  C   UNL A   1      33.038  23.006  26.482  1.00  0.00     0.041 C 
ATOM     10  C   UNL A   1      31.636  22.915  26.965  1.00  0.00    -0.030 C 
BRANCH   6  11
ATOM     11  C   UNL A   1      32.427  24.029  22.858  1.00  0.00     0.229 C 
ATOM     12  N   UNL A   1      32.456  25.375  22.760  1.00  0.00    -0.317 N 
ATOM     13  H   UNL A   1      32.842  25.568  21.875  1.00  0.00     0.170 HD
ATOM     14  O   UNL A   1      32.873  23.462  21.844  1.00  0.00    -0.274 OA
BRANCH  12  15
ATOM     15  C   UNL A   1      32.193  26.607  23.329  1.00  0.00     0.110 A 
ATOM     16  C   UNL A   1      31.379  27.746  23.439  1.00  0.00     0.098 A 
ATOM     17  C   UNL A   1      31.808  28.567  24.586  1.00  0.00    -0.017 A 
ATOM     18  S   UNL A   1      33.570  26.768  24.405  1.00  0.00    -0.122 S 
ATOM     19  C   UNL A   1      32.892  28.047  25.247  1.00  0.00     0.011 A 
ATOM     20  C   UNL A   1      31.115  29.811  25.093  1.00  0.00     0.038 C 
ATOM     21  C   UNL A   1      33.480  28.564  26.524  1.00  0.00     0.047 C 
ATOM     22  C   UNL A   1      31.915  30.522  26.198  1.00  0.00     0.005 C 
ATOM     23  C   UNL A   1      32.495  29.523  27.206  1.00  0.00     0.006 C 
BRANCH  16  24
ATOM     24  C   UNL A   1      30.187  28.226  22.733  1.00  0.00     0.341 C 
ATOM     25  O   UNL A   1      29.056  27.876  23.101  1.00  0.00    -0.246 OA
BRANCH  24  26
ATOM     26  O   UNL A   1      30.356  29.268  21.861  1.00  0.00    -0.462 OA
BRANCH  26  27
ATOM     27  C   UNL A   1      29.186  30.114  21.657  1.00  0.00     0.233 C 
BRANCH  27  28
ATOM     28  C   UNL A   1      28.993  31.285  22.647  1.00  0.00     0.038 C 
ATOM     29  C   UNL A   1      27.748  31.217  23.539  1.00  0.00     0.007 C 
ENDBRANCH  27  28
ENDBRANCH  26  27
ENDBRANCH  24  26
ENDBRANCH  16  24
ENDBRANCH  12  15
ENDBRANCH   6  11
ENDBRANCH   1   5
BRANCH   3  30
ATOM     30  C   UNL A   1      36.203  22.689  23.672  1.00  0.00     0.117 C 
BRANCH  30  31
ATOM     31  C   UNL A   1      36.720  23.724  24.692  1.00  0.00     0.042 C 
BRANCH  31  32
ATOM     32  C   UNL A   1      37.328  23.314  26.043  1.00  0.00     0.118 C 
BRANCH  32  33
ATOM     33  N   UNL A   1      38.365  22.300  26.020  1.00  0.00    -0.352 N 
ATOM     34  C   UNL A   1      39.684  22.402  26.419  1.00  0.00     0.251 C 
ATOM     35  H   UNL A   1      38.092  21.420  25.673  1.00  0.00     0.163 HD
ATOM     36  O   UNL A   1      40.419  21.421  26.324  1.00  0.00    -0.269 OA
BRANCH  34  37
ATOM     37  C   UNL A   1      40.243  23.690  26.918  1.00  0.00     0.039 A 
ATOM     38  C   UNL A   1      40.168  24.817  26.092  1.00  0.00     0.014 A 
ATOM     39  C   UNL A   1      40.863  23.798  28.166  1.00  0.00     0.014 A 
ATOM     40  C   UNL A   1      40.630  26.059  26.548  1.00  0.00     0.010 A 
ATOM     41  C   UNL A   1      41.288  25.051  28.637  1.00  0.00     0.010 A 
ATOM     42  C   UNL A   1      41.158  26.201  27.843  1.00  0.00    -0.014 A 
BRANCH  42  43
ATOM     43  C   UNL A   1      41.523  27.551  28.368  1.00  0.00     0.031 A 
ATOM     44  C   UNL A   1      42.959  27.993  28.473  1.00  0.00     0.074 A 
ATOM     45  C   UNL A   1      40.547  28.385  28.785  1.00  0.00     0.049 A 
ATOM     46  N   UNL A   1      43.446  29.142  28.875  1.00  0.00    -0.248 NA
ATOM     47  C   UNL A   1      43.981  27.007  28.100  1.00  0.00     0.031 C 
ATOM     48  C   UNL A   1      39.118  28.069  28.800  1.00  0.00     0.029 A 
ATOM     49  N   UNL A   1      40.605  29.669  29.275  1.00  0.00    -0.354 N 
ATOM     50  C   UNL A   1      44.830  29.021  28.802  1.00  0.00     0.074 A 
ATOM     51  C   UNL A   1      45.100  27.661  28.377  1.00  0.00     0.031 C 
ATOM     52  C   UNL A   1      38.434  29.138  29.241  1.00  0.00     0.029 A 
ATOM     53  C   UNL A   1      39.373  30.207  29.568  1.00  0.00     0.049 A 
ATOM     54  H   UNL A   1      41.450  30.158  29.403  1.00  0.00     0.167 HD
ATOM     55  C   UNL A   1      45.786  29.958  29.040  1.00  0.00     0.034 A 
ATOM     56  C   UNL A   1      39.029  31.425  30.036  1.00  0.00     0.034 A 
ATOM     57  C   UNL A   1      45.512  31.312  29.463  1.00  0.00     0.049 A 
ATOM     58  C   UNL A   1      40.106  32.449  30.292  1.00  0.00     0.074 A 
ATOM     59  C   UNL A   1      46.408  32.346  29.681  1.00  0.00     0.029 A 
ATOM     60  N   UNL A   1      44.251  31.822  29.742  1.00  0.00    -0.354 N 
ATOM     61  N   UNL A   1      41.406  32.336  30.147  1.00  0.00    -0.248 NA
ATOM     62  C   UNL A   1      39.664  33.771  30.754  1.00  0.00     0.031 C 
ATOM     63  C   UNL A   1      45.696  33.460  30.146  1.00  0.00     0.029 A 
ATOM     64  C   UNL A   1      44.348  33.145  30.154  1.00  0.00     0.049 A 
ATOM     65  H   UNL A   1      43.409  31.318  29.660  1.00  0.00     0.167 HD
ATOM     66  C   UNL A   1      41.931  33.584  30.474  1.00  0.00     0.074 A 
ATOM     67  C   UNL A   1      40.808  34.436  30.802  1.00  0.00     0.031 C 
ATOM     68  C   UNL A   1      43.228  33.987  30.498  1.00  0.00     0.034 A 
BRANCH  55  69
ATOM     69  C   UNL A   1      47.226  29.532  28.861  1.00  0.00     0.023 A 
ATOM     70  C   UNL A   1      47.783  29.345  27.583  1.00  0.00     0.031 A 
ATOM     71  C   UNL A   1      48.047  29.287  29.976  1.00  0.00     0.131 A 
ATOM     72  C   UNL A   1      49.087  28.845  27.452  1.00  0.00     0.055 A 
ATOM     73  C   UNL A   1      49.373  28.870  29.838  1.00  0.00     0.041 A 
ATOM     74  F   UNL A   1      47.570  29.434  31.222  1.00  0.00    -0.206 F 
ATOM     75  C   UNL A   1      49.896  28.629  28.571  1.00  0.00     0.022 A 
BRANCH  72  76
ATOM     76  S   UNL A   1      49.657  28.338  25.807  1.00  0.00     0.124 S 
ATOM     77  O   UNL A   1      50.323  27.072  26.104  1.00  0.00    -0.237 OA
ATOM     78  O   UNL A   1      48.410  28.243  25.057  1.00  0.00    -0.237 OA
ATOM     79  O   UNL A   1      50.548  29.423  25.403  1.00  0.00    -0.744 OA
ENDBRANCH  72  76
ENDBRANCH  55  69
BRANCH  56  80
ATOM     80  C   UNL A   1      37.600  31.762  30.291  1.00  0.00     0.023 A 
ATOM     81  C   UNL A   1      36.819  32.393  29.309  1.00  0.00     0.031 A 
ATOM     82  C   UNL A   1      37.008  31.505  31.541  1.00  0.00     0.131 A 
ATOM     83  C   UNL A   1      35.508  32.793  29.608  1.00  0.00     0.055 A 
ATOM     84  C   UNL A   1      35.687  31.861  31.817  1.00  0.00     0.041 A 
ATOM     85  F   UNL A   1      37.709  30.897  32.510  1.00  0.00    -0.206 F 
ATOM     86  C   UNL A   1      34.933  32.521  30.852  1.00  0.00     0.022 A 
BRANCH  83  87
ATOM     87  S   UNL A   1      34.589  33.748  28.371  1.00  0.00     0.124 S 
ATOM     88  O   UNL A   1      35.628  34.050  27.394  1.00  0.00    -0.237 OA
ATOM     89  O   UNL A   1      33.568  32.794  27.949  1.00  0.00    -0.237 OA
ATOM     90  O   UNL A   1      34.091  34.896  29.129  1.00  0.00    -0.744 OA
ENDBRANCH  83  87
ENDBRANCH  56  80
BRANCH  68  91
ATOM     91  C   UNL A   1      43.485  35.432  30.860  1.00  0.00     0.023 A 
ATOM     92  C   UNL A   1      43.499  36.447  29.885  1.00  0.00     0.031 A 
ATOM     93  C   UNL A   1      43.759  35.791  32.190  1.00  0.00     0.131 A 
ATOM     94  C   UNL A   1      43.847  37.758  30.244  1.00  0.00     0.055 A 
ATOM     95  C   UNL A   1      44.047  37.109  32.552  1.00  0.00     0.041 A 
ATOM     96  F   UNL A   1      43.761  34.866  33.163  1.00  0.00    -0.206 F 
ATOM     97  C   UNL A   1      44.108  38.098  31.574  1.00  0.00     0.022 A 
BRANCH  94  98
ATOM     98  S   UNL A   1      44.059  38.994  28.933  1.00  0.00     0.124 S 
ATOM     99  O   UNL A   1      42.893  38.750  28.091  1.00  0.00    -0.237 OA
ATOM    100  O   UNL A   1      44.051  40.247  29.683  1.00  0.00    -0.237 OA
ATOM    101  O   UNL A   1      45.344  38.641  28.331  1.00  0.00    -0.744 OA
ENDBRANCH  94  98
ENDBRANCH  68  91
ENDBRANCH  42  43
ENDBRANCH  34  37
ENDBRANCH  32  33
ENDBRANCH  31  32
ENDBRANCH  30  31
ENDBRANCH   3  30
TORSDOF 19
ENDMDL
MODEL 2
REMARK VINA RESULT:     -11.8      5.500      8.707
REMARK SMILES CCCOC(=O)c1c(NC(=O)[C@@H]2CC=CC[C@H]2C(=O)NCCCNC(=O)c2ccc(-c3c4nc(c(-c5cc(S(=O)(=O)[O-])ccc5F)c5ccc([nH]5)c(-c5cc(S(=O)(=O)[O-])ccc5F)c5nc(c(-c6cc(S(=O)(=O)[O-])ccc6F)c6ccc3[nH]6)C=C5)C=C4)cc2)sc2c1CCCC2
REMARK SMILES IDX 18 1 19 2 20 3 17 5 12 6 13 7 14 8 16 9 15 10 10 11 9 12
REMARK SMILES IDX 11 14 8 15 7 16 92 17 90 18 91 19 93 20 96 21 94 22 95 23
REMARK SMILES IDX 5 24 6 25 4 26 3 27 2 28 1 29 21 30 22 31 23 32 24 33 25 34
REMARK SMILES IDX 26 36 27 37 28 38 89 39 29 40 88 41 30 42 31 43 32 44 82 45
REMARK SMILES IDX 33 46 87 47 81 48 83 49 34 50 86 51 80 52 79 53 35 55 67 56
REMARK SMILES IDX 47 57 66 58 48 59 51 60 65 61 84 62 49 63 50 64 64 66 85 67
REMARK SMILES IDX 52 68 36 69 37 70 45 71 38 72 44 73 46 74 43 75 39 76 40 77
REMARK SMILES IDX 41 78 42 79 68 80 69 81 77 82 70 83 76 84 78 85 75 86 71 87
REMARK SMILES IDX 72 88 73 89 74 90 53 91 54 92 62 93 55 94 61 95 63 96 60 97
REMARK SMILES IDX 56 98 57 99 58 100 59 101
REMARK H PARENT 20 4 9 13 24 35 83 54 51 65
REMARK Flexibility Score: inf
ROOT
ATOM      1  C   UNL A   1      32.810  28.034  26.134  1.00  0.00     0.224 C 
ATOM      2  O   UNL A   1      33.577  27.367  26.831  1.00  0.00    -0.275 OA
ATOM      3  N   UNL A   1      32.453  29.286  26.530  1.00  0.00    -0.356 N 
ATOM      4  H   UNL A   1      32.696  29.460  27.468  1.00  0.00     0.163 HD
ENDROOT
BRANCH   1   5
ATOM      5  C   UNL A   1      32.360  27.355  24.894  1.00  0.00     0.095 C 
ATOM      6  C   UNL A   1      30.869  27.103  24.974  1.00  0.00     0.095 C 
ATOM      7  C   UNL A   1      30.222  27.216  23.570  1.00  0.00     0.041 C 
ATOM      8  C   UNL A   1      30.745  28.351  22.732  1.00  0.00    -0.030 C 
ATOM      9  C   UNL A   1      32.994  28.072  23.700  1.00  0.00     0.041 C 
ATOM     10  C   UNL A   1      32.025  28.735  22.788  1.00  0.00    -0.030 C 
BRANCH   6  11
ATOM     11  C   UNL A   1      30.643  25.720  25.570  1.00  0.00     0.229 C 
ATOM     12  N   UNL A   1      31.430  24.625  25.500  1.00  0.00    -0.317 N 
ATOM     13  H   UNL A   1      30.986  23.944  26.055  1.00  0.00     0.170 HD
ATOM     14  O   UNL A   1      29.636  25.546  26.281  1.00  0.00    -0.274 OA
BRANCH  12  15
ATOM     15  C   UNL A   1      32.570  24.019  25.007  1.00  0.00     0.110 A 
ATOM     16  C   UNL A   1      33.266  23.419  23.946  1.00  0.00     0.098 A 
ATOM     17  C   UNL A   1      34.681  23.228  24.310  1.00  0.00    -0.017 A 
ATOM     18  S   UNL A   1      33.584  24.026  26.439  1.00  0.00    -0.122 S 
ATOM     19  C   UNL A   1      34.974  23.653  25.582  1.00  0.00     0.011 A 
ATOM     20  C   UNL A   1      35.769  22.713  23.395  1.00  0.00     0.038 C 
ATOM     21  C   UNL A   1      36.337  23.722  26.198  1.00  0.00     0.047 C 
ATOM     22  C   UNL A   1      37.096  22.474  24.136  1.00  0.00     0.005 C 
ATOM     23  C   UNL A   1      37.413  23.615  25.109  1.00  0.00     0.006 C 
BRANCH  16  24
ATOM     24  C   UNL A   1      32.913  23.038  22.574  1.00  0.00     0.341 C 
ATOM     25  O   UNL A   1      32.151  22.083  22.365  1.00  0.00    -0.246 OA
BRANCH  24  26
ATOM     26  O   UNL A   1      33.220  23.928  21.581  1.00  0.00    -0.462 OA
BRANCH  26  27
ATOM     27  C   UNL A   1      32.582  25.235  21.686  1.00  0.00     0.233 C 
BRANCH  27  28
ATOM     28  C   UNL A   1      32.413  26.035  20.375  1.00  0.00     0.038 C 
ATOM     29  C   UNL A   1      32.479  25.224  19.075  1.00  0.00     0.007 C 
ENDBRANCH  27  28
ENDBRANCH  26  27
ENDBRANCH  24  26
ENDBRANCH  16  24
ENDBRANCH  12  15
ENDBRANCH   6  11
ENDBRANCH   1   5
BRANCH   3  30
ATOM     30  C   UNL A   1      31.800  30.430  25.914  1.00  0.00     0.117 C 
BRANCH  30  31
ATOM     31  C   UNL A   1      31.582  31.679  26.793  1.00  0.00     0.042 C 
BRANCH  31  32
ATOM     32  C   UNL A   1      32.751  32.528  27.320  1.00  0.00     0.118 C 
BRANCH  32  33
ATOM     33  N   UNL A   1      32.460  33.904  27.673  1.00  0.00    -0.352 N 
ATOM     34  C   UNL A   1      33.124  34.727  28.563  1.00  0.00     0.251 C 
ATOM     35  H   UNL A   1      31.685  34.306  27.217  1.00  0.00     0.163 HD
ATOM     36  O   UNL A   1      32.725  35.878  28.729  1.00  0.00    -0.269 OA
BRANCH  34  37
ATOM     37  C   UNL A   1      34.283  34.232  29.357  1.00  0.00     0.039 A 
ATOM     38  C   UNL A   1      34.034  33.561  30.558  1.00  0.00     0.014 A 
ATOM     39  C   UNL A   1      35.605  34.443  28.954  1.00  0.00     0.014 A 
ATOM     40  C   UNL A   1      35.094  33.029  31.304  1.00  0.00     0.010 A 
ATOM     41  C   UNL A   1      36.664  33.875  29.680  1.00  0.00     0.010 A 
ATOM     42  C   UNL A   1      36.421  33.144  30.854  1.00  0.00    -0.014 A 
BRANCH  42  43
ATOM     43  C   UNL A   1      37.530  32.459  31.584  1.00  0.00     0.031 A 
ATOM     44  C   UNL A   1      38.273  31.298  30.976  1.00  0.00     0.074 A 
ATOM     45  C   UNL A   1      37.857  32.869  32.828  1.00  0.00     0.049 A 
ATOM     46  N   UNL A   1      39.281  30.614  31.461  1.00  0.00    -0.248 NA
ATOM     47  C   UNL A   1      37.807  30.831  29.665  1.00  0.00     0.031 C 
ATOM     48  C   UNL A   1      37.184  33.940  33.566  1.00  0.00     0.029 A 
ATOM     49  N   UNL A   1      38.837  32.440  33.692  1.00  0.00    -0.354 N 
ATOM     50  C   UNL A   1      39.574  29.637  30.515  1.00  0.00     0.074 A 
ATOM     51  C   UNL A   1      38.591  29.782  29.459  1.00  0.00     0.031 C 
ATOM     52  C   UNL A   1      37.789  34.105  34.754  1.00  0.00     0.029 A 
ATOM     53  C   UNL A   1      38.876  33.138  34.877  1.00  0.00     0.049 A 
ATOM     54  H   UNL A   1      39.453  31.702  33.482  1.00  0.00     0.167 HD
ATOM     55  C   UNL A   1      40.579  28.721  30.511  1.00  0.00     0.034 A 
ATOM     56  C   UNL A   1      39.696  33.024  35.942  1.00  0.00     0.034 A 
ATOM     57  C   UNL A   1      41.557  28.580  31.566  1.00  0.00     0.049 A 
ATOM     58  C   UNL A   1      40.806  32.004  35.915  1.00  0.00     0.074 A 
ATOM     59  C   UNL A   1      42.640  27.719  31.630  1.00  0.00     0.029 A 
ATOM     60  N   UNL A   1      41.568  29.310  32.747  1.00  0.00    -0.354 N 
ATOM     61  N   UNL A   1      41.109  31.137  34.978  1.00  0.00    -0.248 NA
ATOM     62  C   UNL A   1      41.695  31.963  37.084  1.00  0.00     0.031 C 
ATOM     63  C   UNL A   1      43.269  27.887  32.870  1.00  0.00     0.029 A 
ATOM     64  C   UNL A   1      42.622  28.902  33.555  1.00  0.00     0.049 A 
ATOM     65  H   UNL A   1      40.922  30.016  32.979  1.00  0.00     0.167 HD
ATOM     66  C   UNL A   1      42.243  30.469  35.435  1.00  0.00     0.074 A 
ATOM     67  C   UNL A   1      42.578  31.047  36.718  1.00  0.00     0.031 C 
ATOM     68  C   UNL A   1      42.944  29.467  34.843  1.00  0.00     0.034 A 
BRANCH  55  69
ATOM     69  C   UNL A   1      40.655  27.788  29.324  1.00  0.00     0.023 A 
ATOM     70  C   UNL A   1      41.604  27.974  28.303  1.00  0.00     0.031 A 
ATOM     71  C   UNL A   1      39.756  26.714  29.196  1.00  0.00     0.131 A 
ATOM     72  C   UNL A   1      41.577  27.157  27.163  1.00  0.00     0.055 A 
ATOM     73  C   UNL A   1      39.789  25.852  28.097  1.00  0.00     0.041 A 
ATOM     74  F   UNL A   1      38.818  26.492  30.130  1.00  0.00    -0.206 F 
ATOM     75  C   UNL A   1      40.692  26.081  27.063  1.00  0.00     0.022 A 
BRANCH  72  76
ATOM     76  S   UNL A   1      42.613  27.616  25.746  1.00  0.00     0.124 S 
ATOM     77  O   UNL A   1      42.214  29.005  25.528  1.00  0.00    -0.237 OA
ATOM     78  O   UNL A   1      43.961  27.413  26.263  1.00  0.00    -0.237 OA
ATOM     79  O   UNL A   1      42.197  26.684  24.701  1.00  0.00    -0.744 OA
ENDBRANCH  72  76
ENDBRANCH  55  69
BRANCH  56  80
ATOM     80  C   UNL A   1      39.517  33.904  37.132  1.00  0.00     0.023 A 
ATOM     81  C   UNL A   1      38.877  33.433  38.290  1.00  0.00     0.031 A 
ATOM     82  C   UNL A   1      39.935  35.246  37.109  1.00  0.00     0.131 A 
ATOM     83  C   UNL A   1      38.628  34.308  39.358  1.00  0.00     0.055 A 
ATOM     84  C   UNL A   1      39.729  36.101  38.193  1.00  0.00     0.041 A 
ATOM     85  F   UNL A   1      40.558  35.744  36.029  1.00  0.00    -0.206 F 
ATOM     86  C   UNL A   1      39.060  35.637  39.322  1.00  0.00     0.022 A 
BRANCH  83  87
ATOM     87  S   UNL A   1      37.658  33.706  40.767  1.00  0.00     0.124 S 
ATOM     88  O   UNL A   1      36.507  33.105  40.102  1.00  0.00    -0.237 OA
ATOM     89  O   UNL A   1      38.589  32.779  41.401  1.00  0.00    -0.237 OA
ATOM     90  O   UNL A   1      37.375  34.921  41.529  1.00  0.00    -0.744 OA
ENDBRANCH  83  87
ENDBRANCH  56  80
BRANCH  68  91
ATOM     91  C   UNL A   1      44.167  28.967  35.574  1.00  0.00     0.023 A 
ATOM     92  C   UNL A   1      44.094  27.913  36.503  1.00  0.00     0.031 A 
ATOM     93  C   UNL A   1      45.416  29.578  35.368  1.00  0.00     0.131 A 
ATOM     94  C   UNL A   1      45.231  27.548  37.240  1.00  0.00     0.055 A 
ATOM     95  C   UNL A   1      46.558  29.172  36.061  1.00  0.00     0.041 A 
ATOM     96  F   UNL A   1      45.546  30.590  34.494  1.00  0.00    -0.206 F 
ATOM     97  C   UNL A   1      46.466  28.161  37.015  1.00  0.00     0.022 A 
BRANCH  94  98
ATOM     98  S   UNL A   1      45.053  26.331  38.574  1.00  0.00     0.124 S 
ATOM     99  O   UNL A   1      45.911  26.890  39.614  1.00  0.00    -0.237 OA
ATOM    100  O   UNL A   1      43.619  26.372  38.843  1.00  0.00    -0.237 OA
ATOM    101  O   UNL A   1      45.535  25.089  37.974  1.00  0.00    -0.744 OA
ENDBRANCH  94  98
ENDBRANCH  68  91
ENDBRANCH  42  43
ENDBRANCH  34  37
ENDBRANCH  32  33
ENDBRANCH  31  32
ENDBRANCH  30  31
ENDBRANCH   3  30
TORSDOF 19
ENDMDL
MODEL 3
REMARK VINA RESULT:     -11.8      2.122      2.687
REMARK SMILES CCCOC(=O)c1c(NC(=O)[C@@H]2CC=CC[C@H]2C(=O)NCCCNC(=O)c2ccc(-c3c4nc(c(-c5cc(S(=O)(=O)[O-])ccc5F)c5ccc([nH]5)c(-c5cc(S(=O)(=O)[O-])ccc5F)c5nc(c(-c6cc(S(=O)(=O)[O-])ccc6F)c6ccc3[nH]6)C=C5)C=C4)cc2)sc2c1CCCC2
REMARK SMILES IDX 18 1 19 2 20 3 17 5 12 6 13 7 14 8 16 9 15 10 10 11 9 12
REMARK SMILES IDX 11 14 8 15 7 16 92 17 90 18 91 19 93 20 96 21 94 22 95 23
REMARK SMILES IDX 5 24 6 25 4 26 3 27 2 28 1 29 21 30 22 31 23 32 24 33 25 34
REMARK SMILES IDX 26 36 27 37 28 38 89 39 29 40 88 41 30 42 31 43 32 44 82 45
REMARK SMILES IDX 33 46 87 47 81 48 83 49 34 50 86 51 80 52 79 53 35 55 67 56
REMARK SMILES IDX 47 57 66 58 48 59 51 60 65 61 84 62 49 63 50 64 64 66 85 67
REMARK SMILES IDX 52 68 36 69 37 70 45 71 38 72 44 73 46 74 43 75 39 76 40 77
REMARK SMILES IDX 41 78 42 79 68 80 69 81 77 82 70 83 76 84 78 85 75 86 71 87
REMARK SMILES IDX 72 88 73 89 74 90 53 91 54 92 62 93 55 94 61 95 63 96 60 97
REMARK SMILES IDX 56 98 57 99 58 100 59 101
REMARK H PARENT 20 4 9 13 24 35 83 54 51 65
REMARK Flexibility Score: inf
ROOT
ATOM      1  C   UNL A   1      33.355  22.228  27.229  1.00  0.00     0.224 C 
ATOM      2  O   UNL A   1      32.910  22.196  28.377  1.00  0.00    -0.275 OA
ATOM      3  N   UNL A   1      34.573  22.786  26.990  1.00  0.00    -0.356 N 
ATOM      4  H   UNL A   1      34.898  23.306  27.761  1.00  0.00     0.163 HD
ENDROOT
BRANCH   1   5
ATOM      5  C   UNL A   1      32.466  21.619  26.209  1.00  0.00     0.095 C 
ATOM      6  C   UNL A   1      32.044  22.681  25.214  1.00  0.00     0.095 C 
ATOM      7  C   UNL A   1      31.888  22.068  23.799  1.00  0.00     0.041 C 
ATOM      8  C   UNL A   1      32.955  21.077  23.427  1.00  0.00    -0.030 C 
ATOM      9  C   UNL A   1      33.089  20.296  25.759  1.00  0.00     0.041 C 
ATOM     10  C   UNL A   1      33.499  20.255  24.332  1.00  0.00    -0.030 C 
BRANCH   6  11
ATOM     11  C   UNL A   1      30.737  23.299  25.690  1.00  0.00     0.229 C 
ATOM     12  N   UNL A   1      30.345  24.590  25.657  1.00  0.00    -0.317 N 
ATOM     13  H   UNL A   1      29.421  24.595  25.995  1.00  0.00     0.170 HD
ATOM     14  O   UNL A   1      29.853  22.537  26.123  1.00  0.00    -0.274 OA
BRANCH  12  15
ATOM     15  C   UNL A   1      30.643  25.909  25.368  1.00  0.00     0.110 A 
ATOM     16  C   UNL A   1      30.455  27.052  24.575  1.00  0.00     0.098 A 
ATOM     17  C   UNL A   1      31.114  28.215  25.195  1.00  0.00    -0.017 A 
ATOM     18  S   UNL A   1      31.830  26.253  26.614  1.00  0.00    -0.122 S 
ATOM     19  C   UNL A   1      31.761  27.908  26.366  1.00  0.00     0.011 A 
ATOM     20  C   UNL A   1      31.045  29.641  24.699  1.00  0.00     0.038 C 
ATOM     21  C   UNL A   1      32.405  28.884  27.301  1.00  0.00     0.047 C 
ATOM     22  C   UNL A   1      31.982  30.581  25.477  1.00  0.00     0.005 C 
ATOM     23  C   UNL A   1      31.930  30.309  26.984  1.00  0.00     0.006 C 
BRANCH  16  24
ATOM     24  C   UNL A   1      29.697  27.336  23.352  1.00  0.00     0.341 C 
ATOM     25  O   UNL A   1      30.288  27.551  22.284  1.00  0.00    -0.246 OA
BRANCH  24  26
ATOM     26  O   UNL A   1      28.352  27.080  23.378  1.00  0.00    -0.462 OA
BRANCH  26  27
ATOM     27  C   UNL A   1      27.491  28.251  23.497  1.00  0.00     0.233 C 
BRANCH  27  28
ATOM     28  C   UNL A   1      27.933  29.521  22.737  1.00  0.00     0.038 C 
ATOM     29  C   UNL A   1      27.695  30.855  23.455  1.00  0.00     0.007 C 
ENDBRANCH  27  28
ENDBRANCH  26  27
ENDBRANCH  24  26
ENDBRANCH  16  24
ENDBRANCH  12  15
ENDBRANCH   6  11
ENDBRANCH   1   5
BRANCH   3  30
ATOM     30  C   UNL A   1      35.514  22.808  25.881  1.00  0.00     0.117 C 
BRANCH  30  31
ATOM     31  C   UNL A   1      36.402  21.564  25.681  1.00  0.00     0.042 C 
BRANCH  31  32
ATOM     32  C   UNL A   1      37.834  21.656  25.130  1.00  0.00     0.118 C 
BRANCH  32  33
ATOM     33  N   UNL A   1      38.807  20.719  25.659  1.00  0.00    -0.352 N 
ATOM     34  C   UNL A   1      39.889  20.968  26.482  1.00  0.00     0.251 C 
ATOM     35  H   UNL A   1      38.680  19.779  25.395  1.00  0.00     0.163 HD
ATOM     36  O   UNL A   1      40.607  20.032  26.830  1.00  0.00    -0.269 OA
BRANCH  34  37
ATOM     37  C   UNL A   1      40.227  22.351  26.918  1.00  0.00     0.039 A 
ATOM     38  C   UNL A   1      41.134  22.519  27.970  1.00  0.00     0.014 A 
ATOM     39  C   UNL A   1      39.646  23.480  26.331  1.00  0.00     0.014 A 
ATOM     40  C   UNL A   1      41.521  23.805  28.371  1.00  0.00     0.010 A 
ATOM     41  C   UNL A   1      40.065  24.766  26.706  1.00  0.00     0.010 A 
ATOM     42  C   UNL A   1      41.023  24.945  27.716  1.00  0.00    -0.014 A 
BRANCH  42  43
ATOM     43  C   UNL A   1      41.543  26.303  28.060  1.00  0.00     0.031 A 
ATOM     44  C   UNL A   1      42.938  26.729  27.685  1.00  0.00     0.074 A 
ATOM     45  C   UNL A   1      40.758  27.159  28.747  1.00  0.00     0.049 A 
ATOM     46  N   UNL A   1      43.534  27.881  27.879  1.00  0.00    -0.248 NA
ATOM     47  C   UNL A   1      43.781  25.721  27.030  1.00  0.00     0.031 C 
ATOM     48  C   UNL A   1      39.408  26.861  29.230  1.00  0.00     0.029 A 
ATOM     49  N   UNL A   1      40.976  28.453  29.158  1.00  0.00    -0.354 N 
ATOM     50  C   UNL A   1      44.820  27.741  27.366  1.00  0.00     0.074 A 
ATOM     51  C   UNL A   1      44.933  26.368  26.914  1.00  0.00     0.031 C 
ATOM     52  C   UNL A   1      38.907  27.948  29.839  1.00  0.00     0.029 A 
ATOM     53  C   UNL A   1      39.906  29.014  29.818  1.00  0.00     0.049 A 
ATOM     54  H   UNL A   1      41.819  28.934  28.995  1.00  0.00     0.167 HD
ATOM     55  C   UNL A   1      45.806  28.671  27.260  1.00  0.00     0.034 A 
ATOM     56  C   UNL A   1      39.737  30.246  30.339  1.00  0.00     0.034 A 
ATOM     57  C   UNL A   1      45.689  30.038  27.712  1.00  0.00     0.049 A 
ATOM     58  C   UNL A   1      40.843  31.262  30.207  1.00  0.00     0.074 A 
ATOM     59  C   UNL A   1      46.611  31.066  27.603  1.00  0.00     0.029 A 
ATOM     60  N   UNL A   1      44.587  30.570  28.369  1.00  0.00    -0.354 N 
ATOM     61  N   UNL A   1      42.026  31.130  29.655  1.00  0.00    -0.248 NA
ATOM     62  C   UNL A   1      40.579  32.601  30.752  1.00  0.00     0.031 C 
ATOM     63  C   UNL A   1      46.092  32.199  28.242  1.00  0.00     0.029 A 
ATOM     64  C   UNL A   1      44.817  31.901  28.692  1.00  0.00     0.049 A 
ATOM     65  H   UNL A   1      43.761  30.076  28.575  1.00  0.00     0.167 HD
ATOM     66  C   UNL A   1      42.634  32.378  29.762  1.00  0.00     0.074 A 
ATOM     67  C   UNL A   1      41.681  33.252  30.411  1.00  0.00     0.031 C 
ATOM     68  C   UNL A   1      43.871  32.766  29.357  1.00  0.00     0.034 A 
BRANCH  55  69
ATOM     69  C   UNL A   1      47.110  28.223  26.637  1.00  0.00     0.023 A 
ATOM     70  C   UNL A   1      47.299  28.232  25.244  1.00  0.00     0.031 A 
ATOM     71  C   UNL A   1      48.167  27.759  27.440  1.00  0.00     0.131 A 
ATOM     72  C   UNL A   1      48.478  27.708  24.693  1.00  0.00     0.055 A 
ATOM     73  C   UNL A   1      49.372  27.318  26.889  1.00  0.00     0.041 A 
ATOM     74  F   UNL A   1      48.042  27.714  28.776  1.00  0.00    -0.206 F 
ATOM     75  C   UNL A   1      49.527  27.273  25.506  1.00  0.00     0.022 A 
BRANCH  72  76
ATOM     76  S   UNL A   1      48.558  27.463  22.898  1.00  0.00     0.124 S 
ATOM     77  O   UNL A   1      48.516  26.006  22.798  1.00  0.00    -0.237 OA
ATOM     78  O   UNL A   1      47.372  28.170  22.430  1.00  0.00    -0.237 OA
ATOM     79  O   UNL A   1      49.835  28.069  22.526  1.00  0.00    -0.744 OA
ENDBRANCH  72  76
ENDBRANCH  55  69
BRANCH  56  80
ATOM     80  C   UNL A   1      38.468  30.607  31.032  1.00  0.00     0.023 A 
ATOM     81  C   UNL A   1      37.447  31.297  30.359  1.00  0.00     0.031 A 
ATOM     82  C   UNL A   1      38.278  30.313  32.394  1.00  0.00     0.131 A 
ATOM     83  C   UNL A   1      36.305  31.716  31.059  1.00  0.00     0.055 A 
ATOM     84  C   UNL A   1      37.119  30.689  33.075  1.00  0.00     0.041 A 
ATOM     85  F   UNL A   1      39.220  29.648  33.082  1.00  0.00    -0.206 F 
ATOM     86  C   UNL A   1      36.130  31.407  32.410  1.00  0.00     0.022 A 
BRANCH  83  87
ATOM     87  S   UNL A   1      35.086  32.744  30.195  1.00  0.00     0.124 S 
ATOM     88  O   UNL A   1      34.149  33.061  31.267  1.00  0.00    -0.237 OA
ATOM     89  O   UNL A   1      35.909  33.848  29.713  1.00  0.00    -0.237 OA
ATOM     90  O   UNL A   1      34.568  31.855  29.155  1.00  0.00    -0.744 OA
ENDBRANCH  83  87
ENDBRANCH  56  80
BRANCH  68  91
ATOM     91  C   UNL A   1      44.238  34.215  29.577  1.00  0.00     0.023 A 
ATOM     92  C   UNL A   1      44.855  34.649  30.765  1.00  0.00     0.031 A 
ATOM     93  C   UNL A   1      43.930  35.180  28.603  1.00  0.00     0.131 A 
ATOM     94  C   UNL A   1      45.083  36.017  30.977  1.00  0.00     0.055 A 
ATOM     95  C   UNL A   1      44.212  36.534  28.794  1.00  0.00     0.041 A 
ATOM     96  F   UNL A   1      43.339  34.825  27.451  1.00  0.00    -0.206 F 
ATOM     97  C   UNL A   1      44.778  36.962  29.992  1.00  0.00     0.022 A 
BRANCH  94  98
ATOM     98  S   UNL A   1      45.686  36.561  32.599  1.00  0.00     0.124 S 
ATOM     99  O   UNL A   1      45.387  35.406  33.439  1.00  0.00    -0.237 OA
ATOM    100  O   UNL A   1      47.101  36.808  32.338  1.00  0.00    -0.237 OA
ATOM    101  O   UNL A   1      44.890  37.754  32.880  1.00  0.00    -0.744 OA
ENDBRANCH  94  98
ENDBRANCH  68  91
ENDBRANCH  42  43
ENDBRANCH  34  37
ENDBRANCH  32  33
ENDBRANCH  31  32
ENDBRANCH  30  31
ENDBRANCH   3  30
TORSDOF 19
ENDMDL
