MODEL 1
REMARK VINA RESULT:     -10.6      0.000      0.000
REMARK SMILES COc1cccc(-c2ccc(=O)n(CC(=O)N[C@@H](C(=O)NCCCNC(=O)c3ccc(-c4c5nc(c(-c6cc(S(=O)(=O)[O-])ccc6F)c6ccc([nH]6)c(-c6cc(S(=O)(=O)[O-])ccc6F)c6nc(c(-c7cc(S(=O)(=O)[O-])ccc7F)c7ccc4[nH]7)C=C6)C=C5)cc3)C(C)C)n2)c1
REMARK SMILES IDX 22 1 21 2 19 3 20 4 18 6 17 7 15 8 16 9 14 11 13 12 8 13
REMARK SMILES IDX 9 14 94 15 10 16 11 17 12 18 7 19 3 20 4 21 95 22 5 23 6 24
REMARK SMILES IDX 2 25 1 26 91 27 92 28 93 29 23 30 24 31 25 32 26 33 27 35
REMARK SMILES IDX 28 36 29 37 90 38 30 39 89 40 31 41 32 42 33 43 83 44 34 45
REMARK SMILES IDX 88 46 82 47 84 48 35 49 87 50 81 51 80 52 36 54 68 55 48 56
REMARK SMILES IDX 67 57 49 58 52 59 66 60 85 61 50 62 51 63 65 65 86 66 53 67
REMARK SMILES IDX 37 68 38 69 46 70 39 71 45 72 47 73 44 74 40 75 41 76 42 77
REMARK SMILES IDX 43 78 69 79 70 80 78 81 71 82 77 83 79 84 76 85 72 86 73 87
REMARK SMILES IDX 74 88 75 89 54 90 55 91 63 92 56 93 62 94 64 95 61 96 57 97
REMARK SMILES IDX 58 98 59 99 60 100
REMARK H PARENT 21 5 17 10 25 34 84 53 52 64
REMARK Flexibility Score: inf
ROOT
ATOM      1  C   UNL A   1      34.036  29.055  26.903  1.00  0.00     0.117 C 
ENDROOT
BRANCH   1   2
ATOM      2  N   UNL A   1      32.775  28.867  27.572  1.00  0.00    -0.354 N 
ATOM      3  C   UNL A   1      31.784  27.982  27.242  1.00  0.00     0.242 C 
ATOM      4  O   UNL A   1      30.875  27.838  28.063  1.00  0.00    -0.273 OA
ATOM      5  H   UNL A   1      32.606  29.440  28.354  1.00  0.00     0.163 HD
BRANCH   3   6
ATOM      6  C   UNL A   1      31.881  27.146  25.922  1.00  0.00     0.173 C 
BRANCH   6   7
ATOM      7  N   UNL A   1      31.439  27.991  24.805  1.00  0.00    -0.342 N 
ATOM      8  C   UNL A   1      32.000  28.254  23.587  1.00  0.00     0.242 C 
ATOM      9  O   UNL A   1      31.336  28.964  22.824  1.00  0.00    -0.273 OA
ATOM     10  H   UNL A   1      30.582  28.451  24.962  1.00  0.00     0.164 HD
BRANCH   8  11
ATOM     11  C   UNL A   1      33.324  27.627  23.119  1.00  0.00     0.248 C 
BRANCH  11  12
ATOM     12  N   UNL A   1      33.262  26.206  22.787  1.00  0.00    -0.220 N 
ATOM     13  C   UNL A   1      33.916  24.089  23.335  1.00  0.00     0.091 A 
ATOM     14  C   UNL A   1      33.312  23.500  22.128  1.00  0.00     0.036 A 
ATOM     15  N   UNL A   1      33.904  25.343  23.649  1.00  0.00    -0.169 NA
ATOM     16  C   UNL A   1      32.620  24.340  21.355  1.00  0.00     0.075 A 
ATOM     17  C   UNL A   1      32.522  25.783  21.687  1.00  0.00     0.267 A 
ATOM     18  O   UNL A   1      31.862  26.517  20.960  1.00  0.00    -0.268 OA
BRANCH  13  19
ATOM     19  C   UNL A   1      34.547  23.143  24.265  1.00  0.00     0.006 A 
ATOM     20  C   UNL A   1      36.479  22.584  25.588  1.00  0.00     0.119 A 
ATOM     21  C   UNL A   1      35.886  21.352  25.887  1.00  0.00     0.046 A 
ATOM     22  C   UNL A   1      35.809  23.478  24.760  1.00  0.00     0.056 A 
ATOM     23  C   UNL A   1      34.623  21.023  25.384  1.00  0.00     0.005 A 
ATOM     24  C   UNL A   1      33.943  21.921  24.564  1.00  0.00     0.011 A 
BRANCH  20  25
ATOM     25  O   UNL A   1      37.718  22.789  26.131  1.00  0.00    -0.497 OA
ATOM     26  C   UNL A   1      38.133  24.147  26.241  1.00  0.00     0.278 C 
ENDBRANCH  20  25
ENDBRANCH  13  19
ENDBRANCH  11  12
ENDBRANCH   8  11
ENDBRANCH   6   7
BRANCH   6  27
ATOM     27  C   UNL A   1      31.034  25.849  26.048  1.00  0.00     0.015 C 
ATOM     28  C   UNL A   1      30.361  25.418  24.743  1.00  0.00     0.010 C 
ATOM     29  C   UNL A   1      31.905  24.691  26.558  1.00  0.00     0.010 C 
ENDBRANCH   6  27
ENDBRANCH   3   6
ENDBRANCH   1   2
BRANCH   1  30
ATOM     30  C   UNL A   1      35.083  29.751  27.751  1.00  0.00     0.042 C 
BRANCH  30  31
ATOM     31  C   UNL A   1      34.952  31.263  27.706  1.00  0.00     0.118 C 
BRANCH  31  32
ATOM     32  N   UNL A   1      34.706  31.840  29.028  1.00  0.00    -0.352 N 
ATOM     33  C   UNL A   1      35.396  31.677  30.206  1.00  0.00     0.251 C 
ATOM     34  H   UNL A   1      33.926  32.438  29.082  1.00  0.00     0.163 HD
ATOM     35  O   UNL A   1      34.899  32.088  31.248  1.00  0.00    -0.269 OA
BRANCH  33  36
ATOM     36  C   UNL A   1      36.707  30.989  30.202  1.00  0.00     0.039 A 
ATOM     37  C   UNL A   1      37.784  31.570  29.528  1.00  0.00     0.014 A 
ATOM     38  C   UNL A   1      36.878  29.785  30.886  1.00  0.00     0.014 A 
ATOM     39  C   UNL A   1      39.050  30.984  29.617  1.00  0.00     0.010 A 
ATOM     40  C   UNL A   1      38.155  29.269  31.068  1.00  0.00     0.010 A 
ATOM     41  C   UNL A   1      39.256  29.858  30.431  1.00  0.00    -0.014 A 
BRANCH  41  42
ATOM     42  C   UNL A   1      40.603  29.261  30.628  1.00  0.00     0.031 A 
ATOM     43  C   UNL A   1      41.539  29.853  31.649  1.00  0.00     0.074 A 
ATOM     44  C   UNL A   1      41.018  28.259  29.828  1.00  0.00     0.049 A 
ATOM     45  N   UNL A   1      42.796  29.579  31.883  1.00  0.00    -0.248 NA
ATOM     46  C   UNL A   1      40.997  30.935  32.487  1.00  0.00     0.031 C 
ATOM     47  C   UNL A   1      40.223  27.640  28.764  1.00  0.00     0.029 A 
ATOM     48  N   UNL A   1      42.215  27.592  29.775  1.00  0.00    -0.354 N 
ATOM     49  C   UNL A   1      43.203  30.472  32.869  1.00  0.00     0.074 A 
ATOM     50  C   UNL A   1      42.078  31.344  33.132  1.00  0.00     0.031 C 
ATOM     51  C   UNL A   1      40.942  26.665  28.187  1.00  0.00     0.029 A 
ATOM     52  C   UNL A   1      42.265  26.621  28.802  1.00  0.00     0.049 A 
ATOM     53  H   UNL A   1      42.969  27.790  30.377  1.00  0.00     0.167 HD
ATOM     54  C   UNL A   1      44.392  30.540  33.517  1.00  0.00     0.034 A 
ATOM     55  C   UNL A   1      43.268  25.797  28.437  1.00  0.00     0.034 A 
ATOM     56  C   UNL A   1      45.491  29.642  33.259  1.00  0.00     0.049 A 
ATOM     57  C   UNL A   1      44.582  25.888  29.170  1.00  0.00     0.074 A 
ATOM     58  C   UNL A   1      46.717  29.572  33.896  1.00  0.00     0.029 A 
ATOM     59  N   UNL A   1      45.496  28.654  32.281  1.00  0.00    -0.354 N 
ATOM     60  N   UNL A   1      44.936  26.705  30.136  1.00  0.00    -0.248 NA
ATOM     61  C   UNL A   1      45.627  24.938  28.770  1.00  0.00     0.031 C 
ATOM     62  C   UNL A   1      47.485  28.588  33.264  1.00  0.00     0.029 A 
ATOM     63  C   UNL A   1      46.712  27.988  32.282  1.00  0.00     0.049 A 
ATOM     64  H   UNL A   1      44.746  28.456  31.676  1.00  0.00     0.167 HD
ATOM     65  C   UNL A   1      46.235  26.345  30.479  1.00  0.00     0.074 A 
ATOM     66  C   UNL A   1      46.596  25.230  29.626  1.00  0.00     0.031 C 
ATOM     67  C   UNL A   1      47.058  26.884  31.417  1.00  0.00     0.034 A 
BRANCH  54  68
ATOM     68  C   UNL A   1      44.559  31.634  34.547  1.00  0.00     0.023 A 
ATOM     69  C   UNL A   1      44.051  31.503  35.852  1.00  0.00     0.031 A 
ATOM     70  C   UNL A   1      45.189  32.845  34.209  1.00  0.00     0.131 A 
ATOM     71  C   UNL A   1      44.092  32.592  36.736  1.00  0.00     0.055 A 
ATOM     72  C   UNL A   1      45.312  33.892  35.126  1.00  0.00     0.041 A 
ATOM     73  F   UNL A   1      45.678  33.041  32.975  1.00  0.00    -0.206 F 
ATOM     74  C   UNL A   1      44.744  33.777  36.392  1.00  0.00     0.022 A 
BRANCH  71  75
ATOM     75  S   UNL A   1      43.134  32.493  38.272  1.00  0.00     0.124 S 
ATOM     76  O   UNL A   1      42.106  33.506  38.045  1.00  0.00    -0.237 OA
ATOM     77  O   UNL A   1      42.676  31.108  38.271  1.00  0.00    -0.237 OA
ATOM     78  O   UNL A   1      44.109  32.828  39.308  1.00  0.00    -0.744 OA
ENDBRANCH  71  75
ENDBRANCH  54  68
BRANCH  55  79
ATOM     79  C   UNL A   1      43.075  24.815  27.333  1.00  0.00     0.023 A 
ATOM     80  C   UNL A   1      42.330  23.642  27.536  1.00  0.00     0.031 A 
ATOM     81  C   UNL A   1      43.656  25.017  26.068  1.00  0.00     0.131 A 
ATOM     82  C   UNL A   1      42.220  22.695  26.506  1.00  0.00     0.055 A 
ATOM     83  C   UNL A   1      43.500  24.096  25.030  1.00  0.00     0.041 A 
ATOM     84  F   UNL A   1      44.373  26.124  25.820  1.00  0.00    -0.206 F 
ATOM     85  C   UNL A   1      42.788  22.921  25.250  1.00  0.00     0.022 A 
BRANCH  82  86
ATOM     86  S   UNL A   1      41.383  21.125  26.857  1.00  0.00     0.124 S 
ATOM     87  O   UNL A   1      40.408  21.059  25.774  1.00  0.00    -0.237 OA
ATOM     88  O   UNL A   1      42.486  20.172  26.787  1.00  0.00    -0.237 OA
ATOM     89  O   UNL A   1      40.823  21.328  28.191  1.00  0.00    -0.744 OA
ENDBRANCH  82  86
ENDBRANCH  55  79
BRANCH  67  90
ATOM     90  C   UNL A   1      48.407  26.235  31.596  1.00  0.00     0.023 A 
ATOM     91  C   UNL A   1      48.601  25.162  32.484  1.00  0.00     0.031 A 
ATOM     92  C   UNL A   1      49.517  26.706  30.875  1.00  0.00     0.131 A 
ATOM     93  C   UNL A   1      49.887  24.632  32.668  1.00  0.00     0.055 A 
ATOM     94  C   UNL A   1      50.782  26.135  31.017  1.00  0.00     0.041 A 
ATOM     95  F   UNL A   1      49.389  27.730  30.015  1.00  0.00    -0.206 F 
ATOM     96  C   UNL A   1      50.976  25.101  31.927  1.00  0.00     0.022 A 
BRANCH  93  97
ATOM     97  S   UNL A   1      50.138  23.381  33.957  1.00  0.00     0.124 S 
ATOM     98  O   UNL A   1      51.302  23.905  34.665  1.00  0.00    -0.237 OA
ATOM     99  O   UNL A   1      48.875  23.428  34.686  1.00  0.00    -0.237 OA
ATOM    100  O   UNL A   1      50.372  22.152  33.202  1.00  0.00    -0.744 OA
ENDBRANCH  93  97
ENDBRANCH  67  90
ENDBRANCH  41  42
ENDBRANCH  33  36
ENDBRANCH  31  32
ENDBRANCH  30  31
ENDBRANCH   1  30
TORSDOF 19
ENDMDL
MODEL 2
REMARK VINA RESULT:     -10.5      5.439     14.033
REMARK SMILES COc1cccc(-c2ccc(=O)n(CC(=O)N[C@@H](C(=O)NCCCNC(=O)c3ccc(-c4c5nc(c(-c6cc(S(=O)(=O)[O-])ccc6F)c6ccc([nH]6)c(-c6cc(S(=O)(=O)[O-])ccc6F)c6nc(c(-c7cc(S(=O)(=O)[O-])ccc7F)c7ccc4[nH]7)C=C6)C=C5)cc3)C(C)C)n2)c1
REMARK SMILES IDX 22 1 21 2 19 3 20 4 18 6 17 7 15 8 16 9 14 11 13 12 8 13
REMARK SMILES IDX 9 14 94 15 10 16 11 17 12 18 7 19 3 20 4 21 95 22 5 23 6 24
REMARK SMILES IDX 2 25 1 26 91 27 92 28 93 29 23 30 24 31 25 32 26 33 27 35
REMARK SMILES IDX 28 36 29 37 90 38 30 39 89 40 31 41 32 42 33 43 83 44 34 45
REMARK SMILES IDX 88 46 82 47 84 48 35 49 87 50 81 51 80 52 36 54 68 55 48 56
REMARK SMILES IDX 67 57 49 58 52 59 66 60 85 61 50 62 51 63 65 65 86 66 53 67
REMARK SMILES IDX 37 68 38 69 46 70 39 71 45 72 47 73 44 74 40 75 41 76 42 77
REMARK SMILES IDX 43 78 69 79 70 80 78 81 71 82 77 83 79 84 76 85 72 86 73 87
REMARK SMILES IDX 74 88 75 89 54 90 55 91 63 92 56 93 62 94 64 95 61 96 57 97
REMARK SMILES IDX 58 98 59 99 60 100
REMARK H PARENT 21 5 17 10 25 34 84 53 52 64
REMARK Flexibility Score: inf
ROOT
ATOM      1  C   UNL A   1      49.992  23.940  34.534  1.00  0.00     0.117 C 
ENDROOT
BRANCH   1   2
ATOM      2  N   UNL A   1      50.706  23.018  33.690  1.00  0.00    -0.354 N 
ATOM      3  C   UNL A   1      50.587  21.655  33.663  1.00  0.00     0.242 C 
ATOM      4  O   UNL A   1      51.138  21.070  32.727  1.00  0.00    -0.273 OA
ATOM      5  H   UNL A   1      51.354  23.413  33.063  1.00  0.00     0.163 HD
BRANCH   3   6
ATOM      6  C   UNL A   1      49.711  20.918  34.731  1.00  0.00     0.173 C 
BRANCH   6   7
ATOM      7  N   UNL A   1      50.435  19.719  35.175  1.00  0.00    -0.342 N 
ATOM      8  C   UNL A   1      50.981  19.382  36.382  1.00  0.00     0.242 C 
ATOM      9  O   UNL A   1      51.470  18.250  36.461  1.00  0.00    -0.273 OA
ATOM     10  H   UNL A   1      50.545  19.033  34.477  1.00  0.00     0.164 HD
BRANCH   8  11
ATOM     11  C   UNL A   1      50.907  20.290  37.620  1.00  0.00     0.248 C 
BRANCH  11  12
ATOM     12  N   UNL A   1      49.575  20.455  38.198  1.00  0.00    -0.220 N 
ATOM     13  C   UNL A   1      47.801  19.445  39.221  1.00  0.00     0.091 A 
ATOM     14  C   UNL A   1      46.976  20.665  39.179  1.00  0.00     0.036 A 
ATOM     15  N   UNL A   1      49.006  19.335  38.764  1.00  0.00    -0.169 NA
ATOM     16  C   UNL A   1      47.578  21.759  38.707  1.00  0.00     0.075 A 
ATOM     17  C   UNL A   1      48.978  21.712  38.217  1.00  0.00     0.267 A 
ATOM     18  O   UNL A   1      49.500  22.743  37.808  1.00  0.00    -0.268 OA
BRANCH  13  19
ATOM     19  C   UNL A   1      47.193  18.281  39.877  1.00  0.00     0.006 A 
ATOM     20  C   UNL A   1      45.211  16.964  40.241  1.00  0.00     0.119 A 
ATOM     21  C   UNL A   1      45.914  16.213  41.189  1.00  0.00     0.046 A 
ATOM     22  C   UNL A   1      45.853  18.013  39.591  1.00  0.00     0.056 A 
ATOM     23  C   UNL A   1      47.255  16.491  41.472  1.00  0.00     0.005 A 
ATOM     24  C   UNL A   1      47.906  17.533  40.815  1.00  0.00     0.011 A 
BRANCH  20  25
ATOM     25  O   UNL A   1      43.904  16.604  40.054  1.00  0.00    -0.497 OA
ATOM     26  C   UNL A   1      43.610  15.929  38.836  1.00  0.00     0.278 C 
ENDBRANCH  20  25
ENDBRANCH  13  19
ENDBRANCH  11  12
ENDBRANCH   8  11
ENDBRANCH   6   7
BRANCH   6  27
ATOM     27  C   UNL A   1      48.318  20.575  34.136  1.00  0.00     0.015 C 
ATOM     28  C   UNL A   1      48.339  19.422  33.129  1.00  0.00     0.010 C 
ATOM     29  C   UNL A   1      47.329  20.228  35.259  1.00  0.00     0.010 C 
ENDBRANCH   6  27
ENDBRANCH   3   6
ENDBRANCH   1   2
BRANCH   1  30
ATOM     30  C   UNL A   1      48.677  24.418  33.947  1.00  0.00     0.042 C 
BRANCH  30  31
ATOM     31  C   UNL A   1      47.535  24.336  34.944  1.00  0.00     0.118 C 
BRANCH  31  32
ATOM     32  N   UNL A   1      47.836  25.035  36.193  1.00  0.00    -0.352 N 
ATOM     33  C   UNL A   1      47.371  26.238  36.668  1.00  0.00     0.251 C 
ATOM     34  H   UNL A   1      48.471  24.571  36.786  1.00  0.00     0.163 HD
ATOM     35  O   UNL A   1      47.910  26.741  37.646  1.00  0.00    -0.269 OA
BRANCH  33  36
ATOM     36  C   UNL A   1      46.250  26.917  35.978  1.00  0.00     0.039 A 
ATOM     37  C   UNL A   1      46.519  27.986  35.120  1.00  0.00     0.014 A 
ATOM     38  C   UNL A   1      44.937  26.481  36.159  1.00  0.00     0.014 A 
ATOM     39  C   UNL A   1      45.478  28.555  34.379  1.00  0.00     0.010 A 
ATOM     40  C   UNL A   1      43.927  26.969  35.340  1.00  0.00     0.010 A 
ATOM     41  C   UNL A   1      44.183  28.016  34.445  1.00  0.00    -0.014 A 
BRANCH  41  42
ATOM     42  C   UNL A   1      43.070  28.530  33.604  1.00  0.00     0.031 A 
ATOM     43  C   UNL A   1      42.089  29.514  34.184  1.00  0.00     0.074 A 
ATOM     44  C   UNL A   1      42.886  28.040  32.361  1.00  0.00     0.049 A 
ATOM     45  N   UNL A   1      40.976  29.977  33.675  1.00  0.00    -0.248 NA
ATOM     46  C   UNL A   1      42.375  30.003  35.542  1.00  0.00     0.031 C 
ATOM     47  C   UNL A   1      43.737  27.041  31.709  1.00  0.00     0.029 A 
ATOM     48  N   UNL A   1      41.917  28.307  31.428  1.00  0.00    -0.354 N 
ATOM     49  C   UNL A   1      40.417  30.786  34.660  1.00  0.00     0.074 A 
ATOM     50  C   UNL A   1      41.276  30.686  35.820  1.00  0.00     0.031 C 
ATOM     51  C   UNL A   1      43.271  26.804  30.474  1.00  0.00     0.029 A 
ATOM     52  C   UNL A   1      42.061  27.592  30.261  1.00  0.00     0.049 A 
ATOM     53  H   UNL A   1      41.186  28.949  31.579  1.00  0.00     0.167 HD
ATOM     54  C   UNL A   1      39.308  31.562  34.593  1.00  0.00     0.034 A 
ATOM     55  C   UNL A   1      41.298  27.566  29.150  1.00  0.00     0.034 A 
ATOM     56  C   UNL A   1      38.480  31.669  33.416  1.00  0.00     0.049 A 
ATOM     57  C   UNL A   1      40.069  28.437  29.095  1.00  0.00     0.074 A 
ATOM     58  C   UNL A   1      37.373  32.471  33.208  1.00  0.00     0.029 A 
ATOM     59  N   UNL A   1      38.672  30.948  32.244  1.00  0.00    -0.354 N 
ATOM     60  N   UNL A   1      39.580  29.236  30.016  1.00  0.00    -0.248 NA
ATOM     61  C   UNL A   1      39.297  28.411  27.847  1.00  0.00     0.031 C 
ATOM     62  C   UNL A   1      36.859  32.191  31.938  1.00  0.00     0.029 A 
ATOM     63  C   UNL A   1      37.689  31.269  31.320  1.00  0.00     0.049 A 
ATOM     64  H   UNL A   1      39.400  30.303  32.091  1.00  0.00     0.167 HD
ATOM     65  C   UNL A   1      38.459  29.830  29.445  1.00  0.00     0.074 A 
ATOM     66  C   UNL A   1      38.354  29.308  28.097  1.00  0.00     0.031 C 
ATOM     67  C   UNL A   1      37.594  30.730  29.983  1.00  0.00     0.034 A 
BRANCH  54  68
ATOM     68  C   UNL A   1      38.926  32.335  35.836  1.00  0.00     0.023 A 
ATOM     69  C   UNL A   1      39.299  33.680  36.013  1.00  0.00     0.031 A 
ATOM     70  C   UNL A   1      38.225  31.708  36.881  1.00  0.00     0.131 A 
ATOM     71  C   UNL A   1      39.058  34.322  37.237  1.00  0.00     0.055 A 
ATOM     72  C   UNL A   1      37.905  32.383  38.062  1.00  0.00     0.041 A 
ATOM     73  F   UNL A   1      37.858  30.421  36.783  1.00  0.00    -0.206 F 
ATOM     74  C   UNL A   1      38.339  33.691  38.253  1.00  0.00     0.022 A 
BRANCH  71  75
ATOM     75  S   UNL A   1      39.848  35.926  37.539  1.00  0.00     0.124 S 
ATOM     76  O   UNL A   1      39.757  36.552  36.223  1.00  0.00    -0.237 OA
ATOM     77  O   UNL A   1      39.005  36.502  38.581  1.00  0.00    -0.237 OA
ATOM     78  O   UNL A   1      41.202  35.569  37.958  1.00  0.00    -0.744 OA
ENDBRANCH  71  75
ENDBRANCH  54  68
BRANCH  55  79
ATOM     79  C   UNL A   1      41.668  26.694  28.000  1.00  0.00     0.023 A 
ATOM     80  C   UNL A   1      41.370  25.322  28.011  1.00  0.00     0.031 A 
ATOM     81  C   UNL A   1      42.353  27.210  26.885  1.00  0.00     0.131 A 
ATOM     82  C   UNL A   1      41.791  24.504  26.951  1.00  0.00     0.055 A 
ATOM     83  C   UNL A   1      42.725  26.402  25.809  1.00  0.00     0.041 A 
ATOM     84  F   UNL A   1      42.658  28.516  26.821  1.00  0.00    -0.206 F 
ATOM     85  C   UNL A   1      42.454  25.038  25.843  1.00  0.00     0.022 A 
BRANCH  82  86
ATOM     86  S   UNL A   1      41.524  22.715  27.077  1.00  0.00     0.124 S 
ATOM     87  O   UNL A   1      40.150  22.652  27.563  1.00  0.00    -0.237 OA
ATOM     88  O   UNL A   1      41.739  22.279  25.701  1.00  0.00    -0.237 OA
ATOM     89  O   UNL A   1      42.545  22.284  28.031  1.00  0.00    -0.744 OA
ENDBRANCH  82  86
ENDBRANCH  55  79
BRANCH  67  90
ATOM     90  C   UNL A   1      36.492  31.238  29.087  1.00  0.00     0.023 A 
ATOM     91  C   UNL A   1      35.459  30.399  28.634  1.00  0.00     0.031 A 
ATOM     92  C   UNL A   1      36.484  32.581  28.673  1.00  0.00     0.131 A 
ATOM     93  C   UNL A   1      34.492  30.899  27.749  1.00  0.00     0.055 A 
ATOM     94  C   UNL A   1      35.486  33.088  27.841  1.00  0.00     0.041 A 
ATOM     95  F   UNL A   1      37.449  33.426  29.074  1.00  0.00    -0.206 F 
ATOM     96  C   UNL A   1      34.489  32.242  27.363  1.00  0.00     0.022 A 
BRANCH  93  97
ATOM     97  S   UNL A   1      33.288  29.747  27.034  1.00  0.00     0.124 S 
ATOM     98  O   UNL A   1      33.580  28.514  27.758  1.00  0.00    -0.237 OA
ATOM     99  O   UNL A   1      32.016  30.388  27.353  1.00  0.00    -0.237 OA
ATOM    100  O   UNL A   1      33.632  29.729  25.613  1.00  0.00    -0.744 OA
ENDBRANCH  93  97
ENDBRANCH  67  90
ENDBRANCH  41  42
ENDBRANCH  33  36
ENDBRANCH  31  32
ENDBRANCH  30  31
ENDBRANCH   1  30
TORSDOF 19
ENDMDL
MODEL 3
REMARK VINA RESULT:     -10.1      1.650      7.508
REMARK SMILES COc1cccc(-c2ccc(=O)n(CC(=O)N[C@@H](C(=O)NCCCNC(=O)c3ccc(-c4c5nc(c(-c6cc(S(=O)(=O)[O-])ccc6F)c6ccc([nH]6)c(-c6cc(S(=O)(=O)[O-])ccc6F)c6nc(c(-c7cc(S(=O)(=O)[O-])ccc7F)c7ccc4[nH]7)C=C6)C=C5)cc3)C(C)C)n2)c1
REMARK SMILES IDX 22 1 21 2 19 3 20 4 18 6 17 7 15 8 16 9 14 11 13 12 8 13
REMARK SMILES IDX 9 14 94 15 10 16 11 17 12 18 7 19 3 20 4 21 95 22 5 23 6 24
REMARK SMILES IDX 2 25 1 26 91 27 92 28 93 29 23 30 24 31 25 32 26 33 27 35
REMARK SMILES IDX 28 36 29 37 90 38 30 39 89 40 31 41 32 42 33 43 83 44 34 45
REMARK SMILES IDX 88 46 82 47 84 48 35 49 87 50 81 51 80 52 36 54 68 55 48 56
REMARK SMILES IDX 67 57 49 58 52 59 66 60 85 61 50 62 51 63 65 65 86 66 53 67
REMARK SMILES IDX 37 68 38 69 46 70 39 71 45 72 47 73 44 74 40 75 41 76 42 77
REMARK SMILES IDX 43 78 69 79 70 80 78 81 71 82 77 83 79 84 76 85 72 86 73 87
REMARK SMILES IDX 74 88 75 89 54 90 55 91 63 92 56 93 62 94 64 95 61 96 57 97
REMARK SMILES IDX 58 98 59 99 60 100
REMARK H PARENT 21 5 17 10 25 34 84 53 52 64
REMARK Flexibility Score: inf
ROOT
ATOM      1  C   UNL A   1      34.234  28.935  27.061  1.00  0.00     0.117 C 
ENDROOT
BRANCH   1   2
ATOM      2  N   UNL A   1      32.967  28.826  27.736  1.00  0.00    -0.354 N 
ATOM      3  C   UNL A   1      31.903  28.041  27.384  1.00  0.00     0.242 C 
ATOM      4  O   UNL A   1      30.992  27.940  28.209  1.00  0.00    -0.273 OA
ATOM      5  H   UNL A   1      32.854  29.379  28.542  1.00  0.00     0.163 HD
BRANCH   3   6
ATOM      6  C   UNL A   1      31.919  27.252  26.031  1.00  0.00     0.173 C 
BRANCH   6   7
ATOM      7  N   UNL A   1      31.397  28.132  24.976  1.00  0.00    -0.342 N 
ATOM      8  C   UNL A   1      31.879  28.451  23.738  1.00  0.00     0.242 C 
ATOM      9  O   UNL A   1      31.159  29.178  23.045  1.00  0.00    -0.273 OA
ATOM     10  H   UNL A   1      30.545  28.571  25.203  1.00  0.00     0.164 HD
BRANCH   8  11
ATOM     11  C   UNL A   1      33.180  27.864  23.166  1.00  0.00     0.248 C 
BRANCH  11  12
ATOM     12  N   UNL A   1      33.141  26.439  22.852  1.00  0.00    -0.220 N 
ATOM     13  C   UNL A   1      33.983  24.364  23.294  1.00  0.00     0.091 A 
ATOM     14  C   UNL A   1      33.227  23.732  22.200  1.00  0.00     0.036 A 
ATOM     15  N   UNL A   1      33.955  25.619  23.603  1.00  0.00    -0.169 NA
ATOM     16  C   UNL A   1      32.378  24.527  21.544  1.00  0.00     0.075 A 
ATOM     17  C   UNL A   1      32.259  25.967  21.884  1.00  0.00     0.267 A 
ATOM     18  O   UNL A   1      31.455  26.658  21.269  1.00  0.00    -0.268 OA
BRANCH  13  19
ATOM     19  C   UNL A   1      34.801  23.461  24.114  1.00  0.00     0.006 A 
ATOM     20  C   UNL A   1      35.150  21.225  24.935  1.00  0.00     0.119 A 
ATOM     21  C   UNL A   1      36.175  21.712  25.753  1.00  0.00     0.046 A 
ATOM     22  C   UNL A   1      34.450  22.109  24.121  1.00  0.00     0.056 A 
ATOM     23  C   UNL A   1      36.518  23.068  25.742  1.00  0.00     0.005 A 
ATOM     24  C   UNL A   1      35.828  23.955  24.919  1.00  0.00     0.011 A 
BRANCH  20  25
ATOM     25  O   UNL A   1      34.901  19.883  25.037  1.00  0.00    -0.497 OA
ATOM     26  C   UNL A   1      33.649  19.439  24.524  1.00  0.00     0.278 C 
ENDBRANCH  20  25
ENDBRANCH  13  19
ENDBRANCH  11  12
ENDBRANCH   8  11
ENDBRANCH   6   7
BRANCH   6  27
ATOM     27  C   UNL A   1      31.093  25.944  26.165  1.00  0.00     0.015 C 
ATOM     28  C   UNL A   1      30.206  25.642  24.955  1.00  0.00     0.010 C 
ATOM     29  C   UNL A   1      32.026  24.745  26.400  1.00  0.00     0.010 C 
ENDBRANCH   6  27
ENDBRANCH   3   6
ENDBRANCH   1   2
BRANCH   1  30
ATOM     30  C   UNL A   1      35.317  29.601  27.890  1.00  0.00     0.042 C 
BRANCH  30  31
ATOM     31  C   UNL A   1      35.338  31.108  27.707  1.00  0.00     0.118 C 
BRANCH  31  32
ATOM     32  N   UNL A   1      34.716  31.813  28.829  1.00  0.00    -0.352 N 
ATOM     33  C   UNL A   1      35.157  31.985  30.119  1.00  0.00     0.251 C 
ATOM     34  H   UNL A   1      33.847  32.229  28.627  1.00  0.00     0.163 HD
ATOM     35  O   UNL A   1      34.384  32.432  30.957  1.00  0.00    -0.269 OA
BRANCH  33  36
ATOM     36  C   UNL A   1      36.541  31.604  30.481  1.00  0.00     0.039 A 
ATOM     37  C   UNL A   1      36.756  30.476  31.277  1.00  0.00     0.014 A 
ATOM     38  C   UNL A   1      37.626  32.345  30.012  1.00  0.00     0.014 A 
ATOM     39  C   UNL A   1      38.064  30.047  31.525  1.00  0.00     0.010 A 
ATOM     40  C   UNL A   1      38.916  31.854  30.163  1.00  0.00     0.010 A 
ATOM     41  C   UNL A   1      39.152  30.702  30.927  1.00  0.00    -0.014 A 
BRANCH  41  42
ATOM     42  C   UNL A   1      40.550  30.222  31.088  1.00  0.00     0.031 A 
ATOM     43  C   UNL A   1      41.071  29.128  30.193  1.00  0.00     0.074 A 
ATOM     44  C   UNL A   1      41.311  30.695  32.094  1.00  0.00     0.049 A 
ATOM     45  N   UNL A   1      42.200  28.471  30.253  1.00  0.00    -0.248 NA
ATOM     46  C   UNL A   1      40.175  28.681  29.114  1.00  0.00     0.031 C 
ATOM     47  C   UNL A   1      40.898  31.714  33.062  1.00  0.00     0.029 A 
ATOM     48  N   UNL A   1      42.588  30.374  32.479  1.00  0.00    -0.354 N 
ATOM     49  C   UNL A   1      42.138  27.516  29.243  1.00  0.00     0.074 A 
ATOM     50  C   UNL A   1      40.829  27.632  28.638  1.00  0.00     0.031 C 
ATOM     51  C   UNL A   1      41.912  31.956  33.908  1.00  0.00     0.029 A 
ATOM     52  C   UNL A   1      43.028  31.076  33.577  1.00  0.00     0.049 A 
ATOM     53  H   UNL A   1      43.138  29.703  32.014  1.00  0.00     0.167 HD
ATOM     54  C   UNL A   1      43.094  26.644  28.838  1.00  0.00     0.034 A 
ATOM     55  C   UNL A   1      44.194  31.009  34.250  1.00  0.00     0.034 A 
ATOM     56  C   UNL A   1      44.404  26.564  29.437  1.00  0.00     0.049 A 
ATOM     57  C   UNL A   1      45.244  30.034  33.783  1.00  0.00     0.074 A 
ATOM     58  C   UNL A   1      45.474  25.768  29.070  1.00  0.00     0.029 A 
ATOM     59  N   UNL A   1      44.822  27.308  30.533  1.00  0.00    -0.354 N 
ATOM     60  N   UNL A   1      45.190  29.171  32.794  1.00  0.00    -0.248 NA
ATOM     61  C   UNL A   1      46.516  30.032  34.517  1.00  0.00     0.031 C 
ATOM     62  C   UNL A   1      46.515  25.985  29.979  1.00  0.00     0.029 A 
ATOM     63  C   UNL A   1      46.124  26.973  30.870  1.00  0.00     0.049 A 
ATOM     64  H   UNL A   1      44.273  27.978  31.002  1.00  0.00     0.167 HD
ATOM     65  C   UNL A   1      46.433  28.546  32.769  1.00  0.00     0.074 A 
ATOM     66  C   UNL A   1      47.218  29.140  33.833  1.00  0.00     0.031 C 
ATOM     67  C   UNL A   1      46.888  27.570  31.941  1.00  0.00     0.034 A 
BRANCH  54  68
ATOM     68  C   UNL A   1      42.740  25.703  27.708  1.00  0.00     0.023 A 
ATOM     69  C   UNL A   1      42.204  24.425  27.952  1.00  0.00     0.031 A 
ATOM     70  C   UNL A   1      42.987  26.064  26.372  1.00  0.00     0.131 A 
ATOM     71  C   UNL A   1      42.026  23.523  26.892  1.00  0.00     0.055 A 
ATOM     72  C   UNL A   1      42.717  25.195  25.312  1.00  0.00     0.041 A 
ATOM     73  F   UNL A   1      43.516  27.261  26.074  1.00  0.00    -0.206 F 
ATOM     74  C   UNL A   1      42.253  23.909  25.571  1.00  0.00     0.022 A 
BRANCH  71  75
ATOM     75  S   UNL A   1      41.658  21.792  27.286  1.00  0.00     0.124 S 
ATOM     76  O   UNL A   1      41.970  21.130  26.022  1.00  0.00    -0.237 OA
ATOM     77  O   UNL A   1      42.568  21.518  28.392  1.00  0.00    -0.237 OA
ATOM     78  O   UNL A   1      40.239  21.813  27.636  1.00  0.00    -0.744 OA
ENDBRANCH  71  75
ENDBRANCH  54  68
BRANCH  55  79
ATOM     79  C   UNL A   1      44.438  31.888  35.429  1.00  0.00     0.023 A 
ATOM     80  C   UNL A   1      43.923  31.556  36.692  1.00  0.00     0.031 A 
ATOM     81  C   UNL A   1      45.161  33.088  35.306  1.00  0.00     0.131 A 
ATOM     82  C   UNL A   1      44.101  32.433  37.774  1.00  0.00     0.055 A 
ATOM     83  C   UNL A   1      45.381  33.931  36.396  1.00  0.00     0.041 A 
ATOM     84  F   UNL A   1      45.680  33.449  34.122  1.00  0.00    -0.206 F 
ATOM     85  C   UNL A   1      44.839  33.611  37.637  1.00  0.00     0.022 A 
BRANCH  82  86
ATOM     86  S   UNL A   1      43.289  32.045  39.348  1.00  0.00     0.124 S 
ATOM     87  O   UNL A   1      43.388  33.317  40.055  1.00  0.00    -0.237 OA
ATOM     88  O   UNL A   1      41.952  31.655  38.912  1.00  0.00    -0.237 OA
ATOM     89  O   UNL A   1      44.104  30.961  39.894  1.00  0.00    -0.744 OA
ENDBRANCH  82  86
ENDBRANCH  55  79
BRANCH  67  90
ATOM     90  C   UNL A   1      48.318  27.127  32.127  1.00  0.00     0.023 A 
ATOM     91  C   UNL A   1      49.380  27.745  31.446  1.00  0.00     0.031 A 
ATOM     92  C   UNL A   1      48.618  26.061  32.994  1.00  0.00     0.131 A 
ATOM     93  C   UNL A   1      50.686  27.257  31.600  1.00  0.00     0.055 A 
ATOM     94  C   UNL A   1      49.926  25.619  33.189  1.00  0.00     0.041 A 
ATOM     95  F   UNL A   1      47.641  25.433  33.668  1.00  0.00    -0.206 F 
ATOM     96  C   UNL A   1      50.968  26.209  32.480  1.00  0.00     0.022 A 
BRANCH  93  97
ATOM     97  S   UNL A   1      52.004  27.951  30.564  1.00  0.00     0.124 S 
ATOM     98  O   UNL A   1      51.251  28.797  29.643  1.00  0.00    -0.237 OA
ATOM     99  O   UNL A   1      52.832  28.650  31.540  1.00  0.00    -0.237 OA
ATOM    100  O   UNL A   1      52.622  26.772  29.960  1.00  0.00    -0.744 OA
ENDBRANCH  93  97
ENDBRANCH  67  90
ENDBRANCH  41  42
ENDBRANCH  33  36
ENDBRANCH  31  32
ENDBRANCH  30  31
ENDBRANCH   1  30
TORSDOF 19
ENDMDL
