MODEL 1
REMARK VINA RESULT:     -11.9      0.000      0.000
REMARK SMILES O=C(NCCCNC(=O)c1ccc(NC(=O)[C@@H]2COCCO2)cc1O)c1ccc(-c2c3nc(c(-c4cc(S(=O)(=O)[O-])ccc4F)c4ccc([nH]4)c(-c4cc(S(=O)(=O)[O-])ccc4F)c4nc(c(-c5cc(S(=O)(=O)[O-])ccc5F)c5ccc2[nH]5)C=C4)C=C3)cc1
REMARK SMILES IDX 4 1 3 2 1 3 2 4 26 6 27 7 88 8 28 9 87 10 29 11 30 12 31 13
REMARK SMILES IDX 81 14 32 15 86 16 80 17 82 18 33 19 85 20 79 21 78 22 34 24
REMARK SMILES IDX 66 25 46 26 65 27 47 28 50 29 64 30 83 31 48 32 49 33 63 35
REMARK SMILES IDX 84 36 51 37 35 38 36 39 44 40 37 41 43 42 45 43 42 44 38 45
REMARK SMILES IDX 39 46 40 47 41 48 67 49 68 50 76 51 69 52 75 53 77 54 74 55
REMARK SMILES IDX 70 56 71 57 72 58 73 59 52 60 53 61 61 62 54 63 60 64 62 65
REMARK SMILES IDX 59 66 55 67 56 68 57 69 58 70 5 71 6 72 7 73 8 74 9 76 10 77
REMARK SMILES IDX 11 78 24 79 12 80 23 81 13 82 25 83 14 85 15 86 16 88 17 89
REMARK SMILES IDX 18 90 22 91 19 92 21 93 20 94
REMARK H PARENT 3 5 82 23 50 34 7 75 25 84 14 87
REMARK Flexibility Score: inf
ROOT
ATOM      1  C   UNL A   1      35.984  22.476  26.116  1.00  0.00     0.118 C 
ENDROOT
BRANCH   1   2
ATOM      2  N   UNL A   1      36.946  21.388  25.973  1.00  0.00    -0.352 N 
ATOM      3  O   UNL A   1      38.936  20.433  25.539  1.00  0.00    -0.269 OA
ATOM      4  C   UNL A   1      38.316  21.420  25.929  1.00  0.00     0.251 C 
ATOM      5  H   UNL A   1      36.549  20.490  25.896  1.00  0.00     0.163 HD
BRANCH   4   6
ATOM      6  C   UNL A   1      39.040  22.639  26.345  1.00  0.00     0.039 A 
ATOM      7  C   UNL A   1      38.690  23.879  25.809  1.00  0.00     0.014 A 
ATOM      8  C   UNL A   1      40.055  22.548  27.300  1.00  0.00     0.014 A 
ATOM      9  C   UNL A   1      39.457  24.996  26.098  1.00  0.00     0.010 A 
ATOM     10  C   UNL A   1      40.753  23.699  27.678  1.00  0.00     0.010 A 
ATOM     11  C   UNL A   1      40.478  24.927  27.059  1.00  0.00    -0.014 A 
BRANCH  11  12
ATOM     12  C   UNL A   1      41.181  26.178  27.442  1.00  0.00     0.031 A 
ATOM     13  C   UNL A   1      42.566  26.476  26.942  1.00  0.00     0.074 A 
ATOM     14  C   UNL A   1      40.529  27.063  28.222  1.00  0.00     0.049 A 
ATOM     15  N   UNL A   1      43.315  27.523  27.171  1.00  0.00    -0.248 NA
ATOM     16  C   UNL A   1      43.196  25.463  26.083  1.00  0.00     0.031 C 
ATOM     17  C   UNL A   1      39.182  26.868  28.768  1.00  0.00     0.029 A 
ATOM     18  N   UNL A   1      40.889  28.305  28.674  1.00  0.00    -0.354 N 
ATOM     19  C   UNL A   1      44.512  27.292  26.504  1.00  0.00     0.074 A 
ATOM     20  C   UNL A   1      44.398  25.987  25.886  1.00  0.00     0.031 C 
ATOM     21  C   UNL A   1      38.809  27.970  29.431  1.00  0.00     0.029 A 
ATOM     22  C   UNL A   1      39.917  28.917  29.431  1.00  0.00     0.049 A 
ATOM     23  H   UNL A   1      41.759  28.720  28.474  1.00  0.00     0.167 HD
ATOM     24  C   UNL A   1      45.599  28.100  26.414  1.00  0.00     0.034 A 
ATOM     25  C   UNL A   1      39.924  30.096  30.081  1.00  0.00     0.034 A 
ATOM     26  C   UNL A   1      45.684  29.401  27.037  1.00  0.00     0.049 A 
ATOM     27  C   UNL A   1      41.153  30.956  29.990  1.00  0.00     0.074 A 
ATOM     28  C   UNL A   1      46.723  30.315  26.986  1.00  0.00     0.029 A 
ATOM     29  N   UNL A   1      44.696  29.971  27.834  1.00  0.00    -0.354 N 
ATOM     30  N   UNL A   1      42.273  30.726  29.344  1.00  0.00    -0.248 NA
ATOM     31  C   UNL A   1      41.119  32.231  30.712  1.00  0.00     0.031 C 
ATOM     32  C   UNL A   1      46.394  31.401  27.806  1.00  0.00     0.029 A 
ATOM     33  C   UNL A   1      45.116  31.206  28.304  1.00  0.00     0.049 A 
ATOM     34  H   UNL A   1      43.826  29.557  28.033  1.00  0.00     0.167 HD
ATOM     35  C   UNL A   1      43.074  31.840  29.571  1.00  0.00     0.074 A 
ATOM     36  C   UNL A   1      42.296  32.748  30.390  1.00  0.00     0.031 C 
ATOM     37  C   UNL A   1      44.337  32.090  29.141  1.00  0.00     0.034 A 
BRANCH  24  38
ATOM     38  C   UNL A   1      46.797  27.577  25.657  1.00  0.00     0.023 A 
ATOM     39  C   UNL A   1      47.061  27.951  24.327  1.00  0.00     0.031 A 
ATOM     40  C   UNL A   1      47.686  26.678  26.274  1.00  0.00     0.131 A 
ATOM     41  C   UNL A   1      48.143  27.380  23.640  1.00  0.00     0.055 A 
ATOM     42  C   UNL A   1      48.806  26.173  25.610  1.00  0.00     0.041 A 
ATOM     43  F   UNL A   1      47.476  26.267  27.535  1.00  0.00    -0.206 F 
ATOM     44  C   UNL A   1      49.033  26.513  24.280  1.00  0.00     0.022 A 
BRANCH  41  45
ATOM     45  S   UNL A   1      48.299  27.684  21.858  1.00  0.00     0.124 S 
ATOM     46  O   UNL A   1      49.423  28.616  21.813  1.00  0.00    -0.237 OA
ATOM     47  O   UNL A   1      48.556  26.348  21.331  1.00  0.00    -0.237 OA
ATOM     48  O   UNL A   1      47.007  28.261  21.493  1.00  0.00    -0.744 OA
ENDBRANCH  41  45
ENDBRANCH  24  38
BRANCH  25  49
ATOM     49  C   UNL A   1      38.749  30.503  30.902  1.00  0.00     0.023 A 
ATOM     50  C   UNL A   1      37.659  31.174  30.330  1.00  0.00     0.031 A 
ATOM     51  C   UNL A   1      38.709  30.235  32.283  1.00  0.00     0.131 A 
ATOM     52  C   UNL A   1      36.591  31.588  31.141  1.00  0.00     0.055 A 
ATOM     53  C   UNL A   1      37.621  30.597  33.075  1.00  0.00     0.041 A 
ATOM     54  F   UNL A   1      39.725  29.589  32.879  1.00  0.00    -0.206 F 
ATOM     55  C   UNL A   1      36.558  31.290  32.506  1.00  0.00     0.022 A 
BRANCH  52  56
ATOM     56  S   UNL A   1      35.276  32.592  30.401  1.00  0.00     0.124 S 
ATOM     57  O   UNL A   1      34.905  31.788  29.241  1.00  0.00    -0.237 OA
ATOM     58  O   UNL A   1      34.296  32.652  31.480  1.00  0.00    -0.237 OA
ATOM     59  O   UNL A   1      35.943  33.855  30.096  1.00  0.00    -0.744 OA
ENDBRANCH  52  56
ENDBRANCH  25  49
BRANCH  37  60
ATOM     60  C   UNL A   1      44.932  33.419  29.533  1.00  0.00     0.023 A 
ATOM     61  C   UNL A   1      44.764  34.566  28.739  1.00  0.00     0.031 A 
ATOM     62  C   UNL A   1      45.703  33.530  30.704  1.00  0.00     0.131 A 
ATOM     63  C   UNL A   1      45.412  35.760  29.092  1.00  0.00     0.055 A 
ATOM     64  C   UNL A   1      46.292  34.736  31.084  1.00  0.00     0.041 A 
ATOM     65  F   UNL A   1      45.899  32.464  31.497  1.00  0.00    -0.206 F 
ATOM     66  C   UNL A   1      46.161  35.856  30.268  1.00  0.00     0.022 A 
BRANCH  63  67
ATOM     67  S   UNL A   1      45.345  37.158  27.939  1.00  0.00     0.124 S 
ATOM     68  O   UNL A   1      44.949  38.255  28.815  1.00  0.00    -0.237 OA
ATOM     69  O   UNL A   1      46.712  37.209  27.429  1.00  0.00    -0.237 OA
ATOM     70  O   UNL A   1      44.336  36.749  26.962  1.00  0.00    -0.744 OA
ENDBRANCH  63  67
ENDBRANCH  37  60
ENDBRANCH  11  12
ENDBRANCH   4   6
ENDBRANCH   1   2
BRANCH   1  71
ATOM     71  C   UNL A   1      35.035  22.563  24.929  1.00  0.00     0.042 C 
BRANCH  71  72
ATOM     72  C   UNL A   1      33.662  21.981  25.230  1.00  0.00     0.118 C 
BRANCH  72  73
ATOM     73  N   UNL A   1      33.151  21.228  24.099  1.00  0.00    -0.352 N 
ATOM     74  C   UNL A   1      32.346  21.686  23.095  1.00  0.00     0.255 C 
ATOM     75  H   UNL A   1      33.415  20.281  24.049  1.00  0.00     0.163 HD
ATOM     76  O   UNL A   1      31.846  20.921  22.275  1.00  0.00    -0.269 OA
BRANCH  74  77
ATOM     77  C   UNL A   1      32.048  23.122  23.029  1.00  0.00     0.081 A 
ATOM     78  C   UNL A   1      30.869  23.583  23.615  1.00  0.00     0.020 A 
ATOM     79  C   UNL A   1      32.907  24.006  22.374  1.00  0.00     0.130 A 
ATOM     80  C   UNL A   1      30.507  24.922  23.466  1.00  0.00     0.027 A 
ATOM     81  C   UNL A   1      32.536  25.338  22.215  1.00  0.00     0.073 A 
ATOM     82  C   UNL A   1      31.288  25.772  22.681  1.00  0.00     0.044 A 
BRANCH  79  83
ATOM     83  O   UNL A   1      34.097  23.565  21.867  1.00  0.00    -0.507 OA
ATOM     84  H   UNL A   1      34.386  22.691  22.043  1.00  0.00     0.293 HD
ENDBRANCH  79  83
BRANCH  82  85
ATOM     85  N   UNL A   1      30.876  27.037  22.252  1.00  0.00    -0.324 N 
ATOM     86  C   UNL A   1      30.962  28.273  22.832  1.00  0.00     0.255 C 
ATOM     87  H   UNL A   1      30.444  27.039  21.367  1.00  0.00     0.170 HD
ATOM     88  O   UNL A   1      30.452  29.196  22.181  1.00  0.00    -0.272 OA
BRANCH  86  89
ATOM     89  C   UNL A   1      31.592  28.514  24.219  1.00  0.00     0.233 C 
ATOM     90  C   UNL A   1      31.156  29.835  24.871  1.00  0.00     0.202 C 
ATOM     91  O   UNL A   1      33.034  28.558  24.077  1.00  0.00    -0.364 OA
ATOM     92  O   UNL A   1      31.754  29.969  26.173  1.00  0.00    -0.376 OA
ATOM     93  C   UNL A   1      33.675  28.727  25.345  1.00  0.00     0.189 C 
ATOM     94  C   UNL A   1      33.180  29.987  26.051  1.00  0.00     0.188 C 
ENDBRANCH  86  89
ENDBRANCH  82  85
ENDBRANCH  74  77
ENDBRANCH  72  73
ENDBRANCH  71  72
ENDBRANCH   1  71
TORSDOF 16
ENDMDL
MODEL 2
REMARK VINA RESULT:     -11.9      2.631      8.384
REMARK SMILES O=C(NCCCNC(=O)c1ccc(NC(=O)[C@@H]2COCCO2)cc1O)c1ccc(-c2c3nc(c(-c4cc(S(=O)(=O)[O-])ccc4F)c4ccc([nH]4)c(-c4cc(S(=O)(=O)[O-])ccc4F)c4nc(c(-c5cc(S(=O)(=O)[O-])ccc5F)c5ccc2[nH]5)C=C4)C=C3)cc1
REMARK SMILES IDX 4 1 3 2 1 3 2 4 26 6 27 7 88 8 28 9 87 10 29 11 30 12 31 13
REMARK SMILES IDX 81 14 32 15 86 16 80 17 82 18 33 19 85 20 79 21 78 22 34 24
REMARK SMILES IDX 66 25 46 26 65 27 47 28 50 29 64 30 83 31 48 32 49 33 63 35
REMARK SMILES IDX 84 36 51 37 35 38 36 39 44 40 37 41 43 42 45 43 42 44 38 45
REMARK SMILES IDX 39 46 40 47 41 48 67 49 68 50 76 51 69 52 75 53 77 54 74 55
REMARK SMILES IDX 70 56 71 57 72 58 73 59 52 60 53 61 61 62 54 63 60 64 62 65
REMARK SMILES IDX 59 66 55 67 56 68 57 69 58 70 5 71 6 72 7 73 8 74 9 76 10 77
REMARK SMILES IDX 11 78 24 79 12 80 23 81 13 82 25 83 14 85 15 86 16 88 17 89
REMARK SMILES IDX 18 90 22 91 19 92 21 93 20 94
REMARK H PARENT 3 5 82 23 50 34 7 75 25 84 14 87
REMARK Flexibility Score: inf
ROOT
ATOM      1  C   UNL A   1      39.556  19.899  25.898  1.00  0.00     0.118 C 
ENDROOT
BRANCH   1   2
ATOM      2  N   UNL A   1      40.693  19.012  26.120  1.00  0.00    -0.352 N 
ATOM      3  O   UNL A   1      42.858  18.401  26.172  1.00  0.00    -0.269 OA
ATOM      4  C   UNL A   1      42.027  19.302  26.257  1.00  0.00     0.251 C 
ATOM      5  H   UNL A   1      40.469  18.055  26.180  1.00  0.00     0.163 HD
BRANCH   4   6
ATOM      6  C   UNL A   1      42.458  20.694  26.502  1.00  0.00     0.039 A 
ATOM      7  C   UNL A   1      42.722  21.545  25.429  1.00  0.00     0.014 A 
ATOM      8  C   UNL A   1      42.571  21.162  27.813  1.00  0.00     0.014 A 
ATOM      9  C   UNL A   1      43.254  22.803  25.661  1.00  0.00     0.010 A 
ATOM     10  C   UNL A   1      42.999  22.472  28.045  1.00  0.00     0.010 A 
ATOM     11  C   UNL A   1      43.371  23.295  26.971  1.00  0.00    -0.014 A 
BRANCH  11  12
ATOM     12  C   UNL A   1      43.813  24.698  27.169  1.00  0.00     0.031 A 
ATOM     13  C   UNL A   1      42.873  25.741  27.703  1.00  0.00     0.074 A 
ATOM     14  C   UNL A   1      45.095  25.008  26.893  1.00  0.00     0.049 A 
ATOM     15  N   UNL A   1      43.102  27.006  27.946  1.00  0.00    -0.248 NA
ATOM     16  C   UNL A   1      41.497  25.313  27.993  1.00  0.00     0.031 C 
ATOM     17  C   UNL A   1      46.090  24.070  26.362  1.00  0.00     0.029 A 
ATOM     18  N   UNL A   1      45.793  26.178  27.038  1.00  0.00    -0.354 N 
ATOM     19  C   UNL A   1      41.897  27.533  28.398  1.00  0.00     0.074 A 
ATOM     20  C   UNL A   1      40.932  26.453  28.366  1.00  0.00     0.031 C 
ATOM     21  C   UNL A   1      47.277  24.684  26.280  1.00  0.00     0.029 A 
ATOM     22  C   UNL A   1      47.114  26.079  26.670  1.00  0.00     0.049 A 
ATOM     23  H   UNL A   1      45.387  27.009  27.374  1.00  0.00     0.167 HD
ATOM     24  C   UNL A   1      41.629  28.799  28.806  1.00  0.00     0.034 A 
ATOM     25  C   UNL A   1      48.084  27.011  26.621  1.00  0.00     0.034 A 
ATOM     26  C   UNL A   1      42.613  29.857  28.834  1.00  0.00     0.049 A 
ATOM     27  C   UNL A   1      47.750  28.413  27.049  1.00  0.00     0.074 A 
ATOM     28  C   UNL A   1      42.459  31.167  29.257  1.00  0.00     0.029 A 
ATOM     29  N   UNL A   1      43.932  29.732  28.412  1.00  0.00    -0.354 N 
ATOM     30  N   UNL A   1      46.608  28.891  27.485  1.00  0.00    -0.248 NA
ATOM     31  C   UNL A   1      48.835  29.398  26.980  1.00  0.00     0.031 C 
ATOM     32  C   UNL A   1      43.660  31.848  29.026  1.00  0.00     0.029 A 
ATOM     33  C   UNL A   1      44.591  30.947  28.535  1.00  0.00     0.049 A 
ATOM     34  H   UNL A   1      44.339  28.901  28.077  1.00  0.00     0.167 HD
ATOM     35  C   UNL A   1      46.842  30.234  27.757  1.00  0.00     0.074 A 
ATOM     36  C   UNL A   1      48.239  30.479  27.461  1.00  0.00     0.031 C 
ATOM     37  C   UNL A   1      45.980  31.180  28.212  1.00  0.00     0.034 A 
BRANCH  24  38
ATOM     38  C   UNL A   1      40.208  29.118  29.207  1.00  0.00     0.023 A 
ATOM     39  C   UNL A   1      39.800  29.143  30.552  1.00  0.00     0.031 A 
ATOM     40  C   UNL A   1      39.240  29.390  28.222  1.00  0.00     0.131 A 
ATOM     41  C   UNL A   1      38.452  29.370  30.873  1.00  0.00     0.055 A 
ATOM     42  C   UNL A   1      37.916  29.691  28.552  1.00  0.00     0.041 A 
ATOM     43  F   UNL A   1      39.564  29.359  26.920  1.00  0.00    -0.206 F 
ATOM     44  C   UNL A   1      37.512  29.668  29.882  1.00  0.00     0.022 A 
BRANCH  41  45
ATOM     45  S   UNL A   1      37.916  29.138  32.590  1.00  0.00     0.124 S 
ATOM     46  O   UNL A   1      37.976  27.685  32.727  1.00  0.00    -0.237 OA
ATOM     47  O   UNL A   1      38.916  29.892  33.338  1.00  0.00    -0.237 OA
ATOM     48  O   UNL A   1      36.568  29.702  32.609  1.00  0.00    -0.744 OA
ENDBRANCH  41  45
ENDBRANCH  24  38
BRANCH  25  49
ATOM     49  C   UNL A   1      49.437  26.656  26.110  1.00  0.00     0.023 A 
ATOM     50  C   UNL A   1      49.887  27.113  24.863  1.00  0.00     0.031 A 
ATOM     51  C   UNL A   1      50.298  25.837  26.863  1.00  0.00     0.131 A 
ATOM     52  C   UNL A   1      51.149  26.718  24.390  1.00  0.00     0.055 A 
ATOM     53  C   UNL A   1      51.573  25.494  26.415  1.00  0.00     0.041 A 
ATOM     54  F   UNL A   1      49.917  25.377  28.067  1.00  0.00    -0.206 F 
ATOM     55  C   UNL A   1      52.000  25.925  25.164  1.00  0.00     0.022 A 
BRANCH  52  56
ATOM     56  S   UNL A   1      51.633  27.194  22.709  1.00  0.00     0.124 S 
ATOM     57  O   UNL A   1      52.803  26.351  22.486  1.00  0.00    -0.237 OA
ATOM     58  O   UNL A   1      50.440  26.851  21.941  1.00  0.00    -0.237 OA
ATOM     59  O   UNL A   1      51.908  28.624  22.826  1.00  0.00    -0.744 OA
ENDBRANCH  52  56
ENDBRANCH  25  49
BRANCH  37  60
ATOM     60  C   UNL A   1      46.550  32.557  28.441  1.00  0.00     0.023 A 
ATOM     61  C   UNL A   1      46.675  33.487  27.395  1.00  0.00     0.031 A 
ATOM     62  C   UNL A   1      47.002  32.932  29.720  1.00  0.00     0.131 A 
ATOM     63  C   UNL A   1      47.296  34.723  27.631  1.00  0.00     0.055 A 
ATOM     64  C   UNL A   1      47.561  34.187  29.962  1.00  0.00     0.041 A 
ATOM     65  F   UNL A   1      46.910  32.080  30.753  1.00  0.00    -0.206 F 
ATOM     66  C   UNL A   1      47.724  35.085  28.911  1.00  0.00     0.022 A 
BRANCH  63  67
ATOM     67  S   UNL A   1      47.629  35.812  26.219  1.00  0.00     0.124 S 
ATOM     68  O   UNL A   1      48.802  36.550  26.675  1.00  0.00    -0.237 OA
ATOM     69  O   UNL A   1      47.855  34.860  25.136  1.00  0.00    -0.237 OA
ATOM     70  O   UNL A   1      46.405  36.604  26.101  1.00  0.00    -0.744 OA
ENDBRANCH  63  67
ENDBRANCH  37  60
ENDBRANCH  11  12
ENDBRANCH   4   6
ENDBRANCH   1   2
BRANCH   1  71
ATOM     71  C   UNL A   1      38.456  19.230  25.086  1.00  0.00     0.042 C 
BRANCH  71  72
ATOM     72  C   UNL A   1      37.170  20.042  25.058  1.00  0.00     0.118 C 
BRANCH  72  73
ATOM     73  N   UNL A   1      37.329  21.252  24.271  1.00  0.00    -0.352 N 
ATOM     74  C   UNL A   1      36.405  22.238  24.072  1.00  0.00     0.255 C 
ATOM     75  H   UNL A   1      38.201  21.375  23.832  1.00  0.00     0.163 HD
ATOM     76  O   UNL A   1      36.594  23.139  23.259  1.00  0.00    -0.269 OA
BRANCH  74  77
ATOM     77  C   UNL A   1      35.147  22.188  24.825  1.00  0.00     0.081 A 
ATOM     78  C   UNL A   1      34.012  21.685  24.189  1.00  0.00     0.020 A 
ATOM     79  C   UNL A   1      35.074  22.656  26.139  1.00  0.00     0.130 A 
ATOM     80  C   UNL A   1      32.780  21.733  24.843  1.00  0.00     0.027 A 
ATOM     81  C   UNL A   1      33.842  22.716  26.783  1.00  0.00     0.073 A 
ATOM     82  C   UNL A   1      32.680  22.341  26.096  1.00  0.00     0.044 A 
BRANCH  79  83
ATOM     83  O   UNL A   1      36.202  23.078  26.785  1.00  0.00    -0.507 OA
ATOM     84  H   UNL A   1      36.821  22.451  27.104  1.00  0.00     0.293 HD
ENDBRANCH  79  83
BRANCH  82  85
ATOM     85  N   UNL A   1      31.468  22.681  26.704  1.00  0.00    -0.324 N 
ATOM     86  C   UNL A   1      30.635  23.755  26.548  1.00  0.00     0.255 C 
ATOM     87  H   UNL A   1      31.155  22.024  27.367  1.00  0.00     0.170 HD
ATOM     88  O   UNL A   1      29.641  23.762  27.287  1.00  0.00    -0.272 OA
BRANCH  86  89
ATOM     89  C   UNL A   1      30.923  24.913  25.570  1.00  0.00     0.233 C 
ATOM     90  C   UNL A   1      31.974  25.907  26.088  1.00  0.00     0.202 C 
ATOM     91  O   UNL A   1      29.698  25.656  25.350  1.00  0.00    -0.364 OA
ATOM     92  O   UNL A   1      32.215  26.933  25.108  1.00  0.00    -0.376 OA
ATOM     93  C   UNL A   1      29.896  26.714  24.406  1.00  0.00     0.189 C 
ATOM     94  C   UNL A   1      31.007  27.658  24.860  1.00  0.00     0.188 C 
ENDBRANCH  86  89
ENDBRANCH  82  85
ENDBRANCH  74  77
ENDBRANCH  72  73
ENDBRANCH  71  72
ENDBRANCH   1  71
TORSDOF 16
ENDMDL
MODEL 3
REMARK VINA RESULT:     -11.8      5.494      8.612
REMARK SMILES O=C(NCCCNC(=O)c1ccc(NC(=O)[C@@H]2COCCO2)cc1O)c1ccc(-c2c3nc(c(-c4cc(S(=O)(=O)[O-])ccc4F)c4ccc([nH]4)c(-c4cc(S(=O)(=O)[O-])ccc4F)c4nc(c(-c5cc(S(=O)(=O)[O-])ccc5F)c5ccc2[nH]5)C=C4)C=C3)cc1
REMARK SMILES IDX 4 1 3 2 1 3 2 4 26 6 27 7 88 8 28 9 87 10 29 11 30 12 31 13
REMARK SMILES IDX 81 14 32 15 86 16 80 17 82 18 33 19 85 20 79 21 78 22 34 24
REMARK SMILES IDX 66 25 46 26 65 27 47 28 50 29 64 30 83 31 48 32 49 33 63 35
REMARK SMILES IDX 84 36 51 37 35 38 36 39 44 40 37 41 43 42 45 43 42 44 38 45
REMARK SMILES IDX 39 46 40 47 41 48 67 49 68 50 76 51 69 52 75 53 77 54 74 55
REMARK SMILES IDX 70 56 71 57 72 58 73 59 52 60 53 61 61 62 54 63 60 64 62 65
REMARK SMILES IDX 59 66 55 67 56 68 57 69 58 70 5 71 6 72 7 73 8 74 9 76 10 77
REMARK SMILES IDX 11 78 24 79 12 80 23 81 13 82 25 83 14 85 15 86 16 88 17 89
REMARK SMILES IDX 18 90 22 91 19 92 21 93 20 94
REMARK H PARENT 3 5 82 23 50 34 7 75 25 84 14 87
REMARK Flexibility Score: inf
ROOT
ATOM      1  C   UNL A   1      32.727  32.719  27.204  1.00  0.00     0.118 C 
ENDROOT
BRANCH   1   2
ATOM      2  N   UNL A   1      32.656  34.104  27.656  1.00  0.00    -0.352 N 
ATOM      3  O   UNL A   1      32.865  35.823  29.093  1.00  0.00    -0.269 OA
ATOM      4  C   UNL A   1      33.256  34.717  28.727  1.00  0.00     0.251 C 
ATOM      5  H   UNL A   1      32.088  34.692  27.107  1.00  0.00     0.163 HD
BRANCH   4   6
ATOM      6  C   UNL A   1      34.365  34.045  29.435  1.00  0.00     0.039 A 
ATOM      7  C   UNL A   1      35.688  34.328  29.094  1.00  0.00     0.014 A 
ATOM      8  C   UNL A   1      34.083  33.147  30.467  1.00  0.00     0.014 A 
ATOM      9  C   UNL A   1      36.719  33.599  29.665  1.00  0.00     0.010 A 
ATOM     10  C   UNL A   1      35.132  32.496  31.123  1.00  0.00     0.010 A 
ATOM     11  C   UNL A   1      36.457  32.696  30.707  1.00  0.00    -0.014 A 
BRANCH  11  12
ATOM     12  C   UNL A   1      37.603  32.041  31.386  1.00  0.00     0.031 A 
ATOM     13  C   UNL A   1      38.393  30.958  30.708  1.00  0.00     0.074 A 
ATOM     14  C   UNL A   1      37.946  32.470  32.618  1.00  0.00     0.049 A 
ATOM     15  N   UNL A   1      39.427  30.292  31.155  1.00  0.00    -0.248 NA
ATOM     16  C   UNL A   1      37.961  30.563  29.359  1.00  0.00     0.031 C 
ATOM     17  C   UNL A   1      37.239  33.512  33.370  1.00  0.00     0.029 A 
ATOM     18  N   UNL A   1      38.975  32.109  33.446  1.00  0.00    -0.354 N 
ATOM     19  C   UNL A   1      39.760  29.385  30.154  1.00  0.00     0.074 A 
ATOM     20  C   UNL A   1      38.796  29.568  29.090  1.00  0.00     0.031 C 
ATOM     21  C   UNL A   1      37.887  33.745  34.518  1.00  0.00     0.029 A 
ATOM     22  C   UNL A   1      39.003  32.814  34.626  1.00  0.00     0.049 A 
ATOM     23  H   UNL A   1      39.632  31.412  33.217  1.00  0.00     0.167 HD
ATOM     24  C   UNL A   1      40.780  28.491  30.131  1.00  0.00     0.034 A 
ATOM     25  C   UNL A   1      39.817  32.706  35.694  1.00  0.00     0.034 A 
ATOM     26  C   UNL A   1      41.732  28.332  31.207  1.00  0.00     0.049 A 
ATOM     27  C   UNL A   1      40.919  31.684  35.653  1.00  0.00     0.074 A 
ATOM     28  C   UNL A   1      42.821  27.479  31.276  1.00  0.00     0.029 A 
ATOM     29  N   UNL A   1      41.704  29.034  32.407  1.00  0.00    -0.354 N 
ATOM     30  N   UNL A   1      41.227  30.843  34.693  1.00  0.00    -0.248 NA
ATOM     31  C   UNL A   1      41.781  31.600  36.836  1.00  0.00     0.031 C 
ATOM     32  C   UNL A   1      43.406  27.615  32.540  1.00  0.00     0.029 A 
ATOM     33  C   UNL A   1      42.735  28.610  33.233  1.00  0.00     0.049 A 
ATOM     34  H   UNL A   1      41.048  29.731  32.637  1.00  0.00     0.167 HD
ATOM     35  C   UNL A   1      42.333  30.137  35.152  1.00  0.00     0.074 A 
ATOM     36  C   UNL A   1      42.650  30.671  36.462  1.00  0.00     0.031 C 
ATOM     37  C   UNL A   1      43.024  29.137  34.546  1.00  0.00     0.034 A 
BRANCH  24  38
ATOM     38  C   UNL A   1      40.886  27.584  28.928  1.00  0.00     0.023 A 
ATOM     39  C   UNL A   1      41.875  27.763  27.944  1.00  0.00     0.031 A 
ATOM     40  C   UNL A   1      39.973  26.528  28.755  1.00  0.00     0.131 A 
ATOM     41  C   UNL A   1      41.888  26.943  26.805  1.00  0.00     0.055 A 
ATOM     42  C   UNL A   1      40.038  25.666  27.658  1.00  0.00     0.041 A 
ATOM     43  F   UNL A   1      38.993  26.320  29.649  1.00  0.00    -0.206 F 
ATOM     44  C   UNL A   1      40.991  25.879  26.667  1.00  0.00     0.022 A 
BRANCH  41  45
ATOM     45  S   UNL A   1      43.008  27.366  25.442  1.00  0.00     0.124 S 
ATOM     46  O   UNL A   1      43.218  26.062  24.816  1.00  0.00    -0.237 OA
ATOM     47  O   UNL A   1      42.221  28.323  24.673  1.00  0.00    -0.237 OA
ATOM     48  O   UNL A   1      44.179  27.919  26.118  1.00  0.00    -0.744 OA
ENDBRANCH  41  45
ENDBRANCH  24  38
BRANCH  25  49
ATOM     49  C   UNL A   1      39.589  33.556  36.896  1.00  0.00     0.023 A 
ATOM     50  C   UNL A   1      38.986  33.036  38.051  1.00  0.00     0.031 A 
ATOM     51  C   UNL A   1      39.961  34.913  36.898  1.00  0.00     0.131 A 
ATOM     52  C   UNL A   1      38.741  33.877  39.148  1.00  0.00     0.055 A 
ATOM     53  C   UNL A   1      39.767  35.730  38.011  1.00  0.00     0.041 A 
ATOM     54  F   UNL A   1      40.546  35.458  35.820  1.00  0.00    -0.206 F 
ATOM     55  C   UNL A   1      39.141  35.215  39.141  1.00  0.00     0.022 A 
BRANCH  52  56
ATOM     56  S   UNL A   1      37.818  33.214  40.560  1.00  0.00     0.124 S 
ATOM     57  O   UNL A   1      36.488  33.034  39.988  1.00  0.00    -0.237 OA
ATOM     58  O   UNL A   1      38.558  31.992  40.859  1.00  0.00    -0.237 OA
ATOM     59  O   UNL A   1      37.928  34.269  41.564  1.00  0.00    -0.744 OA
ENDBRANCH  52  56
ENDBRANCH  25  49
BRANCH  37  60
ATOM     60  C   UNL A   1      44.211  28.587  35.298  1.00  0.00     0.023 A 
ATOM     61  C   UNL A   1      44.073  27.557  36.243  1.00  0.00     0.031 A 
ATOM     62  C   UNL A   1      45.493  29.126  35.085  1.00  0.00     0.131 A 
ATOM     63  C   UNL A   1      45.187  27.139  36.986  1.00  0.00     0.055 A 
ATOM     64  C   UNL A   1      46.609  28.662  35.782  1.00  0.00     0.041 A 
ATOM     65  F   UNL A   1      45.680  30.115  34.197  1.00  0.00    -0.206 F 
ATOM     66  C   UNL A   1      46.456  27.673  36.750  1.00  0.00     0.022 A 
BRANCH  63  67
ATOM     67  S   UNL A   1      44.935  25.957  38.339  1.00  0.00     0.124 S 
ATOM     68  O   UNL A   1      44.696  24.713  37.616  1.00  0.00    -0.237 OA
ATOM     69  O   UNL A   1      46.197  26.040  39.066  1.00  0.00    -0.237 OA
ATOM     70  O   UNL A   1      43.775  26.494  39.050  1.00  0.00    -0.744 OA
ENDBRANCH  63  67
ENDBRANCH  37  60
ENDBRANCH  11  12
ENDBRANCH   4   6
ENDBRANCH   1   2
BRANCH   1  71
ATOM     71  C   UNL A   1      31.418  32.249  26.584  1.00  0.00     0.042 C 
BRANCH  71  72
ATOM     72  C   UNL A   1      31.507  30.838  26.023  1.00  0.00     0.118 C 
BRANCH  72  73
ATOM     73  N   UNL A   1      31.698  29.863  27.082  1.00  0.00    -0.352 N 
ATOM     74  C   UNL A   1      31.865  28.514  26.945  1.00  0.00     0.255 C 
ATOM     75  H   UNL A   1      31.709  30.213  28.001  1.00  0.00     0.163 HD
ATOM     76  O   UNL A   1      31.860  27.765  27.918  1.00  0.00    -0.269 OA
BRANCH  74  77
ATOM     77  C   UNL A   1      32.015  27.955  25.596  1.00  0.00     0.081 A 
ATOM     78  C   UNL A   1      30.938  27.265  25.040  1.00  0.00     0.020 A 
ATOM     79  C   UNL A   1      33.214  28.084  24.891  1.00  0.00     0.130 A 
ATOM     80  C   UNL A   1      31.093  26.626  23.809  1.00  0.00     0.027 A 
ATOM     81  C   UNL A   1      33.370  27.435  23.671  1.00  0.00     0.073 A 
ATOM     82  C   UNL A   1      32.338  26.626  23.177  1.00  0.00     0.044 A 
BRANCH  79  83
ATOM     83  O   UNL A   1      34.241  28.824  25.406  1.00  0.00    -0.507 OA
ATOM     84  H   UNL A   1      34.269  29.750  25.261  1.00  0.00     0.293 HD
ENDBRANCH  79  83
BRANCH  82  85
ATOM     85  N   UNL A   1      32.664  25.801  22.097  1.00  0.00    -0.324 N 
ATOM     86  C   UNL A   1      33.089  24.501  22.034  1.00  0.00     0.255 C 
ATOM     87  H   UNL A   1      32.571  26.234  21.218  1.00  0.00     0.170 HD
ATOM     88  O   UNL A   1      33.329  24.081  20.894  1.00  0.00    -0.272 OA
BRANCH  86  89
ATOM     89  C   UNL A   1      33.313  23.624  23.284  1.00  0.00     0.233 C 
ATOM     90  C   UNL A   1      34.746  23.694  23.834  1.00  0.00     0.202 C 
ATOM     91  O   UNL A   1      33.051  22.241  22.937  1.00  0.00    -0.364 OA
ATOM     92  O   UNL A   1      34.866  22.882  25.016  1.00  0.00    -0.376 OA
ATOM     93  C   UNL A   1      33.193  21.386  24.076  1.00  0.00     0.189 C 
ATOM     94  C   UNL A   1      34.583  21.516  24.695  1.00  0.00     0.188 C 
ENDBRANCH  86  89
ENDBRANCH  82  85
ENDBRANCH  74  77
ENDBRANCH  72  73
ENDBRANCH  71  72
ENDBRANCH   1  71
TORSDOF 16
ENDMDL
