MODEL 1
REMARK VINA RESULT:     -12.4      0.000      0.000
REMARK SMILES O=C(NCCCNC(=O)c1ccc([C@H]2CCC[N@@H+](CCN3CCCC3=O)C2)cc1)c1ccc(-c2c3nc(c(-c4cc(S(=O)(=O)[O-])ccc4F)c4ccc([nH]4)c(-c4cc(S(=O)(=O)[O-])ccc4F)c4nc(c(-c5cc(S(=O)(=O)[O-])ccc5F)c5ccc2[nH]5)C=C4)C=C3)cc1
REMARK SMILES IDX 5 1 4 2 3 3 1 4 2 5 30 7 31 8 92 9 32 10 91 11 33 12 34 13
REMARK SMILES IDX 35 14 85 15 36 16 90 17 84 18 86 19 37 20 89 21 83 22 82 23
REMARK SMILES IDX 38 25 70 26 50 27 69 28 51 29 54 30 68 31 87 32 52 33 53 34
REMARK SMILES IDX 67 36 88 37 55 38 39 39 40 40 48 41 41 42 47 43 49 44 46 45
REMARK SMILES IDX 42 46 43 47 44 48 45 49 71 50 72 51 80 52 73 53 79 54 81 55
REMARK SMILES IDX 78 56 74 57 75 58 76 59 77 60 56 61 57 62 65 63 58 64 64 65
REMARK SMILES IDX 66 66 63 67 59 68 60 69 61 70 62 71 6 72 7 73 8 74 9 76
REMARK SMILES IDX 10 77 11 78 29 79 12 80 28 81 13 82 14 83 15 84 27 85 16 86
REMARK SMILES IDX 18 87 17 88 19 90 20 91 21 92 22 93 25 94 23 95 24 96 26 97
REMARK H PARENT 3 6 86 24 54 35 7 75 18 89
REMARK Flexibility Score: inf
ROOT
ATOM      1  C   UNL A   1      31.688  31.857  26.524  1.00  0.00     0.042 C 
ENDROOT
BRANCH   1   2
ATOM      2  C   UNL A   1      32.899  32.464  27.221  1.00  0.00     0.118 C 
BRANCH   2   3
ATOM      3  N   UNL A   1      32.668  33.823  27.698  1.00  0.00    -0.352 N 
ATOM      4  O   UNL A   1      32.808  35.603  29.067  1.00  0.00    -0.269 OA
ATOM      5  C   UNL A   1      33.251  34.505  28.741  1.00  0.00     0.251 C 
ATOM      6  H   UNL A   1      31.990  34.331  27.195  1.00  0.00     0.163 HD
BRANCH   5   7
ATOM      7  C   UNL A   1      34.387  33.912  29.484  1.00  0.00     0.039 A 
ATOM      8  C   UNL A   1      35.704  34.253  29.171  1.00  0.00     0.014 A 
ATOM      9  C   UNL A   1      34.131  33.013  30.524  1.00  0.00     0.014 A 
ATOM     10  C   UNL A   1      36.758  33.577  29.776  1.00  0.00     0.010 A 
ATOM     11  C   UNL A   1      35.196  32.409  31.202  1.00  0.00     0.010 A 
ATOM     12  C   UNL A   1      36.520  32.661  30.813  1.00  0.00    -0.014 A 
BRANCH  12  13
ATOM     13  C   UNL A   1      37.676  32.035  31.509  1.00  0.00     0.031 A 
ATOM     14  C   UNL A   1      38.516  30.982  30.837  1.00  0.00     0.074 A 
ATOM     15  C   UNL A   1      37.980  32.449  32.755  1.00  0.00     0.049 A 
ATOM     16  N   UNL A   1      39.559  30.338  31.301  1.00  0.00    -0.248 NA
ATOM     17  C   UNL A   1      38.130  30.593  29.473  1.00  0.00     0.031 C 
ATOM     18  C   UNL A   1      37.233  33.460  33.508  1.00  0.00     0.029 A 
ATOM     19  N   UNL A   1      38.996  32.090  33.604  1.00  0.00    -0.354 N 
ATOM     20  C   UNL A   1      39.947  29.460  30.294  1.00  0.00     0.074 A 
ATOM     21  C   UNL A   1      39.002  29.628  29.210  1.00  0.00     0.031 C 
ATOM     22  C   UNL A   1      37.841  33.672  34.684  1.00  0.00     0.029 A 
ATOM     23  C   UNL A   1      38.969  32.758  34.806  1.00  0.00     0.049 A 
ATOM     24  H   UNL A   1      39.678  31.418  33.374  1.00  0.00     0.167 HD
ATOM     25  C   UNL A   1      40.999  28.602  30.277  1.00  0.00     0.034 A 
ATOM     26  C   UNL A   1      39.744  32.630  35.901  1.00  0.00     0.034 A 
ATOM     27  C   UNL A   1      41.928  28.446  31.375  1.00  0.00     0.049 A 
ATOM     28  C   UNL A   1      40.867  31.631  35.878  1.00  0.00     0.074 A 
ATOM     29  C   UNL A   1      43.046  27.633  31.449  1.00  0.00     0.029 A 
ATOM     30  N   UNL A   1      41.840  29.106  32.596  1.00  0.00    -0.354 N 
ATOM     31  N   UNL A   1      41.237  30.827  34.907  1.00  0.00    -0.248 NA
ATOM     32  C   UNL A   1      41.681  31.525  37.093  1.00  0.00     0.031 C 
ATOM     33  C   UNL A   1      43.583  27.738  32.737  1.00  0.00     0.029 A 
ATOM     34  C   UNL A   1      42.858  28.685  33.442  1.00  0.00     0.049 A 
ATOM     35  H   UNL A   1      41.155  29.774  32.828  1.00  0.00     0.167 HD
ATOM     36  C   UNL A   1      42.342  30.134  35.391  1.00  0.00     0.074 A 
ATOM     37  C   UNL A   1      42.590  30.633  36.729  1.00  0.00     0.031 C 
ATOM     38  C   UNL A   1      43.086  29.175  34.782  1.00  0.00     0.034 A 
BRANCH  25  39
ATOM     39  C   UNL A   1      41.170  27.728  29.055  1.00  0.00     0.023 A 
ATOM     40  C   UNL A   1      42.181  27.964  28.105  1.00  0.00     0.031 A 
ATOM     41  C   UNL A   1      40.298  26.648  28.826  1.00  0.00     0.131 A 
ATOM     42  C   UNL A   1      42.247  27.183  26.941  1.00  0.00     0.055 A 
ATOM     43  C   UNL A   1      40.422  25.821  27.707  1.00  0.00     0.041 A 
ATOM     44  F   UNL A   1      39.299  26.383  29.682  1.00  0.00    -0.206 F 
ATOM     45  C   UNL A   1      41.391  26.096  26.748  1.00  0.00     0.022 A 
BRANCH  42  46
ATOM     46  S   UNL A   1      43.369  27.700  25.612  1.00  0.00     0.124 S 
ATOM     47  O   UNL A   1      44.288  26.567  25.540  1.00  0.00    -0.237 OA
ATOM     48  O   UNL A   1      42.465  27.862  24.479  1.00  0.00    -0.237 OA
ATOM     49  O   UNL A   1      43.959  28.937  26.122  1.00  0.00    -0.744 OA
ENDBRANCH  42  46
ENDBRANCH  25  39
BRANCH  26  50
ATOM     50  C   UNL A   1      39.452  33.437  37.120  1.00  0.00     0.023 A 
ATOM     51  C   UNL A   1      40.094  34.662  37.354  1.00  0.00     0.031 A 
ATOM     52  C   UNL A   1      38.541  32.975  38.089  1.00  0.00     0.131 A 
ATOM     53  C   UNL A   1      39.847  35.363  38.545  1.00  0.00     0.055 A 
ATOM     54  C   UNL A   1      38.252  33.705  39.241  1.00  0.00     0.041 A 
ATOM     55  F   UNL A   1      37.898  31.808  37.914  1.00  0.00    -0.206 F 
ATOM     56  C   UNL A   1      38.918  34.902  39.481  1.00  0.00     0.022 A 
BRANCH  53  57
ATOM     57  S   UNL A   1      40.828  36.846  38.897  1.00  0.00     0.124 S 
ATOM     58  O   UNL A   1      41.642  36.956  37.692  1.00  0.00    -0.237 OA
ATOM     59  O   UNL A   1      39.794  37.860  39.068  1.00  0.00    -0.237 OA
ATOM     60  O   UNL A   1      41.558  36.491  40.112  1.00  0.00    -0.744 OA
ENDBRANCH  53  57
ENDBRANCH  26  50
BRANCH  38  61
ATOM     61  C   UNL A   1      44.266  28.635  35.555  1.00  0.00     0.023 A 
ATOM     62  C   UNL A   1      44.130  27.586  36.481  1.00  0.00     0.031 A 
ATOM     63  C   UNL A   1      45.543  29.197  35.377  1.00  0.00     0.131 A 
ATOM     64  C   UNL A   1      45.237  27.173  37.239  1.00  0.00     0.055 A 
ATOM     65  C   UNL A   1      46.654  28.737  36.084  1.00  0.00     0.041 A 
ATOM     66  F   UNL A   1      45.731  30.205  34.511  1.00  0.00    -0.206 F 
ATOM     67  C   UNL A   1      46.502  27.730  37.032  1.00  0.00     0.022 A 
BRANCH  64  68
ATOM     68  S   UNL A   1      44.982  25.971  38.573  1.00  0.00     0.124 S 
ATOM     69  O   UNL A   1      46.240  26.063  39.307  1.00  0.00    -0.237 OA
ATOM     70  O   UNL A   1      43.806  26.506  39.253  1.00  0.00    -0.237 OA
ATOM     71  O   UNL A   1      44.768  24.711  37.864  1.00  0.00    -0.744 OA
ENDBRANCH  64  68
ENDBRANCH  38  61
ENDBRANCH  12  13
ENDBRANCH   5   7
ENDBRANCH   2   3
ENDBRANCH   1   2
BRANCH   1  72
ATOM     72  C   UNL A   1      31.855  30.398  26.116  1.00  0.00     0.118 C 
BRANCH  72  73
ATOM     73  N   UNL A   1      31.154  30.081  24.879  1.00  0.00    -0.352 N 
ATOM     74  C   UNL A   1      31.206  28.954  24.096  1.00  0.00     0.251 C 
ATOM     75  H   UNL A   1      30.548  30.786  24.553  1.00  0.00     0.163 HD
ATOM     76  O   UNL A   1      30.689  28.951  22.984  1.00  0.00    -0.269 OA
BRANCH  74  77
ATOM     77  C   UNL A   1      31.879  27.738  24.592  1.00  0.00     0.039 A 
ATOM     78  C   UNL A   1      33.186  27.461  24.193  1.00  0.00     0.014 A 
ATOM     79  C   UNL A   1      31.196  26.836  25.403  1.00  0.00     0.014 A 
ATOM     80  C   UNL A   1      33.853  26.344  24.712  1.00  0.00     0.005 A 
ATOM     81  C   UNL A   1      31.864  25.721  25.909  1.00  0.00     0.005 A 
ATOM     82  C   UNL A   1      33.226  25.491  25.637  1.00  0.00    -0.039 A 
BRANCH  82  83
ATOM     83  C   UNL A   1      34.014  24.363  26.329  1.00  0.00     0.074 C 
ATOM     84  C   UNL A   1      33.202  23.052  26.379  1.00  0.00     0.020 C 
ATOM     85  C   UNL A   1      35.364  24.078  25.623  1.00  0.00     0.270 C 
ATOM     86  C   UNL A   1      34.042  21.880  26.881  1.00  0.00     0.062 C 
ATOM     87  N   UNL A   1      36.116  22.913  26.095  1.00  0.00    -0.333 N 
ATOM     88  C   UNL A   1      35.310  21.697  26.047  1.00  0.00     0.262 C 
ATOM     89  H   UNL A   1      36.338  23.059  27.081  1.00  0.00     0.348 HD
BRANCH  87  90
ATOM     90  C   UNL A   1      37.420  22.789  25.403  1.00  0.00     0.284 C 
BRANCH  90  91
ATOM     91  C   UNL A   1      38.182  21.433  25.344  1.00  0.00     0.180 C 
BRANCH  91  92
ATOM     92  N   UNL A   1      39.372  21.259  26.174  1.00  0.00    -0.337 N 
ATOM     93  C   UNL A   1      39.911  22.360  26.943  1.00  0.00     0.120 C 
ATOM     94  C   UNL A   1      40.201  20.145  26.230  1.00  0.00     0.222 C 
ATOM     95  C   UNL A   1      41.299  21.894  27.351  1.00  0.00     0.031 C 
ATOM     96  C   UNL A   1      41.174  20.383  27.360  1.00  0.00     0.102 C 
ATOM     97  O   UNL A   1      40.129  19.124  25.577  1.00  0.00    -0.275 OA
ENDBRANCH  91  92
ENDBRANCH  90  91
ENDBRANCH  87  90
ENDBRANCH  82  83
ENDBRANCH  74  77
ENDBRANCH  72  73
ENDBRANCH   1  72
TORSDOF 17
ENDMDL
MODEL 2
REMARK VINA RESULT:     -12.1      2.577      3.317
REMARK SMILES O=C(NCCCNC(=O)c1ccc([C@H]2CCC[N@@H+](CCN3CCCC3=O)C2)cc1)c1ccc(-c2c3nc(c(-c4cc(S(=O)(=O)[O-])ccc4F)c4ccc([nH]4)c(-c4cc(S(=O)(=O)[O-])ccc4F)c4nc(c(-c5cc(S(=O)(=O)[O-])ccc5F)c5ccc2[nH]5)C=C4)C=C3)cc1
REMARK SMILES IDX 5 1 4 2 3 3 1 4 2 5 30 7 31 8 92 9 32 10 91 11 33 12 34 13
REMARK SMILES IDX 35 14 85 15 36 16 90 17 84 18 86 19 37 20 89 21 83 22 82 23
REMARK SMILES IDX 38 25 70 26 50 27 69 28 51 29 54 30 68 31 87 32 52 33 53 34
REMARK SMILES IDX 67 36 88 37 55 38 39 39 40 40 48 41 41 42 47 43 49 44 46 45
REMARK SMILES IDX 42 46 43 47 44 48 45 49 71 50 72 51 80 52 73 53 79 54 81 55
REMARK SMILES IDX 78 56 74 57 75 58 76 59 77 60 56 61 57 62 65 63 58 64 64 65
REMARK SMILES IDX 66 66 63 67 59 68 60 69 61 70 62 71 6 72 7 73 8 74 9 76
REMARK SMILES IDX 10 77 11 78 29 79 12 80 28 81 13 82 14 83 15 84 27 85 16 86
REMARK SMILES IDX 18 87 17 88 19 90 20 91 21 92 22 93 25 94 23 95 24 96 26 97
REMARK H PARENT 3 6 86 24 54 35 7 75 18 89
REMARK Flexibility Score: inf
ROOT
ATOM      1  C   UNL A   1      31.179  32.019  26.381  1.00  0.00     0.042 C 
ENDROOT
BRANCH   1   2
ATOM      2  C   UNL A   1      32.489  32.441  27.036  1.00  0.00     0.118 C 
BRANCH   2   3
ATOM      3  N   UNL A   1      32.489  33.828  27.485  1.00  0.00    -0.352 N 
ATOM      4  O   UNL A   1      33.025  35.609  28.752  1.00  0.00    -0.269 OA
ATOM      5  C   UNL A   1      33.285  34.457  28.414  1.00  0.00     0.251 C 
ATOM      6  H   UNL A   1      31.815  34.404  27.057  1.00  0.00     0.163 HD
BRANCH   5   7
ATOM      7  C   UNL A   1      34.433  33.746  29.023  1.00  0.00     0.039 A 
ATOM      8  C   UNL A   1      34.233  32.664  29.882  1.00  0.00     0.014 A 
ATOM      9  C   UNL A   1      35.734  34.158  28.718  1.00  0.00     0.014 A 
ATOM     10  C   UNL A   1      35.311  32.106  30.560  1.00  0.00     0.010 A 
ATOM     11  C   UNL A   1      36.827  33.527  29.325  1.00  0.00     0.010 A 
ATOM     12  C   UNL A   1      36.624  32.516  30.276  1.00  0.00    -0.014 A 
BRANCH  12  13
ATOM     13  C   UNL A   1      37.760  31.825  30.943  1.00  0.00     0.031 A 
ATOM     14  C   UNL A   1      38.572  30.783  30.222  1.00  0.00     0.074 A 
ATOM     15  C   UNL A   1      38.072  32.170  32.208  1.00  0.00     0.049 A 
ATOM     16  N   UNL A   1      39.595  30.089  30.655  1.00  0.00    -0.248 NA
ATOM     17  C   UNL A   1      38.179  30.472  28.841  1.00  0.00     0.031 C 
ATOM     18  C   UNL A   1      37.351  33.164  33.009  1.00  0.00     0.029 A 
ATOM     19  N   UNL A   1      39.075  31.742  33.040  1.00  0.00    -0.354 N 
ATOM     20  C   UNL A   1      39.962  29.250  29.608  1.00  0.00     0.074 A 
ATOM     21  C   UNL A   1      39.024  29.497  28.532  1.00  0.00     0.031 C 
ATOM     22  C   UNL A   1      37.962  33.302  34.193  1.00  0.00     0.029 A 
ATOM     23  C   UNL A   1      39.063  32.352  34.273  1.00  0.00     0.049 A 
ATOM     24  H   UNL A   1      39.739  31.064  32.779  1.00  0.00     0.167 HD
ATOM     25  C   UNL A   1      40.989  28.365  29.551  1.00  0.00     0.034 A 
ATOM     26  C   UNL A   1      39.832  32.150  35.361  1.00  0.00     0.034 A 
ATOM     27  C   UNL A   1      41.911  28.131  30.641  1.00  0.00     0.049 A 
ATOM     28  C   UNL A   1      40.927  31.122  35.291  1.00  0.00     0.074 A 
ATOM     29  C   UNL A   1      43.006  27.284  30.678  1.00  0.00     0.029 A 
ATOM     30  N   UNL A   1      41.838  28.733  31.893  1.00  0.00    -0.354 N 
ATOM     31  N   UNL A   1      41.277  30.356  34.284  1.00  0.00    -0.248 NA
ATOM     32  C   UNL A   1      41.734  30.935  36.502  1.00  0.00     0.031 C 
ATOM     33  C   UNL A   1      43.543  27.311  31.970  1.00  0.00     0.029 A 
ATOM     34  C   UNL A   1      42.842  28.243  32.718  1.00  0.00     0.049 A 
ATOM     35  H   UNL A   1      41.171  29.407  32.156  1.00  0.00     0.167 HD
ATOM     36  C   UNL A   1      42.361  29.610  34.735  1.00  0.00     0.074 A 
ATOM     37  C   UNL A   1      42.619  30.037  36.096  1.00  0.00     0.031 C 
ATOM     38  C   UNL A   1      43.079  28.661  34.082  1.00  0.00     0.034 A 
BRANCH  25  39
ATOM     39  C   UNL A   1      41.140  27.546  28.288  1.00  0.00     0.023 A 
ATOM     40  C   UNL A   1      40.808  26.179  28.242  1.00  0.00     0.031 A 
ATOM     41  C   UNL A   1      41.638  28.137  27.113  1.00  0.00     0.131 A 
ATOM     42  C   UNL A   1      41.047  25.437  27.075  1.00  0.00     0.055 A 
ATOM     43  C   UNL A   1      41.794  27.413  25.929  1.00  0.00     0.041 A 
ATOM     44  F   UNL A   1      41.994  29.431  27.097  1.00  0.00    -0.206 F 
ATOM     45  C   UNL A   1      41.513  26.051  25.909  1.00  0.00     0.022 A 
BRANCH  42  46
ATOM     46  S   UNL A   1      40.885  23.632  27.145  1.00  0.00     0.124 S 
ATOM     47  O   UNL A   1      41.587  23.222  25.931  1.00  0.00    -0.237 OA
ATOM     48  O   UNL A   1      41.542  23.304  28.404  1.00  0.00    -0.237 OA
ATOM     49  O   UNL A   1      39.439  23.415  27.119  1.00  0.00    -0.744 OA
ENDBRANCH  42  46
ENDBRANCH  25  39
BRANCH  26  50
ATOM     50  C   UNL A   1      39.559  32.904  36.618  1.00  0.00     0.023 A 
ATOM     51  C   UNL A   1      38.723  32.382  37.615  1.00  0.00     0.031 A 
ATOM     52  C   UNL A   1      40.116  34.181  36.827  1.00  0.00     0.131 A 
ATOM     53  C   UNL A   1      38.433  33.148  38.755  1.00  0.00     0.055 A 
ATOM     54  C   UNL A   1      39.875  34.912  37.989  1.00  0.00     0.041 A 
ATOM     55  F   UNL A   1      40.925  34.728  35.904  1.00  0.00    -0.206 F 
ATOM     56  C   UNL A   1      39.017  34.401  38.957  1.00  0.00     0.022 A 
BRANCH  53  57
ATOM     57  S   UNL A   1      37.206  32.520  39.932  1.00  0.00     0.124 S 
ATOM     58  O   UNL A   1      37.886  31.349  40.474  1.00  0.00    -0.237 OA
ATOM     59  O   UNL A   1      37.051  33.651  40.841  1.00  0.00    -0.237 OA
ATOM     60  O   UNL A   1      36.044  32.234  39.092  1.00  0.00    -0.744 OA
ENDBRANCH  53  57
ENDBRANCH  26  50
BRANCH  38  61
ATOM     61  C   UNL A   1      44.242  28.052  34.829  1.00  0.00     0.023 A 
ATOM     62  C   UNL A   1      44.093  26.903  35.624  1.00  0.00     0.031 A 
ATOM     63  C   UNL A   1      45.515  28.648  34.760  1.00  0.00     0.131 A 
ATOM     64  C   UNL A   1      45.181  26.420  36.368  1.00  0.00     0.055 A 
ATOM     65  C   UNL A   1      46.609  28.124  35.449  1.00  0.00     0.041 A 
ATOM     66  F   UNL A   1      45.715  29.750  34.022  1.00  0.00    -0.206 F 
ATOM     67  C   UNL A   1      46.443  27.013  36.271  1.00  0.00     0.022 A 
BRANCH  64  68
ATOM     68  S   UNL A   1      44.902  25.071  37.547  1.00  0.00     0.124 S 
ATOM     69  O   UNL A   1      45.703  25.497  38.690  1.00  0.00    -0.237 OA
ATOM     70  O   UNL A   1      43.455  25.113  37.732  1.00  0.00    -0.237 OA
ATOM     71  O   UNL A   1      45.403  23.891  36.844  1.00  0.00    -0.744 OA
ENDBRANCH  64  68
ENDBRANCH  38  61
ENDBRANCH  12  13
ENDBRANCH   5   7
ENDBRANCH   2   3
ENDBRANCH   1   2
BRANCH   1  72
ATOM     72  C   UNL A   1      31.273  30.765  25.522  1.00  0.00     0.118 C 
BRANCH  72  73
ATOM     73  N   UNL A   1      30.287  30.747  24.451  1.00  0.00    -0.352 N 
ATOM     74  C   UNL A   1      30.130  29.868  23.407  1.00  0.00     0.251 C 
ATOM     75  H   UNL A   1      29.629  31.480  24.479  1.00  0.00     0.163 HD
ATOM     76  O   UNL A   1      29.356  30.130  22.491  1.00  0.00    -0.269 OA
BRANCH  74  77
ATOM     77  C   UNL A   1      30.886  28.602  23.384  1.00  0.00     0.039 A 
ATOM     78  C   UNL A   1      32.117  28.543  22.731  1.00  0.00     0.014 A 
ATOM     79  C   UNL A   1      30.350  27.451  23.955  1.00  0.00     0.014 A 
ATOM     80  C   UNL A   1      32.869  27.363  22.762  1.00  0.00     0.005 A 
ATOM     81  C   UNL A   1      31.102  26.276  23.975  1.00  0.00     0.005 A 
ATOM     82  C   UNL A   1      32.407  26.227  23.448  1.00  0.00    -0.039 A 
BRANCH  82  83
ATOM     83  C   UNL A   1      33.306  24.989  23.620  1.00  0.00     0.074 C 
ATOM     84  C   UNL A   1      33.805  24.847  25.073  1.00  0.00     0.020 C 
ATOM     85  C   UNL A   1      32.579  23.680  23.220  1.00  0.00     0.270 C 
ATOM     86  C   UNL A   1      34.531  23.523  25.300  1.00  0.00     0.062 C 
ATOM     87  N   UNL A   1      33.282  22.427  23.503  1.00  0.00    -0.333 N 
ATOM     88  C   UNL A   1      33.660  22.329  24.909  1.00  0.00     0.262 C 
ATOM     89  H   UNL A   1      34.159  22.432  22.981  1.00  0.00     0.348 HD
BRANCH  87  90
ATOM     90  C   UNL A   1      32.526  21.253  23.007  1.00  0.00     0.284 C 
BRANCH  90  91
ATOM     91  C   UNL A   1      32.146  20.075  23.951  1.00  0.00     0.180 C 
BRANCH  91  92
ATOM     92  N   UNL A   1      32.959  18.861  23.921  1.00  0.00    -0.337 N 
ATOM     93  C   UNL A   1      34.076  18.691  24.826  1.00  0.00     0.120 C 
ATOM     94  C   UNL A   1      32.896  17.830  22.992  1.00  0.00     0.222 C 
ATOM     95  C   UNL A   1      34.856  17.521  24.249  1.00  0.00     0.031 C 
ATOM     96  C   UNL A   1      33.803  16.733  23.495  1.00  0.00     0.102 C 
ATOM     97  O   UNL A   1      32.191  17.753  22.006  1.00  0.00    -0.275 OA
ENDBRANCH  91  92
ENDBRANCH  90  91
ENDBRANCH  87  90
ENDBRANCH  82  83
ENDBRANCH  74  77
ENDBRANCH  72  73
ENDBRANCH   1  72
TORSDOF 17
ENDMDL
MODEL 3
REMARK VINA RESULT:     -12.0      2.153      7.947
REMARK SMILES O=C(NCCCNC(=O)c1ccc([C@H]2CCC[N@@H+](CCN3CCCC3=O)C2)cc1)c1ccc(-c2c3nc(c(-c4cc(S(=O)(=O)[O-])ccc4F)c4ccc([nH]4)c(-c4cc(S(=O)(=O)[O-])ccc4F)c4nc(c(-c5cc(S(=O)(=O)[O-])ccc5F)c5ccc2[nH]5)C=C4)C=C3)cc1
REMARK SMILES IDX 5 1 4 2 3 3 1 4 2 5 30 7 31 8 92 9 32 10 91 11 33 12 34 13
REMARK SMILES IDX 35 14 85 15 36 16 90 17 84 18 86 19 37 20 89 21 83 22 82 23
REMARK SMILES IDX 38 25 70 26 50 27 69 28 51 29 54 30 68 31 87 32 52 33 53 34
REMARK SMILES IDX 67 36 88 37 55 38 39 39 40 40 48 41 41 42 47 43 49 44 46 45
REMARK SMILES IDX 42 46 43 47 44 48 45 49 71 50 72 51 80 52 73 53 79 54 81 55
REMARK SMILES IDX 78 56 74 57 75 58 76 59 77 60 56 61 57 62 65 63 58 64 64 65
REMARK SMILES IDX 66 66 63 67 59 68 60 69 61 70 62 71 6 72 7 73 8 74 9 76
REMARK SMILES IDX 10 77 11 78 29 79 12 80 28 81 13 82 14 83 15 84 27 85 16 86
REMARK SMILES IDX 18 87 17 88 19 90 20 91 21 92 22 93 25 94 23 95 24 96 26 97
REMARK H PARENT 3 6 86 24 54 35 7 75 18 89
REMARK Flexibility Score: inf
ROOT
ATOM      1  C   UNL A   1      31.628  32.097  26.956  1.00  0.00     0.042 C 
ENDROOT
BRANCH   1   2
ATOM      2  C   UNL A   1      32.938  32.831  27.215  1.00  0.00     0.118 C 
BRANCH   2   3
ATOM      3  N   UNL A   1      32.763  34.087  27.933  1.00  0.00    -0.352 N 
ATOM      4  O   UNL A   1      33.018  35.601  29.579  1.00  0.00    -0.269 OA
ATOM      5  C   UNL A   1      33.419  34.572  29.041  1.00  0.00     0.251 C 
ATOM      6  H   UNL A   1      32.068  34.682  27.568  1.00  0.00     0.163 HD
BRANCH   5   7
ATOM      7  C   UNL A   1      34.584  33.847  29.601  1.00  0.00     0.039 A 
ATOM      8  C   UNL A   1      34.408  32.782  30.485  1.00  0.00     0.014 A 
ATOM      9  C   UNL A   1      35.874  34.229  29.222  1.00  0.00     0.014 A 
ATOM     10  C   UNL A   1      35.510  32.214  31.115  1.00  0.00     0.010 A 
ATOM     11  C   UNL A   1      36.985  33.585  29.780  1.00  0.00     0.010 A 
ATOM     12  C   UNL A   1      36.814  32.593  30.756  1.00  0.00    -0.014 A 
BRANCH  12  13
ATOM     13  C   UNL A   1      37.971  31.890  31.373  1.00  0.00     0.031 A 
ATOM     14  C   UNL A   1      38.453  32.241  32.754  1.00  0.00     0.074 A 
ATOM     15  C   UNL A   1      38.571  30.903  30.678  1.00  0.00     0.049 A 
ATOM     16  N   UNL A   1      39.443  31.725  33.439  1.00  0.00    -0.248 NA
ATOM     17  C   UNL A   1      37.739  33.318  33.454  1.00  0.00     0.031 C 
ATOM     18  C   UNL A   1      38.192  30.478  29.327  1.00  0.00     0.029 A 
ATOM     19  N   UNL A   1      39.609  30.069  31.006  1.00  0.00    -0.354 N 
ATOM     20  C   UNL A   1      39.482  32.419  34.643  1.00  0.00     0.074 A 
ATOM     21  C   UNL A   1      38.438  33.421  34.577  1.00  0.00     0.031 C 
ATOM     22  C   UNL A   1      38.953  29.437  28.963  1.00  0.00     0.029 A 
ATOM     23  C   UNL A   1      39.927  29.172  30.013  1.00  0.00     0.049 A 
ATOM     24  H   UNL A   1      40.080  30.108  31.869  1.00  0.00     0.167 HD
ATOM     25  C   UNL A   1      40.307  32.231  35.704  1.00  0.00     0.034 A 
ATOM     26  C   UNL A   1      40.914  28.256  29.938  1.00  0.00     0.034 A 
ATOM     27  C   UNL A   1      41.347  31.227  35.746  1.00  0.00     0.049 A 
ATOM     28  C   UNL A   1      41.850  28.107  31.104  1.00  0.00     0.074 A 
ATOM     29  C   UNL A   1      42.215  30.928  36.783  1.00  0.00     0.029 A 
ATOM     30  N   UNL A   1      41.672  30.368  34.702  1.00  0.00    -0.354 N 
ATOM     31  N   UNL A   1      41.856  28.755  32.247  1.00  0.00    -0.248 NA
ATOM     32  C   UNL A   1      42.909  27.100  30.975  1.00  0.00     0.031 C 
ATOM     33  C   UNL A   1      43.114  29.951  36.339  1.00  0.00     0.029 A 
ATOM     34  C   UNL A   1      42.753  29.571  35.056  1.00  0.00     0.049 A 
ATOM     35  H   UNL A   1      41.204  30.331  33.836  1.00  0.00     0.167 HD
ATOM     36  C   UNL A   1      42.908  28.216  32.981  1.00  0.00     0.074 A 
ATOM     37  C   UNL A   1      43.497  27.177  32.160  1.00  0.00     0.031 C 
ATOM     38  C   UNL A   1      43.345  28.550  34.222  1.00  0.00     0.034 A 
BRANCH  25  39
ATOM     39  C   UNL A   1      40.153  33.163  36.886  1.00  0.00     0.023 A 
ATOM     40  C   UNL A   1      39.467  32.780  38.053  1.00  0.00     0.031 A 
ATOM     41  C   UNL A   1      40.686  34.464  36.839  1.00  0.00     0.131 A 
ATOM     42  C   UNL A   1      39.270  33.706  39.089  1.00  0.00     0.055 A 
ATOM     43  C   UNL A   1      40.561  35.354  37.909  1.00  0.00     0.041 A 
ATOM     44  F   UNL A   1      41.332  34.899  35.746  1.00  0.00    -0.206 F 
ATOM     45  C   UNL A   1      39.836  34.983  39.036  1.00  0.00     0.022 A 
BRANCH  42  46
ATOM     46  S   UNL A   1      38.138  33.272  40.439  1.00  0.00     0.124 S 
ATOM     47  O   UNL A   1      36.859  33.185  39.737  1.00  0.00    -0.237 OA
ATOM     48  O   UNL A   1      38.688  32.011  40.921  1.00  0.00    -0.237 OA
ATOM     49  O   UNL A   1      38.255  34.400  41.362  1.00  0.00    -0.744 OA
ENDBRANCH  42  46
ENDBRANCH  25  39
BRANCH  26  50
ATOM     50  C   UNL A   1      41.088  27.447  28.698  1.00  0.00     0.023 A 
ATOM     51  C   UNL A   1      42.135  27.707  27.800  1.00  0.00     0.031 A 
ATOM     52  C   UNL A   1      40.187  26.413  28.379  1.00  0.00     0.131 A 
ATOM     53  C   UNL A   1      42.230  26.971  26.608  1.00  0.00     0.055 A 
ATOM     54  C   UNL A   1      40.323  25.644  27.224  1.00  0.00     0.041 A 
ATOM     55  F   UNL A   1      39.169  26.122  29.204  1.00  0.00    -0.206 F 
ATOM     56  C   UNL A   1      41.342  25.931  26.323  1.00  0.00     0.022 A 
BRANCH  53  57
ATOM     57  S   UNL A   1      43.480  27.456  25.389  1.00  0.00     0.124 S 
ATOM     58  O   UNL A   1      42.653  27.841  24.251  1.00  0.00    -0.237 OA
ATOM     59  O   UNL A   1      44.170  28.542  26.078  1.00  0.00    -0.237 OA
ATOM     60  O   UNL A   1      44.266  26.238  25.205  1.00  0.00    -0.744 OA
ENDBRANCH  53  57
ENDBRANCH  26  50
BRANCH  38  61
ATOM     61  C   UNL A   1      44.496  27.745  34.778  1.00  0.00     0.023 A 
ATOM     62  C   UNL A   1      44.289  26.571  35.523  1.00  0.00     0.031 A 
ATOM     63  C   UNL A   1      45.821  28.175  34.577  1.00  0.00     0.131 A 
ATOM     64  C   UNL A   1      45.383  25.901  36.092  1.00  0.00     0.055 A 
ATOM     65  C   UNL A   1      46.909  27.467  35.089  1.00  0.00     0.041 A 
ATOM     66  F   UNL A   1      46.078  29.292  33.879  1.00  0.00    -0.206 F 
ATOM     67  C   UNL A   1      46.693  26.332  35.864  1.00  0.00     0.022 A 
BRANCH  64  68
ATOM     68  S   UNL A   1      45.068  24.519  37.223  1.00  0.00     0.124 S 
ATOM     69  O   UNL A   1      43.735  24.837  37.725  1.00  0.00    -0.237 OA
ATOM     70  O   UNL A   1      45.156  23.364  36.335  1.00  0.00    -0.237 OA
ATOM     71  O   UNL A   1      46.143  24.628  38.207  1.00  0.00    -0.744 OA
ENDBRANCH  64  68
ENDBRANCH  38  61
ENDBRANCH  12  13
ENDBRANCH   5   7
ENDBRANCH   2   3
ENDBRANCH   1   2
BRANCH   1  72
ATOM     72  C   UNL A   1      31.781  30.747  26.267  1.00  0.00     0.118 C 
BRANCH  72  73
ATOM     73  N   UNL A   1      30.915  30.613  25.104  1.00  0.00    -0.352 N 
ATOM     74  C   UNL A   1      30.892  29.651  24.124  1.00  0.00     0.251 C 
ATOM     75  H   UNL A   1      30.240  31.323  25.004  1.00  0.00     0.163 HD
ATOM     76  O   UNL A   1      30.214  29.814  23.115  1.00  0.00    -0.269 OA
BRANCH  74  77
ATOM     77  C   UNL A   1      31.678  28.412  24.283  1.00  0.00     0.039 A 
ATOM     78  C   UNL A   1      31.026  27.209  24.550  1.00  0.00     0.014 A 
ATOM     79  C   UNL A   1      33.069  28.450  24.230  1.00  0.00     0.014 A 
ATOM     80  C   UNL A   1      31.761  26.020  24.637  1.00  0.00     0.005 A 
ATOM     81  C   UNL A   1      33.795  27.262  24.326  1.00  0.00     0.005 A 
ATOM     82  C   UNL A   1      33.155  26.015  24.455  1.00  0.00    -0.039 A 
BRANCH  82  83
ATOM     83  C   UNL A   1      33.936  24.690  24.387  1.00  0.00     0.074 C 
ATOM     84  C   UNL A   1      35.117  24.675  25.379  1.00  0.00     0.020 C 
ATOM     85  C   UNL A   1      33.032  23.465  24.680  1.00  0.00     0.270 C 
ATOM     86  C   UNL A   1      35.775  23.300  25.462  1.00  0.00     0.062 C 
ATOM     87  N   UNL A   1      33.705  22.170  24.808  1.00  0.00    -0.333 N 
ATOM     88  C   UNL A   1      34.762  22.211  25.814  1.00  0.00     0.262 C 
ATOM     89  H   UNL A   1      34.173  21.969  23.923  1.00  0.00     0.348 HD
BRANCH  87  90
ATOM     90  C   UNL A   1      32.734  21.069  25.009  1.00  0.00     0.284 C 
BRANCH  90  91
ATOM     91  C   UNL A   1      32.403  20.061  23.870  1.00  0.00     0.180 C 
BRANCH  91  92
ATOM     92  N   UNL A   1      33.066  18.758  23.870  1.00  0.00    -0.337 N 
ATOM     93  C   UNL A   1      34.158  18.479  24.777  1.00  0.00     0.120 C 
ATOM     94  C   UNL A   1      32.876  17.720  22.966  1.00  0.00     0.222 C 
ATOM     95  C   UNL A   1      34.790  17.210  24.229  1.00  0.00     0.031 C 
ATOM     96  C   UNL A   1      33.648  16.535  23.496  1.00  0.00     0.102 C 
ATOM     97  O   UNL A   1      32.164  17.703  21.984  1.00  0.00    -0.275 OA
ENDBRANCH  91  92
ENDBRANCH  90  91
ENDBRANCH  87  90
ENDBRANCH  82  83
ENDBRANCH  74  77
ENDBRANCH  72  73
ENDBRANCH   1  72
TORSDOF 17
ENDMDL
