MODEL 1
REMARK VINA RESULT:     -12.9      0.000      0.000
REMARK SMILES O=C(NCCCNC(=O)c1cc(NC(=O)c2cc([N+](=O)[O-])ccc2N2CCCC2)ccc1Cl)c1ccc(-c2c3nc(c(-c4cc(S(=O)(=O)[O-])ccc4F)c4ccc([nH]4)c(-c4cc(S(=O)(=O)[O-])ccc4F)c4nc(c(-c5cc(S(=O)(=O)[O-])ccc5F)c5ccc2[nH]5)C=C4)C=C3)cc1
REMARK SMILES IDX 5 1 4 2 3 3 1 4 2 5 34 7 35 8 96 9 36 10 95 11 37 12 38 13
REMARK SMILES IDX 39 14 89 15 40 16 94 17 88 18 90 19 41 20 93 21 87 22 86 23
REMARK SMILES IDX 42 25 74 26 54 27 73 28 55 29 58 30 72 31 91 32 56 33 57 34
REMARK SMILES IDX 71 36 92 37 59 38 43 39 44 40 52 41 45 42 51 43 53 44 50 45
REMARK SMILES IDX 46 46 47 47 48 48 49 49 75 50 76 51 84 52 77 53 83 54 85 55
REMARK SMILES IDX 82 56 78 57 79 58 80 59 81 60 60 61 61 62 69 63 62 64 68 65
REMARK SMILES IDX 70 66 67 67 63 68 64 69 65 70 66 71 6 72 7 73 8 74 9 76
REMARK SMILES IDX 10 77 11 78 32 79 12 80 31 81 33 82 30 83 13 84 14 85 15 87
REMARK SMILES IDX 16 88 17 89 24 90 18 91 23 92 22 93 25 94 26 95 29 96 27 97
REMARK SMILES IDX 28 98 19 99 20 100 21 101
REMARK H PARENT 3 6 90 24 58 35 7 75 13 86
REMARK Flexibility Score: inf
ROOT
ATOM      1  C   UNL A   1      36.253  21.095  25.393  1.00  0.00     0.042 C 
ENDROOT
BRANCH   1   2
ATOM      2  C   UNL A   1      37.671  21.093  24.850  1.00  0.00     0.118 C 
BRANCH   2   3
ATOM      3  N   UNL A   1      38.524  20.125  25.515  1.00  0.00    -0.352 N 
ATOM      4  O   UNL A   1      40.366  19.302  26.499  1.00  0.00    -0.269 OA
ATOM      5  C   UNL A   1      39.709  20.300  26.188  1.00  0.00     0.251 C 
ATOM      6  H   UNL A   1      38.204  19.194  25.475  1.00  0.00     0.163 HD
BRANCH   5   7
ATOM      7  C   UNL A   1      40.221  21.651  26.532  1.00  0.00     0.039 A 
ATOM      8  C   UNL A   1      41.394  21.824  27.269  1.00  0.00     0.014 A 
ATOM      9  C   UNL A   1      39.548  22.777  26.042  1.00  0.00     0.014 A 
ATOM     10  C   UNL A   1      41.810  23.103  27.634  1.00  0.00     0.010 A 
ATOM     11  C   UNL A   1      40.026  24.064  26.325  1.00  0.00     0.010 A 
ATOM     12  C   UNL A   1      41.152  24.241  27.142  1.00  0.00    -0.014 A 
BRANCH  12  13
ATOM     13  C   UNL A   1      41.711  25.593  27.426  1.00  0.00     0.031 A 
ATOM     14  C   UNL A   1      40.940  26.606  28.229  1.00  0.00     0.074 A 
ATOM     15  C   UNL A   1      42.940  25.900  26.962  1.00  0.00     0.049 A 
ATOM     16  N   UNL A   1      41.282  27.825  28.566  1.00  0.00    -0.248 NA
ATOM     17  C   UNL A   1      39.610  26.204  28.708  1.00  0.00     0.031 C 
ATOM     18  C   UNL A   1      43.782  25.006  26.163  1.00  0.00     0.029 A 
ATOM     19  N   UNL A   1      43.703  27.032  27.100  1.00  0.00    -0.354 N 
ATOM     20  C   UNL A   1      40.209  28.342  29.286  1.00  0.00     0.074 A 
ATOM     21  C   UNL A   1      39.189  27.313  29.301  1.00  0.00     0.031 C 
ATOM     22  C   UNL A   1      44.957  25.603  25.923  1.00  0.00     0.029 A 
ATOM     23  C   UNL A   1      44.927  26.951  26.477  1.00  0.00     0.049 A 
ATOM     24  H   UNL A   1      43.402  27.828  27.597  1.00  0.00     0.167 HD
ATOM     25  C   UNL A   1      40.092  29.556  29.884  1.00  0.00     0.034 A 
ATOM     26  C   UNL A   1      45.909  27.863  26.338  1.00  0.00     0.034 A 
ATOM     27  C   UNL A   1      41.118  30.574  29.850  1.00  0.00     0.049 A 
ATOM     28  C   UNL A   1      45.728  29.223  26.959  1.00  0.00     0.074 A 
ATOM     29  C   UNL A   1      41.112  31.822  30.451  1.00  0.00     0.029 A 
ATOM     30  N   UNL A   1      42.325  30.473  29.167  1.00  0.00    -0.354 N 
ATOM     31  N   UNL A   1      44.718  29.683  27.660  1.00  0.00    -0.248 NA
ATOM     32  C   UNL A   1      46.821  30.186  26.772  1.00  0.00     0.031 C 
ATOM     33  C   UNL A   1      42.271  32.504  30.064  1.00  0.00     0.029 A 
ATOM     34  C   UNL A   1      43.049  31.650  29.299  1.00  0.00     0.049 A 
ATOM     35  H   UNL A   1      42.622  29.681  28.663  1.00  0.00     0.167 HD
ATOM     36  C   UNL A   1      45.067  30.981  28.019  1.00  0.00     0.074 A 
ATOM     37  C   UNL A   1      46.387  31.221  27.476  1.00  0.00     0.031 C 
ATOM     38  C   UNL A   1      44.359  31.889  28.739  1.00  0.00     0.034 A 
BRANCH  25  39
ATOM     39  C   UNL A   1      38.789  29.868  30.586  1.00  0.00     0.023 A 
ATOM     40  C   UNL A   1      37.769  30.608  29.961  1.00  0.00     0.031 A 
ATOM     41  C   UNL A   1      38.565  29.424  31.901  1.00  0.00     0.131 A 
ATOM     42  C   UNL A   1      36.607  30.942  30.676  1.00  0.00     0.055 A 
ATOM     43  C   UNL A   1      37.372  29.689  32.577  1.00  0.00     0.041 A 
ATOM     44  F   UNL A   1      39.509  28.732  32.559  1.00  0.00    -0.206 F 
ATOM     45  C   UNL A   1      36.390  30.465  31.970  1.00  0.00     0.022 A 
BRANCH  42  46
ATOM     46  S   UNL A   1      35.451  32.132  29.941  1.00  0.00     0.124 S 
ATOM     47  O   UNL A   1      34.510  32.351  31.038  1.00  0.00    -0.237 OA
ATOM     48  O   UNL A   1      36.320  33.256  29.614  1.00  0.00    -0.237 OA
ATOM     49  O   UNL A   1      34.900  31.413  28.794  1.00  0.00    -0.744 OA
ENDBRANCH  42  46
ENDBRANCH  25  39
BRANCH  26  50
ATOM     50  C   UNL A   1      47.131  27.538  25.547  1.00  0.00     0.023 A 
ATOM     51  C   UNL A   1      47.232  27.882  24.190  1.00  0.00     0.031 A 
ATOM     52  C   UNL A   1      48.206  26.845  26.133  1.00  0.00     0.131 A 
ATOM     53  C   UNL A   1      48.363  27.494  23.455  1.00  0.00     0.055 A 
ATOM     54  C   UNL A   1      49.355  26.517  25.414  1.00  0.00     0.041 A 
ATOM     55  F   UNL A   1      48.161  26.492  27.428  1.00  0.00    -0.206 F 
ATOM     56  C   UNL A   1      49.432  26.830  24.061  1.00  0.00     0.022 A 
BRANCH  53  57
ATOM     57  S   UNL A   1      48.376  27.789  21.665  1.00  0.00     0.124 S 
ATOM     58  O   UNL A   1      48.677  26.460  21.148  1.00  0.00    -0.237 OA
ATOM     59  O   UNL A   1      47.021  28.278  21.430  1.00  0.00    -0.237 OA
ATOM     60  O   UNL A   1      49.434  28.782  21.493  1.00  0.00    -0.744 OA
ENDBRANCH  53  57
ENDBRANCH  26  50
BRANCH  38  61
ATOM     61  C   UNL A   1      45.029  33.216  29.013  1.00  0.00     0.023 A 
ATOM     62  C   UNL A   1      44.886  34.314  28.146  1.00  0.00     0.031 A 
ATOM     63  C   UNL A   1      45.839  33.375  30.152  1.00  0.00     0.131 A 
ATOM     64  C   UNL A   1      45.594  35.501  28.398  1.00  0.00     0.055 A 
ATOM     65  C   UNL A   1      46.484  34.581  30.433  1.00  0.00     0.041 A 
ATOM     66  F   UNL A   1      46.016  32.360  31.013  1.00  0.00    -0.206 F 
ATOM     67  C   UNL A   1      46.376  35.647  29.546  1.00  0.00     0.022 A 
BRANCH  64  68
ATOM     68  S   UNL A   1      45.561  36.816  27.148  1.00  0.00     0.124 S 
ATOM     69  O   UNL A   1      46.371  36.238  26.081  1.00  0.00    -0.237 OA
ATOM     70  O   UNL A   1      44.135  36.945  26.868  1.00  0.00    -0.237 OA
ATOM     71  O   UNL A   1      46.164  37.956  27.836  1.00  0.00    -0.744 OA
ENDBRANCH  64  68
ENDBRANCH  38  61
ENDBRANCH  12  13
ENDBRANCH   5   7
ENDBRANCH   2   3
ENDBRANCH   1   2
BRANCH   1  72
ATOM     72  C   UNL A   1      35.145  21.439  24.400  1.00  0.00     0.118 C 
BRANCH  72  73
ATOM     73  N   UNL A   1      33.970  20.574  24.451  1.00  0.00    -0.352 N 
ATOM     74  C   UNL A   1      32.681  20.823  24.872  1.00  0.00     0.252 C 
ATOM     75  H   UNL A   1      34.124  19.657  24.130  1.00  0.00     0.163 HD
ATOM     76  O   UNL A   1      31.823  19.952  24.735  1.00  0.00    -0.269 OA
BRANCH  74  77
ATOM     77  C   UNL A   1      32.330  22.054  25.614  1.00  0.00     0.060 A 
ATOM     78  C   UNL A   1      31.537  22.982  24.910  1.00  0.00     0.041 A 
ATOM     79  C   UNL A   1      32.697  22.318  26.930  1.00  0.00     0.053 A 
ATOM     80  C   UNL A   1      30.934  24.056  25.561  1.00  0.00     0.042 A 
ATOM     81  C   UNL A   1      32.147  23.424  27.580  1.00  0.00     0.023 A 
ATOM     82  Cl  UNL A   1      33.857  21.373  27.791  1.00  0.00    -0.083 Cl
ATOM     83  C   UNL A   1      31.257  24.273  26.906  1.00  0.00     0.028 A 
BRANCH  80  84
ATOM     84  N   UNL A   1      29.995  24.936  24.985  1.00  0.00    -0.322 N 
ATOM     85  C   UNL A   1      30.096  25.984  24.090  1.00  0.00     0.258 C 
ATOM     86  H   UNL A   1      29.072  24.769  25.284  1.00  0.00     0.170 HD
ATOM     87  O   UNL A   1      29.098  26.668  23.855  1.00  0.00    -0.269 OA
BRANCH  85  88
ATOM     88  C   UNL A   1      31.354  26.337  23.399  1.00  0.00     0.070 A 
ATOM     89  C   UNL A   1      31.659  25.549  22.276  1.00  0.00     0.101 A 
ATOM     90  C   UNL A   1      32.146  27.446  23.773  1.00  0.00     0.050 A 
ATOM     91  C   UNL A   1      32.706  25.929  21.439  1.00  0.00     0.270 A 
ATOM     92  C   UNL A   1      33.156  27.826  22.869  1.00  0.00     0.034 A 
ATOM     93  C   UNL A   1      33.435  27.090  21.709  1.00  0.00     0.088 A 
BRANCH  90  94
ATOM     94  N   UNL A   1      31.916  28.178  24.908  1.00  0.00    -0.371 N 
ATOM     95  C   UNL A   1      31.219  29.454  24.957  1.00  0.00     0.116 C 
ATOM     96  C   UNL A   1      32.087  27.668  26.251  1.00  0.00     0.116 C 
ATOM     97  C   UNL A   1      31.820  30.090  26.207  1.00  0.00     0.023 C 
ATOM     98  C   UNL A   1      32.132  28.917  27.133  1.00  0.00     0.023 C 
ENDBRANCH  90  94
BRANCH  91  99
ATOM     99  N   UNL A   1      33.020  25.124  20.253  1.00  0.00     0.062 N 
ATOM    100  O   UNL A   1      33.285  23.925  20.424  1.00  0.00    -0.258 OA
ATOM    101  O   UNL A   1      33.001  25.686  19.149  1.00  0.00    -0.258 OA
ENDBRANCH  91  99
ENDBRANCH  85  88
ENDBRANCH  80  84
ENDBRANCH  74  77
ENDBRANCH  72  73
ENDBRANCH   1  72
TORSDOF 17
ENDMDL
MODEL 2
REMARK VINA RESULT:     -12.7      4.879      8.239
REMARK SMILES O=C(NCCCNC(=O)c1cc(NC(=O)c2cc([N+](=O)[O-])ccc2N2CCCC2)ccc1Cl)c1ccc(-c2c3nc(c(-c4cc(S(=O)(=O)[O-])ccc4F)c4ccc([nH]4)c(-c4cc(S(=O)(=O)[O-])ccc4F)c4nc(c(-c5cc(S(=O)(=O)[O-])ccc5F)c5ccc2[nH]5)C=C4)C=C3)cc1
REMARK SMILES IDX 5 1 4 2 3 3 1 4 2 5 34 7 35 8 96 9 36 10 95 11 37 12 38 13
REMARK SMILES IDX 39 14 89 15 40 16 94 17 88 18 90 19 41 20 93 21 87 22 86 23
REMARK SMILES IDX 42 25 74 26 54 27 73 28 55 29 58 30 72 31 91 32 56 33 57 34
REMARK SMILES IDX 71 36 92 37 59 38 43 39 44 40 52 41 45 42 51 43 53 44 50 45
REMARK SMILES IDX 46 46 47 47 48 48 49 49 75 50 76 51 84 52 77 53 83 54 85 55
REMARK SMILES IDX 82 56 78 57 79 58 80 59 81 60 60 61 61 62 69 63 62 64 68 65
REMARK SMILES IDX 70 66 67 67 63 68 64 69 65 70 66 71 6 72 7 73 8 74 9 76
REMARK SMILES IDX 10 77 11 78 32 79 12 80 31 81 33 82 30 83 13 84 14 85 15 87
REMARK SMILES IDX 16 88 17 89 24 90 18 91 23 92 22 93 25 94 26 95 29 96 27 97
REMARK SMILES IDX 28 98 19 99 20 100 21 101
REMARK H PARENT 3 6 90 24 58 35 7 75 13 86
REMARK Flexibility Score: inf
ROOT
ATOM      1  C   UNL A   1      33.719  28.522  26.214  1.00  0.00     0.042 C 
ENDROOT
BRANCH   1   2
ATOM      2  C   UNL A   1      33.382  29.088  27.582  1.00  0.00     0.118 C 
BRANCH   2   3
ATOM      3  N   UNL A   1      33.424  30.538  27.616  1.00  0.00    -0.352 N 
ATOM      4  O   UNL A   1      34.080  32.588  28.253  1.00  0.00    -0.269 OA
ATOM      5  C   UNL A   1      34.353  31.387  28.169  1.00  0.00     0.251 C 
ATOM      6  H   UNL A   1      32.667  30.985  27.173  1.00  0.00     0.163 HD
BRANCH   5   7
ATOM      7  C   UNL A   1      35.657  30.893  28.678  1.00  0.00     0.039 A 
ATOM      8  C   UNL A   1      35.735  29.846  29.598  1.00  0.00     0.014 A 
ATOM      9  C   UNL A   1      36.839  31.445  28.169  1.00  0.00     0.014 A 
ATOM     10  C   UNL A   1      36.971  29.451  30.109  1.00  0.00     0.010 A 
ATOM     11  C   UNL A   1      38.085  30.978  28.609  1.00  0.00     0.010 A 
ATOM     12  C   UNL A   1      38.164  29.989  29.600  1.00  0.00    -0.014 A 
BRANCH  12  13
ATOM     13  C   UNL A   1      39.471  29.440  30.058  1.00  0.00     0.031 A 
ATOM     14  C   UNL A   1      40.199  30.030  31.236  1.00  0.00     0.074 A 
ATOM     15  C   UNL A   1      39.997  28.382  29.406  1.00  0.00     0.049 A 
ATOM     16  N   UNL A   1      41.344  29.671  31.763  1.00  0.00    -0.248 NA
ATOM     17  C   UNL A   1      39.567  31.176  31.903  1.00  0.00     0.031 C 
ATOM     18  C   UNL A   1      39.392  27.728  28.243  1.00  0.00     0.029 A 
ATOM     19  N   UNL A   1      41.145  27.662  29.627  1.00  0.00    -0.354 N 
ATOM     20  C   UNL A   1      41.576  30.551  32.815  1.00  0.00     0.074 A 
ATOM     21  C   UNL A   1      40.470  31.486  32.824  1.00  0.00     0.031 C 
ATOM     22  C   UNL A   1      40.145  26.679  27.884  1.00  0.00     0.029 A 
ATOM     23  C   UNL A   1      41.328  26.631  28.734  1.00  0.00     0.049 A 
ATOM     24  H   UNL A   1      41.777  27.865  30.354  1.00  0.00     0.167 HD
ATOM     25  C   UNL A   1      42.612  30.570  33.694  1.00  0.00     0.034 A 
ATOM     26  C   UNL A   1      42.345  25.759  28.589  1.00  0.00     0.034 A 
ATOM     27  C   UNL A   1      43.713  29.634  33.664  1.00  0.00     0.049 A 
ATOM     28  C   UNL A   1      43.510  25.841  29.540  1.00  0.00     0.074 A 
ATOM     29  C   UNL A   1      44.792  29.546  34.528  1.00  0.00     0.029 A 
ATOM     30  N   UNL A   1      43.889  28.634  32.714  1.00  0.00    -0.354 N 
ATOM     31  N   UNL A   1      43.699  26.662  30.546  1.00  0.00    -0.248 NA
ATOM     32  C   UNL A   1      44.598  24.876  29.337  1.00  0.00     0.031 C 
ATOM     33  C   UNL A   1      45.658  28.554  34.055  1.00  0.00     0.029 A 
ATOM     34  C   UNL A   1      45.077  27.955  32.948  1.00  0.00     0.049 A 
ATOM     35  H   UNL A   1      43.262  28.436  31.982  1.00  0.00     0.167 HD
ATOM     36  C   UNL A   1      44.916  26.294  31.112  1.00  0.00     0.074 A 
ATOM     37  C   UNL A   1      45.404  25.166  30.347  1.00  0.00     0.031 C 
ATOM     38  C   UNL A   1      45.567  26.840  32.171  1.00  0.00     0.034 A 
BRANCH  25  39
ATOM     39  C   UNL A   1      42.627  31.668  34.735  1.00  0.00     0.023 A 
ATOM     40  C   UNL A   1      41.772  31.644  35.851  1.00  0.00     0.031 A 
ATOM     41  C   UNL A   1      43.505  32.759  34.605  1.00  0.00     0.131 A 
ATOM     42  C   UNL A   1      41.763  32.722  36.751  1.00  0.00     0.055 A 
ATOM     43  C   UNL A   1      43.550  33.787  35.549  1.00  0.00     0.041 A 
ATOM     44  F   UNL A   1      44.330  32.850  33.551  1.00  0.00    -0.206 F 
ATOM     45  C   UNL A   1      42.665  33.780  36.623  1.00  0.00     0.022 A 
BRANCH  42  46
ATOM     46  S   UNL A   1      40.455  32.790  38.007  1.00  0.00     0.124 S 
ATOM     47  O   UNL A   1      41.179  32.398  39.214  1.00  0.00    -0.237 OA
ATOM     48  O   UNL A   1      40.029  34.183  37.944  1.00  0.00    -0.237 OA
ATOM     49  O   UNL A   1      39.474  31.814  37.535  1.00  0.00    -0.744 OA
ENDBRANCH  42  46
ENDBRANCH  25  39
BRANCH  26  50
ATOM     50  C   UNL A   1      42.328  24.762  27.481  1.00  0.00     0.023 A 
ATOM     51  C   UNL A   1      41.631  23.550  27.603  1.00  0.00     0.031 A 
ATOM     52  C   UNL A   1      43.041  24.995  26.290  1.00  0.00     0.131 A 
ATOM     53  C   UNL A   1      41.697  22.600  26.572  1.00  0.00     0.055 A 
ATOM     54  C   UNL A   1      43.052  24.074  25.242  1.00  0.00     0.041 A 
ATOM     55  F   UNL A   1      43.725  26.137  26.120  1.00  0.00    -0.206 F 
ATOM     56  C   UNL A   1      42.388  22.861  25.386  1.00  0.00     0.022 A 
BRANCH  53  57
ATOM     57  S   UNL A   1      40.941  20.973  26.842  1.00  0.00     0.124 S 
ATOM     58  O   UNL A   1      41.957  20.081  26.299  1.00  0.00    -0.237 OA
ATOM     59  O   UNL A   1      40.778  20.954  28.293  1.00  0.00    -0.237 OA
ATOM     60  O   UNL A   1      39.698  21.046  26.078  1.00  0.00    -0.744 OA
ENDBRANCH  53  57
ENDBRANCH  26  50
BRANCH  38  61
ATOM     61  C   UNL A   1      46.863  26.185  32.588  1.00  0.00     0.023 A 
ATOM     62  C   UNL A   1      46.896  25.132  33.521  1.00  0.00     0.031 A 
ATOM     63  C   UNL A   1      48.085  26.636  32.058  1.00  0.00     0.131 A 
ATOM     64  C   UNL A   1      48.130  24.610  33.942  1.00  0.00     0.055 A 
ATOM     65  C   UNL A   1      49.304  26.064  32.429  1.00  0.00     0.041 A 
ATOM     66  F   UNL A   1      48.115  27.641  31.168  1.00  0.00    -0.206 F 
ATOM     67  C   UNL A   1      49.332  25.056  33.387  1.00  0.00     0.022 A 
BRANCH  64  68
ATOM     68  S   UNL A   1      48.149  23.409  35.302  1.00  0.00     0.124 S 
ATOM     69  O   UNL A   1      46.951  22.623  35.028  1.00  0.00    -0.237 OA
ATOM     70  O   UNL A   1      49.422  22.725  35.098  1.00  0.00    -0.237 OA
ATOM     71  O   UNL A   1      48.081  24.247  36.498  1.00  0.00    -0.744 OA
ENDBRANCH  64  68
ENDBRANCH  38  61
ENDBRANCH  12  13
ENDBRANCH   5   7
ENDBRANCH   2   3
ENDBRANCH   1   2
BRANCH   1  72
ATOM     72  C   UNL A   1      33.193  29.299  25.009  1.00  0.00     0.118 C 
BRANCH  72  73
ATOM     73  N   UNL A   1      33.938  29.104  23.768  1.00  0.00    -0.352 N 
ATOM     74  C   UNL A   1      33.631  28.383  22.634  1.00  0.00     0.252 C 
ATOM     75  H   UNL A   1      34.806  29.566  23.736  1.00  0.00     0.163 HD
ATOM     76  O   UNL A   1      34.383  28.439  21.661  1.00  0.00    -0.269 OA
BRANCH  74  77
ATOM     77  C   UNL A   1      32.500  27.431  22.600  1.00  0.00     0.060 A 
ATOM     78  C   UNL A   1      32.837  26.095  22.304  1.00  0.00     0.041 A 
ATOM     79  C   UNL A   1      31.176  27.764  22.873  1.00  0.00     0.053 A 
ATOM     80  C   UNL A   1      31.919  25.062  22.481  1.00  0.00     0.042 A 
ATOM     81  C   UNL A   1      30.230  26.744  22.996  1.00  0.00     0.023 A 
ATOM     82  Cl  UNL A   1      30.624  29.394  23.005  1.00  0.00    -0.083 Cl
ATOM     83  C   UNL A   1      30.605  25.404  22.822  1.00  0.00     0.028 A 
BRANCH  80  84
ATOM     84  N   UNL A   1      32.209  23.687  22.373  1.00  0.00    -0.322 N 
ATOM     85  C   UNL A   1      32.514  22.702  23.293  1.00  0.00     0.258 C 
ATOM     86  H   UNL A   1      32.190  23.358  21.445  1.00  0.00     0.170 HD
ATOM     87  O   UNL A   1      32.849  21.587  22.886  1.00  0.00    -0.269 OA
BRANCH  85  88
ATOM     88  C   UNL A   1      32.469  22.920  24.754  1.00  0.00     0.070 A 
ATOM     89  C   UNL A   1      31.187  23.136  25.285  1.00  0.00     0.101 A 
ATOM     90  C   UNL A   1      33.614  22.821  25.577  1.00  0.00     0.050 A 
ATOM     91  C   UNL A   1      31.013  23.145  26.668  1.00  0.00     0.270 A 
ATOM     92  C   UNL A   1      33.384  22.779  26.965  1.00  0.00     0.034 A 
ATOM     93  C   UNL A   1      32.103  22.929  27.514  1.00  0.00     0.088 A 
BRANCH  90  94
ATOM     94  N   UNL A   1      34.883  22.693  25.078  1.00  0.00    -0.371 N 
ATOM     95  C   UNL A   1      35.650  23.759  24.452  1.00  0.00     0.116 C 
ATOM     96  C   UNL A   1      35.750  21.565  25.341  1.00  0.00     0.116 C 
ATOM     97  C   UNL A   1      36.588  22.975  23.539  1.00  0.00     0.023 C 
ATOM     98  C   UNL A   1      36.839  21.659  24.272  1.00  0.00     0.023 C 
ENDBRANCH  90  94
BRANCH  91  99
ATOM     99  N   UNL A   1      29.673  23.351  27.232  1.00  0.00     0.062 N 
ATOM    100  O   UNL A   1      29.133  24.451  27.048  1.00  0.00    -0.258 OA
ATOM    101  O   UNL A   1      29.159  22.414  27.859  1.00  0.00    -0.258 OA
ENDBRANCH  91  99
ENDBRANCH  85  88
ENDBRANCH  80  84
ENDBRANCH  74  77
ENDBRANCH  72  73
ENDBRANCH   1  72
TORSDOF 17
ENDMDL
MODEL 3
REMARK VINA RESULT:     -12.6      2.446      7.598
REMARK SMILES O=C(NCCCNC(=O)c1cc(NC(=O)c2cc([N+](=O)[O-])ccc2N2CCCC2)ccc1Cl)c1ccc(-c2c3nc(c(-c4cc(S(=O)(=O)[O-])ccc4F)c4ccc([nH]4)c(-c4cc(S(=O)(=O)[O-])ccc4F)c4nc(c(-c5cc(S(=O)(=O)[O-])ccc5F)c5ccc2[nH]5)C=C4)C=C3)cc1
REMARK SMILES IDX 5 1 4 2 3 3 1 4 2 5 34 7 35 8 96 9 36 10 95 11 37 12 38 13
REMARK SMILES IDX 39 14 89 15 40 16 94 17 88 18 90 19 41 20 93 21 87 22 86 23
REMARK SMILES IDX 42 25 74 26 54 27 73 28 55 29 58 30 72 31 91 32 56 33 57 34
REMARK SMILES IDX 71 36 92 37 59 38 43 39 44 40 52 41 45 42 51 43 53 44 50 45
REMARK SMILES IDX 46 46 47 47 48 48 49 49 75 50 76 51 84 52 77 53 83 54 85 55
REMARK SMILES IDX 82 56 78 57 79 58 80 59 81 60 60 61 61 62 69 63 62 64 68 65
REMARK SMILES IDX 70 66 67 67 63 68 64 69 65 70 66 71 6 72 7 73 8 74 9 76
REMARK SMILES IDX 10 77 11 78 32 79 12 80 31 81 33 82 30 83 13 84 14 85 15 87
REMARK SMILES IDX 16 88 17 89 24 90 18 91 23 92 22 93 25 94 26 95 29 96 27 97
REMARK SMILES IDX 28 98 19 99 20 100 21 101
REMARK H PARENT 3 6 90 24 58 35 7 75 13 86
REMARK Flexibility Score: inf
ROOT
ATOM      1  C   UNL A   1      36.730  23.558  24.450  1.00  0.00     0.042 C 
ENDROOT
BRANCH   1   2
ATOM      2  C   UNL A   1      36.861  23.064  25.879  1.00  0.00     0.118 C 
BRANCH   2   3
ATOM      3  N   UNL A   1      37.940  22.107  26.045  1.00  0.00    -0.352 N 
ATOM      4  O   UNL A   1      40.045  21.357  26.251  1.00  0.00    -0.269 OA
ATOM      5  C   UNL A   1      39.262  22.305  26.363  1.00  0.00     0.251 C 
ATOM      6  H   UNL A   1      37.683  21.166  25.907  1.00  0.00     0.163 HD
BRANCH   5   7
ATOM      7  C   UNL A   1      39.768  23.625  26.816  1.00  0.00     0.039 A 
ATOM      8  C   UNL A   1      39.867  24.710  25.943  1.00  0.00     0.014 A 
ATOM      9  C   UNL A   1      40.087  23.804  28.167  1.00  0.00     0.014 A 
ATOM     10  C   UNL A   1      40.410  25.917  26.383  1.00  0.00     0.010 A 
ATOM     11  C   UNL A   1      40.537  25.048  28.629  1.00  0.00     0.010 A 
ATOM     12  C   UNL A   1      40.724  26.113  27.736  1.00  0.00    -0.014 A 
BRANCH  12  13
ATOM     13  C   UNL A   1      41.161  27.460  28.202  1.00  0.00     0.031 A 
ATOM     14  C   UNL A   1      42.611  27.860  28.192  1.00  0.00     0.074 A 
ATOM     15  C   UNL A   1      40.226  28.336  28.625  1.00  0.00     0.049 A 
ATOM     16  N   UNL A   1      43.158  28.991  28.562  1.00  0.00    -0.248 NA
ATOM     17  C   UNL A   1      43.575  26.858  27.713  1.00  0.00     0.031 C 
ATOM     18  C   UNL A   1      38.788  28.062  28.691  1.00  0.00     0.029 A 
ATOM     19  N   UNL A   1      40.333  29.632  29.065  1.00  0.00    -0.354 N 
ATOM     20  C   UNL A   1      44.528  28.838  28.373  1.00  0.00     0.074 A 
ATOM     21  C   UNL A   1      44.729  27.486  27.892  1.00  0.00     0.031 C 
ATOM     22  C   UNL A   1      38.146  29.166  29.098  1.00  0.00     0.029 A 
ATOM     23  C   UNL A   1      39.127  30.201  29.402  1.00  0.00     0.049 A 
ATOM     24  H   UNL A   1      41.193  30.107  29.135  1.00  0.00     0.167 HD
ATOM     25  C   UNL A   1      45.520  29.743  28.575  1.00  0.00     0.034 A 
ATOM     26  C   UNL A   1      38.836  31.409  29.924  1.00  0.00     0.034 A 
ATOM     27  C   UNL A   1      45.301  31.085  29.065  1.00  0.00     0.049 A 
ATOM     28  C   UNL A   1      39.961  32.371  30.195  1.00  0.00     0.074 A 
ATOM     29  C   UNL A   1      46.232  32.089  29.272  1.00  0.00     0.029 A 
ATOM     30  N   UNL A   1      44.069  31.609  29.441  1.00  0.00    -0.354 N 
ATOM     31  N   UNL A   1      41.248  32.218  29.983  1.00  0.00    -0.248 NA
ATOM     32  C   UNL A   1      39.596  33.670  30.772  1.00  0.00     0.031 C 
ATOM     33  C   UNL A   1      45.581  33.185  29.849  1.00  0.00     0.029 A 
ATOM     34  C   UNL A   1      44.225  32.904  29.916  1.00  0.00     0.049 A 
ATOM     35  H   UNL A   1      43.211  31.131  29.380  1.00  0.00     0.167 HD
ATOM     36  C   UNL A   1      41.841  33.413  30.379  1.00  0.00     0.074 A 
ATOM     37  C   UNL A   1      40.770  34.281  30.820  1.00  0.00     0.031 C 
ATOM     38  C   UNL A   1      43.154  33.760  30.372  1.00  0.00     0.034 A 
BRANCH  25  39
ATOM     39  C   UNL A   1      46.941  29.294  28.312  1.00  0.00     0.023 A 
ATOM     40  C   UNL A   1      47.395  28.992  27.015  1.00  0.00     0.031 A 
ATOM     41  C   UNL A   1      47.853  29.161  29.373  1.00  0.00     0.131 A 
ATOM     42  C   UNL A   1      48.698  28.504  26.824  1.00  0.00     0.055 A 
ATOM     43  C   UNL A   1      49.173  28.755  29.166  1.00  0.00     0.041 A 
ATOM     44  F   UNL A   1      47.474  29.414  30.636  1.00  0.00    -0.206 F 
ATOM     45  C   UNL A   1      49.598  28.409  27.887  1.00  0.00     0.022 A 
BRANCH  42  46
ATOM     46  S   UNL A   1      49.149  27.857  25.191  1.00  0.00     0.124 S 
ATOM     47  O   UNL A   1      50.388  28.582  24.914  1.00  0.00    -0.237 OA
ATOM     48  O   UNL A   1      49.291  26.428  25.445  1.00  0.00    -0.237 OA
ATOM     49  O   UNL A   1      48.016  28.233  24.347  1.00  0.00    -0.744 OA
ENDBRANCH  42  46
ENDBRANCH  25  39
BRANCH  26  50
ATOM     50  C   UNL A   1      37.427  31.761  30.261  1.00  0.00     0.023 A 
ATOM     51  C   UNL A   1      36.534  32.214  29.278  1.00  0.00     0.031 A 
ATOM     52  C   UNL A   1      36.961  31.681  31.587  1.00  0.00     0.131 A 
ATOM     53  C   UNL A   1      35.238  32.611  29.641  1.00  0.00     0.055 A 
ATOM     54  C   UNL A   1      35.651  32.016  31.932  1.00  0.00     0.041 A 
ATOM     55  F   UNL A   1      37.773  31.254  32.567  1.00  0.00    -0.206 F 
ATOM     56  C   UNL A   1      34.785  32.498  30.958  1.00  0.00     0.022 A 
BRANCH  53  57
ATOM     57  S   UNL A   1      34.177  33.366  28.379  1.00  0.00     0.124 S 
ATOM     58  O   UNL A   1      33.269  34.164  29.194  1.00  0.00    -0.237 OA
ATOM     59  O   UNL A   1      35.143  34.111  27.578  1.00  0.00    -0.237 OA
ATOM     60  O   UNL A   1      33.571  32.215  27.711  1.00  0.00    -0.744 OA
ENDBRANCH  53  57
ENDBRANCH  26  50
BRANCH  38  61
ATOM     61  C   UNL A   1      43.492  35.163  30.819  1.00  0.00     0.023 A 
ATOM     62  C   UNL A   1      43.536  35.519  32.179  1.00  0.00     0.031 A 
ATOM     63  C   UNL A   1      43.755  36.164  29.866  1.00  0.00     0.131 A 
ATOM     64  C   UNL A   1      43.774  36.854  32.545  1.00  0.00     0.055 A 
ATOM     65  C   UNL A   1      44.059  37.474  30.239  1.00  0.00     0.041 A 
ATOM     66  F   UNL A   1      43.721  35.883  28.553  1.00  0.00    -0.206 F 
ATOM     67  C   UNL A   1      44.054  37.829  31.585  1.00  0.00     0.022 A 
BRANCH  64  68
ATOM     68  S   UNL A   1      43.607  37.322  34.290  1.00  0.00     0.124 S 
ATOM     69  O   UNL A   1      42.789  38.527  34.203  1.00  0.00    -0.237 OA
ATOM     70  O   UNL A   1      42.958  36.150  34.867  1.00  0.00    -0.237 OA
ATOM     71  O   UNL A   1      44.988  37.539  34.719  1.00  0.00    -0.744 OA
ENDBRANCH  64  68
ENDBRANCH  38  61
ENDBRANCH  12  13
ENDBRANCH   5   7
ENDBRANCH   2   3
ENDBRANCH   1   2
BRANCH   1  72
ATOM     72  C   UNL A   1      35.364  23.381  23.792  1.00  0.00     0.118 C 
BRANCH  72  73
ATOM     73  N   UNL A   1      34.805  22.034  23.866  1.00  0.00    -0.352 N 
ATOM     74  C   UNL A   1      33.650  21.565  24.454  1.00  0.00     0.252 C 
ATOM     75  H   UNL A   1      35.345  21.343  23.419  1.00  0.00     0.163 HD
ATOM     76  O   UNL A   1      33.334  20.385  24.307  1.00  0.00    -0.269 OA
BRANCH  74  77
ATOM     77  C   UNL A   1      32.852  22.404  25.375  1.00  0.00     0.060 A 
ATOM     78  C   UNL A   1      32.004  23.347  24.760  1.00  0.00     0.041 A 
ATOM     79  C   UNL A   1      32.864  22.290  26.762  1.00  0.00     0.053 A 
ATOM     80  C   UNL A   1      31.026  24.022  25.487  1.00  0.00     0.042 A 
ATOM     81  C   UNL A   1      31.929  23.006  27.512  1.00  0.00     0.023 A 
ATOM     82  Cl  UNL A   1      34.031  21.348  27.618  1.00  0.00    -0.083 Cl
ATOM     83  C   UNL A   1      31.005  23.848  26.876  1.00  0.00     0.028 A 
BRANCH  80  84
ATOM     84  N   UNL A   1      30.030  24.853  24.936  1.00  0.00    -0.322 N 
ATOM     85  C   UNL A   1      30.053  25.906  24.044  1.00  0.00     0.258 C 
ATOM     86  H   UNL A   1      29.124  24.636  25.257  1.00  0.00     0.170 HD
ATOM     87  O   UNL A   1      29.015  26.537  23.835  1.00  0.00    -0.269 OA
BRANCH  85  88
ATOM     88  C   UNL A   1      31.273  26.327  23.324  1.00  0.00     0.070 A 
ATOM     89  C   UNL A   1      31.627  25.523  22.227  1.00  0.00     0.101 A 
ATOM     90  C   UNL A   1      31.982  27.507  23.645  1.00  0.00     0.050 A 
ATOM     91  C   UNL A   1      32.634  25.948  21.363  1.00  0.00     0.270 A 
ATOM     92  C   UNL A   1      32.952  27.927  22.715  1.00  0.00     0.034 A 
ATOM     93  C   UNL A   1      33.275  27.170  21.581  1.00  0.00     0.088 A 
BRANCH  90  94
ATOM     94  N   UNL A   1      31.709  28.263  24.755  1.00  0.00    -0.371 N 
ATOM     95  C   UNL A   1      31.012  29.540  24.750  1.00  0.00     0.116 C 
ATOM     96  C   UNL A   1      31.824  27.781  26.115  1.00  0.00     0.116 C 
ATOM     97  C   UNL A   1      31.563  30.201  26.009  1.00  0.00     0.023 C 
ATOM     98  C   UNL A   1      31.835  29.047  26.971  1.00  0.00     0.023 C 
ENDBRANCH  90  94
BRANCH  91  99
ATOM     99  N   UNL A   1      32.997  25.124  20.205  1.00  0.00     0.062 N 
ATOM    100  O   UNL A   1      33.307  23.942  20.413  1.00  0.00    -0.258 OA
ATOM    101  O   UNL A   1      32.972  25.655  19.086  1.00  0.00    -0.258 OA
ENDBRANCH  91  99
ENDBRANCH  85  88
ENDBRANCH  80  84
ENDBRANCH  74  77
ENDBRANCH  72  73
ENDBRANCH   1  72
TORSDOF 17
ENDMDL
