MODEL 1
REMARK VINA RESULT:     -13.9      0.000      0.000
REMARK SMILES Cc1cc2nc(NC(=O)[C@H]3[C@@H](C(=O)NCCCNC(=O)c4ccc(-c5c6nc(c(-c7cc(S(=O)(=O)[O-])ccc7F)c7ccc([nH]7)c(-c7cc(S(=O)(=O)[O-])ccc7F)c7nc(c(-c8cc(S(=O)(=O)[O-])ccc8F)c8ccc5[nH]8)C=C7)C=C6)cc4)[C@@H]4C=C[C@H]3C4)sc2cc1C
REMARK SMILES IDX 16 1 15 2 14 3 12 4 13 5 11 7 10 8 87 9 84 10 86 11 88 12
REMARK SMILES IDX 85 13 8 14 7 15 9 17 6 18 1 19 2 20 3 21 92 22 4 23 91 24
REMARK SMILES IDX 93 25 5 26 90 27 89 28 17 29 18 30 19 31 20 33 21 34 22 35
REMARK SMILES IDX 83 36 23 37 82 38 24 39 25 40 26 41 76 42 27 43 81 44 75 45
REMARK SMILES IDX 77 46 28 47 80 48 74 49 73 50 29 52 61 53 41 54 60 55 42 56
REMARK SMILES IDX 45 57 59 58 78 59 43 60 44 61 58 63 79 64 46 65 30 66 31 67
REMARK SMILES IDX 39 68 32 69 38 70 40 71 37 72 33 73 34 74 35 75 36 76 62 77
REMARK SMILES IDX 63 78 71 79 64 80 70 81 72 82 69 83 65 84 66 85 67 86 68 87
REMARK SMILES IDX 47 88 48 89 56 90 49 91 55 92 57 93 54 94 50 95 51 96 52 97
REMARK SMILES IDX 53 98
REMARK H PARENT 14 6 7 16 18 32 77 51 45 62
REMARK Flexibility Score: inf
ROOT
ATOM      1  C   UNL A   1      37.457  20.832  25.084  1.00  0.00     0.042 C 
ENDROOT
BRANCH   1   2
ATOM      2  C   UNL A   1      35.963  21.069  24.874  1.00  0.00     0.117 C 
BRANCH   2   3
ATOM      3  N   UNL A   1      35.709  22.314  24.159  1.00  0.00    -0.356 N 
ATOM      4  C   UNL A   1      34.575  22.825  23.607  1.00  0.00     0.224 C 
ATOM      5  O   UNL A   1      34.702  23.353  22.493  1.00  0.00    -0.275 OA
ATOM      6  H   UNL A   1      36.502  22.889  24.057  1.00  0.00     0.163 HD
BRANCH   4   7
ATOM      7  C   UNL A   1      33.215  22.887  24.310  1.00  0.00     0.098 C 
ATOM      8  C   UNL A   1      32.849  24.212  25.129  1.00  0.00     0.099 C 
ATOM      9  C   UNL A   1      32.508  23.613  26.525  1.00  0.00     0.025 C 
ATOM     10  C   UNL A   1      32.948  21.772  25.336  1.00  0.00     0.025 C 
ATOM     11  C   UNL A   1      31.208  22.848  26.388  1.00  0.00    -0.027 C 
ATOM     12  C   UNL A   1      33.449  22.426  26.624  1.00  0.00     0.017 C 
ATOM     13  C   UNL A   1      31.470  21.752  25.662  1.00  0.00    -0.027 C 
BRANCH   8  14
ATOM     14  C   UNL A   1      33.857  25.368  25.045  1.00  0.00     0.230 C 
ATOM     15  N   UNL A   1      33.639  26.548  24.415  1.00  0.00    -0.302 N 
ATOM     16  H   UNL A   1      34.421  27.145  24.382  1.00  0.00     0.172 HD
ATOM     17  O   UNL A   1      35.017  25.252  25.454  1.00  0.00    -0.274 OA
BRANCH  15  18
ATOM     18  C   UNL A   1      32.525  27.042  23.823  1.00  0.00     0.190 A 
ATOM     19  C   UNL A   1      26.844  28.759  23.110  1.00  0.00     0.044 C 
ATOM     20  C   UNL A   1      28.335  28.740  22.914  1.00  0.00    -0.046 A 
ATOM     21  C   UNL A   1      29.065  27.692  23.506  1.00  0.00     0.033 A 
ATOM     22  C   UNL A   1      29.011  29.708  22.147  1.00  0.00    -0.047 A 
ATOM     23  C   UNL A   1      30.465  27.639  23.393  1.00  0.00     0.084 A 
ATOM     24  C   UNL A   1      30.418  29.680  22.054  1.00  0.00     0.025 A 
ATOM     25  C   UNL A   1      28.296  30.803  21.399  1.00  0.00     0.044 C 
ATOM     26  N   UNL A   1      31.284  26.667  23.934  1.00  0.00    -0.220 NA
ATOM     27  C   UNL A   1      31.122  28.656  22.701  1.00  0.00     0.057 A 
ATOM     28  S   UNL A   1      32.821  28.401  22.833  1.00  0.00    -0.097 S 
ENDBRANCH  15  18
ENDBRANCH   8  14
ENDBRANCH   4   7
ENDBRANCH   2   3
ENDBRANCH   1   2
BRANCH   1  29
ATOM     29  C   UNL A   1      38.163  22.019  25.733  1.00  0.00     0.118 C 
BRANCH  29  30
ATOM     30  N   UNL A   1      39.591  21.824  25.900  1.00  0.00    -0.352 N 
ATOM     31  C   UNL A   1      40.599  22.513  26.514  1.00  0.00     0.251 C 
ATOM     32  H   UNL A   1      39.910  21.000  25.468  1.00  0.00     0.163 HD
ATOM     33  O   UNL A   1      41.712  21.981  26.464  1.00  0.00    -0.269 OA
BRANCH  31  34
ATOM     34  C   UNL A   1      40.467  23.850  27.156  1.00  0.00     0.039 A 
ATOM     35  C   UNL A   1      39.429  24.758  26.947  1.00  0.00     0.014 A 
ATOM     36  C   UNL A   1      41.524  24.223  28.009  1.00  0.00     0.014 A 
ATOM     37  C   UNL A   1      39.507  26.046  27.472  1.00  0.00     0.010 A 
ATOM     38  C   UNL A   1      41.591  25.495  28.563  1.00  0.00     0.010 A 
ATOM     39  C   UNL A   1      40.608  26.424  28.245  1.00  0.00    -0.014 A 
BRANCH  39  40
ATOM     40  C   UNL A   1      40.626  27.772  28.807  1.00  0.00     0.031 A 
ATOM     41  C   UNL A   1      41.647  28.661  28.190  1.00  0.00     0.074 A 
ATOM     42  C   UNL A   1      39.735  28.213  29.722  1.00  0.00     0.049 A 
ATOM     43  N   UNL A   1      42.730  29.114  28.729  1.00  0.00    -0.248 NA
ATOM     44  C   UNL A   1      41.541  28.938  26.750  1.00  0.00     0.031 C 
ATOM     45  C   UNL A   1      38.508  27.536  30.158  1.00  0.00     0.029 A 
ATOM     46  N   UNL A   1      39.673  29.406  30.384  1.00  0.00    -0.354 N 
ATOM     47  C   UNL A   1      43.318  29.938  27.766  1.00  0.00     0.074 A 
ATOM     48  C   UNL A   1      42.659  29.631  26.525  1.00  0.00     0.031 C 
ATOM     49  C   UNL A   1      37.711  28.421  30.799  1.00  0.00     0.029 A 
ATOM     50  C   UNL A   1      38.438  29.666  30.970  1.00  0.00     0.049 A 
ATOM     51  H   UNL A   1      40.434  30.027  30.443  1.00  0.00     0.167 HD
ATOM     52  C   UNL A   1      44.103  30.993  28.132  1.00  0.00     0.034 A 
ATOM     53  C   UNL A   1      38.021  30.832  31.520  1.00  0.00     0.034 A 
ATOM     54  C   UNL A   1      44.410  30.927  29.534  1.00  0.00     0.049 A 
ATOM     55  C   UNL A   1      39.208  31.647  31.849  1.00  0.00     0.074 A 
ATOM     56  C   UNL A   1      45.308  30.272  30.342  1.00  0.00     0.029 A 
ATOM     57  N   UNL A   1      43.415  31.425  30.331  1.00  0.00    -0.354 N 
ATOM     58  N   UNL A   1      40.053  31.339  32.792  1.00  0.00    -0.248 NA
ATOM     59  C   UNL A   1      39.666  32.653  30.897  1.00  0.00     0.031 C 
ATOM     60  C   UNL A   1      44.733  30.268  31.645  1.00  0.00     0.029 A 
ATOM     61  C   UNL A   1      43.521  30.957  31.610  1.00  0.00     0.049 A 
ATOM     62  H   UNL A   1      42.713  32.042  30.023  1.00  0.00     0.167 HD
ATOM     63  C   UNL A   1      41.270  31.746  32.287  1.00  0.00     0.074 A 
ATOM     64  C   UNL A   1      40.956  32.707  31.237  1.00  0.00     0.031 C 
ATOM     65  C   UNL A   1      42.398  31.022  32.523  1.00  0.00     0.034 A 
BRANCH  52  66
ATOM     66  C   UNL A   1      44.188  32.318  27.395  1.00  0.00     0.023 A 
ATOM     67  C   UNL A   1      43.512  33.480  27.807  1.00  0.00     0.031 A 
ATOM     68  C   UNL A   1      45.179  32.510  26.404  1.00  0.00     0.131 A 
ATOM     69  C   UNL A   1      43.832  34.743  27.284  1.00  0.00     0.055 A 
ATOM     70  C   UNL A   1      45.540  33.776  25.925  1.00  0.00     0.041 A 
ATOM     71  F   UNL A   1      45.876  31.474  25.912  1.00  0.00    -0.206 F 
ATOM     72  C   UNL A   1      44.870  34.905  26.373  1.00  0.00     0.022 A 
BRANCH  69  73
ATOM     73  S   UNL A   1      42.910  36.211  27.821  1.00  0.00     0.124 S 
ATOM     74  O   UNL A   1      41.655  35.623  28.290  1.00  0.00    -0.237 OA
ATOM     75  O   UNL A   1      43.786  36.740  28.867  1.00  0.00    -0.237 OA
ATOM     76  O   UNL A   1      42.824  37.021  26.618  1.00  0.00    -0.744 OA
ENDBRANCH  69  73
ENDBRANCH  52  66
BRANCH  53  77
ATOM     77  C   UNL A   1      36.680  31.450  31.435  1.00  0.00     0.023 A 
ATOM     78  C   UNL A   1      36.105  31.653  30.168  1.00  0.00     0.031 A 
ATOM     79  C   UNL A   1      36.129  32.157  32.519  1.00  0.00     0.131 A 
ATOM     80  C   UNL A   1      35.077  32.590  29.999  1.00  0.00     0.055 A 
ATOM     81  C   UNL A   1      35.082  33.072  32.353  1.00  0.00     0.041 A 
ATOM     82  F   UNL A   1      36.651  32.031  33.749  1.00  0.00    -0.206 F 
ATOM     83  C   UNL A   1      34.565  33.307  31.083  1.00  0.00     0.022 A 
BRANCH  80  84
ATOM     84  S   UNL A   1      34.463  32.988  28.340  1.00  0.00     0.124 S 
ATOM     85  O   UNL A   1      35.683  33.404  27.653  1.00  0.00    -0.237 OA
ATOM     86  O   UNL A   1      33.909  31.705  27.917  1.00  0.00    -0.237 OA
ATOM     87  O   UNL A   1      33.494  34.053  28.580  1.00  0.00    -0.744 OA
ENDBRANCH  80  84
ENDBRANCH  53  77
BRANCH  65  88
ATOM     88  C   UNL A   1      42.429  30.109  33.712  1.00  0.00     0.023 A 
ATOM     89  C   UNL A   1      42.775  30.704  34.936  1.00  0.00     0.031 A 
ATOM     90  C   UNL A   1      42.316  28.709  33.667  1.00  0.00     0.131 A 
ATOM     91  C   UNL A   1      43.065  29.912  36.047  1.00  0.00     0.055 A 
ATOM     92  C   UNL A   1      42.530  27.923  34.803  1.00  0.00     0.041 A 
ATOM     93  F   UNL A   1      42.074  28.062  32.518  1.00  0.00    -0.206 F 
ATOM     94  C   UNL A   1      42.927  28.523  35.997  1.00  0.00     0.022 A 
BRANCH  91  95
ATOM     95  S   UNL A   1      43.797  30.668  37.519  1.00  0.00     0.124 S 
ATOM     96  O   UNL A   1      42.619  31.134  38.244  1.00  0.00    -0.237 OA
ATOM     97  O   UNL A   1      44.502  29.540  38.125  1.00  0.00    -0.237 OA
ATOM     98  O   UNL A   1      44.660  31.717  36.987  1.00  0.00    -0.744 OA
ENDBRANCH  91  95
ENDBRANCH  65  88
ENDBRANCH  39  40
ENDBRANCH  31  34
ENDBRANCH  29  30
ENDBRANCH   1  29
TORSDOF 15
ENDMDL
MODEL 2
REMARK VINA RESULT:     -13.5      3.582      9.168
REMARK SMILES Cc1cc2nc(NC(=O)[C@H]3[C@@H](C(=O)NCCCNC(=O)c4ccc(-c5c6nc(c(-c7cc(S(=O)(=O)[O-])ccc7F)c7ccc([nH]7)c(-c7cc(S(=O)(=O)[O-])ccc7F)c7nc(c(-c8cc(S(=O)(=O)[O-])ccc8F)c8ccc5[nH]8)C=C7)C=C6)cc4)[C@@H]4C=C[C@H]3C4)sc2cc1C
REMARK SMILES IDX 16 1 15 2 14 3 12 4 13 5 11 7 10 8 87 9 84 10 86 11 88 12
REMARK SMILES IDX 85 13 8 14 7 15 9 17 6 18 1 19 2 20 3 21 92 22 4 23 91 24
REMARK SMILES IDX 93 25 5 26 90 27 89 28 17 29 18 30 19 31 20 33 21 34 22 35
REMARK SMILES IDX 83 36 23 37 82 38 24 39 25 40 26 41 76 42 27 43 81 44 75 45
REMARK SMILES IDX 77 46 28 47 80 48 74 49 73 50 29 52 61 53 41 54 60 55 42 56
REMARK SMILES IDX 45 57 59 58 78 59 43 60 44 61 58 63 79 64 46 65 30 66 31 67
REMARK SMILES IDX 39 68 32 69 38 70 40 71 37 72 33 73 34 74 35 75 36 76 62 77
REMARK SMILES IDX 63 78 71 79 64 80 70 81 72 82 69 83 65 84 66 85 67 86 68 87
REMARK SMILES IDX 47 88 48 89 56 90 49 91 55 92 57 93 54 94 50 95 51 96 52 97
REMARK SMILES IDX 53 98
REMARK H PARENT 14 6 7 16 18 32 77 51 45 62
REMARK Flexibility Score: inf
ROOT
ATOM      1  C   UNL A   1      33.278  29.639  26.110  1.00  0.00     0.042 C 
ENDROOT
BRANCH   1   2
ATOM      2  C   UNL A   1      31.868  29.114  25.856  1.00  0.00     0.117 C 
BRANCH   2   3
ATOM      3  N   UNL A   1      31.698  27.755  26.357  1.00  0.00    -0.356 N 
ATOM      4  C   UNL A   1      31.160  26.641  25.790  1.00  0.00     0.224 C 
ATOM      5  O   UNL A   1      30.431  25.957  26.521  1.00  0.00    -0.275 OA
ATOM      6  H   UNL A   1      32.034  27.619  27.273  1.00  0.00     0.163 HD
BRANCH   4   7
ATOM      7  C   UNL A   1      31.486  26.138  24.379  1.00  0.00     0.098 C 
ATOM      8  C   UNL A   1      32.936  25.516  24.116  1.00  0.00     0.099 C 
ATOM      9  C   UNL A   1      33.418  26.386  22.919  1.00  0.00     0.025 C 
ATOM     10  C   UNL A   1      31.358  27.183  23.257  1.00  0.00     0.025 C 
ATOM     11  C   UNL A   1      32.587  26.002  21.712  1.00  0.00    -0.027 C 
ATOM     12  C   UNL A   1      32.782  27.736  23.201  1.00  0.00     0.017 C 
ATOM     13  C   UNL A   1      31.347  26.467  21.923  1.00  0.00    -0.027 C 
BRANCH   8  14
ATOM     14  C   UNL A   1      33.850  25.372  25.342  1.00  0.00     0.230 C 
ATOM     15  N   UNL A   1      34.170  24.199  25.942  1.00  0.00    -0.302 N 
ATOM     16  H   UNL A   1      34.698  24.292  26.768  1.00  0.00     0.172 HD
ATOM     17  O   UNL A   1      34.274  26.355  25.959  1.00  0.00    -0.274 OA
BRANCH  15  18
ATOM     18  C   UNL A   1      33.884  22.921  25.595  1.00  0.00     0.190 A 
ATOM     19  C   UNL A   1      32.044  18.279  22.309  1.00  0.00     0.044 C 
ATOM     20  C   UNL A   1      32.836  19.038  23.339  1.00  0.00    -0.046 A 
ATOM     21  C   UNL A   1      32.453  20.364  23.619  1.00  0.00     0.033 A 
ATOM     22  C   UNL A   1      33.914  18.467  24.039  1.00  0.00    -0.047 A 
ATOM     23  C   UNL A   1      33.175  21.140  24.541  1.00  0.00     0.084 A 
ATOM     24  C   UNL A   1      34.664  19.247  24.943  1.00  0.00     0.025 A 
ATOM     25  C   UNL A   1      34.325  17.027  23.873  1.00  0.00     0.044 C 
ATOM     26  N   UNL A   1      32.898  22.448  24.890  1.00  0.00    -0.220 NA
ATOM     27  C   UNL A   1      34.292  20.581  25.160  1.00  0.00     0.057 A 
ATOM     28  S   UNL A   1      35.045  21.790  26.130  1.00  0.00    -0.097 S 
ENDBRANCH  15  18
ENDBRANCH   8  14
ENDBRANCH   4   7
ENDBRANCH   2   3
ENDBRANCH   1   2
BRANCH   1  29
ATOM     29  C   UNL A   1      33.463  30.196  27.518  1.00  0.00     0.118 C 
BRANCH  29  30
ATOM     30  N   UNL A   1      34.042  31.526  27.546  1.00  0.00    -0.352 N 
ATOM     31  C   UNL A   1      35.285  32.038  27.792  1.00  0.00     0.251 C 
ATOM     32  H   UNL A   1      33.382  32.226  27.338  1.00  0.00     0.163 HD
ATOM     33  O   UNL A   1      35.386  33.263  27.675  1.00  0.00    -0.269 OA
BRANCH  31  34
ATOM     34  C   UNL A   1      36.468  31.257  28.245  1.00  0.00     0.039 A 
ATOM     35  C   UNL A   1      37.511  31.738  29.037  1.00  0.00     0.014 A 
ATOM     36  C   UNL A   1      36.538  29.931  27.776  1.00  0.00     0.014 A 
ATOM     37  C   UNL A   1      38.646  30.961  29.250  1.00  0.00     0.010 A 
ATOM     38  C   UNL A   1      37.655  29.139  28.012  1.00  0.00     0.010 A 
ATOM     39  C   UNL A   1      38.733  29.679  28.702  1.00  0.00    -0.014 A 
BRANCH  39  40
ATOM     40  C   UNL A   1      39.927  28.887  28.986  1.00  0.00     0.031 A 
ATOM     41  C   UNL A   1      40.189  28.704  30.439  1.00  0.00     0.074 A 
ATOM     42  C   UNL A   1      40.669  28.282  28.032  1.00  0.00     0.049 A 
ATOM     43  N   UNL A   1      41.143  29.218  31.142  1.00  0.00    -0.248 NA
ATOM     44  C   UNL A   1      39.170  28.010  31.241  1.00  0.00     0.031 C 
ATOM     45  C   UNL A   1      40.328  28.130  26.613  1.00  0.00     0.029 A 
ATOM     46  N   UNL A   1      41.836  27.582  28.139  1.00  0.00    -0.354 N 
ATOM     47  C   UNL A   1      40.983  28.706  32.432  1.00  0.00     0.074 A 
ATOM     48  C   UNL A   1      39.659  28.145  32.475  1.00  0.00     0.031 C 
ATOM     49  C   UNL A   1      41.121  27.183  26.060  1.00  0.00     0.029 A 
ATOM     50  C   UNL A   1      42.129  26.794  27.030  1.00  0.00     0.049 A 
ATOM     51  H   UNL A   1      42.420  27.629  28.930  1.00  0.00     0.167 HD
ATOM     52  C   UNL A   1      42.056  28.548  33.261  1.00  0.00     0.034 A 
ATOM     53  C   UNL A   1      43.102  25.857  26.924  1.00  0.00     0.034 A 
ATOM     54  C   UNL A   1      43.211  29.205  32.716  1.00  0.00     0.049 A 
ATOM     55  C   UNL A   1      44.116  26.112  27.967  1.00  0.00     0.074 A 
ATOM     56  C   UNL A   1      43.722  30.480  32.672  1.00  0.00     0.029 A 
ATOM     57  N   UNL A   1      43.865  28.459  31.772  1.00  0.00    -0.354 N 
ATOM     58  N   UNL A   1      44.911  27.145  27.958  1.00  0.00    -0.248 NA
ATOM     59  C   UNL A   1      44.031  25.393  29.233  1.00  0.00     0.031 C 
ATOM     60  C   UNL A   1      44.608  30.510  31.558  1.00  0.00     0.029 A 
ATOM     61  C   UNL A   1      44.649  29.243  30.975  1.00  0.00     0.049 A 
ATOM     62  H   UNL A   1      43.780  27.483  31.680  1.00  0.00     0.167 HD
ATOM     63  C   UNL A   1      45.046  27.465  29.293  1.00  0.00     0.074 A 
ATOM     64  C   UNL A   1      44.661  26.264  30.024  1.00  0.00     0.031 C 
ATOM     65  C   UNL A   1      45.123  28.764  29.693  1.00  0.00     0.034 A 
BRANCH  52  66
ATOM     66  C   UNL A   1      42.223  27.428  34.273  1.00  0.00     0.023 A 
ATOM     67  C   UNL A   1      42.980  26.269  34.030  1.00  0.00     0.031 A 
ATOM     68  C   UNL A   1      41.840  27.635  35.619  1.00  0.00     0.131 A 
ATOM     69  C   UNL A   1      43.350  25.401  35.069  1.00  0.00     0.055 A 
ATOM     70  C   UNL A   1      42.258  26.800  36.665  1.00  0.00     0.041 A 
ATOM     71  F   UNL A   1      41.094  28.693  35.973  1.00  0.00    -0.206 F 
ATOM     72  C   UNL A   1      43.027  25.679  36.393  1.00  0.00     0.022 A 
BRANCH  69  73
ATOM     73  S   UNL A   1      44.299  23.898  34.704  1.00  0.00     0.124 S 
ATOM     74  O   UNL A   1      45.349  24.411  33.823  1.00  0.00    -0.237 OA
ATOM     75  O   UNL A   1      44.740  23.499  36.041  1.00  0.00    -0.237 OA
ATOM     76  O   UNL A   1      43.323  23.016  34.086  1.00  0.00    -0.744 OA
ENDBRANCH  69  73
ENDBRANCH  52  66
BRANCH  53  77
ATOM     77  C   UNL A   1      43.031  24.545  26.244  1.00  0.00     0.023 A 
ATOM     78  C   UNL A   1      42.094  23.598  26.692  1.00  0.00     0.031 A 
ATOM     79  C   UNL A   1      44.082  24.086  25.428  1.00  0.00     0.131 A 
ATOM     80  C   UNL A   1      42.265  22.239  26.393  1.00  0.00     0.055 A 
ATOM     81  C   UNL A   1      44.234  22.731  25.109  1.00  0.00     0.041 A 
ATOM     82  F   UNL A   1      45.026  24.935  24.994  1.00  0.00    -0.206 F 
ATOM     83  C   UNL A   1      43.333  21.797  25.610  1.00  0.00     0.022 A 
BRANCH  80  84
ATOM     84  S   UNL A   1      41.164  20.996  27.123  1.00  0.00     0.124 S 
ATOM     85  O   UNL A   1      42.049  19.841  27.254  1.00  0.00    -0.237 OA
ATOM     86  O   UNL A   1      40.782  21.641  28.375  1.00  0.00    -0.237 OA
ATOM     87  O   UNL A   1      40.104  20.854  26.130  1.00  0.00    -0.744 OA
ENDBRANCH  80  84
ENDBRANCH  53  77
BRANCH  65  88
ATOM     88  C   UNL A   1      45.573  29.794  28.700  1.00  0.00     0.023 A 
ATOM     89  C   UNL A   1      46.959  29.982  28.593  1.00  0.00     0.031 A 
ATOM     90  C   UNL A   1      44.730  30.688  28.016  1.00  0.00     0.131 A 
ATOM     91  C   UNL A   1      47.471  31.069  27.885  1.00  0.00     0.055 A 
ATOM     92  C   UNL A   1      45.248  31.729  27.241  1.00  0.00     0.041 A 
ATOM     93  F   UNL A   1      43.397  30.626  28.138  1.00  0.00    -0.206 F 
ATOM     94  C   UNL A   1      46.625  31.937  27.190  1.00  0.00     0.022 A 
BRANCH  91  95
ATOM     95  S   UNL A   1      49.231  31.470  28.006  1.00  0.00     0.124 S 
ATOM     96  O   UNL A   1      49.699  31.215  26.647  1.00  0.00    -0.237 OA
ATOM     97  O   UNL A   1      49.199  32.875  28.407  1.00  0.00    -0.237 OA
ATOM     98  O   UNL A   1      49.734  30.552  29.023  1.00  0.00    -0.744 OA
ENDBRANCH  91  95
ENDBRANCH  65  88
ENDBRANCH  39  40
ENDBRANCH  31  34
ENDBRANCH  29  30
ENDBRANCH   1  29
TORSDOF 15
ENDMDL
MODEL 3
REMARK VINA RESULT:     -13.4      4.451      8.593
REMARK SMILES Cc1cc2nc(NC(=O)[C@H]3[C@@H](C(=O)NCCCNC(=O)c4ccc(-c5c6nc(c(-c7cc(S(=O)(=O)[O-])ccc7F)c7ccc([nH]7)c(-c7cc(S(=O)(=O)[O-])ccc7F)c7nc(c(-c8cc(S(=O)(=O)[O-])ccc8F)c8ccc5[nH]8)C=C7)C=C6)cc4)[C@@H]4C=C[C@H]3C4)sc2cc1C
REMARK SMILES IDX 16 1 15 2 14 3 12 4 13 5 11 7 10 8 87 9 84 10 86 11 88 12
REMARK SMILES IDX 85 13 8 14 7 15 9 17 6 18 1 19 2 20 3 21 92 22 4 23 91 24
REMARK SMILES IDX 93 25 5 26 90 27 89 28 17 29 18 30 19 31 20 33 21 34 22 35
REMARK SMILES IDX 83 36 23 37 82 38 24 39 25 40 26 41 76 42 27 43 81 44 75 45
REMARK SMILES IDX 77 46 28 47 80 48 74 49 73 50 29 52 61 53 41 54 60 55 42 56
REMARK SMILES IDX 45 57 59 58 78 59 43 60 44 61 58 63 79 64 46 65 30 66 31 67
REMARK SMILES IDX 39 68 32 69 38 70 40 71 37 72 33 73 34 74 35 75 36 76 62 77
REMARK SMILES IDX 63 78 71 79 64 80 70 81 72 82 69 83 65 84 66 85 67 86 68 87
REMARK SMILES IDX 47 88 48 89 56 90 49 91 55 92 57 93 54 94 50 95 51 96 52 97
REMARK SMILES IDX 53 98
REMARK H PARENT 14 6 7 16 18 32 77 51 45 62
REMARK Flexibility Score: inf
ROOT
ATOM      1  C   UNL A   1      44.184  23.172  25.920  1.00  0.00     0.042 C 
ENDROOT
BRANCH   1   2
ATOM      2  C   UNL A   1      44.553  24.652  25.977  1.00  0.00     0.117 C 
BRANCH   2   3
ATOM      3  N   UNL A   1      45.618  24.980  25.036  1.00  0.00    -0.356 N 
ATOM      4  C   UNL A   1      46.776  25.678  25.187  1.00  0.00     0.224 C 
ATOM      5  O   UNL A   1      47.060  26.465  24.273  1.00  0.00    -0.275 OA
ATOM      6  H   UNL A   1      45.472  24.634  24.125  1.00  0.00     0.163 HD
BRANCH   4   7
ATOM      7  C   UNL A   1      47.776  25.471  26.330  1.00  0.00     0.098 C 
ATOM      8  C   UNL A   1      47.550  26.287  27.687  1.00  0.00     0.099 C 
ATOM      9  C   UNL A   1      48.929  26.993  27.841  1.00  0.00     0.025 C 
ATOM     10  C   UNL A   1      49.244  25.780  25.991  1.00  0.00     0.025 C 
ATOM     11  C   UNL A   1      49.952  25.926  28.174  1.00  0.00    -0.027 C 
ATOM     12  C   UNL A   1      49.342  27.249  26.403  1.00  0.00     0.017 C 
ATOM     13  C   UNL A   1      50.129  25.190  27.068  1.00  0.00    -0.027 C 
BRANCH   8  14
ATOM     14  C   UNL A   1      46.271  27.134  27.770  1.00  0.00     0.230 C 
ATOM     15  N   UNL A   1      45.363  27.077  28.775  1.00  0.00    -0.302 N 
ATOM     16  H   UNL A   1      44.558  27.625  28.631  1.00  0.00     0.172 HD
ATOM     17  O   UNL A   1      45.908  27.861  26.839  1.00  0.00    -0.274 OA
BRANCH  15  18
ATOM     18  C   UNL A   1      45.379  26.393  29.945  1.00  0.00     0.190 A 
ATOM     19  C   UNL A   1      44.744  25.238  35.775  1.00  0.00     0.044 C 
ATOM     20  C   UNL A   1      44.791  24.978  34.294  1.00  0.00    -0.046 A 
ATOM     21  C   UNL A   1      45.241  26.016  33.456  1.00  0.00     0.033 A 
ATOM     22  C   UNL A   1      44.428  23.741  33.729  1.00  0.00    -0.047 A 
ATOM     23  C   UNL A   1      45.271  25.851  32.061  1.00  0.00     0.084 A 
ATOM     24  C   UNL A   1      44.425  23.577  32.329  1.00  0.00     0.025 A 
ATOM     25  C   UNL A   1      44.031  22.549  34.560  1.00  0.00     0.044 C 
ATOM     26  N   UNL A   1      45.686  26.797  31.143  1.00  0.00    -0.220 NA
ATOM     27  C   UNL A   1      44.826  24.647  31.517  1.00  0.00     0.057 A 
ATOM     28  S   UNL A   1      44.856  24.775  29.799  1.00  0.00    -0.097 S 
ENDBRANCH  15  18
ENDBRANCH   8  14
ENDBRANCH   4   7
ENDBRANCH   2   3
ENDBRANCH   1   2
BRANCH   1  29
ATOM     29  C   UNL A   1      43.017  22.883  24.980  1.00  0.00     0.118 C 
BRANCH  29  30
ATOM     30  N   UNL A   1      41.918  22.184  25.617  1.00  0.00    -0.352 N 
ATOM     31  C   UNL A   1      40.899  22.538  26.456  1.00  0.00     0.251 C 
ATOM     32  H   UNL A   1      41.902  21.226  25.392  1.00  0.00     0.163 HD
ATOM     33  O   UNL A   1      40.117  21.629  26.754  1.00  0.00    -0.269 OA
BRANCH  31  34
ATOM     34  C   UNL A   1      40.711  23.880  27.072  1.00  0.00     0.039 A 
ATOM     35  C   UNL A   1      39.829  24.866  26.630  1.00  0.00     0.014 A 
ATOM     36  C   UNL A   1      41.548  24.170  28.167  1.00  0.00     0.014 A 
ATOM     37  C   UNL A   1      39.869  26.143  27.184  1.00  0.00     0.010 A 
ATOM     38  C   UNL A   1      41.570  25.433  28.745  1.00  0.00     0.010 A 
ATOM     39  C   UNL A   1      40.769  26.435  28.213  1.00  0.00    -0.014 A 
BRANCH  39  40
ATOM     40  C   UNL A   1      40.747  27.777  28.789  1.00  0.00     0.031 A 
ATOM     41  C   UNL A   1      41.764  28.692  28.204  1.00  0.00     0.074 A 
ATOM     42  C   UNL A   1      39.826  28.191  29.687  1.00  0.00     0.049 A 
ATOM     43  N   UNL A   1      42.825  29.161  28.772  1.00  0.00    -0.248 NA
ATOM     44  C   UNL A   1      41.685  28.982  26.764  1.00  0.00     0.031 C 
ATOM     45  C   UNL A   1      38.604  27.485  30.088  1.00  0.00     0.029 A 
ATOM     46  N   UNL A   1      39.725  29.376  30.359  1.00  0.00    -0.354 N 
ATOM     47  C   UNL A   1      43.418  30.007  27.831  1.00  0.00     0.074 A 
ATOM     48  C   UNL A   1      42.793  29.700  26.572  1.00  0.00     0.031 C 
ATOM     49  C   UNL A   1      37.775  28.347  30.719  1.00  0.00     0.029 A 
ATOM     50  C   UNL A   1      38.472  29.605  30.919  1.00  0.00     0.049 A 
ATOM     51  H   UNL A   1      40.473  30.011  30.441  1.00  0.00     0.167 HD
ATOM     52  C   UNL A   1      44.173  31.073  28.225  1.00  0.00     0.034 A 
ATOM     53  C   UNL A   1      38.020  30.757  31.471  1.00  0.00     0.034 A 
ATOM     54  C   UNL A   1      44.449  30.999  29.633  1.00  0.00     0.049 A 
ATOM     55  C   UNL A   1      39.182  31.592  31.835  1.00  0.00     0.074 A 
ATOM     56  C   UNL A   1      45.341  30.353  30.455  1.00  0.00     0.029 A 
ATOM     57  N   UNL A   1      43.426  31.469  30.412  1.00  0.00    -0.354 N 
ATOM     58  N   UNL A   1      40.011  31.290  32.794  1.00  0.00    -0.248 NA
ATOM     59  C   UNL A   1      39.642  32.616  30.904  1.00  0.00     0.031 C 
ATOM     60  C   UNL A   1      44.738  30.325  31.744  1.00  0.00     0.029 A 
ATOM     61  C   UNL A   1      43.513  30.990  31.688  1.00  0.00     0.049 A 
ATOM     62  H   UNL A   1      42.719  32.075  30.094  1.00  0.00     0.167 HD
ATOM     63  C   UNL A   1      41.231  31.727  32.321  1.00  0.00     0.074 A 
ATOM     64  C   UNL A   1      40.923  32.692  31.274  1.00  0.00     0.031 C 
ATOM     65  C   UNL A   1      42.369  31.024  32.576  1.00  0.00     0.034 A 
BRANCH  52  66
ATOM     66  C   UNL A   1      44.248  32.408  27.504  1.00  0.00     0.023 A 
ATOM     67  C   UNL A   1      43.574  33.563  27.936  1.00  0.00     0.031 A 
ATOM     68  C   UNL A   1      45.229  32.613  26.505  1.00  0.00     0.131 A 
ATOM     69  C   UNL A   1      43.887  34.833  27.426  1.00  0.00     0.055 A 
ATOM     70  C   UNL A   1      45.582  33.886  26.038  1.00  0.00     0.041 A 
ATOM     71  F   UNL A   1      45.923  31.584  25.993  1.00  0.00    -0.206 F 
ATOM     72  C   UNL A   1      44.915  35.008  26.506  1.00  0.00     0.022 A 
BRANCH  69  73
ATOM     73  S   UNL A   1      42.968  36.292  27.989  1.00  0.00     0.124 S 
ATOM     74  O   UNL A   1      43.653  37.372  27.278  1.00  0.00    -0.237 OA
ATOM     75  O   UNL A   1      41.617  35.986  27.519  1.00  0.00    -0.237 OA
ATOM     76  O   UNL A   1      43.140  36.271  29.432  1.00  0.00    -0.744 OA
ENDBRANCH  69  73
ENDBRANCH  52  66
BRANCH  53  77
ATOM     77  C   UNL A   1      36.669  31.349  31.361  1.00  0.00     0.023 A 
ATOM     78  C   UNL A   1      36.122  31.559  30.083  1.00  0.00     0.031 A 
ATOM     79  C   UNL A   1      36.077  32.028  32.441  1.00  0.00     0.131 A 
ATOM     80  C   UNL A   1      35.079  32.478  29.902  1.00  0.00     0.055 A 
ATOM     81  C   UNL A   1      35.016  32.925  32.262  1.00  0.00     0.041 A 
ATOM     82  F   UNL A   1      36.571  31.895  33.681  1.00  0.00    -0.206 F 
ATOM     83  C   UNL A   1      34.526  33.168  30.982  1.00  0.00     0.022 A 
BRANCH  80  84
ATOM     84  S   UNL A   1      34.498  32.887  28.234  1.00  0.00     0.124 S 
ATOM     85  O   UNL A   1      34.020  31.595  27.749  1.00  0.00    -0.237 OA
ATOM     86  O   UNL A   1      33.462  33.875  28.518  1.00  0.00    -0.237 OA
ATOM     87  O   UNL A   1      35.695  33.392  27.569  1.00  0.00    -0.744 OA
ENDBRANCH  80  84
ENDBRANCH  53  77
BRANCH  65  88
ATOM     88  C   UNL A   1      42.391  30.099  33.757  1.00  0.00     0.023 A 
ATOM     89  C   UNL A   1      42.792  30.667  34.975  1.00  0.00     0.031 A 
ATOM     90  C   UNL A   1      42.217  28.705  33.703  1.00  0.00     0.131 A 
ATOM     91  C   UNL A   1      43.077  29.854  36.072  1.00  0.00     0.055 A 
ATOM     92  C   UNL A   1      42.425  27.901  34.827  1.00  0.00     0.041 A 
ATOM     93  F   UNL A   1      41.918  28.080  32.555  1.00  0.00    -0.206 F 
ATOM     94  C   UNL A   1      42.879  28.472  36.014  1.00  0.00     0.022 A 
BRANCH  91  95
ATOM     95  S   UNL A   1      43.878  30.564  37.531  1.00  0.00     0.124 S 
ATOM     96  O   UNL A   1      42.742  31.096  38.277  1.00  0.00    -0.237 OA
ATOM     97  O   UNL A   1      44.528  29.396  38.124  1.00  0.00    -0.237 OA
ATOM     98  O   UNL A   1      44.791  31.562  36.983  1.00  0.00    -0.744 OA
ENDBRANCH  91  95
ENDBRANCH  65  88
ENDBRANCH  39  40
ENDBRANCH  31  34
ENDBRANCH  29  30
ENDBRANCH   1  29
TORSDOF 15
ENDMDL
