MODEL 1
REMARK VINA RESULT:     -10.9      0.000      0.000
REMARK SMILES CC(C)(C)[NH2+]Cc1cc(C(=O)NCCCNC(=O)c2ccc(-c3c4nc(c(-c5cc(S(=O)(=O)[O-])ccc5F)c5ccc([nH]5)c(-c5cc(S(=O)(=O)[O-])ccc5F)c5nc(c(-c6cc(S(=O)(=O)[O-])ccc6F)c6ccc3[nH]6)C=C5)C=C4)cc2)cs1
REMARK SMILES IDX 14 1 13 2 12 3 10 4 11 5 9 7 7 8 8 9 83 10 82 11 6 12 5 13
REMARK SMILES IDX 2 16 1 17 3 18 4 19 15 20 16 21 17 22 18 24 19 25 20 26
REMARK SMILES IDX 81 27 21 28 80 29 22 30 23 31 24 32 74 33 25 34 79 35 73 36
REMARK SMILES IDX 75 37 26 38 78 39 72 40 71 41 27 43 59 44 39 45 58 46 40 47
REMARK SMILES IDX 43 48 57 49 76 50 41 51 42 52 56 54 77 55 44 56 28 57 29 58
REMARK SMILES IDX 37 59 30 60 36 61 38 62 35 63 31 64 32 65 33 66 34 67 60 68
REMARK SMILES IDX 61 69 69 70 62 71 68 72 70 73 67 74 63 75 64 76 65 77 66 78
REMARK SMILES IDX 45 79 46 80 54 81 47 82 53 83 55 84 52 85 48 86 49 87 50 88
REMARK SMILES IDX 51 89
REMARK H PARENT 12 6 5 14 5 15 16 23 75 42 43 53
REMARK Flexibility Score: inf
ROOT
ATOM      1  C   UNL A   1      31.750  31.562  26.711  1.00  0.00     0.042 C 
ENDROOT
BRANCH   1   2
ATOM      2  C   UNL A   1      31.706  30.109  27.170  1.00  0.00     0.118 C 
BRANCH   2   3
ATOM      3  N   UNL A   1      32.841  29.357  26.659  1.00  0.00    -0.352 N 
ATOM      4  C   UNL A   1      32.971  28.666  25.478  1.00  0.00     0.252 C 
ATOM      5  O   UNL A   1      34.072  28.240  25.153  1.00  0.00    -0.269 OA
ATOM      6  H   UNL A   1      33.631  29.340  27.244  1.00  0.00     0.163 HD
BRANCH   4   7
ATOM      7  C   UNL A   1      31.804  28.544  24.615  1.00  0.00     0.051 A 
ATOM      8  C   UNL A   1      30.193  29.056  22.981  1.00  0.00     0.059 A 
ATOM      9  C   UNL A   1      31.212  29.546  23.776  1.00  0.00     0.035 A 
ATOM     10  S   UNL A   1      29.918  27.391  23.296  1.00  0.00    -0.142 S 
ATOM     11  C   UNL A   1      31.089  27.365  24.535  1.00  0.00     0.079 A 
BRANCH   8  12
ATOM     12  C   UNL A   1      29.443  29.796  21.908  1.00  0.00     0.308 C 
BRANCH  12  13
ATOM     13  N   UNL A   1      29.643  31.243  21.897  1.00  0.00    -0.338 N 
ATOM     14  H   UNL A   1      30.382  31.449  22.569  1.00  0.00     0.347 HD
ATOM     15  H   UNL A   1      29.847  31.457  20.921  1.00  0.00     0.347 HD
BRANCH  13  16
ATOM     16  C   UNL A   1      28.505  32.117  22.223  1.00  0.00     0.088 C 
ATOM     17  C   UNL A   1      27.474  31.426  23.131  1.00  0.00     0.078 C 
ATOM     18  C   UNL A   1      27.797  32.685  20.984  1.00  0.00     0.078 C 
ATOM     19  C   UNL A   1      29.120  33.297  23.003  1.00  0.00     0.078 C 
ENDBRANCH  13  16
ENDBRANCH  12  13
ENDBRANCH   8  12
ENDBRANCH   4   7
ENDBRANCH   2   3
ENDBRANCH   1   2
BRANCH   1  20
ATOM     20  C   UNL A   1      33.038  32.274  27.109  1.00  0.00     0.118 C 
BRANCH  20  21
ATOM     21  N   UNL A   1      32.787  33.636  27.562  1.00  0.00    -0.352 N 
ATOM     22  C   UNL A   1      33.322  34.317  28.626  1.00  0.00     0.251 C 
ATOM     23  H   UNL A   1      32.136  34.143  27.024  1.00  0.00     0.163 HD
ATOM     24  O   UNL A   1      32.812  35.379  28.972  1.00  0.00    -0.269 OA
BRANCH  22  25
ATOM     25  C   UNL A   1      34.486  33.772  29.357  1.00  0.00     0.039 A 
ATOM     26  C   UNL A   1      34.270  32.800  30.337  1.00  0.00     0.014 A 
ATOM     27  C   UNL A   1      35.780  34.240  29.108  1.00  0.00     0.014 A 
ATOM     28  C   UNL A   1      35.355  32.267  31.037  1.00  0.00     0.010 A 
ATOM     29  C   UNL A   1      36.866  33.655  29.753  1.00  0.00     0.010 A 
ATOM     30  C   UNL A   1      36.664  32.673  30.734  1.00  0.00    -0.014 A 
BRANCH  30  31
ATOM     31  C   UNL A   1      37.831  32.103  31.454  1.00  0.00     0.031 A 
ATOM     32  C   UNL A   1      38.647  31.011  30.815  1.00  0.00     0.074 A 
ATOM     33  C   UNL A   1      38.124  32.533  32.697  1.00  0.00     0.049 A 
ATOM     34  N   UNL A   1      39.654  30.333  31.304  1.00  0.00    -0.248 NA
ATOM     35  C   UNL A   1      38.255  30.609  29.456  1.00  0.00     0.031 C 
ATOM     36  C   UNL A   1      37.383  33.563  33.430  1.00  0.00     0.029 A 
ATOM     37  N   UNL A   1      39.115  32.156  33.566  1.00  0.00    -0.354 N 
ATOM     38  C   UNL A   1      40.010  29.419  30.318  1.00  0.00     0.074 A 
ATOM     39  C   UNL A   1      39.065  29.586  29.233  1.00  0.00     0.031 C 
ATOM     40  C   UNL A   1      37.964  33.754  34.626  1.00  0.00     0.029 A 
ATOM     41  C   UNL A   1      39.088  32.834  34.764  1.00  0.00     0.049 A 
ATOM     42  H   UNL A   1      39.785  31.468  33.353  1.00  0.00     0.167 HD
ATOM     43  C   UNL A   1      41.043  28.540  30.308  1.00  0.00     0.034 A 
ATOM     44  C   UNL A   1      39.875  32.719  35.851  1.00  0.00     0.034 A 
ATOM     45  C   UNL A   1      41.980  28.396  31.396  1.00  0.00     0.049 A 
ATOM     46  C   UNL A   1      41.006  31.721  35.825  1.00  0.00     0.074 A 
ATOM     47  C   UNL A   1      43.083  27.563  31.483  1.00  0.00     0.029 A 
ATOM     48  N   UNL A   1      41.924  29.104  32.591  1.00  0.00    -0.354 N 
ATOM     49  N   UNL A   1      41.350  30.886  34.871  1.00  0.00    -0.248 NA
ATOM     50  C   UNL A   1      41.860  31.660  37.016  1.00  0.00     0.031 C 
ATOM     51  C   UNL A   1      43.657  27.724  32.749  1.00  0.00     0.029 A 
ATOM     52  C   UNL A   1      42.959  28.711  33.426  1.00  0.00     0.049 A 
ATOM     53  H   UNL A   1      41.249  29.785  32.812  1.00  0.00     0.167 HD
ATOM     54  C   UNL A   1      42.485  30.228  35.336  1.00  0.00     0.074 A 
ATOM     55  C   UNL A   1      42.773  30.774  36.646  1.00  0.00     0.031 C 
ATOM     56  C   UNL A   1      43.227  29.263  34.734  1.00  0.00     0.034 A 
BRANCH  43  57
ATOM     57  C   UNL A   1      41.190  27.658  29.090  1.00  0.00     0.023 A 
ATOM     58  C   UNL A   1      42.192  27.889  28.131  1.00  0.00     0.031 A 
ATOM     59  C   UNL A   1      40.297  26.595  28.864  1.00  0.00     0.131 A 
ATOM     60  C   UNL A   1      42.226  27.126  26.954  1.00  0.00     0.055 A 
ATOM     61  C   UNL A   1      40.391  25.783  27.730  1.00  0.00     0.041 A 
ATOM     62  F   UNL A   1      39.307  26.337  29.732  1.00  0.00    -0.206 F 
ATOM     63  C   UNL A   1      41.350  26.057  26.759  1.00  0.00     0.022 A 
BRANCH  60  64
ATOM     64  S   UNL A   1      43.336  27.646  25.617  1.00  0.00     0.124 S 
ATOM     65  O   UNL A   1      43.981  28.816  26.210  1.00  0.00    -0.237 OA
ATOM     66  O   UNL A   1      44.184  26.474  25.435  1.00  0.00    -0.237 OA
ATOM     67  O   UNL A   1      42.427  27.939  24.511  1.00  0.00    -0.744 OA
ENDBRANCH  60  64
ENDBRANCH  43  57
BRANCH  44  68
ATOM     68  C   UNL A   1      39.633  33.564  37.055  1.00  0.00     0.023 A 
ATOM     69  C   UNL A   1      38.930  33.060  38.160  1.00  0.00     0.031 A 
ATOM     70  C   UNL A   1      40.060  34.903  37.101  1.00  0.00     0.131 A 
ATOM     71  C   UNL A   1      38.625  33.901  39.241  1.00  0.00     0.055 A 
ATOM     72  C   UNL A   1      39.803  35.721  38.202  1.00  0.00     0.041 A 
ATOM     73  F   UNL A   1      40.744  35.434  36.075  1.00  0.00    -0.206 F 
ATOM     74  C   UNL A   1      39.069  35.226  39.275  1.00  0.00     0.022 A 
BRANCH  71  75
ATOM     75  S   UNL A   1      37.563  33.263  40.564  1.00  0.00     0.124 S 
ATOM     76  O   UNL A   1      37.416  34.435  41.419  1.00  0.00    -0.237 OA
ATOM     77  O   UNL A   1      36.373  32.855  39.825  1.00  0.00    -0.237 OA
ATOM     78  O   UNL A   1      38.348  32.169  41.132  1.00  0.00    -0.744 OA
ENDBRANCH  71  75
ENDBRANCH  44  68
BRANCH  56  79
ATOM     79  C   UNL A   1      44.450  28.782  35.476  1.00  0.00     0.023 A 
ATOM     80  C   UNL A   1      44.378  27.765  36.443  1.00  0.00     0.031 A 
ATOM     81  C   UNL A   1      45.702  29.369  35.225  1.00  0.00     0.131 A 
ATOM     82  C   UNL A   1      45.525  27.409  37.169  1.00  0.00     0.055 A 
ATOM     83  C   UNL A   1      46.852  28.968  35.906  1.00  0.00     0.041 A 
ATOM     84  F   UNL A   1      45.829  30.346  34.312  1.00  0.00    -0.206 F 
ATOM     85  C   UNL A   1      46.764  27.993  36.895  1.00  0.00     0.022 A 
BRANCH  82  86
ATOM     86  S   UNL A   1      45.354  26.243  38.547  1.00  0.00     0.124 S 
ATOM     87  O   UNL A   1      45.530  24.957  37.881  1.00  0.00    -0.237 OA
ATOM     88  O   UNL A   1      46.436  26.652  39.438  1.00  0.00    -0.237 OA
ATOM     89  O   UNL A   1      44.006  26.501  39.051  1.00  0.00    -0.744 OA
ENDBRANCH  82  86
ENDBRANCH  56  79
ENDBRANCH  30  31
ENDBRANCH  22  25
ENDBRANCH  20  21
ENDBRANCH   1  20
TORSDOF 16
ENDMDL
MODEL 2
REMARK VINA RESULT:     -10.9      3.058      8.592
REMARK SMILES CC(C)(C)[NH2+]Cc1cc(C(=O)NCCCNC(=O)c2ccc(-c3c4nc(c(-c5cc(S(=O)(=O)[O-])ccc5F)c5ccc([nH]5)c(-c5cc(S(=O)(=O)[O-])ccc5F)c5nc(c(-c6cc(S(=O)(=O)[O-])ccc6F)c6ccc3[nH]6)C=C5)C=C4)cc2)cs1
REMARK SMILES IDX 14 1 13 2 12 3 10 4 11 5 9 7 7 8 8 9 83 10 82 11 6 12 5 13
REMARK SMILES IDX 2 16 1 17 3 18 4 19 15 20 16 21 17 22 18 24 19 25 20 26
REMARK SMILES IDX 81 27 21 28 80 29 22 30 23 31 24 32 74 33 25 34 79 35 73 36
REMARK SMILES IDX 75 37 26 38 78 39 72 40 71 41 27 43 59 44 39 45 58 46 40 47
REMARK SMILES IDX 43 48 57 49 76 50 41 51 42 52 56 54 77 55 44 56 28 57 29 58
REMARK SMILES IDX 37 59 30 60 36 61 38 62 35 63 31 64 32 65 33 66 34 67 60 68
REMARK SMILES IDX 61 69 69 70 62 71 68 72 70 73 67 74 63 75 64 76 65 77 66 78
REMARK SMILES IDX 45 79 46 80 54 81 47 82 53 83 55 84 52 85 48 86 49 87 50 88
REMARK SMILES IDX 51 89
REMARK H PARENT 12 6 5 14 5 15 16 23 75 42 43 53
REMARK Flexibility Score: inf
ROOT
ATOM      1  C   UNL A   1      32.920  28.527  27.135  1.00  0.00     0.042 C 
ENDROOT
BRANCH   1   2
ATOM      2  C   UNL A   1      32.967  27.114  26.564  1.00  0.00     0.118 C 
BRANCH   2   3
ATOM      3  N   UNL A   1      31.748  26.381  26.860  1.00  0.00    -0.352 N 
ATOM      4  C   UNL A   1      30.715  26.028  26.026  1.00  0.00     0.252 C 
ATOM      5  O   UNL A   1      29.854  25.258  26.432  1.00  0.00    -0.269 OA
ATOM      6  H   UNL A   1      31.647  26.094  27.796  1.00  0.00     0.163 HD
BRANCH   4   7
ATOM      7  C   UNL A   1      30.735  26.520  24.654  1.00  0.00     0.051 A 
ATOM      8  C   UNL A   1      30.544  27.977  22.819  1.00  0.00     0.059 A 
ATOM      9  C   UNL A   1      30.241  27.769  24.152  1.00  0.00     0.035 A 
ATOM     10  S   UNL A   1      31.381  26.629  22.165  1.00  0.00    -0.142 S 
ATOM     11  C   UNL A   1      31.254  25.758  23.625  1.00  0.00     0.079 A 
BRANCH   8  12
ATOM     12  C   UNL A   1      30.286  29.220  22.013  1.00  0.00     0.308 C 
BRANCH  12  13
ATOM     13  N   UNL A   1      29.741  30.346  22.767  1.00  0.00    -0.338 N 
ATOM     14  H   UNL A   1      29.846  30.124  23.757  1.00  0.00     0.347 HD
ATOM     15  H   UNL A   1      30.268  31.150  22.425  1.00  0.00     0.347 HD
BRANCH  13  16
ATOM     16  C   UNL A   1      28.335  30.726  22.556  1.00  0.00     0.088 C 
ATOM     17  C   UNL A   1      27.357  29.620  22.986  1.00  0.00     0.078 C 
ATOM     18  C   UNL A   1      28.028  31.148  21.112  1.00  0.00     0.078 C 
ATOM     19  C   UNL A   1      28.112  31.950  23.468  1.00  0.00     0.078 C 
ENDBRANCH  13  16
ENDBRANCH  12  13
ENDBRANCH   8  12
ENDBRANCH   4   7
ENDBRANCH   2   3
ENDBRANCH   1   2
BRANCH   1  20
ATOM     20  C   UNL A   1      33.809  29.507  26.377  1.00  0.00     0.118 C 
BRANCH  20  21
ATOM     21  N   UNL A   1      33.661  30.868  26.874  1.00  0.00    -0.352 N 
ATOM     22  C   UNL A   1      34.368  31.526  27.848  1.00  0.00     0.251 C 
ATOM     23  H   UNL A   1      32.947  31.395  26.447  1.00  0.00     0.163 HD
ATOM     24  O   UNL A   1      33.942  32.595  28.277  1.00  0.00    -0.269 OA
BRANCH  22  25
ATOM     25  C   UNL A   1      35.619  30.949  28.387  1.00  0.00     0.039 A 
ATOM     26  C   UNL A   1      35.534  29.970  29.381  1.00  0.00     0.014 A 
ATOM     27  C   UNL A   1      36.869  31.392  27.945  1.00  0.00     0.014 A 
ATOM     28  C   UNL A   1      36.702  29.407  29.901  1.00  0.00     0.010 A 
ATOM     29  C   UNL A   1      38.028  30.778  28.411  1.00  0.00     0.010 A 
ATOM     30  C   UNL A   1      37.957  29.789  29.403  1.00  0.00    -0.014 A 
BRANCH  30  31
ATOM     31  C   UNL A   1      39.208  29.186  29.930  1.00  0.00     0.031 A 
ATOM     32  C   UNL A   1      39.855  29.760  31.162  1.00  0.00     0.074 A 
ATOM     33  C   UNL A   1      39.783  28.159  29.274  1.00  0.00     0.049 A 
ATOM     34  N   UNL A   1      40.982  29.427  31.739  1.00  0.00    -0.248 NA
ATOM     35  C   UNL A   1      39.154  30.878  31.812  1.00  0.00     0.031 C 
ATOM     36  C   UNL A   1      39.263  27.542  28.051  1.00  0.00     0.029 A 
ATOM     37  N   UNL A   1      40.930  27.456  29.538  1.00  0.00    -0.354 N 
ATOM     38  C   UNL A   1      41.131  30.299  32.812  1.00  0.00     0.074 A 
ATOM     39  C   UNL A   1      40.012  31.218  32.762  1.00  0.00     0.031 C 
ATOM     40  C   UNL A   1      40.074  26.535  27.689  1.00  0.00     0.029 A 
ATOM     41  C   UNL A   1      41.192  26.462  28.623  1.00  0.00     0.049 A 
ATOM     42  H   UNL A   1      41.510  27.643  30.311  1.00  0.00     0.167 HD
ATOM     43  C   UNL A   1      42.096  30.317  33.765  1.00  0.00     0.034 A 
ATOM     44  C   UNL A   1      42.223  25.596  28.544  1.00  0.00     0.034 A 
ATOM     45  C   UNL A   1      43.198  29.386  33.803  1.00  0.00     0.049 A 
ATOM     46  C   UNL A   1      43.295  25.647  29.604  1.00  0.00     0.074 A 
ATOM     47  C   UNL A   1      44.215  29.288  34.737  1.00  0.00     0.029 A 
ATOM     48  N   UNL A   1      43.428  28.389  32.862  1.00  0.00    -0.354 N 
ATOM     49  N   UNL A   1      43.403  26.458  30.632  1.00  0.00    -0.248 NA
ATOM     50  C   UNL A   1      44.374  24.659  29.498  1.00  0.00     0.031 C 
ATOM     51  C   UNL A   1      45.089  28.274  34.331  1.00  0.00     0.029 A 
ATOM     52  C   UNL A   1      44.580  27.687  33.183  1.00  0.00     0.049 A 
ATOM     53  H   UNL A   1      42.856  28.207  32.082  1.00  0.00     0.167 HD
ATOM     54  C   UNL A   1      44.545  26.050  31.316  1.00  0.00     0.074 A 
ATOM     55  C   UNL A   1      45.079  24.915  30.591  1.00  0.00     0.031 C 
ATOM     56  C   UNL A   1      45.102  26.561  32.444  1.00  0.00     0.034 A 
BRANCH  43  57
ATOM     57  C   UNL A   1      42.005  31.391  34.823  1.00  0.00     0.023 A 
ATOM     58  C   UNL A   1      40.980  31.391  35.786  1.00  0.00     0.031 A 
ATOM     59  C   UNL A   1      42.931  32.450  34.851  1.00  0.00     0.131 A 
ATOM     60  C   UNL A   1      40.856  32.466  36.680  1.00  0.00     0.055 A 
ATOM     61  C   UNL A   1      42.852  33.473  35.798  1.00  0.00     0.041 A 
ATOM     62  F   UNL A   1      43.919  32.518  33.945  1.00  0.00    -0.206 F 
ATOM     63  C   UNL A   1      41.800  33.494  36.710  1.00  0.00     0.022 A 
BRANCH  60  64
ATOM     64  S   UNL A   1      39.360  32.575  37.699  1.00  0.00     0.124 S 
ATOM     65  O   UNL A   1      38.924  33.945  37.435  1.00  0.00    -0.237 OA
ATOM     66  O   UNL A   1      38.521  31.520  37.143  1.00  0.00    -0.237 OA
ATOM     67  O   UNL A   1      39.850  32.335  39.054  1.00  0.00    -0.744 OA
ENDBRANCH  60  64
ENDBRANCH  43  57
BRANCH  44  68
ATOM     68  C   UNL A   1      42.298  24.607  27.432  1.00  0.00     0.023 A 
ATOM     69  C   UNL A   1      41.537  23.428  27.464  1.00  0.00     0.031 A 
ATOM     70  C   UNL A   1      43.165  24.802  26.343  1.00  0.00     0.131 A 
ATOM     71  C   UNL A   1      41.696  22.463  26.458  1.00  0.00     0.055 A 
ATOM     72  C   UNL A   1      43.280  23.865  25.315  1.00  0.00     0.041 A 
ATOM     73  F   UNL A   1      43.910  25.916  26.258  1.00  0.00    -0.206 F 
ATOM     74  C   UNL A   1      42.553  22.680  25.376  1.00  0.00     0.022 A 
BRANCH  71  75
ATOM     75  S   UNL A   1      40.831  20.879  26.630  1.00  0.00     0.124 S 
ATOM     76  O   UNL A   1      41.723  19.974  25.917  1.00  0.00    -0.237 OA
ATOM     77  O   UNL A   1      40.778  20.720  28.079  1.00  0.00    -0.237 OA
ATOM     78  O   UNL A   1      39.542  21.124  25.985  1.00  0.00    -0.744 OA
ENDBRANCH  71  75
ENDBRANCH  44  68
BRANCH  56  79
ATOM     79  C   UNL A   1      46.322  25.856  32.983  1.00  0.00     0.023 A 
ATOM     80  C   UNL A   1      46.221  24.802  33.906  1.00  0.00     0.031 A 
ATOM     81  C   UNL A   1      47.606  26.264  32.581  1.00  0.00     0.131 A 
ATOM     82  C   UNL A   1      47.385  24.232  34.446  1.00  0.00     0.055 A 
ATOM     83  C   UNL A   1      48.759  25.653  33.074  1.00  0.00     0.041 A 
ATOM     84  F   UNL A   1      47.761  27.268  31.702  1.00  0.00    -0.206 F 
ATOM     85  C   UNL A   1      48.653  24.640  34.023  1.00  0.00     0.022 A 
BRANCH  82  86
ATOM     86  S   UNL A   1      47.219  23.019  35.783  1.00  0.00     0.124 S 
ATOM     87  O   UNL A   1      48.312  23.397  36.674  1.00  0.00    -0.237 OA
ATOM     88  O   UNL A   1      45.873  23.282  36.279  1.00  0.00    -0.237 OA
ATOM     89  O   UNL A   1      47.389  21.735  35.104  1.00  0.00    -0.744 OA
ENDBRANCH  82  86
ENDBRANCH  56  79
ENDBRANCH  30  31
ENDBRANCH  22  25
ENDBRANCH  20  21
ENDBRANCH   1  20
TORSDOF 16
ENDMDL
MODEL 3
REMARK VINA RESULT:     -10.7      3.437      8.726
REMARK SMILES CC(C)(C)[NH2+]Cc1cc(C(=O)NCCCNC(=O)c2ccc(-c3c4nc(c(-c5cc(S(=O)(=O)[O-])ccc5F)c5ccc([nH]5)c(-c5cc(S(=O)(=O)[O-])ccc5F)c5nc(c(-c6cc(S(=O)(=O)[O-])ccc6F)c6ccc3[nH]6)C=C5)C=C4)cc2)cs1
REMARK SMILES IDX 14 1 13 2 12 3 10 4 11 5 9 7 7 8 8 9 83 10 82 11 6 12 5 13
REMARK SMILES IDX 2 16 1 17 3 18 4 19 15 20 16 21 17 22 18 24 19 25 20 26
REMARK SMILES IDX 81 27 21 28 80 29 22 30 23 31 24 32 74 33 25 34 79 35 73 36
REMARK SMILES IDX 75 37 26 38 78 39 72 40 71 41 27 43 59 44 39 45 58 46 40 47
REMARK SMILES IDX 43 48 57 49 76 50 41 51 42 52 56 54 77 55 44 56 28 57 29 58
REMARK SMILES IDX 37 59 30 60 36 61 38 62 35 63 31 64 32 65 33 66 34 67 60 68
REMARK SMILES IDX 61 69 69 70 62 71 68 72 70 73 67 74 63 75 64 76 65 77 66 78
REMARK SMILES IDX 45 79 46 80 54 81 47 82 53 83 55 84 52 85 48 86 49 87 50 88
REMARK SMILES IDX 51 89
REMARK H PARENT 12 6 5 14 5 15 16 23 75 42 43 53
REMARK Flexibility Score: inf
ROOT
ATOM      1  C   UNL A   1      32.807  29.360  27.254  1.00  0.00     0.042 C 
ENDROOT
BRANCH   1   2
ATOM      2  C   UNL A   1      32.965  27.973  26.644  1.00  0.00     0.118 C 
BRANCH   2   3
ATOM      3  N   UNL A   1      31.848  27.110  26.991  1.00  0.00    -0.352 N 
ATOM      4  C   UNL A   1      30.860  26.594  26.188  1.00  0.00     0.252 C 
ATOM      5  O   UNL A   1      30.104  25.744  26.641  1.00  0.00    -0.269 OA
ATOM      6  H   UNL A   1      31.791  26.857  27.940  1.00  0.00     0.163 HD
BRANCH   4   7
ATOM      7  C   UNL A   1      30.808  27.019  24.795  1.00  0.00     0.051 A 
ATOM      8  C   UNL A   1      30.505  28.383  22.905  1.00  0.00     0.059 A 
ATOM      9  C   UNL A   1      30.268  28.235  24.258  1.00  0.00     0.035 A 
ATOM     10  S   UNL A   1      31.335  27.019  22.276  1.00  0.00    -0.142 S 
ATOM     11  C   UNL A   1      31.292  26.217  23.780  1.00  0.00     0.079 A 
BRANCH   8  12
ATOM     12  C   UNL A   1      30.187  29.582  22.054  1.00  0.00     0.308 C 
BRANCH  12  13
ATOM     13  N   UNL A   1      29.876  30.803  22.793  1.00  0.00    -0.338 N 
ATOM     14  H   UNL A   1      29.840  30.554  23.781  1.00  0.00     0.347 HD
ATOM     15  H   UNL A   1      30.612  31.453  22.516  1.00  0.00     0.347 HD
BRANCH  13  16
ATOM     16  C   UNL A   1      28.630  31.520  22.481  1.00  0.00     0.088 C 
ATOM     17  C   UNL A   1      28.082  31.169  21.088  1.00  0.00     0.078 C 
ATOM     18  C   UNL A   1      28.755  33.046  22.612  1.00  0.00     0.078 C 
ATOM     19  C   UNL A   1      27.616  31.033  23.536  1.00  0.00     0.078 C 
ENDBRANCH  13  16
ENDBRANCH  12  13
ENDBRANCH   8  12
ENDBRANCH   4   7
ENDBRANCH   2   3
ENDBRANCH   1   2
BRANCH   1  20
ATOM     20  C   UNL A   1      33.976  30.288  26.938  1.00  0.00     0.118 C 
BRANCH  20  21
ATOM     21  N   UNL A   1      33.862  31.561  27.638  1.00  0.00    -0.352 N 
ATOM     22  C   UNL A   1      34.602  32.056  28.681  1.00  0.00     0.251 C 
ATOM     23  H   UNL A   1      33.147  32.155  27.313  1.00  0.00     0.163 HD
ATOM     24  O   UNL A   1      34.203  33.053  29.276  1.00  0.00    -0.269 OA
BRANCH  22  25
ATOM     25  C   UNL A   1      35.855  31.388  29.094  1.00  0.00     0.039 A 
ATOM     26  C   UNL A   1      37.073  31.896  28.633  1.00  0.00     0.014 A 
ATOM     27  C   UNL A   1      35.834  30.246  29.900  1.00  0.00     0.014 A 
ATOM     28  C   UNL A   1      38.269  31.284  29.015  1.00  0.00     0.010 A 
ATOM     29  C   UNL A   1      37.029  29.683  30.339  1.00  0.00     0.010 A 
ATOM     30  C   UNL A   1      38.258  30.187  29.890  1.00  0.00    -0.014 A 
BRANCH  30  31
ATOM     31  C   UNL A   1      39.522  29.537  30.322  1.00  0.00     0.031 A 
ATOM     32  C   UNL A   1      40.271  30.071  31.513  1.00  0.00     0.074 A 
ATOM     33  C   UNL A   1      40.015  28.502  29.614  1.00  0.00     0.049 A 
ATOM     34  N   UNL A   1      41.424  29.694  32.005  1.00  0.00    -0.248 NA
ATOM     35  C   UNL A   1      39.654  31.200  32.225  1.00  0.00     0.031 C 
ATOM     36  C   UNL A   1      39.393  27.921  28.421  1.00  0.00     0.029 A 
ATOM     37  N   UNL A   1      41.154  27.759  29.788  1.00  0.00    -0.354 N 
ATOM     38  C   UNL A   1      41.675  30.544  33.076  1.00  0.00     0.074 A 
ATOM     39  C   UNL A   1      40.586  31.498  33.116  1.00  0.00     0.031 C 
ATOM     40  C   UNL A   1      40.143  26.895  27.990  1.00  0.00     0.029 A 
ATOM     41  C   UNL A   1      41.320  26.771  28.844  1.00  0.00     0.049 A 
ATOM     42  H   UNL A   1      41.792  27.915  30.521  1.00  0.00     0.167 HD
ATOM     43  C   UNL A   1      42.704  30.516  33.960  1.00  0.00     0.034 A 
ATOM     44  C   UNL A   1      42.314  25.875  28.682  1.00  0.00     0.034 A 
ATOM     45  C   UNL A   1      43.774  29.550  33.909  1.00  0.00     0.049 A 
ATOM     46  C   UNL A   1      43.458  25.875  29.665  1.00  0.00     0.074 A 
ATOM     47  C   UNL A   1      44.850  29.406  34.769  1.00  0.00     0.029 A 
ATOM     48  N   UNL A   1      43.906  28.561  32.942  1.00  0.00    -0.354 N 
ATOM     49  N   UNL A   1      43.663  26.666  30.694  1.00  0.00    -0.248 NA
ATOM     50  C   UNL A   1      44.494  24.855  29.471  1.00  0.00     0.031 C 
ATOM     51  C   UNL A   1      45.660  28.371  34.289  1.00  0.00     0.029 A 
ATOM     52  C   UNL A   1      45.054  27.818  33.173  1.00  0.00     0.049 A 
ATOM     53  H   UNL A   1      43.276  28.409  32.201  1.00  0.00     0.167 HD
ATOM     54  C   UNL A   1      44.836  26.211  31.291  1.00  0.00     0.074 A 
ATOM     55  C   UNL A   1      45.280  25.071  30.515  1.00  0.00     0.031 C 
ATOM     56  C   UNL A   1      45.486  26.688  32.384  1.00  0.00     0.034 A 
BRANCH  43  57
ATOM     57  C   UNL A   1      42.721  31.577  35.036  1.00  0.00     0.023 A 
ATOM     58  C   UNL A   1      41.779  31.582  36.080  1.00  0.00     0.031 A 
ATOM     59  C   UNL A   1      43.668  32.617  35.002  1.00  0.00     0.131 A 
ATOM     60  C   UNL A   1      41.750  32.647  36.994  1.00  0.00     0.055 A 
ATOM     61  C   UNL A   1      43.687  33.627  35.966  1.00  0.00     0.041 A 
ATOM     62  F   UNL A   1      44.580  32.678  34.019  1.00  0.00    -0.206 F 
ATOM     63  C   UNL A   1      42.715  33.655  36.961  1.00  0.00     0.022 A 
BRANCH  60  64
ATOM     64  S   UNL A   1      40.344  32.770  38.133  1.00  0.00     0.124 S 
ATOM     65  O   UNL A   1      40.014  34.190  38.039  1.00  0.00    -0.237 OA
ATOM     66  O   UNL A   1      39.378  31.850  37.545  1.00  0.00    -0.237 OA
ATOM     67  O   UNL A   1      40.905  32.351  39.416  1.00  0.00    -0.744 OA
ENDBRANCH  60  64
ENDBRANCH  43  57
BRANCH  44  68
ATOM     68  C   UNL A   1      42.279  24.901  27.554  1.00  0.00     0.023 A 
ATOM     69  C   UNL A   1      41.504  23.734  27.635  1.00  0.00     0.031 A 
ATOM     70  C   UNL A   1      43.056  25.097  26.399  1.00  0.00     0.131 A 
ATOM     71  C   UNL A   1      41.562  22.781  26.605  1.00  0.00     0.055 A 
ATOM     72  C   UNL A   1      43.069  24.174  25.353  1.00  0.00     0.041 A 
ATOM     73  F   UNL A   1      43.810  26.201  26.267  1.00  0.00    -0.206 F 
ATOM     74  C   UNL A   1      42.330  23.000  25.459  1.00  0.00     0.022 A 
BRANCH  71  75
ATOM     75  S   UNL A   1      40.687  21.208  26.829  1.00  0.00     0.124 S 
ATOM     76  O   UNL A   1      40.705  21.062  28.279  1.00  0.00    -0.237 OA
ATOM     77  O   UNL A   1      39.390  21.497  26.228  1.00  0.00    -0.237 OA
ATOM     78  O   UNL A   1      41.514  20.253  26.093  1.00  0.00    -0.744 OA
ENDBRANCH  71  75
ENDBRANCH  44  68
BRANCH  56  79
ATOM     79  C   UNL A   1      46.717  25.935  32.827  1.00  0.00     0.023 A 
ATOM     80  C   UNL A   1      47.937  26.042  32.140  1.00  0.00     0.031 A 
ATOM     81  C   UNL A   1      46.656  25.081  33.942  1.00  0.00     0.131 A 
ATOM     82  C   UNL A   1      49.032  25.259  32.535  1.00  0.00     0.055 A 
ATOM     83  C   UNL A   1      47.766  24.351  34.368  1.00  0.00     0.041 A 
ATOM     84  F   UNL A   1      45.515  24.939  34.634  1.00  0.00    -0.206 F 
ATOM     85  C   UNL A   1      48.959  24.426  33.655  1.00  0.00     0.022 A 
BRANCH  82  86
ATOM     86  S   UNL A   1      50.525  25.267  31.505  1.00  0.00     0.124 S 
ATOM     87  O   UNL A   1      51.026  23.908  31.683  1.00  0.00    -0.237 OA
ATOM     88  O   UNL A   1      49.991  25.580  30.184  1.00  0.00    -0.237 OA
ATOM     89  O   UNL A   1      51.349  26.316  32.104  1.00  0.00    -0.744 OA
ENDBRANCH  82  86
ENDBRANCH  56  79
ENDBRANCH  30  31
ENDBRANCH  22  25
ENDBRANCH  20  21
ENDBRANCH   1  20
TORSDOF 16
ENDMDL
