MODEL 1
REMARK VINA RESULT:     -11.6      0.000      0.000
REMARK SMILES Cc1cc(Br)c(C)c([C@@H]2[NH2+][C@H](C(=O)NCCCNC(=O)c3ccc(-c4c5nc(c(-c6cc(S(=O)(=O)[O-])ccc6F)c6ccc([nH]6)c(-c6cc(S(=O)(=O)[O-])ccc6F)c6nc(c(-c7cc(S(=O)(=O)[O-])ccc7F)c7ccc4[nH]7)C=C6)C=C5)cc3)CS2)c1O
REMARK SMILES IDX 16 1 15 2 14 3 12 4 13 5 11 7 9 8 10 9 85 10 84 13 8 14 1 15
REMARK SMILES IDX 2 16 3 17 86 18 4 19 5 20 6 21 7 22 87 23 17 25 18 26 19 27
REMARK SMILES IDX 20 29 21 30 22 31 83 32 23 33 82 34 24 35 25 36 26 37 76 38
REMARK SMILES IDX 27 39 81 40 75 41 77 42 28 43 80 44 74 45 73 46 29 48 61 49
REMARK SMILES IDX 41 50 60 51 42 52 45 53 59 54 78 55 43 56 44 57 58 59 79 60
REMARK SMILES IDX 46 61 30 62 31 63 39 64 32 65 38 66 40 67 37 68 33 69 34 70
REMARK SMILES IDX 35 71 36 72 62 73 63 74 71 75 64 76 70 77 72 78 69 79 65 80
REMARK SMILES IDX 66 81 67 82 68 83 47 84 48 85 56 86 49 87 55 88 57 89 54 90
REMARK SMILES IDX 50 91 51 92 52 93 53 94
REMARK H PARENT 14 6 10 11 10 12 87 24 18 28 77 47 45 58
REMARK Flexibility Score: inf
ROOT
ATOM      1  C   UNL A   1      33.268  29.066  23.951  1.00  0.00     0.042 C 
ENDROOT
BRANCH   1   2
ATOM      2  C   UNL A   1      32.583  27.942  23.174  1.00  0.00     0.118 C 
BRANCH   2   3
ATOM      3  N   UNL A   1      33.331  26.701  22.996  1.00  0.00    -0.351 N 
ATOM      4  C   UNL A   1      32.980  25.461  22.547  1.00  0.00     0.279 C 
ATOM      5  O   UNL A   1      33.919  24.848  22.012  1.00  0.00    -0.268 OA
ATOM      6  H   UNL A   1      34.279  26.773  23.252  1.00  0.00     0.163 HD
BRANCH   4   7
ATOM      7  C   UNL A   1      31.630  24.727  22.747  1.00  0.00     0.283 C 
ATOM      8  C   UNL A   1      31.817  22.597  23.919  1.00  0.00     0.278 C 
ATOM      9  N   UNL A   1      31.770  23.256  22.609  1.00  0.00    -0.320 N 
ATOM     10  S   UNL A   1      31.028  23.742  25.112  1.00  0.00    -0.087 SA
ATOM     11  H   UNL A   1      30.974  22.895  22.083  1.00  0.00     0.348 HD
ATOM     12  H   UNL A   1      32.645  23.061  22.120  1.00  0.00     0.348 HD
ATOM     13  C   UNL A   1      30.735  25.051  23.913  1.00  0.00     0.151 C 
BRANCH   8  14
ATOM     14  C   UNL A   1      33.169  22.018  24.374  1.00  0.00     0.066 A 
ATOM     15  C   UNL A   1      36.481  23.235  25.931  1.00  0.00     0.048 C 
ATOM     16  C   UNL A   1      35.446  22.323  25.333  1.00  0.00    -0.008 A 
ATOM     17  C   UNL A   1      35.681  20.959  25.233  1.00  0.00     0.023 A 
ATOM     18  C   UNL A   1      34.220  22.827  24.871  1.00  0.00     0.128 A 
ATOM     19  C   UNL A   1      34.699  20.117  24.711  1.00  0.00     0.021 A 
ATOM     20  Br  UNL A   1      35.159  18.269  24.622  1.00  0.00    -0.051 Br
ATOM     21  C   UNL A   1      33.442  20.614  24.279  1.00  0.00    -0.023 A 
ATOM     22  C   UNL A   1      32.440  19.617  23.738  1.00  0.00     0.046 C 
BRANCH  18  23
ATOM     23  O   UNL A   1      34.126  24.187  24.891  1.00  0.00    -0.507 OA
ATOM     24  H   UNL A   1      33.875  24.628  25.678  1.00  0.00     0.293 HD
ENDBRANCH  18  23
ENDBRANCH   8  14
ENDBRANCH   4   7
ENDBRANCH   2   3
ENDBRANCH   1   2
BRANCH   1  25
ATOM     25  C   UNL A   1      32.983  29.170  25.450  1.00  0.00     0.118 C 
BRANCH  25  26
ATOM     26  N   UNL A   1      32.548  30.492  25.863  1.00  0.00    -0.352 N 
ATOM     27  C   UNL A   1      33.036  31.326  26.846  1.00  0.00     0.251 C 
ATOM     28  H   UNL A   1      31.781  30.850  25.361  1.00  0.00     0.163 HD
ATOM     29  O   UNL A   1      32.400  32.350  27.098  1.00  0.00    -0.269 OA
BRANCH  27  30
ATOM     30  C   UNL A   1      34.275  31.029  27.621  1.00  0.00     0.039 A 
ATOM     31  C   UNL A   1      35.276  31.978  27.847  1.00  0.00     0.014 A 
ATOM     32  C   UNL A   1      34.386  29.773  28.234  1.00  0.00     0.014 A 
ATOM     33  C   UNL A   1      36.415  31.640  28.599  1.00  0.00     0.010 A 
ATOM     34  C   UNL A   1      35.508  29.452  29.015  1.00  0.00     0.010 A 
ATOM     35  C   UNL A   1      36.555  30.369  29.183  1.00  0.00    -0.014 A 
BRANCH  35  36
ATOM     36  C   UNL A   1      37.778  29.999  29.964  1.00  0.00     0.031 A 
ATOM     37  C   UNL A   1      38.796  29.038  29.396  1.00  0.00     0.074 A 
ATOM     38  C   UNL A   1      37.985  30.502  31.199  1.00  0.00     0.049 A 
ATOM     39  N   UNL A   1      39.906  28.594  29.933  1.00  0.00    -0.248 NA
ATOM     40  C   UNL A   1      38.529  28.501  28.053  1.00  0.00     0.031 C 
ATOM     41  C   UNL A   1      37.084  31.425  31.886  1.00  0.00     0.029 A 
ATOM     42  N   UNL A   1      39.009  30.305  32.098  1.00  0.00    -0.354 N 
ATOM     43  C   UNL A   1      40.470  27.733  28.996  1.00  0.00     0.074 A 
ATOM     44  C   UNL A   1      39.556  27.681  27.875  1.00  0.00     0.031 C 
ATOM     45  C   UNL A   1      37.603  31.730  33.086  1.00  0.00     0.029 A 
ATOM     46  C   UNL A   1      38.849  30.987  33.284  1.00  0.00     0.049 A 
ATOM     47  H   UNL A   1      39.785  29.729  31.911  1.00  0.00     0.167 HD
ATOM     48  C   UNL A   1      41.647  27.062  29.052  1.00  0.00     0.034 A 
ATOM     49  C   UNL A   1      39.599  31.011  34.408  1.00  0.00     0.034 A 
ATOM     50  C   UNL A   1      42.564  27.115  30.164  1.00  0.00     0.049 A 
ATOM     51  C   UNL A   1      40.884  30.219  34.468  1.00  0.00     0.074 A 
ATOM     52  C   UNL A   1      43.799  26.498  30.278  1.00  0.00     0.029 A 
ATOM     53  N   UNL A   1      42.357  27.808  31.347  1.00  0.00    -0.354 N 
ATOM     54  N   UNL A   1      41.439  29.476  33.540  1.00  0.00    -0.248 NA
ATOM     55  C   UNL A   1      41.652  30.272  35.722  1.00  0.00     0.031 C 
ATOM     56  C   UNL A   1      44.304  26.757  31.553  1.00  0.00     0.029 A 
ATOM     57  C   UNL A   1      43.426  27.605  32.207  1.00  0.00     0.049 A 
ATOM     58  H   UNL A   1      41.569  28.363  31.545  1.00  0.00     0.167 HD
ATOM     59  C   UNL A   1      42.630  28.998  34.087  1.00  0.00     0.074 A 
ATOM     60  C   UNL A   1      42.728  29.555  35.418  1.00  0.00     0.031 C 
ATOM     61  C   UNL A   1      43.551  28.171  33.530  1.00  0.00     0.034 A 
BRANCH  48  62
ATOM     62  C   UNL A   1      42.055  26.212  27.870  1.00  0.00     0.023 A 
ATOM     63  C   UNL A   1      41.643  24.867  27.791  1.00  0.00     0.031 A 
ATOM     64  C   UNL A   1      42.972  26.683  26.914  1.00  0.00     0.131 A 
ATOM     65  C   UNL A   1      42.179  24.031  26.802  1.00  0.00     0.055 A 
ATOM     66  C   UNL A   1      43.468  25.858  25.904  1.00  0.00     0.041 A 
ATOM     67  F   UNL A   1      43.402  27.954  26.949  1.00  0.00    -0.206 F 
ATOM     68  C   UNL A   1      43.083  24.521  25.855  1.00  0.00     0.022 A 
BRANCH  65  69
ATOM     69  S   UNL A   1      41.787  22.261  26.757  1.00  0.00     0.124 S 
ATOM     70  O   UNL A   1      42.655  21.735  27.811  1.00  0.00    -0.237 OA
ATOM     71  O   UNL A   1      40.358  22.257  27.072  1.00  0.00    -0.237 OA
ATOM     72  O   UNL A   1      42.136  21.854  25.405  1.00  0.00    -0.744 OA
ENDBRANCH  65  69
ENDBRANCH  48  62
BRANCH  49  73
ATOM     73  C   UNL A   1      39.162  31.864  35.555  1.00  0.00     0.023 A 
ATOM     74  C   UNL A   1      38.531  31.300  36.680  1.00  0.00     0.031 A 
ATOM     75  C   UNL A   1      39.278  33.264  35.499  1.00  0.00     0.131 A 
ATOM     76  C   UNL A   1      37.974  32.133  37.659  1.00  0.00     0.055 A 
ATOM     77  C   UNL A   1      38.790  34.087  36.516  1.00  0.00     0.041 A 
ATOM     78  F   UNL A   1      39.866  33.852  34.445  1.00  0.00    -0.206 F 
ATOM     79  C   UNL A   1      38.116  33.522  37.594  1.00  0.00     0.022 A 
BRANCH  76  80
ATOM     80  S   UNL A   1      36.926  31.450  38.974  1.00  0.00     0.124 S 
ATOM     81  O   UNL A   1      35.764  32.331  38.926  1.00  0.00    -0.237 OA
ATOM     82  O   UNL A   1      36.706  30.086  38.498  1.00  0.00    -0.237 OA
ATOM     83  O   UNL A   1      37.755  31.562  40.169  1.00  0.00    -0.744 OA
ENDBRANCH  76  80
ENDBRANCH  49  73
BRANCH  61  84
ATOM     84  C   UNL A   1      44.783  27.793  34.323  1.00  0.00     0.023 A 
ATOM     85  C   UNL A   1      44.741  26.699  35.211  1.00  0.00     0.031 A 
ATOM     86  C   UNL A   1      45.930  28.606  34.331  1.00  0.00     0.131 A 
ATOM     87  C   UNL A   1      45.799  26.479  36.104  1.00  0.00     0.055 A 
ATOM     88  C   UNL A   1      47.004  28.352  35.186  1.00  0.00     0.041 A 
ATOM     89  F   UNL A   1      46.018  29.668  33.516  1.00  0.00    -0.206 F 
ATOM     90  C   UNL A   1      46.936  27.295  36.090  1.00  0.00     0.022 A 
BRANCH  87  91
ATOM     91  S   UNL A   1      45.701  25.192  37.379  1.00  0.00     0.124 S 
ATOM     92  O   UNL A   1      44.328  25.341  37.855  1.00  0.00    -0.237 OA
ATOM     93  O   UNL A   1      45.966  23.977  36.613  1.00  0.00    -0.237 OA
ATOM     94  O   UNL A   1      46.734  25.567  38.339  1.00  0.00    -0.744 OA
ENDBRANCH  87  91
ENDBRANCH  61  84
ENDBRANCH  35  36
ENDBRANCH  27  30
ENDBRANCH  25  26
ENDBRANCH   1  25
TORSDOF 15
ENDMDL
MODEL 2
REMARK VINA RESULT:     -11.6      1.058      7.609
REMARK SMILES Cc1cc(Br)c(C)c([C@@H]2[NH2+][C@H](C(=O)NCCCNC(=O)c3ccc(-c4c5nc(c(-c6cc(S(=O)(=O)[O-])ccc6F)c6ccc([nH]6)c(-c6cc(S(=O)(=O)[O-])ccc6F)c6nc(c(-c7cc(S(=O)(=O)[O-])ccc7F)c7ccc4[nH]7)C=C6)C=C5)cc3)CS2)c1O
REMARK SMILES IDX 16 1 15 2 14 3 12 4 13 5 11 7 9 8 10 9 85 10 84 13 8 14 1 15
REMARK SMILES IDX 2 16 3 17 86 18 4 19 5 20 6 21 7 22 87 23 17 25 18 26 19 27
REMARK SMILES IDX 20 29 21 30 22 31 83 32 23 33 82 34 24 35 25 36 26 37 76 38
REMARK SMILES IDX 27 39 81 40 75 41 77 42 28 43 80 44 74 45 73 46 29 48 61 49
REMARK SMILES IDX 41 50 60 51 42 52 45 53 59 54 78 55 43 56 44 57 58 59 79 60
REMARK SMILES IDX 46 61 30 62 31 63 39 64 32 65 38 66 40 67 37 68 33 69 34 70
REMARK SMILES IDX 35 71 36 72 62 73 63 74 71 75 64 76 70 77 72 78 69 79 65 80
REMARK SMILES IDX 66 81 67 82 68 83 47 84 48 85 56 86 49 87 55 88 57 89 54 90
REMARK SMILES IDX 50 91 51 92 52 93 53 94
REMARK H PARENT 14 6 10 11 10 12 87 24 18 28 77 47 45 58
REMARK Flexibility Score: inf
ROOT
ATOM      1  C   UNL A   1      33.160  29.195  24.311  1.00  0.00     0.042 C 
ENDROOT
BRANCH   1   2
ATOM      2  C   UNL A   1      32.396  27.984  23.776  1.00  0.00     0.118 C 
BRANCH   2   3
ATOM      3  N   UNL A   1      33.178  26.804  23.422  1.00  0.00    -0.351 N 
ATOM      4  C   UNL A   1      32.856  25.619  22.828  1.00  0.00     0.279 C 
ATOM      5  O   UNL A   1      33.798  25.114  22.194  1.00  0.00    -0.268 OA
ATOM      6  H   UNL A   1      34.131  26.878  23.660  1.00  0.00     0.163 HD
BRANCH   4   7
ATOM      7  C   UNL A   1      31.537  24.816  22.967  1.00  0.00     0.283 C 
ATOM      8  C   UNL A   1      31.804  22.635  24.024  1.00  0.00     0.278 C 
ATOM      9  N   UNL A   1      31.744  23.362  22.751  1.00  0.00    -0.320 N 
ATOM     10  S   UNL A   1      30.951  23.676  25.266  1.00  0.00    -0.087 SA
ATOM     11  H   UNL A   1      30.972  22.996  22.195  1.00  0.00     0.348 HD
ATOM     12  H   UNL A   1      32.633  23.233  22.265  1.00  0.00     0.348 HD
ATOM     13  C   UNL A   1      30.614  25.036  24.136  1.00  0.00     0.151 C 
BRANCH   8  14
ATOM     14  C   UNL A   1      33.175  22.092  24.467  1.00  0.00     0.066 A 
ATOM     15  C   UNL A   1      36.443  23.383  26.056  1.00  0.00     0.048 C 
ATOM     16  C   UNL A   1      35.440  22.451  25.435  1.00  0.00    -0.008 A 
ATOM     17  C   UNL A   1      35.721  21.099  25.303  1.00  0.00     0.023 A 
ATOM     18  C   UNL A   1      34.198  22.924  24.984  1.00  0.00     0.128 A 
ATOM     19  C   UNL A   1      34.769  20.236  24.760  1.00  0.00     0.021 A 
ATOM     20  Br  UNL A   1      35.292  18.408  24.626  1.00  0.00    -0.051 Br
ATOM     21  C   UNL A   1      33.496  20.701  24.338  1.00  0.00    -0.023 A 
ATOM     22  C   UNL A   1      32.528  19.684  23.772  1.00  0.00     0.046 C 
BRANCH  18  23
ATOM     23  O   UNL A   1      34.057  24.279  25.036  1.00  0.00    -0.507 OA
ATOM     24  H   UNL A   1      33.709  24.685  25.805  1.00  0.00     0.293 HD
ENDBRANCH  18  23
ENDBRANCH   8  14
ENDBRANCH   4   7
ENDBRANCH   2   3
ENDBRANCH   1   2
BRANCH   1  25
ATOM     25  C   UNL A   1      33.318  29.323  25.827  1.00  0.00     0.118 C 
BRANCH  25  26
ATOM     26  N   UNL A   1      33.028  30.655  26.326  1.00  0.00    -0.352 N 
ATOM     27  C   UNL A   1      33.681  31.416  27.271  1.00  0.00     0.251 C 
ATOM     28  H   UNL A   1      32.237  31.083  25.925  1.00  0.00     0.163 HD
ATOM     29  O   UNL A   1      33.153  32.471  27.624  1.00  0.00    -0.269 OA
BRANCH  27  30
ATOM     30  C   UNL A   1      34.974  31.006  27.891  1.00  0.00     0.039 A 
ATOM     31  C   UNL A   1      36.082  31.854  27.970  1.00  0.00     0.014 A 
ATOM     32  C   UNL A   1      35.041  29.751  28.511  1.00  0.00     0.014 A 
ATOM     33  C   UNL A   1      37.270  31.413  28.580  1.00  0.00     0.010 A 
ATOM     34  C   UNL A   1      36.217  29.328  29.152  1.00  0.00     0.010 A 
ATOM     35  C   UNL A   1      37.360  30.140  29.168  1.00  0.00    -0.014 A 
BRANCH  35  36
ATOM     36  C   UNL A   1      38.631  29.658  29.798  1.00  0.00     0.031 A 
ATOM     37  C   UNL A   1      39.086  30.203  31.132  1.00  0.00     0.074 A 
ATOM     38  C   UNL A   1      39.402  28.742  29.178  1.00  0.00     0.049 A 
ATOM     39  N   UNL A   1      40.161  29.912  31.822  1.00  0.00    -0.248 NA
ATOM     40  C   UNL A   1      38.224  31.209  31.770  1.00  0.00     0.031 C 
ATOM     41  C   UNL A   1      39.104  28.138  27.881  1.00  0.00     0.029 A 
ATOM     42  N   UNL A   1      40.596  28.163  29.547  1.00  0.00    -0.354 N 
ATOM     43  C   UNL A   1      40.104  30.693  32.972  1.00  0.00     0.074 A 
ATOM     44  C   UNL A   1      38.911  31.504  32.866  1.00  0.00     0.031 C 
ATOM     45  C   UNL A   1      40.073  27.263  27.572  1.00  0.00     0.029 A 
ATOM     46  C   UNL A   1      41.095  27.274  28.621  1.00  0.00     0.049 A 
ATOM     47  H   UNL A   1      41.052  28.366  30.396  1.00  0.00     0.167 HD
ATOM     48  C   UNL A   1      40.954  30.721  34.029  1.00  0.00     0.034 A 
ATOM     49  C   UNL A   1      42.240  26.556  28.600  1.00  0.00     0.034 A 
ATOM     50  C   UNL A   1      42.141  29.910  34.142  1.00  0.00     0.049 A 
ATOM     51  C   UNL A   1      43.196  26.637  29.766  1.00  0.00     0.074 A 
ATOM     52  C   UNL A   1      43.031  29.848  35.203  1.00  0.00     0.029 A 
ATOM     53  N   UNL A   1      42.614  29.033  33.178  1.00  0.00    -0.354 N 
ATOM     54  N   UNL A   1      43.083  27.320  30.880  1.00  0.00    -0.248 NA
ATOM     55  C   UNL A   1      44.434  25.844  29.681  1.00  0.00     0.031 C 
ATOM     56  C   UNL A   1      44.075  28.992  34.851  1.00  0.00     0.029 A 
ATOM     57  C   UNL A   1      43.798  28.452  33.606  1.00  0.00     0.049 A 
ATOM     58  H   UNL A   1      42.172  28.849  32.318  1.00  0.00     0.167 HD
ATOM     59  C   UNL A   1      44.215  27.019  31.637  1.00  0.00     0.074 A 
ATOM     60  C   UNL A   1      44.991  26.073  30.864  1.00  0.00     0.031 C 
ATOM     61  C   UNL A   1      44.573  27.490  32.858  1.00  0.00     0.034 A 
BRANCH  48  62
ATOM     62  C   UNL A   1      40.641  31.641  35.187  1.00  0.00     0.023 A 
ATOM     63  C   UNL A   1      39.594  31.328  36.076  1.00  0.00     0.031 A 
ATOM     64  C   UNL A   1      41.268  32.893  35.315  1.00  0.00     0.131 A 
ATOM     65  C   UNL A   1      39.180  32.272  37.026  1.00  0.00     0.055 A 
ATOM     66  C   UNL A   1      40.882  33.812  36.292  1.00  0.00     0.041 A 
ATOM     67  F   UNL A   1      42.266  33.244  34.488  1.00  0.00    -0.206 F 
ATOM     68  C   UNL A   1      39.823  33.508  37.142  1.00  0.00     0.022 A 
BRANCH  65  69
ATOM     69  S   UNL A   1      37.744  31.964  38.090  1.00  0.00     0.124 S 
ATOM     70  O   UNL A   1      36.796  32.971  37.610  1.00  0.00    -0.237 OA
ATOM     71  O   UNL A   1      37.403  30.582  37.750  1.00  0.00    -0.237 OA
ATOM     72  O   UNL A   1      38.247  32.177  39.437  1.00  0.00    -0.744 OA
ENDBRANCH  65  69
ENDBRANCH  48  62
BRANCH  49  73
ATOM     73  C   UNL A   1      42.512  25.658  27.436  1.00  0.00     0.023 A 
ATOM     74  C   UNL A   1      41.976  24.358  27.382  1.00  0.00     0.031 A 
ATOM     75  C   UNL A   1      43.392  26.050  26.412  1.00  0.00     0.131 A 
ATOM     76  C   UNL A   1      42.385  23.475  26.374  1.00  0.00     0.055 A 
ATOM     77  C   UNL A   1      43.736  25.193  25.366  1.00  0.00     0.041 A 
ATOM     78  F   UNL A   1      43.935  27.277  26.421  1.00  0.00    -0.206 F 
ATOM     79  C   UNL A   1      43.247  23.890  25.355  1.00  0.00     0.022 A 
BRANCH  76  80
ATOM     80  S   UNL A   1      41.924  21.721  26.431  1.00  0.00     0.124 S 
ATOM     81  O   UNL A   1      40.495  21.771  26.140  1.00  0.00    -0.237 OA
ATOM     82  O   UNL A   1      42.764  21.160  25.376  1.00  0.00    -0.237 OA
ATOM     83  O   UNL A   1      42.279  21.315  27.787  1.00  0.00    -0.744 OA
ENDBRANCH  76  80
ENDBRANCH  49  73
BRANCH  61  84
ATOM     84  C   UNL A   1      45.860  27.007  33.491  1.00  0.00     0.023 A 
ATOM     85  C   UNL A   1      45.848  25.880  34.339  1.00  0.00     0.031 A 
ATOM     86  C   UNL A   1      47.050  27.748  33.395  1.00  0.00     0.131 A 
ATOM     87  C   UNL A   1      46.984  25.560  35.096  1.00  0.00     0.055 A 
ATOM     88  C   UNL A   1      48.196  27.395  34.112  1.00  0.00     0.041 A 
ATOM     89  F   UNL A   1      47.114  28.837  32.613  1.00  0.00    -0.206 F 
ATOM     90  C   UNL A   1      48.161  26.307  34.980  1.00  0.00     0.022 A 
BRANCH  87  91
ATOM     91  S   UNL A   1      46.947  24.229  36.328  1.00  0.00     0.124 S 
ATOM     92  O   UNL A   1      46.555  23.077  35.519  1.00  0.00    -0.237 OA
ATOM     93  O   UNL A   1      48.328  24.213  36.806  1.00  0.00    -0.237 OA
ATOM     94  O   UNL A   1      45.953  24.674  37.299  1.00  0.00    -0.744 OA
ENDBRANCH  87  91
ENDBRANCH  61  84
ENDBRANCH  35  36
ENDBRANCH  27  30
ENDBRANCH  25  26
ENDBRANCH   1  25
TORSDOF 15
ENDMDL
MODEL 3
REMARK VINA RESULT:     -11.5      2.620      7.938
REMARK SMILES Cc1cc(Br)c(C)c([C@@H]2[NH2+][C@H](C(=O)NCCCNC(=O)c3ccc(-c4c5nc(c(-c6cc(S(=O)(=O)[O-])ccc6F)c6ccc([nH]6)c(-c6cc(S(=O)(=O)[O-])ccc6F)c6nc(c(-c7cc(S(=O)(=O)[O-])ccc7F)c7ccc4[nH]7)C=C6)C=C5)cc3)CS2)c1O
REMARK SMILES IDX 16 1 15 2 14 3 12 4 13 5 11 7 9 8 10 9 85 10 84 13 8 14 1 15
REMARK SMILES IDX 2 16 3 17 86 18 4 19 5 20 6 21 7 22 87 23 17 25 18 26 19 27
REMARK SMILES IDX 20 29 21 30 22 31 83 32 23 33 82 34 24 35 25 36 26 37 76 38
REMARK SMILES IDX 27 39 81 40 75 41 77 42 28 43 80 44 74 45 73 46 29 48 61 49
REMARK SMILES IDX 41 50 60 51 42 52 45 53 59 54 78 55 43 56 44 57 58 59 79 60
REMARK SMILES IDX 46 61 30 62 31 63 39 64 32 65 38 66 40 67 37 68 33 69 34 70
REMARK SMILES IDX 35 71 36 72 62 73 63 74 71 75 64 76 70 77 72 78 69 79 65 80
REMARK SMILES IDX 66 81 67 82 68 83 47 84 48 85 56 86 49 87 55 88 57 89 54 90
REMARK SMILES IDX 50 91 51 92 52 93 53 94
REMARK H PARENT 14 6 10 11 10 12 87 24 18 28 77 47 45 58
REMARK Flexibility Score: inf
ROOT
ATOM      1  C   UNL A   1      33.594  28.807  24.543  1.00  0.00     0.042 C 
ENDROOT
BRANCH   1   2
ATOM      2  C   UNL A   1      32.706  27.712  23.953  1.00  0.00     0.118 C 
BRANCH   2   3
ATOM      3  N   UNL A   1      33.370  26.523  23.430  1.00  0.00    -0.351 N 
ATOM      4  C   UNL A   1      32.912  25.410  22.787  1.00  0.00     0.279 C 
ATOM      5  O   UNL A   1      33.750  24.906  22.019  1.00  0.00    -0.268 OA
ATOM      6  H   UNL A   1      34.345  26.524  23.568  1.00  0.00     0.163 HD
BRANCH   4   7
ATOM      7  C   UNL A   1      31.567  24.673  23.008  1.00  0.00     0.283 C 
ATOM      8  C   UNL A   1      31.785  22.497  24.085  1.00  0.00     0.278 C 
ATOM      9  N   UNL A   1      31.693  23.209  22.805  1.00  0.00    -0.320 N 
ATOM     10  S   UNL A   1      31.048  23.596  25.353  1.00  0.00    -0.087 SA
ATOM     11  H   UNL A   1      30.876  22.872  22.296  1.00  0.00     0.348 HD
ATOM     12  H   UNL A   1      32.548  23.030  22.276  1.00  0.00     0.348 HD
ATOM     13  C   UNL A   1      30.717  24.954  24.219  1.00  0.00     0.151 C 
BRANCH   8  14
ATOM     14  C   UNL A   1      33.150  21.895  24.466  1.00  0.00     0.066 A 
ATOM     15  C   UNL A   1      36.552  23.049  25.868  1.00  0.00     0.048 C 
ATOM     16  C   UNL A   1      35.476  22.158  25.313  1.00  0.00    -0.008 A 
ATOM     17  C   UNL A   1      35.687  20.792  25.186  1.00  0.00     0.023 A 
ATOM     18  C   UNL A   1      34.236  22.684  24.919  1.00  0.00     0.128 A 
ATOM     19  C   UNL A   1      34.669  19.970  24.704  1.00  0.00     0.021 A 
ATOM     20  Br  UNL A   1      35.098  18.117  24.570  1.00  0.00    -0.051 Br
ATOM     21  C   UNL A   1      33.398  20.489  24.341  1.00  0.00    -0.023 A 
ATOM     22  C   UNL A   1      32.357  19.512  23.839  1.00  0.00     0.046 C 
BRANCH  18  23
ATOM     23  O   UNL A   1      34.162  24.045  24.958  1.00  0.00    -0.507 OA
ATOM     24  H   UNL A   1      34.111  24.535  24.161  1.00  0.00     0.293 HD
ENDBRANCH  18  23
ENDBRANCH   8  14
ENDBRANCH   4   7
ENDBRANCH   2   3
ENDBRANCH   1   2
BRANCH   1  25
ATOM     25  C   UNL A   1      33.787  28.825  26.060  1.00  0.00     0.118 C 
BRANCH  25  26
ATOM     26  N   UNL A   1      33.662  30.148  26.642  1.00  0.00    -0.352 N 
ATOM     27  C   UNL A   1      34.467  30.807  27.546  1.00  0.00     0.251 C 
ATOM     28  H   UNL A   1      32.875  30.658  26.343  1.00  0.00     0.163 HD
ATOM     29  O   UNL A   1      34.068  31.881  27.996  1.00  0.00    -0.269 OA
BRANCH  27  30
ATOM     30  C   UNL A   1      35.776  30.264  28.013  1.00  0.00     0.039 A 
ATOM     31  C   UNL A   1      36.960  30.406  27.285  1.00  0.00     0.014 A 
ATOM     32  C   UNL A   1      35.833  29.678  29.285  1.00  0.00     0.014 A 
ATOM     33  C   UNL A   1      38.166  29.884  27.785  1.00  0.00     0.010 A 
ATOM     34  C   UNL A   1      37.046  29.190  29.798  1.00  0.00     0.010 A 
ATOM     35  C   UNL A   1      38.226  29.256  29.042  1.00  0.00    -0.014 A 
BRANCH  35  36
ATOM     36  C   UNL A   1      39.503  28.678  29.567  1.00  0.00     0.031 A 
ATOM     37  C   UNL A   1      40.158  29.250  30.803  1.00  0.00     0.074 A 
ATOM     38  C   UNL A   1      40.103  27.647  28.937  1.00  0.00     0.049 A 
ATOM     39  N   UNL A   1      41.270  28.886  31.394  1.00  0.00    -0.248 NA
ATOM     40  C   UNL A   1      39.481  30.381  31.453  1.00  0.00     0.031 C 
ATOM     41  C   UNL A   1      39.601  27.002  27.726  1.00  0.00     0.029 A 
ATOM     42  N   UNL A   1      41.266  26.965  29.219  1.00  0.00    -0.354 N 
ATOM     43  C   UNL A   1      41.422  29.737  32.485  1.00  0.00     0.074 A 
ATOM     44  C   UNL A   1      40.313  30.666  32.447  1.00  0.00     0.031 C 
ATOM     45  C   UNL A   1      40.435  26.009  27.381  1.00  0.00     0.029 A 
ATOM     46  C   UNL A   1      41.564  25.972  28.313  1.00  0.00     0.049 A 
ATOM     47  H   UNL A   1      41.832  27.169  29.998  1.00  0.00     0.167 HD
ATOM     48  C   UNL A   1      42.384  29.736  33.442  1.00  0.00     0.034 A 
ATOM     49  C   UNL A   1      42.620  25.134  28.223  1.00  0.00     0.034 A 
ATOM     50  C   UNL A   1      43.487  28.809  33.488  1.00  0.00     0.049 A 
ATOM     51  C   UNL A   1      43.705  25.180  29.273  1.00  0.00     0.074 A 
ATOM     52  C   UNL A   1      44.480  28.715  34.450  1.00  0.00     0.029 A 
ATOM     53  N   UNL A   1      43.757  27.829  32.545  1.00  0.00    -0.354 N 
ATOM     54  N   UNL A   1      43.788  25.939  30.340  1.00  0.00    -0.248 NA
ATOM     55  C   UNL A   1      44.839  24.254  29.115  1.00  0.00     0.031 C 
ATOM     56  C   UNL A   1      45.385  27.731  34.053  1.00  0.00     0.029 A 
ATOM     57  C   UNL A   1      44.917  27.150  32.887  1.00  0.00     0.049 A 
ATOM     58  H   UNL A   1      43.204  27.642  31.752  1.00  0.00     0.167 HD
ATOM     59  C   UNL A   1      44.962  25.562  30.993  1.00  0.00     0.074 A 
ATOM     60  C   UNL A   1      45.545  24.493  30.214  1.00  0.00     0.031 C 
ATOM     61  C   UNL A   1      45.501  26.065  32.133  1.00  0.00     0.034 A 
BRANCH  48  62
ATOM     62  C   UNL A   1      42.298  30.754  34.557  1.00  0.00     0.023 A 
ATOM     63  C   UNL A   1      42.945  31.999  34.428  1.00  0.00     0.031 A 
ATOM     64  C   UNL A   1      41.719  30.432  35.797  1.00  0.00     0.131 A 
ATOM     65  C   UNL A   1      43.029  32.858  35.533  1.00  0.00     0.055 A 
ATOM     66  C   UNL A   1      41.767  31.310  36.880  1.00  0.00     0.041 A 
ATOM     67  F   UNL A   1      41.097  29.255  35.974  1.00  0.00    -0.206 F 
ATOM     68  C   UNL A   1      42.438  32.523  36.754  1.00  0.00     0.022 A 
BRANCH  65  69
ATOM     69  S   UNL A   1      43.977  34.402  35.449  1.00  0.00     0.124 S 
ATOM     70  O   UNL A   1      45.239  33.947  34.864  1.00  0.00    -0.237 OA
ATOM     71  O   UNL A   1      43.146  35.223  34.567  1.00  0.00    -0.237 OA
ATOM     72  O   UNL A   1      44.058  34.845  36.831  1.00  0.00    -0.744 OA
ENDBRANCH  65  69
ENDBRANCH  48  62
BRANCH  49  73
ATOM     73  C   UNL A   1      42.668  24.142  27.105  1.00  0.00     0.023 A 
ATOM     74  C   UNL A   1      42.009  22.903  27.207  1.00  0.00     0.031 A 
ATOM     75  C   UNL A   1      43.453  24.378  25.963  1.00  0.00     0.131 A 
ATOM     76  C   UNL A   1      42.211  21.922  26.226  1.00  0.00     0.055 A 
ATOM     77  C   UNL A   1      43.589  23.428  24.950  1.00  0.00     0.041 A 
ATOM     78  F   UNL A   1      44.106  25.543  25.821  1.00  0.00    -0.206 F 
ATOM     79  C   UNL A   1      42.981  22.183  25.090  1.00  0.00     0.022 A 
BRANCH  76  80
ATOM     80  S   UNL A   1      41.597  20.231  26.463  1.00  0.00     0.124 S 
ATOM     81  O   UNL A   1      42.240  19.516  25.365  1.00  0.00    -0.237 OA
ATOM     82  O   UNL A   1      42.098  19.919  27.799  1.00  0.00    -0.237 OA
ATOM     83  O   UNL A   1      40.149  20.372  26.361  1.00  0.00    -0.744 OA
ENDBRANCH  76  80
ENDBRANCH  49  73
BRANCH  61  84
ATOM     84  C   UNL A   1      46.795  25.484  32.660  1.00  0.00     0.023 A 
ATOM     85  C   UNL A   1      46.769  24.545  33.711  1.00  0.00     0.031 A 
ATOM     86  C   UNL A   1      48.045  25.977  32.247  1.00  0.00     0.131 A 
ATOM     87  C   UNL A   1      47.960  24.170  34.347  1.00  0.00     0.055 A 
ATOM     88  C   UNL A   1      49.234  25.561  32.849  1.00  0.00     0.041 A 
ATOM     89  F   UNL A   1      48.127  26.882  31.259  1.00  0.00    -0.206 F 
ATOM     90  C   UNL A   1      49.195  24.666  33.915  1.00  0.00     0.022 A 
BRANCH  87  91
ATOM     91  S   UNL A   1      47.947  23.104  35.815  1.00  0.00     0.124 S 
ATOM     92  O   UNL A   1      46.545  23.163  36.220  1.00  0.00    -0.237 OA
ATOM     93  O   UNL A   1      48.385  21.822  35.271  1.00  0.00    -0.237 OA
ATOM     94  O   UNL A   1      48.885  23.751  36.728  1.00  0.00    -0.744 OA
ENDBRANCH  87  91
ENDBRANCH  61  84
ENDBRANCH  35  36
ENDBRANCH  27  30
ENDBRANCH  25  26
ENDBRANCH   1  25
TORSDOF 15
ENDMDL
