MODEL 1
REMARK VINA RESULT:     -12.5      0.000      0.000
REMARK SMILES Cc1nc2scc(C)n2c1CNc1ccc(C(=O)NCCCNC(=O)c2ccc(-c3c4nc(c(-c5cc(S(=O)(=O)[O-])ccc5F)c5ccc([nH]5)c(-c5cc(S(=O)(=O)[O-])ccc5F)c5nc(c(-c6cc(S(=O)(=O)[O-])ccc6F)c6ccc3[nH]6)C=C5)C=C4)cc2)cc1
REMARK SMILES IDX 21 1 20 2 19 3 17 4 18 5 16 7 13 8 14 9 90 10 15 11 89 12
REMARK SMILES IDX 12 13 11 15 10 16 1 17 2 18 3 19 4 20 9 21 5 22 7 23 6 24
REMARK SMILES IDX 8 25 22 26 23 27 24 28 25 30 26 31 27 32 88 33 28 34 87 35
REMARK SMILES IDX 29 36 30 37 31 38 81 39 32 40 86 41 80 42 82 43 33 44 85 45
REMARK SMILES IDX 79 46 78 47 34 49 66 50 46 51 65 52 47 53 50 54 64 55 83 56
REMARK SMILES IDX 48 57 49 58 63 60 84 61 51 62 35 63 36 64 44 65 37 66 43 67
REMARK SMILES IDX 45 68 42 69 38 70 39 71 40 72 41 73 67 74 68 75 76 76 69 77
REMARK SMILES IDX 75 78 77 79 74 80 70 81 71 82 72 83 73 84 52 85 53 86 61 87
REMARK SMILES IDX 54 88 60 89 62 90 59 91 55 92 56 93 57 94 58 95
REMARK H PARENT 19 6 12 14 23 29 82 48 50 59
REMARK Flexibility Score: inf
ROOT
ATOM      1  C   UNL A   1      34.032  28.927  26.869  1.00  0.00     0.042 C 
ENDROOT
BRANCH   1   2
ATOM      2  C   UNL A   1      33.926  28.775  25.344  1.00  0.00     0.118 C 
BRANCH   2   3
ATOM      3  N   UNL A   1      32.722  29.397  24.815  1.00  0.00    -0.352 N 
ATOM      4  C   UNL A   1      31.532  28.873  24.374  1.00  0.00     0.251 C 
ATOM      5  O   UNL A   1      30.631  29.655  24.071  1.00  0.00    -0.269 OA
ATOM      6  H   UNL A   1      32.770  30.379  24.762  1.00  0.00     0.163 HD
BRANCH   4   7
ATOM      7  C   UNL A   1      31.258  27.409  24.311  1.00  0.00     0.039 A 
ATOM      8  C   UNL A   1      30.884  24.610  24.455  1.00  0.00     0.034 A 
ATOM      9  C   UNL A   1      30.368  25.449  25.444  1.00  0.00     0.026 A 
ATOM     10  C   UNL A   1      31.488  25.195  23.345  1.00  0.00     0.026 A 
ATOM     11  C   UNL A   1      30.571  26.832  25.386  1.00  0.00     0.016 A 
ATOM     12  C   UNL A   1      31.639  26.579  23.257  1.00  0.00     0.016 A 
BRANCH   8  13
ATOM     13  N   UNL A   1      30.916  23.244  24.664  1.00  0.00    -0.379 N 
ATOM     14  H   UNL A   1      30.413  22.641  24.070  1.00  0.00     0.160 HD
BRANCH  13  15
ATOM     15  C   UNL A   1      31.693  22.704  25.763  1.00  0.00     0.169 C 
BRANCH  15  16
ATOM     16  C   UNL A   1      32.972  22.106  25.314  1.00  0.00     0.066 A 
ATOM     17  C   UNL A   1      32.320  19.692  24.592  1.00  0.00     0.069 C 
ATOM     18  C   UNL A   1      33.245  20.825  24.832  1.00  0.00     0.062 A 
ATOM     19  N   UNL A   1      34.588  20.666  24.560  1.00  0.00    -0.224 NA
ATOM     20  C   UNL A   1      35.099  21.823  24.869  1.00  0.00     0.194 A 
ATOM     21  N   UNL A   1      34.191  22.752  25.302  1.00  0.00    -0.290 N 
ATOM     22  S   UNL A   1      36.711  22.459  24.822  1.00  0.00    -0.105 S 
ATOM     23  C   UNL A   1      34.740  24.000  25.584  1.00  0.00     0.032 A 
ATOM     24  C   UNL A   1      36.073  24.003  25.377  1.00  0.00     0.090 A 
ATOM     25  C   UNL A   1      33.986  25.205  26.021  1.00  0.00     0.066 C 
ENDBRANCH  15  16
ENDBRANCH  13  15
ENDBRANCH   8  13
ENDBRANCH   4   7
ENDBRANCH   2   3
ENDBRANCH   1   2
BRANCH   1  26
ATOM     26  C   UNL A   1      35.419  29.355  27.306  1.00  0.00     0.118 C 
BRANCH  26  27
ATOM     27  N   UNL A   1      35.455  29.786  28.708  1.00  0.00    -0.352 N 
ATOM     28  C   UNL A   1      36.394  29.476  29.686  1.00  0.00     0.251 C 
ATOM     29  H   UNL A   1      34.718  30.374  28.994  1.00  0.00     0.163 HD
ATOM     30  O   UNL A   1      36.118  29.586  30.865  1.00  0.00    -0.269 OA
BRANCH  28  31
ATOM     31  C   UNL A   1      37.725  29.017  29.244  1.00  0.00     0.039 A 
ATOM     32  C   UNL A   1      38.382  29.537  28.124  1.00  0.00     0.014 A 
ATOM     33  C   UNL A   1      38.333  28.057  30.037  1.00  0.00     0.014 A 
ATOM     34  C   UNL A   1      39.687  29.112  27.863  1.00  0.00     0.010 A 
ATOM     35  C   UNL A   1      39.677  27.869  29.946  1.00  0.00     0.010 A 
ATOM     36  C   UNL A   1      40.323  28.278  28.792  1.00  0.00    -0.014 A 
BRANCH  36  37
ATOM     37  C   UNL A   1      41.704  27.835  28.675  1.00  0.00     0.031 A 
ATOM     38  C   UNL A   1      41.868  26.573  27.913  1.00  0.00     0.074 A 
ATOM     39  C   UNL A   1      42.727  28.686  28.929  1.00  0.00     0.049 A 
ATOM     40  N   UNL A   1      42.239  25.419  28.359  1.00  0.00    -0.248 NA
ATOM     41  C   UNL A   1      41.382  26.537  26.522  1.00  0.00     0.031 C 
ATOM     42  C   UNL A   1      42.659  30.096  29.348  1.00  0.00     0.029 A 
ATOM     43  N   UNL A   1      44.058  28.513  28.729  1.00  0.00    -0.354 N 
ATOM     44  C   UNL A   1      42.289  24.585  27.245  1.00  0.00     0.074 A 
ATOM     45  C   UNL A   1      41.506  25.241  26.235  1.00  0.00     0.031 C 
ATOM     46  C   UNL A   1      43.852  30.695  29.139  1.00  0.00     0.029 A 
ATOM     47  C   UNL A   1      44.815  29.685  28.738  1.00  0.00     0.049 A 
ATOM     48  H   UNL A   1      44.460  27.626  28.588  1.00  0.00     0.167 HD
ATOM     49  C   UNL A   1      43.201  23.575  27.161  1.00  0.00     0.034 A 
ATOM     50  C   UNL A   1      46.132  29.816  28.416  1.00  0.00     0.034 A 
ATOM     51  C   UNL A   1      43.807  23.332  28.455  1.00  0.00     0.049 A 
ATOM     52  C   UNL A   1      46.718  28.455  28.528  1.00  0.00     0.074 A 
ATOM     53  C   UNL A   1      43.320  22.971  29.697  1.00  0.00     0.029 A 
ATOM     54  N   UNL A   1      45.050  23.876  28.693  1.00  0.00    -0.354 N 
ATOM     55  N   UNL A   1      46.777  27.798  29.656  1.00  0.00    -0.248 NA
ATOM     56  C   UNL A   1      46.741  27.625  27.332  1.00  0.00     0.031 C 
ATOM     57  C   UNL A   1      44.048  23.778  30.623  1.00  0.00     0.029 A 
ATOM     58  C   UNL A   1      45.005  24.510  29.913  1.00  0.00     0.049 A 
ATOM     59  H   UNL A   1      45.832  23.820  28.096  1.00  0.00     0.167 HD
ATOM     60  C   UNL A   1      46.404  26.499  29.340  1.00  0.00     0.074 A 
ATOM     61  C   UNL A   1      46.490  26.431  27.880  1.00  0.00     0.031 C 
ATOM     62  C   UNL A   1      45.771  25.699  30.251  1.00  0.00     0.034 A 
BRANCH  49  63
ATOM     63  C   UNL A   1      43.826  23.062  25.879  1.00  0.00     0.023 A 
ATOM     64  C   UNL A   1      43.846  21.665  25.695  1.00  0.00     0.031 A 
ATOM     65  C   UNL A   1      44.621  23.804  24.974  1.00  0.00     0.131 A 
ATOM     66  C   UNL A   1      44.692  21.068  24.743  1.00  0.00     0.055 A 
ATOM     67  C   UNL A   1      45.409  23.210  23.984  1.00  0.00     0.041 A 
ATOM     68  F   UNL A   1      44.758  25.132  25.040  1.00  0.00    -0.206 F 
ATOM     69  C   UNL A   1      45.476  21.833  23.885  1.00  0.00     0.022 A 
BRANCH  66  70
ATOM     70  S   UNL A   1      44.882  19.269  24.772  1.00  0.00     0.124 S 
ATOM     71  O   UNL A   1      43.864  18.882  25.744  1.00  0.00    -0.237 OA
ATOM     72  O   UNL A   1      44.614  18.918  23.382  1.00  0.00    -0.237 OA
ATOM     73  O   UNL A   1      46.264  19.082  25.208  1.00  0.00    -0.744 OA
ENDBRANCH  66  70
ENDBRANCH  49  63
BRANCH  50  74
ATOM     74  C   UNL A   1      46.782  30.948  27.689  1.00  0.00     0.023 A 
ATOM     75  C   UNL A   1      46.065  31.990  27.056  1.00  0.00     0.031 A 
ATOM     76  C   UNL A   1      48.177  31.137  27.820  1.00  0.00     0.131 A 
ATOM     77  C   UNL A   1      46.744  33.146  26.587  1.00  0.00     0.055 A 
ATOM     78  C   UNL A   1      48.839  32.278  27.359  1.00  0.00     0.041 A 
ATOM     79  F   UNL A   1      48.935  30.249  28.481  1.00  0.00    -0.206 F 
ATOM     80  C   UNL A   1      48.123  33.293  26.747  1.00  0.00     0.022 A 
BRANCH  77  81
ATOM     81  S   UNL A   1      45.827  34.527  25.819  1.00  0.00     0.124 S 
ATOM     82  O   UNL A   1      45.152  33.874  24.705  1.00  0.00    -0.237 OA
ATOM     83  O   UNL A   1      44.979  34.988  26.913  1.00  0.00    -0.237 OA
ATOM     84  O   UNL A   1      46.882  35.465  25.428  1.00  0.00    -0.744 OA
ENDBRANCH  77  81
ENDBRANCH  50  74
BRANCH  62  85
ATOM     85  C   UNL A   1      45.688  26.178  31.693  1.00  0.00     0.023 A 
ATOM     86  C   UNL A   1      44.574  26.836  32.271  1.00  0.00     0.031 A 
ATOM     87  C   UNL A   1      46.742  25.820  32.549  1.00  0.00     0.131 A 
ATOM     88  C   UNL A   1      44.553  27.114  33.654  1.00  0.00     0.055 A 
ATOM     89  C   UNL A   1      46.709  26.077  33.920  1.00  0.00     0.041 A 
ATOM     90  F   UNL A   1      47.815  25.169  32.071  1.00  0.00    -0.206 F 
ATOM     91  C   UNL A   1      45.615  26.729  34.478  1.00  0.00     0.022 A 
BRANCH  88  92
ATOM     92  S   UNL A   1      43.144  27.992  34.414  1.00  0.00     0.124 S 
ATOM     93  O   UNL A   1      42.427  26.939  35.123  1.00  0.00    -0.237 OA
ATOM     94  O   UNL A   1      43.802  28.992  35.249  1.00  0.00    -0.237 OA
ATOM     95  O   UNL A   1      42.425  28.545  33.262  1.00  0.00    -0.744 OA
ENDBRANCH  88  92
ENDBRANCH  62  85
ENDBRANCH  36  37
ENDBRANCH  28  31
ENDBRANCH  26  27
ENDBRANCH   1  26
TORSDOF 16
ENDMDL
MODEL 2
REMARK VINA RESULT:     -12.4      4.111      5.519
REMARK SMILES Cc1nc2scc(C)n2c1CNc1ccc(C(=O)NCCCNC(=O)c2ccc(-c3c4nc(c(-c5cc(S(=O)(=O)[O-])ccc5F)c5ccc([nH]5)c(-c5cc(S(=O)(=O)[O-])ccc5F)c5nc(c(-c6cc(S(=O)(=O)[O-])ccc6F)c6ccc3[nH]6)C=C5)C=C4)cc2)cc1
REMARK SMILES IDX 21 1 20 2 19 3 17 4 18 5 16 7 13 8 14 9 90 10 15 11 89 12
REMARK SMILES IDX 12 13 11 15 10 16 1 17 2 18 3 19 4 20 9 21 5 22 7 23 6 24
REMARK SMILES IDX 8 25 22 26 23 27 24 28 25 30 26 31 27 32 88 33 28 34 87 35
REMARK SMILES IDX 29 36 30 37 31 38 81 39 32 40 86 41 80 42 82 43 33 44 85 45
REMARK SMILES IDX 79 46 78 47 34 49 66 50 46 51 65 52 47 53 50 54 64 55 83 56
REMARK SMILES IDX 48 57 49 58 63 60 84 61 51 62 35 63 36 64 44 65 37 66 43 67
REMARK SMILES IDX 45 68 42 69 38 70 39 71 40 72 41 73 67 74 68 75 76 76 69 77
REMARK SMILES IDX 75 78 77 79 74 80 70 81 71 82 72 83 73 84 52 85 53 86 61 87
REMARK SMILES IDX 54 88 60 89 62 90 59 91 55 92 56 93 57 94 58 95
REMARK H PARENT 19 6 12 14 23 29 82 48 50 59
REMARK Flexibility Score: inf
ROOT
ATOM      1  C   UNL A   1      33.136  30.822  26.356  1.00  0.00     0.042 C 
ENDROOT
BRANCH   1   2
ATOM      2  C   UNL A   1      32.407  29.656  25.672  1.00  0.00     0.118 C 
BRANCH   2   3
ATOM      3  N   UNL A   1      31.367  30.118  24.765  1.00  0.00    -0.352 N 
ATOM      4  C   UNL A   1      30.546  29.451  23.888  1.00  0.00     0.251 C 
ATOM      5  O   UNL A   1      29.670  30.095  23.312  1.00  0.00    -0.269 OA
ATOM      6  H   UNL A   1      31.226  31.092  24.781  1.00  0.00     0.163 HD
BRANCH   4   7
ATOM      7  C   UNL A   1      30.622  27.981  23.657  1.00  0.00     0.039 A 
ATOM      8  C   UNL A   1      30.895  25.172  23.490  1.00  0.00     0.034 A 
ATOM      9  C   UNL A   1      30.140  25.754  24.509  1.00  0.00     0.026 A 
ATOM     10  C   UNL A   1      31.415  26.002  22.499  1.00  0.00     0.026 A 
ATOM     11  C   UNL A   1      30.022  27.145  24.606  1.00  0.00     0.016 A 
ATOM     12  C   UNL A   1      31.247  27.385  22.563  1.00  0.00     0.016 A 
BRANCH   8  13
ATOM     13  N   UNL A   1      31.228  23.832  23.564  1.00  0.00    -0.379 N 
ATOM     14  H   UNL A   1      31.282  23.290  22.745  1.00  0.00     0.160 HD
BRANCH  13  15
ATOM     15  C   UNL A   1      31.499  23.230  24.856  1.00  0.00     0.169 C 
BRANCH  15  16
ATOM     16  C   UNL A   1      32.944  23.209  25.181  1.00  0.00     0.066 A 
ATOM     17  C   UNL A   1      33.464  25.655  25.902  1.00  0.00     0.069 C 
ATOM     18  C   UNL A   1      33.784  24.237  25.610  1.00  0.00     0.062 A 
ATOM     19  N   UNL A   1      35.082  23.796  25.763  1.00  0.00    -0.224 NA
ATOM     20  C   UNL A   1      35.014  22.537  25.437  1.00  0.00     0.194 A 
ATOM     21  N   UNL A   1      33.760  22.100  25.105  1.00  0.00    -0.290 N 
ATOM     22  S   UNL A   1      36.191  21.266  25.361  1.00  0.00    -0.105 S 
ATOM     23  C   UNL A   1      33.689  20.741  24.805  1.00  0.00     0.032 A 
ATOM     24  C   UNL A   1      34.903  20.159  24.897  1.00  0.00     0.090 A 
ATOM     25  C   UNL A   1      32.454  19.988  24.460  1.00  0.00     0.066 C 
ENDBRANCH  15  16
ENDBRANCH  13  15
ENDBRANCH   8  13
ENDBRANCH   4   7
ENDBRANCH   2   3
ENDBRANCH   1   2
BRANCH   1  26
ATOM     26  C   UNL A   1      32.316  31.430  27.476  1.00  0.00     0.118 C 
BRANCH  26  27
ATOM     27  N   UNL A   1      32.226  32.891  27.373  1.00  0.00    -0.352 N 
ATOM     28  C   UNL A   1      32.961  33.855  28.055  1.00  0.00     0.251 C 
ATOM     29  H   UNL A   1      31.558  33.235  26.735  1.00  0.00     0.163 HD
ATOM     30  O   UNL A   1      32.546  34.994  28.153  1.00  0.00    -0.269 OA
BRANCH  28  31
ATOM     31  C   UNL A   1      34.251  33.450  28.644  1.00  0.00     0.039 A 
ATOM     32  C   UNL A   1      34.381  32.968  29.951  1.00  0.00     0.014 A 
ATOM     33  C   UNL A   1      35.354  33.524  27.807  1.00  0.00     0.014 A 
ATOM     34  C   UNL A   1      35.631  32.505  30.368  1.00  0.00     0.010 A 
ATOM     35  C   UNL A   1      36.475  32.820  28.115  1.00  0.00     0.010 A 
ATOM     36  C   UNL A   1      36.670  32.433  29.430  1.00  0.00    -0.014 A 
BRANCH  36  37
ATOM     37  C   UNL A   1      37.991  31.895  29.720  1.00  0.00     0.031 A 
ATOM     38  C   UNL A   1      38.174  30.486  29.294  1.00  0.00     0.074 A 
ATOM     39  C   UNL A   1      39.023  32.721  30.014  1.00  0.00     0.049 A 
ATOM     40  N   UNL A   1      38.321  29.443  30.041  1.00  0.00    -0.248 NA
ATOM     41  C   UNL A   1      37.983  30.166  27.868  1.00  0.00     0.031 C 
ATOM     42  C   UNL A   1      39.020  34.190  30.106  1.00  0.00     0.029 A 
ATOM     43  N   UNL A   1      40.341  32.431  30.158  1.00  0.00    -0.354 N 
ATOM     44  C   UNL A   1      38.511  28.378  29.165  1.00  0.00     0.074 A 
ATOM     45  C   UNL A   1      38.027  28.833  27.891  1.00  0.00     0.031 C 
ATOM     46  C   UNL A   1      40.287  34.657  30.049  1.00  0.00     0.029 A 
ATOM     47  C   UNL A   1      41.200  33.529  30.093  1.00  0.00     0.049 A 
ATOM     48  H   UNL A   1      40.667  31.513  30.298  1.00  0.00     0.167 HD
ATOM     49  C   UNL A   1      39.309  27.324  29.499  1.00  0.00     0.034 A 
ATOM     50  C   UNL A   1      42.561  33.507  30.054  1.00  0.00     0.034 A 
ATOM     51  C   UNL A   1      39.606  27.345  30.917  1.00  0.00     0.049 A 
ATOM     52  C   UNL A   1      42.964  32.175  30.575  1.00  0.00     0.074 A 
ATOM     53  C   UNL A   1      38.838  27.303  32.065  1.00  0.00     0.029 A 
ATOM     54  N   UNL A   1      40.824  27.856  31.310  1.00  0.00    -0.354 N 
ATOM     55  N   UNL A   1      42.720  31.787  31.799  1.00  0.00    -0.248 NA
ATOM     56  C   UNL A   1      43.146  31.097  29.614  1.00  0.00     0.031 C 
ATOM     57  C   UNL A   1      39.441  28.254  32.942  1.00  0.00     0.029 A 
ATOM     58  C   UNL A   1      40.596  28.750  32.329  1.00  0.00     0.049 A 
ATOM     59  H   UNL A   1      41.702  27.622  30.928  1.00  0.00     0.167 HD
ATOM     60  C   UNL A   1      42.285  30.474  31.684  1.00  0.00     0.074 A 
ATOM     61  C   UNL A   1      42.662  30.073  30.327  1.00  0.00     0.031 C 
ATOM     62  C   UNL A   1      41.397  29.939  32.576  1.00  0.00     0.034 A 
BRANCH  49  63
ATOM     63  C   UNL A   1      40.126  26.499  28.525  1.00  0.00     0.023 A 
ATOM     64  C   UNL A   1      41.228  27.135  27.920  1.00  0.00     0.031 A 
ATOM     65  C   UNL A   1      39.758  25.257  27.959  1.00  0.00     0.131 A 
ATOM     66  C   UNL A   1      41.831  26.605  26.765  1.00  0.00     0.055 A 
ATOM     67  C   UNL A   1      40.404  24.699  26.852  1.00  0.00     0.041 A 
ATOM     68  F   UNL A   1      38.705  24.546  28.375  1.00  0.00    -0.206 F 
ATOM     69  C   UNL A   1      41.425  25.389  26.226  1.00  0.00     0.022 A 
BRANCH  66  70
ATOM     70  S   UNL A   1      43.036  27.625  25.881  1.00  0.00     0.124 S 
ATOM     71  O   UNL A   1      43.339  28.650  26.874  1.00  0.00    -0.237 OA
ATOM     72  O   UNL A   1      44.095  26.662  25.601  1.00  0.00    -0.237 OA
ATOM     73  O   UNL A   1      42.291  28.090  24.713  1.00  0.00    -0.744 OA
ENDBRANCH  66  70
ENDBRANCH  49  63
BRANCH  50  74
ATOM     74  C   UNL A   1      43.463  34.406  29.272  1.00  0.00     0.023 A 
ATOM     75  C   UNL A   1      44.063  34.042  28.044  1.00  0.00     0.031 A 
ATOM     76  C   UNL A   1      43.554  35.770  29.634  1.00  0.00     0.131 A 
ATOM     77  C   UNL A   1      44.716  35.019  27.247  1.00  0.00     0.055 A 
ATOM     78  C   UNL A   1      44.195  36.728  28.843  1.00  0.00     0.041 A 
ATOM     79  F   UNL A   1      42.944  36.235  30.735  1.00  0.00    -0.206 F 
ATOM     80  C   UNL A   1      44.773  36.357  27.640  1.00  0.00     0.022 A 
BRANCH  77  81
ATOM     81  S   UNL A   1      45.447  34.578  25.631  1.00  0.00     0.124 S 
ATOM     82  O   UNL A   1      46.040  33.275  25.901  1.00  0.00    -0.237 OA
ATOM     83  O   UNL A   1      44.286  34.594  24.748  1.00  0.00    -0.237 OA
ATOM     84  O   UNL A   1      46.413  35.651  25.387  1.00  0.00    -0.744 OA
ENDBRANCH  77  81
ENDBRANCH  50  74
BRANCH  62  85
ATOM     85  C   UNL A   1      41.069  30.735  33.831  1.00  0.00     0.023 A 
ATOM     86  C   UNL A   1      39.981  31.631  33.967  1.00  0.00     0.031 A 
ATOM     87  C   UNL A   1      41.826  30.457  34.981  1.00  0.00     0.131 A 
ATOM     88  C   UNL A   1      39.693  32.213  35.220  1.00  0.00     0.055 A 
ATOM     89  C   UNL A   1      41.525  31.017  36.223  1.00  0.00     0.041 A 
ATOM     90  F   UNL A   1      42.853  29.594  34.927  1.00  0.00    -0.206 F 
ATOM     91  C   UNL A   1      40.459  31.901  36.348  1.00  0.00     0.022 A 
BRANCH  88  92
ATOM     92  S   UNL A   1      38.316  33.397  35.411  1.00  0.00     0.124 S 
ATOM     93  O   UNL A   1      38.632  34.089  36.655  1.00  0.00    -0.237 OA
ATOM     94  O   UNL A   1      38.410  34.196  34.193  1.00  0.00    -0.237 OA
ATOM     95  O   UNL A   1      37.132  32.536  35.480  1.00  0.00    -0.744 OA
ENDBRANCH  88  92
ENDBRANCH  62  85
ENDBRANCH  36  37
ENDBRANCH  28  31
ENDBRANCH  26  27
ENDBRANCH   1  26
TORSDOF 16
ENDMDL
MODEL 3
REMARK VINA RESULT:     -12.3      2.473      7.051
REMARK SMILES Cc1nc2scc(C)n2c1CNc1ccc(C(=O)NCCCNC(=O)c2ccc(-c3c4nc(c(-c5cc(S(=O)(=O)[O-])ccc5F)c5ccc([nH]5)c(-c5cc(S(=O)(=O)[O-])ccc5F)c5nc(c(-c6cc(S(=O)(=O)[O-])ccc6F)c6ccc3[nH]6)C=C5)C=C4)cc2)cc1
REMARK SMILES IDX 21 1 20 2 19 3 17 4 18 5 16 7 13 8 14 9 90 10 15 11 89 12
REMARK SMILES IDX 12 13 11 15 10 16 1 17 2 18 3 19 4 20 9 21 5 22 7 23 6 24
REMARK SMILES IDX 8 25 22 26 23 27 24 28 25 30 26 31 27 32 88 33 28 34 87 35
REMARK SMILES IDX 29 36 30 37 31 38 81 39 32 40 86 41 80 42 82 43 33 44 85 45
REMARK SMILES IDX 79 46 78 47 34 49 66 50 46 51 65 52 47 53 50 54 64 55 83 56
REMARK SMILES IDX 48 57 49 58 63 60 84 61 51 62 35 63 36 64 44 65 37 66 43 67
REMARK SMILES IDX 45 68 42 69 38 70 39 71 40 72 41 73 67 74 68 75 76 76 69 77
REMARK SMILES IDX 75 78 77 79 74 80 70 81 71 82 72 83 73 84 52 85 53 86 61 87
REMARK SMILES IDX 54 88 60 89 62 90 59 91 55 92 56 93 57 94 58 95
REMARK H PARENT 19 6 12 14 23 29 82 48 50 59
REMARK Flexibility Score: inf
ROOT
ATOM      1  C   UNL A   1      33.135  30.725  27.082  1.00  0.00     0.042 C 
ENDROOT
BRANCH   1   2
ATOM      2  C   UNL A   1      32.954  29.742  25.916  1.00  0.00     0.118 C 
BRANCH   2   3
ATOM      3  N   UNL A   1      31.778  30.053  25.116  1.00  0.00    -0.352 N 
ATOM      4  C   UNL A   1      31.025  29.295  24.253  1.00  0.00     0.251 C 
ATOM      5  O   UNL A   1      30.004  29.795  23.784  1.00  0.00    -0.269 OA
ATOM      6  H   UNL A   1      31.464  30.980  25.211  1.00  0.00     0.163 HD
BRANCH   4   7
ATOM      7  C   UNL A   1      31.349  27.880  23.913  1.00  0.00     0.039 A 
ATOM      8  C   UNL A   1      31.900  25.268  22.981  1.00  0.00     0.034 A 
ATOM      9  C   UNL A   1      32.626  26.362  22.505  1.00  0.00     0.026 A 
ATOM     10  C   UNL A   1      30.978  25.485  24.002  1.00  0.00     0.026 A 
ATOM     11  C   UNL A   1      32.341  27.658  22.949  1.00  0.00     0.016 A 
ATOM     12  C   UNL A   1      30.734  26.769  24.487  1.00  0.00     0.016 A 
BRANCH   8  13
ATOM     13  N   UNL A   1      32.003  24.048  22.340  1.00  0.00    -0.379 N 
ATOM     14  H   UNL A   1      31.256  23.711  21.794  1.00  0.00     0.160 HD
BRANCH  13  15
ATOM     15  C   UNL A   1      33.216  23.265  22.477  1.00  0.00     0.169 C 
BRANCH  15  16
ATOM     16  C   UNL A   1      33.147  22.301  23.600  1.00  0.00     0.066 A 
ATOM     17  C   UNL A   1      32.030  20.195  22.556  1.00  0.00     0.069 C 
ATOM     18  C   UNL A   1      32.632  21.005  23.642  1.00  0.00     0.062 A 
ATOM     19  N   UNL A   1      32.731  20.466  24.908  1.00  0.00    -0.224 NA
ATOM     20  C   UNL A   1      33.294  21.414  25.598  1.00  0.00     0.194 A 
ATOM     21  N   UNL A   1      33.604  22.538  24.880  1.00  0.00    -0.290 N 
ATOM     22  S   UNL A   1      33.772  21.549  27.260  1.00  0.00    -0.105 S 
ATOM     23  C   UNL A   1      34.250  23.528  25.616  1.00  0.00     0.032 A 
ATOM     24  C   UNL A   1      34.412  23.150  26.902  1.00  0.00     0.090 A 
ATOM     25  C   UNL A   1      34.744  24.826  25.086  1.00  0.00     0.066 C 
ENDBRANCH  15  16
ENDBRANCH  13  15
ENDBRANCH   8  13
ENDBRANCH   4   7
ENDBRANCH   2   3
ENDBRANCH   1   2
BRANCH   1  26
ATOM     26  C   UNL A   1      34.547  30.706  27.632  1.00  0.00     0.118 C 
BRANCH  26  27
ATOM     27  N   UNL A   1      35.129  32.049  27.724  1.00  0.00    -0.352 N 
ATOM     28  C   UNL A   1      36.270  32.454  28.409  1.00  0.00     0.251 C 
ATOM     29  H   UNL A   1      34.650  32.758  27.235  1.00  0.00     0.163 HD
ATOM     30  O   UNL A   1      36.431  33.622  28.705  1.00  0.00    -0.269 OA
BRANCH  28  31
ATOM     31  C   UNL A   1      37.269  31.425  28.755  1.00  0.00     0.039 A 
ATOM     32  C   UNL A   1      37.249  30.129  28.227  1.00  0.00     0.014 A 
ATOM     33  C   UNL A   1      38.284  31.823  29.610  1.00  0.00     0.014 A 
ATOM     34  C   UNL A   1      38.308  29.271  28.533  1.00  0.00     0.010 A 
ATOM     35  C   UNL A   1      39.432  31.097  29.668  1.00  0.00     0.010 A 
ATOM     36  C   UNL A   1      39.399  29.777  29.253  1.00  0.00    -0.014 A 
BRANCH  36  37
ATOM     37  C   UNL A   1      40.595  29.008  29.564  1.00  0.00     0.031 A 
ATOM     38  C   UNL A   1      40.834  28.827  31.016  1.00  0.00     0.074 A 
ATOM     39  C   UNL A   1      41.196  28.253  28.613  1.00  0.00     0.049 A 
ATOM     40  N   UNL A   1      41.784  29.329  31.733  1.00  0.00    -0.248 NA
ATOM     41  C   UNL A   1      39.788  28.159  31.811  1.00  0.00     0.031 C 
ATOM     42  C   UNL A   1      40.809  28.081  27.203  1.00  0.00     0.029 A 
ATOM     43  N   UNL A   1      42.209  27.359  28.740  1.00  0.00    -0.354 N 
ATOM     44  C   UNL A   1      41.599  28.816  33.013  1.00  0.00     0.074 A 
ATOM     45  C   UNL A   1      40.241  28.349  33.051  1.00  0.00     0.031 C 
ATOM     46  C   UNL A   1      41.414  26.986  26.690  1.00  0.00     0.029 A 
ATOM     47  C   UNL A   1      42.360  26.479  27.667  1.00  0.00     0.049 A 
ATOM     48  H   UNL A   1      42.795  27.333  29.530  1.00  0.00     0.167 HD
ATOM     49  C   UNL A   1      42.660  28.562  33.831  1.00  0.00     0.034 A 
ATOM     50  C   UNL A   1      43.186  25.398  27.600  1.00  0.00     0.034 A 
ATOM     51  C   UNL A   1      43.859  29.189  33.312  1.00  0.00     0.049 A 
ATOM     52  C   UNL A   1      44.221  25.608  28.646  1.00  0.00     0.074 A 
ATOM     53  C   UNL A   1      44.220  30.490  33.022  1.00  0.00     0.029 A 
ATOM     54  N   UNL A   1      44.743  28.398  32.611  1.00  0.00    -0.354 N 
ATOM     55  N   UNL A   1      45.069  26.603  28.616  1.00  0.00    -0.248 NA
ATOM     56  C   UNL A   1      43.973  25.052  29.968  1.00  0.00     0.031 C 
ATOM     57  C   UNL A   1      44.935  30.404  31.789  1.00  0.00     0.029 A 
ATOM     58  C   UNL A   1      45.061  29.055  31.445  1.00  0.00     0.049 A 
ATOM     59  H   UNL A   1      45.087  27.519  32.894  1.00  0.00     0.167 HD
ATOM     60  C   UNL A   1      45.118  27.077  29.919  1.00  0.00     0.074 A 
ATOM     61  C   UNL A   1      44.499  26.022  30.725  1.00  0.00     0.031 C 
ATOM     62  C   UNL A   1      45.372  28.394  30.187  1.00  0.00     0.034 A 
BRANCH  49  63
ATOM     63  C   UNL A   1      42.721  27.463  34.873  1.00  0.00     0.023 A 
ATOM     64  C   UNL A   1      43.467  26.314  34.545  1.00  0.00     0.031 A 
ATOM     65  C   UNL A   1      41.905  27.347  36.023  1.00  0.00     0.131 A 
ATOM     66  C   UNL A   1      43.308  25.113  35.260  1.00  0.00     0.055 A 
ATOM     67  C   UNL A   1      41.802  26.171  36.772  1.00  0.00     0.041 A 
ATOM     68  F   UNL A   1      41.094  28.321  36.446  1.00  0.00    -0.206 F 
ATOM     69  C   UNL A   1      42.479  25.034  36.373  1.00  0.00     0.022 A 
BRANCH  66  70
ATOM     70  S   UNL A   1      44.070  23.612  34.596  1.00  0.00     0.124 S 
ATOM     71  O   UNL A   1      44.533  22.954  35.813  1.00  0.00    -0.237 OA
ATOM     72  O   UNL A   1      42.946  22.985  33.910  1.00  0.00    -0.237 OA
ATOM     73  O   UNL A   1      45.125  24.126  33.725  1.00  0.00    -0.744 OA
ENDBRANCH  66  70
ENDBRANCH  49  63
BRANCH  50  74
ATOM     74  C   UNL A   1      42.909  24.080  26.953  1.00  0.00     0.023 A 
ATOM     75  C   UNL A   1      43.800  23.439  26.061  1.00  0.00     0.031 A 
ATOM     76  C   UNL A   1      41.819  23.306  27.414  1.00  0.00     0.131 A 
ATOM     77  C   UNL A   1      43.578  22.094  25.668  1.00  0.00     0.055 A 
ATOM     78  C   UNL A   1      41.607  21.979  27.026  1.00  0.00     0.041 A 
ATOM     79  F   UNL A   1      40.966  23.789  28.329  1.00  0.00    -0.206 F 
ATOM     80  C   UNL A   1      42.492  21.364  26.155  1.00  0.00     0.022 A 
BRANCH  77  81
ATOM     81  S   UNL A   1      44.748  21.232  24.560  1.00  0.00     0.124 S 
ATOM     82  O   UNL A   1      44.148  19.909  24.438  1.00  0.00    -0.237 OA
ATOM     83  O   UNL A   1      44.724  22.070  23.366  1.00  0.00    -0.237 OA
ATOM     84  O   UNL A   1      46.010  21.264  25.302  1.00  0.00    -0.744 OA
ENDBRANCH  77  81
ENDBRANCH  50  74
BRANCH  62  85
ATOM     85  C   UNL A   1      45.827  29.287  29.042  1.00  0.00     0.023 A 
ATOM     86  C   UNL A   1      45.036  30.286  28.423  1.00  0.00     0.031 A 
ATOM     87  C   UNL A   1      47.176  29.202  28.661  1.00  0.00     0.131 A 
ATOM     88  C   UNL A   1      45.606  31.147  27.460  1.00  0.00     0.055 A 
ATOM     89  C   UNL A   1      47.742  30.069  27.725  1.00  0.00     0.041 A 
ATOM     90  F   UNL A   1      47.988  28.296  29.230  1.00  0.00    -0.206 F 
ATOM     91  C   UNL A   1      46.957  31.043  27.117  1.00  0.00     0.022 A 
BRANCH  88  92
ATOM     92  S   UNL A   1      44.597  32.419  26.625  1.00  0.00     0.124 S 
ATOM     93  O   UNL A   1      43.969  33.136  27.729  1.00  0.00    -0.237 OA
ATOM     94  O   UNL A   1      45.592  33.166  25.861  1.00  0.00    -0.237 OA
ATOM     95  O   UNL A   1      43.669  31.635  25.806  1.00  0.00    -0.744 OA
ENDBRANCH  88  92
ENDBRANCH  62  85
ENDBRANCH  36  37
ENDBRANCH  28  31
ENDBRANCH  26  27
ENDBRANCH   1  26
TORSDOF 16
ENDMDL
