MODEL 1
REMARK VINA RESULT:     -12.0      0.000      0.000
REMARK SMILES N#C[C@@]1([C@@H](O)C(=O)NCCCNC(=O)c2ccc(-c3c4nc(c(-c5cc(S(=O)(=O)[O-])ccc5F)c5ccc([nH]5)c(-c5cc(S(=O)(=O)[O-])ccc5F)c5nc(c(-c6cc(S(=O)(=O)[O-])ccc6F)c6ccc3[nH]6)C=C5)C=C4)cc2)CCCc2ccccc21
REMARK SMILES IDX 10 1 9 2 8 3 6 4 7 5 4 7 3 8 78 9 86 10 79 11 81 12 85 13
REMARK SMILES IDX 80 14 82 15 84 16 83 17 2 18 1 19 5 20 11 22 12 23 13 24
REMARK SMILES IDX 14 26 15 27 16 28 77 29 17 30 76 31 18 32 19 33 20 34 70 35
REMARK SMILES IDX 21 36 75 37 69 38 71 39 22 40 74 41 68 42 67 43 23 45 55 46
REMARK SMILES IDX 35 47 54 48 36 49 39 50 53 51 72 52 37 53 38 54 52 56 73 57
REMARK SMILES IDX 40 58 24 59 25 60 33 61 26 62 32 63 34 64 31 65 27 66 28 67
REMARK SMILES IDX 29 68 30 69 56 70 57 71 65 72 58 73 64 74 66 75 63 76 59 77
REMARK SMILES IDX 60 78 61 79 62 80 41 81 42 82 50 83 43 84 49 85 51 86 48 87
REMARK SMILES IDX 44 88 45 89 46 90 47 91
REMARK H PARENT 8 6 5 21 12 25 71 44 39 55
REMARK Flexibility Score: inf
ROOT
ATOM      1  C   UNL A   1      31.069  31.472  25.855  1.00  0.00     0.042 C 
ENDROOT
BRANCH   1   2
ATOM      2  C   UNL A   1      31.070  30.047  25.288  1.00  0.00     0.117 C 
BRANCH   2   3
ATOM      3  N   UNL A   1      30.697  29.954  23.877  1.00  0.00    -0.354 N 
ATOM      4  C   UNL A   1      31.127  29.154  22.854  1.00  0.00     0.250 C 
ATOM      5  O   UNL A   1      30.523  29.253  21.779  1.00  0.00    -0.272 OA
ATOM      6  H   UNL A   1      29.998  30.594  23.611  1.00  0.00     0.163 HD
BRANCH   4   7
ATOM      7  C   UNL A   1      32.313  28.177  22.984  1.00  0.00     0.227 C 
BRANCH   7   8
ATOM      8  C   UNL A   1      32.014  26.628  23.018  1.00  0.00     0.117 C 
ATOM      9  C   UNL A   1      30.524  26.240  23.028  1.00  0.00     0.031 C 
ATOM     10  C   UNL A   1      32.686  25.899  24.208  1.00  0.00    -0.021 A 
ATOM     11  C   UNL A   1      29.835  26.476  24.369  1.00  0.00     0.007 C 
ATOM     12  C   UNL A   1      31.932  25.394  25.295  1.00  0.00    -0.043 A 
ATOM     13  C   UNL A   1      34.064  25.596  24.159  1.00  0.00     0.006 A 
ATOM     14  C   UNL A   1      30.437  25.569  25.425  1.00  0.00     0.036 C 
ATOM     15  C   UNL A   1      32.552  24.584  26.260  1.00  0.00     0.004 A 
ATOM     16  C   UNL A   1      34.656  24.763  25.111  1.00  0.00     0.000 A 
ATOM     17  C   UNL A   1      33.899  24.253  26.157  1.00  0.00     0.000 A 
BRANCH   8  18
ATOM     18  C   UNL A   1      32.556  26.064  21.734  1.00  0.00     0.077 C 
ATOM     19  N   UNL A   1      32.995  25.672  20.737  1.00  0.00    -0.197 NA
ENDBRANCH   8  18
ENDBRANCH   7   8
BRANCH   7  20
ATOM     20  O   UNL A   1      33.272  28.560  21.977  1.00  0.00    -0.381 OA
ATOM     21  H   UNL A   1      32.813  28.717  21.137  1.00  0.00     0.211 HD
ENDBRANCH   7  20
ENDBRANCH   4   7
ENDBRANCH   2   3
ENDBRANCH   1   2
BRANCH   1  22
ATOM     22  C   UNL A   1      32.181  31.784  26.841  1.00  0.00     0.118 C 
BRANCH  22  23
ATOM     23  N   UNL A   1      32.272  33.207  27.102  1.00  0.00    -0.352 N 
ATOM     24  C   UNL A   1      33.116  33.878  27.958  1.00  0.00     0.251 C 
ATOM     25  H   UNL A   1      31.644  33.772  26.597  1.00  0.00     0.163 HD
ATOM     26  O   UNL A   1      32.836  35.026  28.295  1.00  0.00    -0.269 OA
BRANCH  24  27
ATOM     27  C   UNL A   1      34.333  33.215  28.495  1.00  0.00     0.039 A 
ATOM     28  C   UNL A   1      34.300  31.887  28.922  1.00  0.00     0.014 A 
ATOM     29  C   UNL A   1      35.535  33.925  28.550  1.00  0.00     0.014 A 
ATOM     30  C   UNL A   1      35.401  31.335  29.572  1.00  0.00     0.010 A 
ATOM     31  C   UNL A   1      36.677  33.326  29.097  1.00  0.00     0.010 A 
ATOM     32  C   UNL A   1      36.612  32.041  29.660  1.00  0.00    -0.014 A 
BRANCH  32  33
ATOM     33  C   UNL A   1      37.790  31.410  30.319  1.00  0.00     0.031 A 
ATOM     34  C   UNL A   1      38.140  31.722  31.752  1.00  0.00     0.074 A 
ATOM     35  C   UNL A   1      38.537  30.523  29.630  1.00  0.00     0.049 A 
ATOM     36  N   UNL A   1      39.125  31.256  32.478  1.00  0.00    -0.248 NA
ATOM     37  C   UNL A   1      37.282  32.684  32.461  1.00  0.00     0.031 C 
ATOM     38  C   UNL A   1      38.303  30.142  28.236  1.00  0.00     0.029 A 
ATOM     39  N   UNL A   1      39.627  29.772  29.998  1.00  0.00    -0.354 N 
ATOM     40  C   UNL A   1      39.017  31.880  33.716  1.00  0.00     0.074 A 
ATOM     41  C   UNL A   1      37.898  32.791  33.630  1.00  0.00     0.031 C 
ATOM     42  C   UNL A   1      39.185  29.197  27.884  1.00  0.00     0.029 A 
ATOM     43  C   UNL A   1      40.106  28.963  28.992  1.00  0.00     0.049 A 
ATOM     44  H   UNL A   1      40.028  29.809  30.896  1.00  0.00     0.167 HD
ATOM     45  C   UNL A   1      39.772  31.695  34.826  1.00  0.00     0.034 A 
ATOM     46  C   UNL A   1      41.176  28.142  28.946  1.00  0.00     0.034 A 
ATOM     47  C   UNL A   1      40.875  30.767  34.902  1.00  0.00     0.049 A 
ATOM     48  C   UNL A   1      42.021  27.979  30.183  1.00  0.00     0.074 A 
ATOM     49  C   UNL A   1      41.670  30.479  35.997  1.00  0.00     0.029 A 
ATOM     50  N   UNL A   1      41.341  29.982  33.856  1.00  0.00    -0.354 N 
ATOM     51  N   UNL A   1      41.863  28.526  31.364  1.00  0.00    -0.248 NA
ATOM     52  C   UNL A   1      43.181  27.084  30.090  1.00  0.00     0.031 C 
ATOM     53  C   UNL A   1      42.667  29.594  35.592  1.00  0.00     0.029 A 
ATOM     54  C   UNL A   1      42.436  29.240  34.272  1.00  0.00     0.049 A 
ATOM     55  H   UNL A   1      40.950  29.955  32.952  1.00  0.00     0.167 HD
ATOM     56  C   UNL A   1      42.887  28.022  32.162  1.00  0.00     0.074 A 
ATOM     57  C   UNL A   1      43.639  27.102  31.335  1.00  0.00     0.031 C 
ATOM     58  C   UNL A   1      43.176  28.305  33.457  1.00  0.00     0.034 A 
BRANCH  45  59
ATOM     59  C   UNL A   1      39.450  32.488  36.074  1.00  0.00     0.023 A 
ATOM     60  C   UNL A   1      38.599  31.940  37.053  1.00  0.00     0.031 A 
ATOM     61  C   UNL A   1      39.851  33.828  36.222  1.00  0.00     0.131 A 
ATOM     62  C   UNL A   1      38.136  32.740  38.105  1.00  0.00     0.055 A 
ATOM     63  C   UNL A   1      39.433  34.604  37.306  1.00  0.00     0.041 A 
ATOM     64  F   UNL A   1      40.656  34.405  35.315  1.00  0.00    -0.206 F 
ATOM     65  C   UNL A   1      38.557  34.065  38.243  1.00  0.00     0.022 A 
BRANCH  62  66
ATOM     66  S   UNL A   1      36.897  32.122  39.278  1.00  0.00     0.124 S 
ATOM     67  O   UNL A   1      37.049  30.675  39.139  1.00  0.00    -0.237 OA
ATOM     68  O   UNL A   1      37.371  32.680  40.541  1.00  0.00    -0.237 OA
ATOM     69  O   UNL A   1      35.640  32.665  38.779  1.00  0.00    -0.744 OA
ENDBRANCH  62  66
ENDBRANCH  45  59
BRANCH  46  70
ATOM     70  C   UNL A   1      41.465  27.399  27.683  1.00  0.00     0.023 A 
ATOM     71  C   UNL A   1      41.263  26.008  27.605  1.00  0.00     0.031 A 
ATOM     72  C   UNL A   1      42.059  28.040  26.583  1.00  0.00     0.131 A 
ATOM     73  C   UNL A   1      41.734  25.294  26.496  1.00  0.00     0.055 A 
ATOM     74  C   UNL A   1      42.446  27.336  25.441  1.00  0.00     0.041 A 
ATOM     75  F   UNL A   1      42.287  29.362  26.612  1.00  0.00    -0.206 F 
ATOM     76  C   UNL A   1      42.304  25.952  25.403  1.00  0.00     0.022 A 
BRANCH  73  77
ATOM     77  S   UNL A   1      41.768  23.480  26.509  1.00  0.00     0.124 S 
ATOM     78  O   UNL A   1      42.422  23.196  27.783  1.00  0.00    -0.237 OA
ATOM     79  O   UNL A   1      40.344  23.157  26.444  1.00  0.00    -0.237 OA
ATOM     80  O   UNL A   1      42.536  23.142  25.315  1.00  0.00    -0.744 OA
ENDBRANCH  73  77
ENDBRANCH  46  70
BRANCH  58  81
ATOM     81  C   UNL A   1      44.350  27.610  34.111  1.00  0.00     0.023 A 
ATOM     82  C   UNL A   1      44.152  26.386  34.782  1.00  0.00     0.031 A 
ATOM     83  C   UNL A   1      45.608  28.227  34.221  1.00  0.00     0.131 A 
ATOM     84  C   UNL A   1      45.172  25.850  35.577  1.00  0.00     0.055 A 
ATOM     85  C   UNL A   1      46.644  27.656  34.962  1.00  0.00     0.041 A 
ATOM     86  F   UNL A   1      45.847  29.402  33.615  1.00  0.00    -0.206 F 
ATOM     87  C   UNL A   1      46.422  26.471  35.660  1.00  0.00     0.022 A 
BRANCH  84  88
ATOM     88  S   UNL A   1      44.879  24.395  36.619  1.00  0.00     0.124 S 
ATOM     89  O   UNL A   1      43.990  23.595  35.780  1.00  0.00    -0.237 OA
ATOM     90  O   UNL A   1      46.229  23.860  36.784  1.00  0.00    -0.237 OA
ATOM     91  O   UNL A   1      44.269  24.942  37.826  1.00  0.00    -0.744 OA
ENDBRANCH  84  88
ENDBRANCH  58  81
ENDBRANCH  32  33
ENDBRANCH  24  27
ENDBRANCH  22  23
ENDBRANCH   1  22
TORSDOF 16
ENDMDL
MODEL 2
REMARK VINA RESULT:     -12.0      3.788      6.602
REMARK SMILES N#C[C@@]1([C@@H](O)C(=O)NCCCNC(=O)c2ccc(-c3c4nc(c(-c5cc(S(=O)(=O)[O-])ccc5F)c5ccc([nH]5)c(-c5cc(S(=O)(=O)[O-])ccc5F)c5nc(c(-c6cc(S(=O)(=O)[O-])ccc6F)c6ccc3[nH]6)C=C5)C=C4)cc2)CCCc2ccccc21
REMARK SMILES IDX 10 1 9 2 8 3 6 4 7 5 4 7 3 8 78 9 86 10 79 11 81 12 85 13
REMARK SMILES IDX 80 14 82 15 84 16 83 17 2 18 1 19 5 20 11 22 12 23 13 24
REMARK SMILES IDX 14 26 15 27 16 28 77 29 17 30 76 31 18 32 19 33 20 34 70 35
REMARK SMILES IDX 21 36 75 37 69 38 71 39 22 40 74 41 68 42 67 43 23 45 55 46
REMARK SMILES IDX 35 47 54 48 36 49 39 50 53 51 72 52 37 53 38 54 52 56 73 57
REMARK SMILES IDX 40 58 24 59 25 60 33 61 26 62 32 63 34 64 31 65 27 66 28 67
REMARK SMILES IDX 29 68 30 69 56 70 57 71 65 72 58 73 64 74 66 75 63 76 59 77
REMARK SMILES IDX 60 78 61 79 62 80 41 81 42 82 50 83 43 84 49 85 51 86 48 87
REMARK SMILES IDX 44 88 45 89 46 90 47 91
REMARK H PARENT 8 6 5 21 12 25 71 44 39 55
REMARK Flexibility Score: inf
ROOT
ATOM      1  C   UNL A   1      33.696  34.189  28.831  1.00  0.00     0.042 C 
ENDROOT
BRANCH   1   2
ATOM      2  C   UNL A   1      34.273  34.667  30.170  1.00  0.00     0.117 C 
BRANCH   2   3
ATOM      3  N   UNL A   1      33.749  33.966  31.341  1.00  0.00    -0.354 N 
ATOM      4  C   UNL A   1      34.203  33.835  32.625  1.00  0.00     0.250 C 
ATOM      5  O   UNL A   1      33.457  33.253  33.421  1.00  0.00    -0.272 OA
ATOM      6  H   UNL A   1      32.900  33.496  31.173  1.00  0.00     0.163 HD
BRANCH   4   7
ATOM      7  C   UNL A   1      35.576  34.354  33.094  1.00  0.00     0.227 C 
BRANCH   7   8
ATOM      8  C   UNL A   1      36.844  33.442  32.872  1.00  0.00     0.117 C 
ATOM      9  C   UNL A   1      37.794  33.322  34.078  1.00  0.00     0.031 C 
ATOM     10  C   UNL A   1      37.701  33.867  31.654  1.00  0.00    -0.021 A 
ATOM     11  C   UNL A   1      38.643  34.567  34.320  1.00  0.00     0.007 C 
ATOM     12  C   UNL A   1      38.977  34.459  31.810  1.00  0.00    -0.043 A 
ATOM     13  C   UNL A   1      37.279  33.536  30.348  1.00  0.00     0.006 A 
ATOM     14  C   UNL A   1      39.588  34.783  33.154  1.00  0.00     0.036 C 
ATOM     15  C   UNL A   1      39.796  34.662  30.687  1.00  0.00     0.004 A 
ATOM     16  C   UNL A   1      38.119  33.716  29.248  1.00  0.00     0.000 A 
ATOM     17  C   UNL A   1      39.380  34.274  29.418  1.00  0.00     0.000 A 
BRANCH   8  18
ATOM     18  C   UNL A   1      36.329  32.049  32.641  1.00  0.00     0.077 C 
ATOM     19  N   UNL A   1      35.978  30.962  32.451  1.00  0.00    -0.197 NA
ENDBRANCH   8  18
ENDBRANCH   7   8
BRANCH   7  20
ATOM     20  O   UNL A   1      35.718  35.684  32.556  1.00  0.00    -0.381 OA
ATOM     21  H   UNL A   1      34.859  35.993  32.228  1.00  0.00     0.211 HD
ENDBRANCH   7  20
ENDBRANCH   4   7
ENDBRANCH   2   3
ENDBRANCH   1   2
BRANCH   1  22
ATOM     22  C   UNL A   1      34.565  33.213  28.057  1.00  0.00     0.118 C 
BRANCH  22  23
ATOM     23  N   UNL A   1      33.841  31.994  27.747  1.00  0.00    -0.352 N 
ATOM     24  C   UNL A   1      34.324  30.712  27.611  1.00  0.00     0.251 C 
ATOM     25  H   UNL A   1      32.872  32.099  27.616  1.00  0.00     0.163 HD
ATOM     26  O   UNL A   1      33.638  29.875  27.030  1.00  0.00    -0.269 OA
BRANCH  24  27
ATOM     27  C   UNL A   1      35.669  30.352  28.129  1.00  0.00     0.039 A 
ATOM     28  C   UNL A   1      36.826  30.690  27.427  1.00  0.00     0.014 A 
ATOM     29  C   UNL A   1      35.778  29.684  29.352  1.00  0.00     0.014 A 
ATOM     30  C   UNL A   1      38.063  30.201  27.841  1.00  0.00     0.010 A 
ATOM     31  C   UNL A   1      37.038  29.297  29.829  1.00  0.00     0.010 A 
ATOM     32  C   UNL A   1      38.190  29.507  29.055  1.00  0.00    -0.014 A 
BRANCH  32  33
ATOM     33  C   UNL A   1      39.533  29.037  29.501  1.00  0.00     0.031 A 
ATOM     34  C   UNL A   1      40.258  29.717  30.634  1.00  0.00     0.074 A 
ATOM     35  C   UNL A   1      40.093  27.968  28.899  1.00  0.00     0.049 A 
ATOM     36  N   UNL A   1      41.426  29.432  31.151  1.00  0.00    -0.248 NA
ATOM     37  C   UNL A   1      39.594  30.867  31.265  1.00  0.00     0.031 C 
ATOM     38  C   UNL A   1      39.493  27.228  27.787  1.00  0.00     0.029 A 
ATOM     39  N   UNL A   1      41.274  27.306  29.135  1.00  0.00    -0.354 N 
ATOM     40  C   UNL A   1      41.645  30.375  32.150  1.00  0.00     0.074 A 
ATOM     41  C   UNL A   1      40.509  31.268  32.138  1.00  0.00     0.031 C 
ATOM     42  C   UNL A   1      40.280  26.191  27.473  1.00  0.00     0.029 A 
ATOM     43  C   UNL A   1      41.485  26.235  28.296  1.00  0.00     0.049 A 
ATOM     44  H   UNL A   1      41.910  27.573  29.838  1.00  0.00     0.167 HD
ATOM     45  C   UNL A   1      42.689  30.473  33.008  1.00  0.00     0.034 A 
ATOM     46  C   UNL A   1      42.533  25.394  28.177  1.00  0.00     0.034 A 
ATOM     47  C   UNL A   1      43.807  29.561  33.020  1.00  0.00     0.049 A 
ATOM     48  C   UNL A   1      43.698  25.545  29.119  1.00  0.00     0.074 A 
ATOM     49  C   UNL A   1      44.891  29.555  33.881  1.00  0.00     0.029 A 
ATOM     50  N   UNL A   1      43.993  28.503  32.142  1.00  0.00    -0.354 N 
ATOM     51  N   UNL A   1      43.855  26.400  30.101  1.00  0.00    -0.248 NA
ATOM     52  C   UNL A   1      44.823  24.616  28.951  1.00  0.00     0.031 C 
ATOM     53  C   UNL A   1      45.770  28.556  33.469  1.00  0.00     0.029 A 
ATOM     54  C   UNL A   1      45.192  27.863  32.418  1.00  0.00     0.049 A 
ATOM     55  H   UNL A   1      43.366  28.243  31.428  1.00  0.00     0.167 HD
ATOM     56  C   UNL A   1      45.083  26.097  30.683  1.00  0.00     0.074 A 
ATOM     57  C   UNL A   1      45.611  24.958  29.962  1.00  0.00     0.031 C 
ATOM     58  C   UNL A   1      45.713  26.713  31.715  1.00  0.00     0.034 A 
BRANCH  45  59
ATOM     59  C   UNL A   1      42.697  31.590  34.029  1.00  0.00     0.023 A 
ATOM     60  C   UNL A   1      41.882  31.498  35.174  1.00  0.00     0.031 A 
ATOM     61  C   UNL A   1      43.381  32.797  33.799  1.00  0.00     0.131 A 
ATOM     62  C   UNL A   1      41.729  32.608  36.015  1.00  0.00     0.055 A 
ATOM     63  C   UNL A   1      43.271  33.881  34.674  1.00  0.00     0.041 A 
ATOM     64  F   UNL A   1      44.167  32.943  32.720  1.00  0.00    -0.206 F 
ATOM     65  C   UNL A   1      42.428  33.794  35.778  1.00  0.00     0.022 A 
BRANCH  62  66
ATOM     66  S   UNL A   1      40.548  32.586  37.392  1.00  0.00     0.124 S 
ATOM     67  O   UNL A   1      41.362  32.039  38.476  1.00  0.00    -0.237 OA
ATOM     68  O   UNL A   1      40.206  34.000  37.521  1.00  0.00    -0.237 OA
ATOM     69  O   UNL A   1      39.476  31.717  36.921  1.00  0.00    -0.744 OA
ENDBRANCH  62  66
ENDBRANCH  45  59
BRANCH  46  70
ATOM     70  C   UNL A   1      42.487  24.323  27.136  1.00  0.00     0.023 A 
ATOM     71  C   UNL A   1      41.704  23.169  27.327  1.00  0.00     0.031 A 
ATOM     72  C   UNL A   1      43.313  24.376  26.001  1.00  0.00     0.131 A 
ATOM     73  C   UNL A   1      41.831  22.084  26.452  1.00  0.00     0.055 A 
ATOM     74  C   UNL A   1      43.369  23.328  25.081  1.00  0.00     0.041 A 
ATOM     75  F   UNL A   1      44.090  25.448  25.779  1.00  0.00    -0.206 F 
ATOM     76  C   UNL A   1      42.643  22.164  25.317  1.00  0.00     0.022 A 
BRANCH  73  77
ATOM     77  S   UNL A   1      41.076  20.482  26.845  1.00  0.00     0.124 S 
ATOM     78  O   UNL A   1      40.942  20.556  28.297  1.00  0.00    -0.237 OA
ATOM     79  O   UNL A   1      39.826  20.550  26.091  1.00  0.00    -0.237 OA
ATOM     80  O   UNL A   1      42.047  19.512  26.350  1.00  0.00    -0.744 OA
ENDBRANCH  73  77
ENDBRANCH  46  70
BRANCH  58  81
ATOM     81  C   UNL A   1      47.052  26.181  32.175  1.00  0.00     0.023 A 
ATOM     82  C   UNL A   1      47.106  25.223  33.208  1.00  0.00     0.031 A 
ATOM     83  C   UNL A   1      48.263  26.734  31.724  1.00  0.00     0.131 A 
ATOM     84  C   UNL A   1      48.334  24.892  33.793  1.00  0.00     0.055 A 
ATOM     85  C   UNL A   1      49.491  26.353  32.268  1.00  0.00     0.041 A 
ATOM     86  F   UNL A   1      48.269  27.663  30.754  1.00  0.00    -0.206 F 
ATOM     87  C   UNL A   1      49.529  25.442  33.319  1.00  0.00     0.022 A 
BRANCH  84  88
ATOM     88  S   UNL A   1      48.415  23.828  35.260  1.00  0.00     0.124 S 
ATOM     89  O   UNL A   1      49.794  23.349  35.211  1.00  0.00    -0.237 OA
ATOM     90  O   UNL A   1      48.120  24.769  36.337  1.00  0.00    -0.237 OA
ATOM     91  O   UNL A   1      47.396  22.813  35.016  1.00  0.00    -0.744 OA
ENDBRANCH  84  88
ENDBRANCH  58  81
ENDBRANCH  32  33
ENDBRANCH  24  27
ENDBRANCH  22  23
ENDBRANCH   1  22
TORSDOF 16
ENDMDL
MODEL 3
REMARK VINA RESULT:     -11.9      1.728      2.092
REMARK SMILES N#C[C@@]1([C@@H](O)C(=O)NCCCNC(=O)c2ccc(-c3c4nc(c(-c5cc(S(=O)(=O)[O-])ccc5F)c5ccc([nH]5)c(-c5cc(S(=O)(=O)[O-])ccc5F)c5nc(c(-c6cc(S(=O)(=O)[O-])ccc6F)c6ccc3[nH]6)C=C5)C=C4)cc2)CCCc2ccccc21
REMARK SMILES IDX 10 1 9 2 8 3 6 4 7 5 4 7 3 8 78 9 86 10 79 11 81 12 85 13
REMARK SMILES IDX 80 14 82 15 84 16 83 17 2 18 1 19 5 20 11 22 12 23 13 24
REMARK SMILES IDX 14 26 15 27 16 28 77 29 17 30 76 31 18 32 19 33 20 34 70 35
REMARK SMILES IDX 21 36 75 37 69 38 71 39 22 40 74 41 68 42 67 43 23 45 55 46
REMARK SMILES IDX 35 47 54 48 36 49 39 50 53 51 72 52 37 53 38 54 52 56 73 57
REMARK SMILES IDX 40 58 24 59 25 60 33 61 26 62 32 63 34 64 31 65 27 66 28 67
REMARK SMILES IDX 29 68 30 69 56 70 57 71 65 72 58 73 64 74 66 75 63 76 59 77
REMARK SMILES IDX 60 78 61 79 62 80 41 81 42 82 50 83 43 84 49 85 51 86 48 87
REMARK SMILES IDX 44 88 45 89 46 90 47 91
REMARK H PARENT 8 6 5 21 12 25 71 44 39 55
REMARK Flexibility Score: inf
ROOT
ATOM      1  C   UNL A   1      31.592  31.898  26.721  1.00  0.00     0.042 C 
ENDROOT
BRANCH   1   2
ATOM      2  C   UNL A   1      31.696  30.425  26.305  1.00  0.00     0.117 C 
BRANCH   2   3
ATOM      3  N   UNL A   1      31.380  30.167  24.901  1.00  0.00    -0.354 N 
ATOM      4  C   UNL A   1      31.761  29.184  24.028  1.00  0.00     0.250 C 
ATOM      5  O   UNL A   1      31.222  29.190  22.916  1.00  0.00    -0.272 OA
ATOM      6  H   UNL A   1      30.772  30.832  24.504  1.00  0.00     0.163 HD
BRANCH   4   7
ATOM      7  C   UNL A   1      32.819  28.116  24.367  1.00  0.00     0.227 C 
BRANCH   7   8
ATOM      8  C   UNL A   1      32.536  26.618  23.963  1.00  0.00     0.117 C 
ATOM      9  C   UNL A   1      31.054  26.258  23.752  1.00  0.00     0.031 C 
ATOM     10  C   UNL A   1      33.119  25.590  24.963  1.00  0.00    -0.021 A 
ATOM     11  C   UNL A   1      30.258  26.134  25.048  1.00  0.00     0.007 C 
ATOM     12  C   UNL A   1      32.288  24.822  25.813  1.00  0.00    -0.043 A 
ATOM     13  C   UNL A   1      34.500  25.296  24.944  1.00  0.00     0.006 A 
ATOM     14  C   UNL A   1      30.785  24.971  25.868  1.00  0.00     0.036 C 
ATOM     15  C   UNL A   1      32.839  23.776  26.572  1.00  0.00     0.004 A 
ATOM     16  C   UNL A   1      35.024  24.232  25.682  1.00  0.00     0.000 A 
ATOM     17  C   UNL A   1      34.193  23.470  26.491  1.00  0.00     0.000 A 
BRANCH   8  18
ATOM     18  C   UNL A   1      33.183  26.411  22.621  1.00  0.00     0.077 C 
ATOM     19  N   UNL A   1      33.646  26.281  21.569  1.00  0.00    -0.197 NA
ENDBRANCH   8  18
ENDBRANCH   7   8
BRANCH   7  20
ATOM     20  O   UNL A   1      34.080  28.618  23.879  1.00  0.00    -0.381 OA
ATOM     21  H   UNL A   1      34.355  29.377  24.417  1.00  0.00     0.211 HD
ENDBRANCH   7  20
ENDBRANCH   4   7
ENDBRANCH   2   3
ENDBRANCH   1   2
BRANCH   1  22
ATOM     22  C   UNL A   1      32.884  32.532  27.208  1.00  0.00     0.118 C 
BRANCH  22  23
ATOM     23  N   UNL A   1      32.680  33.913  27.600  1.00  0.00    -0.352 N 
ATOM     24  C   UNL A   1      33.201  34.593  28.677  1.00  0.00     0.251 C 
ATOM     25  H   UNL A   1      32.087  34.436  27.014  1.00  0.00     0.163 HD
ATOM     26  O   UNL A   1      32.669  35.641  29.035  1.00  0.00    -0.269 OA
BRANCH  24  27
ATOM     27  C   UNL A   1      34.370  34.053  29.418  1.00  0.00     0.039 A 
ATOM     28  C   UNL A   1      35.671  34.436  29.089  1.00  0.00     0.014 A 
ATOM     29  C   UNL A   1      34.162  33.166  30.478  1.00  0.00     0.014 A 
ATOM     30  C   UNL A   1      36.757  33.796  29.682  1.00  0.00     0.010 A 
ATOM     31  C   UNL A   1      35.257  32.614  31.154  1.00  0.00     0.010 A 
ATOM     32  C   UNL A   1      36.569  32.884  30.732  1.00  0.00    -0.014 A 
BRANCH  32  33
ATOM     33  C   UNL A   1      37.751  32.250  31.382  1.00  0.00     0.031 A 
ATOM     34  C   UNL A   1      38.248  32.725  32.723  1.00  0.00     0.074 A 
ATOM     35  C   UNL A   1      38.366  31.215  30.773  1.00  0.00     0.049 A 
ATOM     36  N   UNL A   1      39.256  32.281  33.431  1.00  0.00    -0.248 NA
ATOM     37  C   UNL A   1      37.531  33.846  33.350  1.00  0.00     0.031 C 
ATOM     38  C   UNL A   1      37.982  30.667  29.471  1.00  0.00     0.029 A 
ATOM     39  N   UNL A   1      39.424  30.430  31.161  1.00  0.00    -0.354 N 
ATOM     40  C   UNL A   1      39.305  33.077  34.571  1.00  0.00     0.074 A 
ATOM     41  C   UNL A   1      38.254  34.060  34.441  1.00  0.00     0.031 C 
ATOM     42  C   UNL A   1      38.755  29.610  29.193  1.00  0.00     0.029 A 
ATOM     43  C   UNL A   1      39.751  29.453  30.249  1.00  0.00     0.049 A 
ATOM     44  H   UNL A   1      39.905  30.556  32.011  1.00  0.00     0.167 HD
ATOM     45  C   UNL A   1      40.139  32.982  35.635  1.00  0.00     0.034 A 
ATOM     46  C   UNL A   1      40.748  28.543  30.241  1.00  0.00     0.034 A 
ATOM     47  C   UNL A   1      41.172  31.981  35.759  1.00  0.00     0.049 A 
ATOM     48  C   UNL A   1      41.685  28.480  31.418  1.00  0.00     0.074 A 
ATOM     49  C   UNL A   1      42.038  31.779  36.819  1.00  0.00     0.029 A 
ATOM     50  N   UNL A   1      41.484  31.022  34.805  1.00  0.00    -0.354 N 
ATOM     51  N   UNL A   1      41.673  29.197  32.517  1.00  0.00    -0.248 NA
ATOM     52  C   UNL A   1      42.762  27.484  31.367  1.00  0.00     0.031 C 
ATOM     53  C   UNL A   1      42.926  30.764  36.471  1.00  0.00     0.029 A 
ATOM     54  C   UNL A   1      42.553  30.253  35.238  1.00  0.00     0.049 A 
ATOM     55  H   UNL A   1      41.014  30.905  33.947  1.00  0.00     0.167 HD
ATOM     56  C   UNL A   1      42.723  28.721  33.298  1.00  0.00     0.074 A 
ATOM     57  C   UNL A   1      43.328  27.634  32.557  1.00  0.00     0.031 C 
ATOM     58  C   UNL A   1      43.147  29.154  34.512  1.00  0.00     0.034 A 
BRANCH  45  59
ATOM     59  C   UNL A   1      39.989  33.965  36.775  1.00  0.00     0.023 A 
ATOM     60  C   UNL A   1      39.449  33.536  38.003  1.00  0.00     0.031 A 
ATOM     61  C   UNL A   1      40.230  35.340  36.603  1.00  0.00     0.131 A 
ATOM     62  C   UNL A   1      39.119  34.475  38.989  1.00  0.00     0.055 A 
ATOM     63  C   UNL A   1      39.954  36.265  37.612  1.00  0.00     0.041 A 
ATOM     64  F   UNL A   1      40.738  35.806  35.451  1.00  0.00    -0.206 F 
ATOM     65  C   UNL A   1      39.379  35.835  38.805  1.00  0.00     0.022 A 
BRANCH  62  66
ATOM     66  S   UNL A   1      38.254  33.979  40.505  1.00  0.00     0.124 S 
ATOM     67  O   UNL A   1      39.285  33.210  41.199  1.00  0.00    -0.237 OA
ATOM     68  O   UNL A   1      37.930  35.270  41.105  1.00  0.00    -0.237 OA
ATOM     69  O   UNL A   1      37.118  33.203  40.023  1.00  0.00    -0.744 OA
ENDBRANCH  62  66
ENDBRANCH  45  59
BRANCH  46  70
ATOM     70  C   UNL A   1      40.868  27.611  29.079  1.00  0.00     0.023 A 
ATOM     71  C   UNL A   1      41.826  27.838  28.073  1.00  0.00     0.031 A 
ATOM     72  C   UNL A   1      39.956  26.559  28.895  1.00  0.00     0.131 A 
ATOM     73  C   UNL A   1      41.790  27.086  26.892  1.00  0.00     0.055 A 
ATOM     74  C   UNL A   1      39.981  25.753  27.755  1.00  0.00     0.041 A 
ATOM     75  F   UNL A   1      39.014  26.309  29.818  1.00  0.00    -0.206 F 
ATOM     76  C   UNL A   1      40.888  26.030  26.735  1.00  0.00     0.022 A 
BRANCH  73  77
ATOM     77  S   UNL A   1      42.802  27.559  25.462  1.00  0.00     0.124 S 
ATOM     78  O   UNL A   1      42.112  28.753  24.981  1.00  0.00    -0.237 OA
ATOM     79  O   UNL A   1      44.104  27.789  26.083  1.00  0.00    -0.237 OA
ATOM     80  O   UNL A   1      42.729  26.393  24.588  1.00  0.00    -0.744 OA
ENDBRANCH  73  77
ENDBRANCH  46  70
BRANCH  58  81
ATOM     81  C   UNL A   1      44.318  28.457  35.168  1.00  0.00     0.023 A 
ATOM     82  C   UNL A   1      44.085  27.455  36.132  1.00  0.00     0.031 A 
ATOM     83  C   UNL A   1      45.641  28.892  34.973  1.00  0.00     0.131 A 
ATOM     84  C   UNL A   1      45.146  26.966  36.903  1.00  0.00     0.055 A 
ATOM     85  C   UNL A   1      46.705  28.353  35.700  1.00  0.00     0.041 A 
ATOM     86  F   UNL A   1      45.918  29.854  34.079  1.00  0.00    -0.206 F 
ATOM     87  C   UNL A   1      46.457  27.399  36.683  1.00  0.00     0.022 A 
BRANCH  84  88
ATOM     88  S   UNL A   1      44.850  25.837  38.292  1.00  0.00     0.124 S 
ATOM     89  O   UNL A   1      44.290  24.668  37.618  1.00  0.00    -0.237 OA
ATOM     90  O   UNL A   1      46.194  25.660  38.834  1.00  0.00    -0.237 OA
ATOM     91  O   UNL A   1      43.919  26.566  39.147  1.00  0.00    -0.744 OA
ENDBRANCH  84  88
ENDBRANCH  58  81
ENDBRANCH  32  33
ENDBRANCH  24  27
ENDBRANCH  22  23
ENDBRANCH   1  22
TORSDOF 16
ENDMDL
