MODEL 1
REMARK VINA RESULT:     -10.4      0.000      0.000
REMARK SMILES COc1cc(/C=C/c2nc3sc4c(c3c(=O)[nH]2)CCCC4)ccc1OCC(=O)NCCCNC(=O)c1ccc(-c2c3nc(c(-c4cc(S(=O)(=O)[O-])ccc4F)c4ccc([nH]4)c(-c4cc(S(=O)(=O)[O-])ccc4F)c4nc(c(-c5cc(S(=O)(=O)[O-])ccc5F)c5ccc2[nH]5)C=C4)C=C3)cc1
REMARK SMILES IDX 30 1 29 2 27 3 28 4 26 6 25 7 24 8 3 9 4 10 5 11 23 12 22 13
REMARK SMILES IDX 2 14 1 15 6 16 7 17 8 18 9 19 17 20 10 21 15 22 11 24 14 25
REMARK SMILES IDX 16 26 12 27 13 28 21 29 18 30 20 31 19 32 31 33 32 34 33 35
REMARK SMILES IDX 34 36 35 38 36 39 37 40 98 41 38 42 97 43 39 44 40 45 41 46
REMARK SMILES IDX 91 47 42 48 96 49 90 50 92 51 43 52 95 53 89 54 88 55 44 57
REMARK SMILES IDX 76 58 56 59 75 60 57 61 60 62 74 63 93 64 58 65 59 66 73 68
REMARK SMILES IDX 94 69 61 70 45 71 46 72 54 73 47 74 53 75 55 76 52 77 48 78
REMARK SMILES IDX 49 79 50 80 51 81 77 82 78 83 86 84 79 85 85 86 87 87 84 88
REMARK SMILES IDX 80 89 81 90 82 91 83 92 62 93 63 94 71 95 64 96 70 97 72 98
REMARK SMILES IDX 69 99 65 100 66 101 67 102 68 103
REMARK H PARENT 29 5 17 23 33 37 92 56 60 67
REMARK Flexibility Score: inf
ROOT
ATOM      1  C   UNL A   1      34.578  34.200  30.476  1.00  0.00     0.117 C 
ENDROOT
BRANCH   1   2
ATOM      2  N   UNL A   1      34.005  35.423  31.002  1.00  0.00    -0.353 N 
ATOM      3  C   UNL A   1      34.175  35.979  32.236  1.00  0.00     0.257 C 
ATOM      4  O   UNL A   1      33.814  37.148  32.393  1.00  0.00    -0.271 OA
ATOM      5  H   UNL A   1      33.416  35.918  30.388  1.00  0.00     0.163 HD
BRANCH   3   6
ATOM      6  C   UNL A   1      34.878  35.184  33.343  1.00  0.00     0.329 C 
BRANCH   6   7
ATOM      7  O   UNL A   1      36.291  35.262  33.400  1.00  0.00    -0.480 OA
BRANCH   7   8
ATOM      8  C   UNL A   1      37.043  34.195  33.802  1.00  0.00     0.161 A 
ATOM      9  C   UNL A   1      38.168  34.170  34.629  1.00  0.00     0.161 A 
ATOM     10  C   UNL A   1      38.833  32.954  34.879  1.00  0.00     0.058 A 
ATOM     11  C   UNL A   1      38.381  31.740  34.336  1.00  0.00    -0.022 A 
ATOM     12  C   UNL A   1      36.589  32.984  33.264  1.00  0.00     0.051 A 
ATOM     13  C   UNL A   1      37.243  31.773  33.526  1.00  0.00     0.012 A 
BRANCH   9  14
ATOM     14  O   UNL A   1      38.730  35.332  35.084  1.00  0.00    -0.493 OA
ATOM     15  C   UNL A   1      40.158  35.315  35.035  1.00  0.00     0.278 C 
ENDBRANCH   9  14
BRANCH  11  16
ATOM     16  C   UNL A   1      39.111  30.463  34.486  1.00  0.00     0.012 C 
ATOM     17  C   UNL A   1      40.422  30.364  34.756  1.00  0.00     0.048 C 
BRANCH  17  18
ATOM     18  C   UNL A   1      41.178  29.089  34.842  1.00  0.00     0.134 A 
ATOM     19  N   UNL A   1      41.930  28.717  33.852  1.00  0.00    -0.220 NA
ATOM     20  N   UNL A   1      40.946  28.320  35.962  1.00  0.00    -0.306 N 
ATOM     21  C   UNL A   1      42.526  27.508  34.011  1.00  0.00     0.131 A 
ATOM     22  C   UNL A   1      41.467  27.056  36.133  1.00  0.00     0.260 A 
ATOM     23  H   UNL A   1      40.379  28.692  36.675  1.00  0.00     0.171 HD
ATOM     24  S   UNL A   1      43.615  26.895  32.851  1.00  0.00    -0.120 S 
ATOM     25  C   UNL A   1      42.350  26.632  35.065  1.00  0.00     0.080 A 
ATOM     26  O   UNL A   1      41.167  26.358  37.100  1.00  0.00    -0.269 OA
ATOM     27  C   UNL A   1      43.857  25.468  33.745  1.00  0.00     0.011 A 
ATOM     28  C   UNL A   1      43.096  25.421  34.899  1.00  0.00    -0.019 A 
ATOM     29  C   UNL A   1      44.786  24.392  33.276  1.00  0.00     0.047 C 
ATOM     30  C   UNL A   1      43.142  24.246  35.833  1.00  0.00     0.037 C 
ATOM     31  C   UNL A   1      45.098  23.422  34.425  1.00  0.00     0.006 C 
ATOM     32  C   UNL A   1      43.828  23.027  35.189  1.00  0.00     0.005 C 
ENDBRANCH  17  18
ENDBRANCH  11  16
ENDBRANCH   7   8
ENDBRANCH   6   7
ENDBRANCH   3   6
ENDBRANCH   1   2
BRANCH   1  33
ATOM     33  C   UNL A   1      35.248  34.384  29.122  1.00  0.00     0.042 C 
BRANCH  33  34
ATOM     34  C   UNL A   1      35.795  33.100  28.509  1.00  0.00     0.118 C 
BRANCH  34  35
ATOM     35  N   UNL A   1      34.761  32.100  28.258  1.00  0.00    -0.352 N 
ATOM     36  C   UNL A   1      34.876  30.745  28.050  1.00  0.00     0.251 C 
ATOM     37  H   UNL A   1      33.842  32.449  28.234  1.00  0.00     0.163 HD
ATOM     38  O   UNL A   1      33.902  30.101  27.669  1.00  0.00    -0.269 OA
BRANCH  36  39
ATOM     39  C   UNL A   1      36.179  30.084  28.258  1.00  0.00     0.039 A 
ATOM     40  C   UNL A   1      37.141  30.126  27.246  1.00  0.00     0.014 A 
ATOM     41  C   UNL A   1      36.460  29.456  29.473  1.00  0.00     0.014 A 
ATOM     42  C   UNL A   1      38.423  29.625  27.492  1.00  0.00     0.010 A 
ATOM     43  C   UNL A   1      37.756  29.040  29.744  1.00  0.00     0.010 A 
ATOM     44  C   UNL A   1      38.755  29.126  28.760  1.00  0.00    -0.014 A 
BRANCH  44  45
ATOM     45  C   UNL A   1      40.127  28.670  29.104  1.00  0.00     0.031 A 
ATOM     46  C   UNL A   1      41.002  29.548  29.954  1.00  0.00     0.074 A 
ATOM     47  C   UNL A   1      40.621  27.534  28.568  1.00  0.00     0.049 A 
ATOM     48  N   UNL A   1      42.283  29.457  30.198  1.00  0.00    -0.248 NA
ATOM     49  C   UNL A   1      40.349  30.708  30.582  1.00  0.00     0.031 C 
ATOM     50  C   UNL A   1      39.874  26.599  27.725  1.00  0.00     0.029 A 
ATOM     51  N   UNL A   1      41.878  26.985  28.635  1.00  0.00    -0.354 N 
ATOM     52  C   UNL A   1      42.594  30.559  30.990  1.00  0.00     0.074 A 
ATOM     53  C   UNL A   1      41.379  31.334  31.127  1.00  0.00     0.031 C 
ATOM     54  C   UNL A   1      40.682  25.589  27.366  1.00  0.00     0.029 A 
ATOM     55  C   UNL A   1      42.021  25.834  27.893  1.00  0.00     0.049 A 
ATOM     56  H   UNL A   1      42.610  27.378  29.164  1.00  0.00     0.167 HD
ATOM     57  C   UNL A   1      43.778  30.881  31.565  1.00  0.00     0.034 A 
ATOM     58  C   UNL A   1      43.112  25.081  27.641  1.00  0.00     0.034 A 
ATOM     59  C   UNL A   1      44.976  30.091  31.421  1.00  0.00     0.049 A 
ATOM     60  C   UNL A   1      44.438  25.496  28.234  1.00  0.00     0.074 A 
ATOM     61  C   UNL A   1      46.222  30.310  31.980  1.00  0.00     0.029 A 
ATOM     62  N   UNL A   1      45.077  28.933  30.660  1.00  0.00    -0.354 N 
ATOM     63  N   UNL A   1      44.717  26.536  28.987  1.00  0.00    -0.248 NA
ATOM     64  C   UNL A   1      45.597  24.638  27.949  1.00  0.00     0.031 C 
ATOM     65  C   UNL A   1      47.095  29.330  31.499  1.00  0.00     0.029 A 
ATOM     66  C   UNL A   1      46.372  28.442  30.716  1.00  0.00     0.049 A 
ATOM     67  H   UNL A   1      44.339  28.522  30.155  1.00  0.00     0.167 HD
ATOM     68  C   UNL A   1      46.067  26.423  29.307  1.00  0.00     0.074 A 
ATOM     69  C   UNL A   1      46.550  25.222  28.661  1.00  0.00     0.031 C 
ATOM     70  C   UNL A   1      46.834  27.232  30.081  1.00  0.00     0.034 A 
BRANCH  57  71
ATOM     71  C   UNL A   1      43.836  32.155  32.373  1.00  0.00     0.023 A 
ATOM     72  C   UNL A   1      43.804  32.135  33.778  1.00  0.00     0.031 A 
ATOM     73  C   UNL A   1      43.898  33.405  31.734  1.00  0.00     0.131 A 
ATOM     74  C   UNL A   1      43.751  33.340  34.494  1.00  0.00     0.055 A 
ATOM     75  C   UNL A   1      43.938  34.599  32.456  1.00  0.00     0.041 A 
ATOM     76  F   UNL A   1      43.906  33.489  30.395  1.00  0.00    -0.206 F 
ATOM     77  C   UNL A   1      43.848  34.573  33.845  1.00  0.00     0.022 A 
BRANCH  74  78
ATOM     78  S   UNL A   1      43.394  33.272  36.270  1.00  0.00     0.124 S 
ATOM     79  O   UNL A   1      42.071  32.651  36.280  1.00  0.00    -0.237 OA
ATOM     80  O   UNL A   1      44.488  32.454  36.781  1.00  0.00    -0.237 OA
ATOM     81  O   UNL A   1      43.418  34.675  36.679  1.00  0.00    -0.744 OA
ENDBRANCH  74  78
ENDBRANCH  57  71
BRANCH  58  82
ATOM     82  C   UNL A   1      43.017  23.869  26.773  1.00  0.00     0.023 A 
ATOM     83  C   UNL A   1      42.314  22.732  27.204  1.00  0.00     0.031 A 
ATOM     84  C   UNL A   1      43.674  23.804  25.532  1.00  0.00     0.131 A 
ATOM     85  C   UNL A   1      42.335  21.561  26.430  1.00  0.00     0.055 A 
ATOM     86  C   UNL A   1      43.637  22.658  24.735  1.00  0.00     0.041 A 
ATOM     87  F   UNL A   1      44.361  24.860  25.069  1.00  0.00    -0.206 F 
ATOM     88  C   UNL A   1      42.977  21.521  25.192  1.00  0.00     0.022 A 
BRANCH  85  89
ATOM     89  S   UNL A   1      41.605  20.053  27.124  1.00  0.00     0.124 S 
ATOM     90  O   UNL A   1      40.977  19.461  25.948  1.00  0.00    -0.237 OA
ATOM     91  O   UNL A   1      42.779  19.359  27.644  1.00  0.00    -0.237 OA
ATOM     92  O   UNL A   1      40.683  20.558  28.138  1.00  0.00    -0.744 OA
ENDBRANCH  85  89
ENDBRANCH  58  82
BRANCH  70  93
ATOM     93  C   UNL A   1      48.254  26.802  30.355  1.00  0.00     0.023 A 
ATOM     94  C   UNL A   1      48.600  25.996  31.452  1.00  0.00     0.031 A 
ATOM     95  C   UNL A   1      49.274  27.173  29.458  1.00  0.00     0.131 A 
ATOM     96  C   UNL A   1      49.938  25.611  31.639  1.00  0.00     0.055 A 
ATOM     97  C   UNL A   1      50.589  26.740  29.617  1.00  0.00     0.041 A 
ATOM     98  F   UNL A   1      48.998  27.947  28.394  1.00  0.00    -0.206 F 
ATOM     99  C   UNL A   1      50.929  25.959  30.717  1.00  0.00     0.022 A 
BRANCH  96 100
ATOM    100  S   UNL A   1      50.382  24.689  33.137  1.00  0.00     0.124 S 
ATOM    101  O   UNL A   1      51.821  24.918  33.219  1.00  0.00    -0.237 OA
ATOM    102  O   UNL A   1      49.573  25.343  34.160  1.00  0.00    -0.237 OA
ATOM    103  O   UNL A   1      49.991  23.316  32.823  1.00  0.00    -0.744 OA
ENDBRANCH  96 100
ENDBRANCH  70  93
ENDBRANCH  44  45
ENDBRANCH  36  39
ENDBRANCH  34  35
ENDBRANCH  33  34
ENDBRANCH   1  33
TORSDOF 18
ENDMDL
MODEL 2
REMARK VINA RESULT:     -10.2      3.314      5.907
REMARK SMILES COc1cc(/C=C/c2nc3sc4c(c3c(=O)[nH]2)CCCC4)ccc1OCC(=O)NCCCNC(=O)c1ccc(-c2c3nc(c(-c4cc(S(=O)(=O)[O-])ccc4F)c4ccc([nH]4)c(-c4cc(S(=O)(=O)[O-])ccc4F)c4nc(c(-c5cc(S(=O)(=O)[O-])ccc5F)c5ccc2[nH]5)C=C4)C=C3)cc1
REMARK SMILES IDX 30 1 29 2 27 3 28 4 26 6 25 7 24 8 3 9 4 10 5 11 23 12 22 13
REMARK SMILES IDX 2 14 1 15 6 16 7 17 8 18 9 19 17 20 10 21 15 22 11 24 14 25
REMARK SMILES IDX 16 26 12 27 13 28 21 29 18 30 20 31 19 32 31 33 32 34 33 35
REMARK SMILES IDX 34 36 35 38 36 39 37 40 98 41 38 42 97 43 39 44 40 45 41 46
REMARK SMILES IDX 91 47 42 48 96 49 90 50 92 51 43 52 95 53 89 54 88 55 44 57
REMARK SMILES IDX 76 58 56 59 75 60 57 61 60 62 74 63 93 64 58 65 59 66 73 68
REMARK SMILES IDX 94 69 61 70 45 71 46 72 54 73 47 74 53 75 55 76 52 77 48 78
REMARK SMILES IDX 49 79 50 80 51 81 77 82 78 83 86 84 79 85 85 86 87 87 84 88
REMARK SMILES IDX 80 89 81 90 82 91 83 92 62 93 63 94 71 95 64 96 70 97 72 98
REMARK SMILES IDX 69 99 65 100 66 101 67 102 68 103
REMARK H PARENT 29 5 17 23 33 37 92 56 60 67
REMARK Flexibility Score: inf
ROOT
ATOM      1  C   UNL A   1      34.616  34.421  29.956  1.00  0.00     0.117 C 
ENDROOT
BRANCH   1   2
ATOM      2  N   UNL A   1      33.950  34.130  31.210  1.00  0.00    -0.353 N 
ATOM      3  C   UNL A   1      34.221  33.136  32.104  1.00  0.00     0.257 C 
ATOM      4  O   UNL A   1      33.715  33.219  33.226  1.00  0.00    -0.271 OA
ATOM      5  H   UNL A   1      33.206  34.728  31.449  1.00  0.00     0.163 HD
BRANCH   3   6
ATOM      6  C   UNL A   1      35.198  32.014  31.730  1.00  0.00     0.329 C 
BRANCH   6   7
ATOM      7  O   UNL A   1      36.488  32.057  32.314  1.00  0.00    -0.480 OA
BRANCH   7   8
ATOM      8  C   UNL A   1      37.486  32.815  31.770  1.00  0.00     0.161 A 
ATOM      9  C   UNL A   1      38.358  33.707  32.398  1.00  0.00     0.161 A 
ATOM     10  C   UNL A   1      39.291  34.436  31.635  1.00  0.00     0.058 A 
ATOM     11  C   UNL A   1      39.393  34.276  30.244  1.00  0.00    -0.022 A 
ATOM     12  C   UNL A   1      37.590  32.651  30.383  1.00  0.00     0.051 A 
ATOM     13  C   UNL A   1      38.529  33.366  29.628  1.00  0.00     0.012 A 
BRANCH   9  14
ATOM     14  O   UNL A   1      38.223  34.001  33.728  1.00  0.00    -0.493 OA
ATOM     15  C   UNL A   1      39.368  34.664  34.269  1.00  0.00     0.278 C 
ENDBRANCH   9  14
BRANCH  11  16
ATOM     16  C   UNL A   1      40.283  35.098  29.397  1.00  0.00     0.012 C 
ATOM     17  C   UNL A   1      41.621  34.993  29.373  1.00  0.00     0.048 C 
BRANCH  17  18
ATOM     18  C   UNL A   1      42.528  35.859  28.578  1.00  0.00     0.134 A 
ATOM     19  N   UNL A   1      43.740  35.469  28.332  1.00  0.00    -0.220 NA
ATOM     20  N   UNL A   1      42.032  37.097  28.228  1.00  0.00    -0.306 N 
ATOM     21  C   UNL A   1      44.500  36.365  27.651  1.00  0.00     0.131 A 
ATOM     22  C   UNL A   1      42.789  38.066  27.604  1.00  0.00     0.260 A 
ATOM     23  H   UNL A   1      41.091  37.299  28.435  1.00  0.00     0.171 HD
ATOM     24  S   UNL A   1      46.092  35.991  27.165  1.00  0.00    -0.120 S 
ATOM     25  C   UNL A   1      44.133  37.642  27.274  1.00  0.00     0.080 A 
ATOM     26  O   UNL A   1      42.345  39.192  27.389  1.00  0.00    -0.269 OA
ATOM     27  C   UNL A   1      46.297  37.522  26.452  1.00  0.00     0.011 A 
ATOM     28  C   UNL A   1      45.191  38.339  26.605  1.00  0.00    -0.019 A 
ATOM     29  C   UNL A   1      47.570  37.908  25.767  1.00  0.00     0.047 C 
ATOM     30  C   UNL A   1      45.159  39.740  26.065  1.00  0.00     0.037 C 
ATOM     31  C   UNL A   1      47.352  39.161  24.907  1.00  0.00     0.006 C 
ATOM     32  C   UNL A   1      46.561  40.234  25.666  1.00  0.00     0.005 C 
ENDBRANCH  17  18
ENDBRANCH  11  16
ENDBRANCH   7   8
ENDBRANCH   6   7
ENDBRANCH   3   6
ENDBRANCH   1   2
BRANCH   1  33
ATOM     33  C   UNL A   1      33.992  33.704  28.766  1.00  0.00     0.042 C 
BRANCH  33  34
ATOM     34  C   UNL A   1      34.904  32.680  28.098  1.00  0.00     0.118 C 
BRANCH  34  35
ATOM     35  N   UNL A   1      34.224  31.427  27.785  1.00  0.00    -0.352 N 
ATOM     36  C   UNL A   1      34.716  30.144  27.739  1.00  0.00     0.251 C 
ATOM     37  H   UNL A   1      33.267  31.514  27.574  1.00  0.00     0.163 HD
ATOM     38  O   UNL A   1      34.027  29.241  27.272  1.00  0.00    -0.269 OA
BRANCH  36  39
ATOM     39  C   UNL A   1      36.083  29.870  28.225  1.00  0.00     0.039 A 
ATOM     40  C   UNL A   1      36.266  29.364  29.514  1.00  0.00     0.014 A 
ATOM     41  C   UNL A   1      37.179  30.081  27.387  1.00  0.00     0.014 A 
ATOM     42  C   UNL A   1      37.543  28.972  29.926  1.00  0.00     0.010 A 
ATOM     43  C   UNL A   1      38.429  29.611  27.765  1.00  0.00     0.010 A 
ATOM     44  C   UNL A   1      38.626  29.044  29.036  1.00  0.00    -0.014 A 
BRANCH  44  45
ATOM     45  C   UNL A   1      39.984  28.553  29.389  1.00  0.00     0.031 A 
ATOM     46  C   UNL A   1      40.845  29.374  30.307  1.00  0.00     0.074 A 
ATOM     47  C   UNL A   1      40.479  27.443  28.804  1.00  0.00     0.049 A 
ATOM     48  N   UNL A   1      42.118  29.256  30.578  1.00  0.00    -0.248 NA
ATOM     49  C   UNL A   1      40.187  30.505  30.980  1.00  0.00     0.031 C 
ATOM     50  C   UNL A   1      39.745  26.564  27.892  1.00  0.00     0.029 A 
ATOM     51  N   UNL A   1      41.729  26.877  28.872  1.00  0.00    -0.354 N 
ATOM     52  C   UNL A   1      42.420  30.309  31.436  1.00  0.00     0.074 A 
ATOM     53  C   UNL A   1      41.209  31.089  31.585  1.00  0.00     0.031 C 
ATOM     54  C   UNL A   1      40.551  25.565  27.499  1.00  0.00     0.029 A 
ATOM     55  C   UNL A   1      41.879  25.766  28.072  1.00  0.00     0.049 A 
ATOM     56  H   UNL A   1      42.450  27.232  29.440  1.00  0.00     0.167 HD
ATOM     57  C   UNL A   1      43.592  30.586  32.057  1.00  0.00     0.034 A 
ATOM     58  C   UNL A   1      42.969  25.016  27.807  1.00  0.00     0.034 A 
ATOM     59  C   UNL A   1      44.784  29.791  31.901  1.00  0.00     0.049 A 
ATOM     60  C   UNL A   1      44.283  25.382  28.456  1.00  0.00     0.074 A 
ATOM     61  C   UNL A   1      46.019  29.965  32.502  1.00  0.00     0.029 A 
ATOM     62  N   UNL A   1      44.894  28.675  31.081  1.00  0.00    -0.354 N 
ATOM     63  N   UNL A   1      44.553  26.377  29.271  1.00  0.00    -0.248 NA
ATOM     64  C   UNL A   1      45.440  24.528  28.153  1.00  0.00     0.031 C 
ATOM     65  C   UNL A   1      46.893  29.002  31.991  1.00  0.00     0.029 A 
ATOM     66  C   UNL A   1      46.182  28.167  31.143  1.00  0.00     0.049 A 
ATOM     67  H   UNL A   1      44.165  28.301  30.536  1.00  0.00     0.167 HD
ATOM     68  C   UNL A   1      45.894  26.231  29.619  1.00  0.00     0.074 A 
ATOM     69  C   UNL A   1      46.380  25.062  28.920  1.00  0.00     0.031 C 
ATOM     70  C   UNL A   1      46.648  26.988  30.454  1.00  0.00     0.034 A 
BRANCH  57  71
ATOM     71  C   UNL A   1      43.641  31.813  32.936  1.00  0.00     0.023 A 
ATOM     72  C   UNL A   1      44.046  33.061  32.433  1.00  0.00     0.031 A 
ATOM     73  C   UNL A   1      43.303  31.731  34.298  1.00  0.00     0.131 A 
ATOM     74  C   UNL A   1      44.182  34.154  33.300  1.00  0.00     0.055 A 
ATOM     75  C   UNL A   1      43.352  32.846  35.136  1.00  0.00     0.041 A 
ATOM     76  F   UNL A   1      42.932  30.561  34.841  1.00  0.00    -0.206 F 
ATOM     77  C   UNL A   1      43.810  34.064  34.643  1.00  0.00     0.022 A 
BRANCH  74  78
ATOM     78  S   UNL A   1      45.002  35.648  32.681  1.00  0.00     0.124 S 
ATOM     79  O   UNL A   1      44.025  36.141  31.714  1.00  0.00    -0.237 OA
ATOM     80  O   UNL A   1      45.161  36.446  33.892  1.00  0.00    -0.237 OA
ATOM     81  O   UNL A   1      46.244  35.142  32.099  1.00  0.00    -0.744 OA
ENDBRANCH  74  78
ENDBRANCH  57  71
BRANCH  58  82
ATOM     82  C   UNL A   1      42.884  23.854  26.873  1.00  0.00     0.023 A 
ATOM     83  C   UNL A   1      42.207  22.681  27.245  1.00  0.00     0.031 A 
ATOM     84  C   UNL A   1      43.526  23.872  25.622  1.00  0.00     0.131 A 
ATOM     85  C   UNL A   1      42.239  21.556  26.405  1.00  0.00     0.055 A 
ATOM     86  C   UNL A   1      43.499  22.773  24.761  1.00  0.00     0.041 A 
ATOM     87  F   UNL A   1      44.188  24.965  25.212  1.00  0.00    -0.206 F 
ATOM     88  C   UNL A   1      42.865  21.599  25.159  1.00  0.00     0.022 A 
BRANCH  85  89
ATOM     89  S   UNL A   1      41.545  19.998  27.021  1.00  0.00     0.124 S 
ATOM     90  O   UNL A   1      42.748  19.287  27.443  1.00  0.00    -0.237 OA
ATOM     91  O   UNL A   1      40.663  20.459  28.087  1.00  0.00    -0.237 OA
ATOM     92  O   UNL A   1      40.870  19.442  25.850  1.00  0.00    -0.744 OA
ENDBRANCH  85  89
ENDBRANCH  58  82
BRANCH  70  93
ATOM     93  C   UNL A   1      48.056  26.527  30.740  1.00  0.00     0.023 A 
ATOM     94  C   UNL A   1      48.354  25.589  31.742  1.00  0.00     0.031 A 
ATOM     95  C   UNL A   1      49.116  27.010  29.947  1.00  0.00     0.131 A 
ATOM     96  C   UNL A   1      49.684  25.184  31.944  1.00  0.00     0.055 A 
ATOM     97  C   UNL A   1      50.424  26.560  30.114  1.00  0.00     0.041 A 
ATOM     98  F   UNL A   1      48.886  27.911  28.977  1.00  0.00    -0.206 F 
ATOM     99  C   UNL A   1      50.716  25.647  31.121  1.00  0.00     0.022 A 
BRANCH  96 100
ATOM    100  S   UNL A   1      50.063  24.081  33.333  1.00  0.00     0.124 S 
ATOM    101  O   UNL A   1      51.042  24.862  34.082  1.00  0.00    -0.237 OA
ATOM    102  O   UNL A   1      48.759  23.917  33.968  1.00  0.00    -0.237 OA
ATOM    103  O   UNL A   1      50.590  22.882  32.685  1.00  0.00    -0.744 OA
ENDBRANCH  96 100
ENDBRANCH  70  93
ENDBRANCH  44  45
ENDBRANCH  36  39
ENDBRANCH  34  35
ENDBRANCH  33  34
ENDBRANCH   1  33
TORSDOF 18
ENDMDL
MODEL 3
REMARK VINA RESULT:     -10.1      1.706      2.071
REMARK SMILES COc1cc(/C=C/c2nc3sc4c(c3c(=O)[nH]2)CCCC4)ccc1OCC(=O)NCCCNC(=O)c1ccc(-c2c3nc(c(-c4cc(S(=O)(=O)[O-])ccc4F)c4ccc([nH]4)c(-c4cc(S(=O)(=O)[O-])ccc4F)c4nc(c(-c5cc(S(=O)(=O)[O-])ccc5F)c5ccc2[nH]5)C=C4)C=C3)cc1
REMARK SMILES IDX 30 1 29 2 27 3 28 4 26 6 25 7 24 8 3 9 4 10 5 11 23 12 22 13
REMARK SMILES IDX 2 14 1 15 6 16 7 17 8 18 9 19 17 20 10 21 15 22 11 24 14 25
REMARK SMILES IDX 16 26 12 27 13 28 21 29 18 30 20 31 19 32 31 33 32 34 33 35
REMARK SMILES IDX 34 36 35 38 36 39 37 40 98 41 38 42 97 43 39 44 40 45 41 46
REMARK SMILES IDX 91 47 42 48 96 49 90 50 92 51 43 52 95 53 89 54 88 55 44 57
REMARK SMILES IDX 76 58 56 59 75 60 57 61 60 62 74 63 93 64 58 65 59 66 73 68
REMARK SMILES IDX 94 69 61 70 45 71 46 72 54 73 47 74 53 75 55 76 52 77 48 78
REMARK SMILES IDX 49 79 50 80 51 81 77 82 78 83 86 84 79 85 85 86 87 87 84 88
REMARK SMILES IDX 80 89 81 90 82 91 83 92 62 93 63 94 71 95 64 96 70 97 72 98
REMARK SMILES IDX 69 99 65 100 66 101 67 102 68 103
REMARK H PARENT 29 5 17 23 33 37 92 56 60 67
REMARK Flexibility Score: inf
ROOT
ATOM      1  C   UNL A   1      34.473  33.801  30.165  1.00  0.00     0.117 C 
ENDROOT
BRANCH   1   2
ATOM      2  N   UNL A   1      33.708  34.888  30.742  1.00  0.00    -0.353 N 
ATOM      3  C   UNL A   1      33.635  35.274  32.049  1.00  0.00     0.257 C 
ATOM      4  O   UNL A   1      33.139  36.376  32.295  1.00  0.00    -0.271 OA
ATOM      5  H   UNL A   1      33.172  35.417  30.110  1.00  0.00     0.163 HD
BRANCH   3   6
ATOM      6  C   UNL A   1      34.240  34.388  33.144  1.00  0.00     0.329 C 
BRANCH   6   7
ATOM      7  O   UNL A   1      35.636  34.490  33.364  1.00  0.00    -0.480 OA
BRANCH   7   8
ATOM      8  C   UNL A   1      36.394  33.384  33.627  1.00  0.00     0.161 A 
ATOM      9  C   UNL A   1      37.011  33.001  34.819  1.00  0.00     0.161 A 
ATOM     10  C   UNL A   1      37.800  31.835  34.862  1.00  0.00     0.058 A 
ATOM     11  C   UNL A   1      37.970  31.017  33.733  1.00  0.00    -0.022 A 
ATOM     12  C   UNL A   1      36.559  32.567  32.502  1.00  0.00     0.051 A 
ATOM     13  C   UNL A   1      37.332  31.399  32.550  1.00  0.00     0.012 A 
BRANCH   9  14
ATOM     14  O   UNL A   1      36.988  33.820  35.916  1.00  0.00    -0.493 OA
ATOM     15  C   UNL A   1      37.779  33.322  36.997  1.00  0.00     0.278 C 
ENDBRANCH   9  14
BRANCH  11  16
ATOM     16  C   UNL A   1      38.874  29.848  33.708  1.00  0.00     0.012 C 
ATOM     17  C   UNL A   1      40.002  29.743  34.429  1.00  0.00     0.048 C 
BRANCH  17  18
ATOM     18  C   UNL A   1      40.952  28.604  34.360  1.00  0.00     0.134 A 
ATOM     19  N   UNL A   1      41.153  27.869  35.410  1.00  0.00    -0.220 NA
ATOM     20  N   UNL A   1      41.646  28.463  33.178  1.00  0.00    -0.306 N 
ATOM     21  C   UNL A   1      42.086  26.895  35.254  1.00  0.00     0.131 A 
ATOM     22  C   UNL A   1      42.654  27.539  32.998  1.00  0.00     0.260 A 
ATOM     23  H   UNL A   1      41.411  29.051  32.425  1.00  0.00     0.171 HD
ATOM     24  S   UNL A   1      42.422  25.779  36.499  1.00  0.00    -0.120 S 
ATOM     25  C   UNL A   1      42.868  26.671  34.137  1.00  0.00     0.080 A 
ATOM     26  O   UNL A   1      43.316  27.500  31.963  1.00  0.00    -0.269 OA
ATOM     27  C   UNL A   1      43.604  24.995  35.559  1.00  0.00     0.011 A 
ATOM     28  C   UNL A   1      43.785  25.586  34.321  1.00  0.00    -0.019 A 
ATOM     29  C   UNL A   1      44.363  23.812  36.072  1.00  0.00     0.047 C 
ATOM     30  C   UNL A   1      44.789  25.067  33.333  1.00  0.00     0.037 C 
ATOM     31  C   UNL A   1      45.068  23.090  34.915  1.00  0.00     0.006 C 
ATOM     32  C   UNL A   1      45.778  24.081  33.983  1.00  0.00     0.005 C 
ENDBRANCH  17  18
ENDBRANCH  11  16
ENDBRANCH   7   8
ENDBRANCH   6   7
ENDBRANCH   3   6
ENDBRANCH   1   2
BRANCH   1  33
ATOM     33  C   UNL A   1      34.961  34.095  28.753  1.00  0.00     0.042 C 
BRANCH  33  34
ATOM     34  C   UNL A   1      35.571  32.896  28.034  1.00  0.00     0.118 C 
BRANCH  34  35
ATOM     35  N   UNL A   1      34.629  31.797  27.853  1.00  0.00    -0.352 N 
ATOM     36  C   UNL A   1      34.855  30.441  27.794  1.00  0.00     0.251 C 
ATOM     37  H   UNL A   1      33.688  32.066  27.759  1.00  0.00     0.163 HD
ATOM     38  O   UNL A   1      33.951  29.685  27.448  1.00  0.00    -0.269 OA
BRANCH  36  39
ATOM     39  C   UNL A   1      36.195  29.912  28.117  1.00  0.00     0.039 A 
ATOM     40  C   UNL A   1      37.226  30.034  27.183  1.00  0.00     0.014 A 
ATOM     41  C   UNL A   1      36.435  29.328  29.361  1.00  0.00     0.014 A 
ATOM     42  C   UNL A   1      38.526  29.662  27.539  1.00  0.00     0.010 A 
ATOM     43  C   UNL A   1      37.739  29.042  29.743  1.00  0.00     0.010 A 
ATOM     44  C   UNL A   1      38.801  29.213  28.840  1.00  0.00    -0.014 A 
BRANCH  44  45
ATOM     45  C   UNL A   1      40.178  28.894  29.300  1.00  0.00     0.031 A 
ATOM     46  C   UNL A   1      40.952  29.927  30.071  1.00  0.00     0.074 A 
ATOM     47  C   UNL A   1      40.768  27.737  28.934  1.00  0.00     0.049 A 
ATOM     48  N   UNL A   1      42.221  29.953  30.382  1.00  0.00    -0.248 NA
ATOM     49  C   UNL A   1      40.197  31.109  30.517  1.00  0.00     0.031 C 
ATOM     50  C   UNL A   1      40.124  26.658  28.182  1.00  0.00     0.029 A 
ATOM     51  N   UNL A   1      42.051  27.286  29.126  1.00  0.00    -0.354 N 
ATOM     52  C   UNL A   1      42.423  31.162  31.041  1.00  0.00     0.074 A 
ATOM     53  C   UNL A   1      41.157  31.865  31.025  1.00  0.00     0.031 C 
ATOM     54  C   UNL A   1      41.010  25.667  27.990  1.00  0.00     0.029 A 
ATOM     55  C   UNL A   1      42.303  26.065  28.542  1.00  0.00     0.049 A 
ATOM     56  H   UNL A   1      42.728  27.789  29.633  1.00  0.00     0.167 HD
ATOM     57  C   UNL A   1      43.553  31.630  31.624  1.00  0.00     0.034 A 
ATOM     58  C   UNL A   1      43.449  25.361  28.436  1.00  0.00     0.034 A 
ATOM     59  C   UNL A   1      44.802  30.911  31.635  1.00  0.00     0.049 A 
ATOM     60  C   UNL A   1      44.714  25.933  29.032  1.00  0.00     0.074 A 
ATOM     61  C   UNL A   1      46.002  31.279  32.217  1.00  0.00     0.029 A 
ATOM     62  N   UNL A   1      45.014  29.677  31.031  1.00  0.00    -0.354 N 
ATOM     63  N   UNL A   1      44.889  27.075  29.659  1.00  0.00    -0.248 NA
ATOM     64  C   UNL A   1      45.936  25.126  28.909  1.00  0.00     0.031 C 
ATOM     65  C   UNL A   1      46.957  30.308  31.903  1.00  0.00     0.029 A 
ATOM     66  C   UNL A   1      46.331  29.285  31.207  1.00  0.00     0.049 A 
ATOM     67  H   UNL A   1      44.330  29.159  30.549  1.00  0.00     0.167 HD
ATOM     68  C   UNL A   1      46.225  27.092  30.052  1.00  0.00     0.074 A 
ATOM     69  C   UNL A   1      46.813  25.856  29.584  1.00  0.00     0.031 C 
ATOM     70  C   UNL A   1      46.899  28.039  30.750  1.00  0.00     0.034 A 
BRANCH  57  71
ATOM     71  C   UNL A   1      43.490  32.995  32.267  1.00  0.00     0.023 A 
ATOM     72  C   UNL A   1      43.147  33.154  33.621  1.00  0.00     0.031 A 
ATOM     73  C   UNL A   1      43.751  34.153  31.514  1.00  0.00     0.131 A 
ATOM     74  C   UNL A   1      42.993  34.440  34.157  1.00  0.00     0.055 A 
ATOM     75  C   UNL A   1      43.687  35.428  32.080  1.00  0.00     0.041 A 
ATOM     76  F   UNL A   1      44.061  34.067  30.211  1.00  0.00    -0.206 F 
ATOM     77  C   UNL A   1      43.290  35.579  33.405  1.00  0.00     0.022 A 
BRANCH  74  78
ATOM     78  S   UNL A   1      42.249  34.605  35.802  1.00  0.00     0.124 S 
ATOM     79  O   UNL A   1      42.299  36.051  36.004  1.00  0.00    -0.237 OA
ATOM     80  O   UNL A   1      40.921  34.033  35.606  1.00  0.00    -0.237 OA
ATOM     81  O   UNL A   1      43.142  33.831  36.663  1.00  0.00    -0.744 OA
ENDBRANCH  74  78
ENDBRANCH  57  71
BRANCH  58  82
ATOM     82  C   UNL A   1      43.474  24.048  27.725  1.00  0.00     0.023 A 
ATOM     83  C   UNL A   1      44.258  23.871  26.573  1.00  0.00     0.031 A 
ATOM     84  C   UNL A   1      42.674  22.971  28.147  1.00  0.00     0.131 A 
ATOM     85  C   UNL A   1      44.179  22.670  25.849  1.00  0.00     0.055 A 
ATOM     86  C   UNL A   1      42.649  21.756  27.460  1.00  0.00     0.041 A 
ATOM     87  F   UNL A   1      41.904  23.082  29.241  1.00  0.00    -0.206 F 
ATOM     88  C   UNL A   1      43.393  21.606  26.293  1.00  0.00     0.022 A 
BRANCH  85  89
ATOM     89  S   UNL A   1      45.032  22.565  24.252  1.00  0.00     0.124 S 
ATOM     90  O   UNL A   1      45.627  23.894  24.149  1.00  0.00    -0.237 OA
ATOM     91  O   UNL A   1      45.958  21.461  24.475  1.00  0.00    -0.237 OA
ATOM     92  O   UNL A   1      43.951  22.290  23.308  1.00  0.00    -0.744 OA
ENDBRANCH  85  89
ENDBRANCH  58  82
BRANCH  70  93
ATOM     93  C   UNL A   1      48.326  27.742  31.140  1.00  0.00     0.023 A 
ATOM     94  C   UNL A   1      48.655  26.962  32.261  1.00  0.00     0.031 A 
ATOM     95  C   UNL A   1      49.377  28.216  30.331  1.00  0.00     0.131 A 
ATOM     96  C   UNL A   1      50.004  26.702  32.557  1.00  0.00     0.055 A 
ATOM     97  C   UNL A   1      50.709  27.906  30.598  1.00  0.00     0.041 A 
ATOM     98  F   UNL A   1      49.117  28.970  29.250  1.00  0.00    -0.206 F 
ATOM     99  C   UNL A   1      51.029  27.151  31.720  1.00  0.00     0.022 A 
BRANCH  96 100
ATOM    100  S   UNL A   1      50.409  25.813  34.085  1.00  0.00     0.124 S 
ATOM    101  O   UNL A   1      50.814  24.506  33.577  1.00  0.00    -0.237 OA
ATOM    102  O   UNL A   1      51.473  26.633  34.654  1.00  0.00    -0.237 OA
ATOM    103  O   UNL A   1      49.153  25.825  34.832  1.00  0.00    -0.744 OA
ENDBRANCH  96 100
ENDBRANCH  70  93
ENDBRANCH  44  45
ENDBRANCH  36  39
ENDBRANCH  34  35
ENDBRANCH  33  34
ENDBRANCH   1  33
TORSDOF 18
ENDMDL
