MODEL 1
REMARK VINA RESULT:     -12.6      0.000      0.000
REMARK SMILES O=C(NCCCNC(=O)c1cn(C2CC2)c2cc(N3CC[NH2+]CC3)ccc2c1=O)c1ccc(-c2c3nc(c(-c4cc(S(=O)(=O)[O-])ccc4F)c4ccc([nH]4)c(-c4cc(S(=O)(=O)[O-])ccc4F)c4nc(c(-c5cc(S(=O)(=O)[O-])ccc5F)c5ccc2[nH]5)C=C4)C=C3)cc1
REMARK SMILES IDX 4 1 3 2 1 3 2 4 30 6 31 7 92 8 32 9 91 10 33 11 34 12 35 13
REMARK SMILES IDX 85 14 36 15 90 16 84 17 86 18 37 19 89 20 83 21 82 22 38 24
REMARK SMILES IDX 70 25 50 26 69 27 51 28 54 29 68 30 87 31 52 32 53 33 67 35
REMARK SMILES IDX 88 36 55 37 39 38 40 39 48 40 41 41 47 42 49 43 46 44 42 45
REMARK SMILES IDX 43 46 44 47 45 48 71 49 72 50 80 51 73 52 79 53 81 54 78 55
REMARK SMILES IDX 74 56 75 57 76 58 77 59 56 60 57 61 65 62 58 63 64 64 66 65
REMARK SMILES IDX 63 66 59 67 60 68 61 69 62 70 5 71 6 72 7 73 8 74 9 76 10 77
REMARK SMILES IDX 11 78 28 79 12 80 27 81 29 82 16 83 26 84 17 85 25 86 18 87
REMARK SMILES IDX 13 88 14 89 15 90 19 91 20 92 24 93 21 94 23 95 22 96
REMARK H PARENT 3 5 86 23 54 34 7 75 22 97 22 98
REMARK Flexibility Score: inf
ROOT
ATOM      1  C   UNL A   1      33.254  29.089  25.568  1.00  0.00     0.118 C 
ENDROOT
BRANCH   1   2
ATOM      2  N   UNL A   1      32.779  30.403  25.978  1.00  0.00    -0.352 N 
ATOM      3  O   UNL A   1      32.523  32.212  27.276  1.00  0.00    -0.269 OA
ATOM      4  C   UNL A   1      33.204  31.229  26.987  1.00  0.00     0.251 C 
ATOM      5  H   UNL A   1      32.030  30.756  25.444  1.00  0.00     0.163 HD
BRANCH   4   6
ATOM      6  C   UNL A   1      34.458  30.958  27.724  1.00  0.00     0.039 A 
ATOM      7  C   UNL A   1      35.410  31.978  27.833  1.00  0.00     0.014 A 
ATOM      8  C   UNL A   1      34.735  29.692  28.247  1.00  0.00     0.014 A 
ATOM      9  C   UNL A   1      36.619  31.737  28.490  1.00  0.00     0.010 A 
ATOM     10  C   UNL A   1      35.904  29.477  28.971  1.00  0.00     0.010 A 
ATOM     11  C   UNL A   1      36.869  30.487  29.077  1.00  0.00    -0.014 A 
BRANCH  11  12
ATOM     12  C   UNL A   1      38.148  30.191  29.768  1.00  0.00     0.031 A 
ATOM     13  C   UNL A   1      39.125  29.232  29.149  1.00  0.00     0.074 A 
ATOM     14  C   UNL A   1      38.394  30.719  30.981  1.00  0.00     0.049 A 
ATOM     15  N   UNL A   1      40.245  28.765  29.635  1.00  0.00    -0.248 NA
ATOM     16  C   UNL A   1      38.784  28.704  27.817  1.00  0.00     0.031 C 
ATOM     17  C   UNL A   1      37.504  31.634  31.692  1.00  0.00     0.029 A 
ATOM     18  N   UNL A   1      39.453  30.547  31.839  1.00  0.00    -0.354 N 
ATOM     19  C   UNL A   1      40.727  27.871  28.687  1.00  0.00     0.074 A 
ATOM     20  C   UNL A   1      39.754  27.823  27.619  1.00  0.00     0.031 C 
ATOM     21  C   UNL A   1      38.057  31.954  32.871  1.00  0.00     0.029 A 
ATOM     22  C   UNL A   1      39.318  31.228  33.025  1.00  0.00     0.049 A 
ATOM     23  H   UNL A   1      40.235  29.988  31.623  1.00  0.00     0.167 HD
ATOM     24  C   UNL A   1      41.886  27.175  28.697  1.00  0.00     0.034 A 
ATOM     25  C   UNL A   1      40.106  31.254  34.121  1.00  0.00     0.034 A 
ATOM     26  C   UNL A   1      42.863  27.270  29.749  1.00  0.00     0.049 A 
ATOM     27  C   UNL A   1      41.389  30.465  34.118  1.00  0.00     0.074 A 
ATOM     28  C   UNL A   1      44.119  26.694  29.799  1.00  0.00     0.029 A 
ATOM     29  N   UNL A   1      42.697  27.974  30.933  1.00  0.00    -0.354 N 
ATOM     30  N   UNL A   1      41.887  29.708  33.167  1.00  0.00    -0.248 NA
ATOM     31  C   UNL A   1      42.223  30.529  35.327  1.00  0.00     0.031 C 
ATOM     32  C   UNL A   1      44.684  26.992  31.039  1.00  0.00     0.029 A 
ATOM     33  C   UNL A   1      43.811  27.811  31.740  1.00  0.00     0.049 A 
ATOM     34  H   UNL A   1      41.904  28.511  31.165  1.00  0.00     0.167 HD
ATOM     35  C   UNL A   1      43.094  29.217  33.656  1.00  0.00     0.074 A 
ATOM     36  C   UNL A   1      43.264  29.780  34.980  1.00  0.00     0.031 C 
ATOM     37  C   UNL A   1      43.975  28.374  33.061  1.00  0.00     0.034 A 
BRANCH  24  38
ATOM     38  C   UNL A   1      42.189  26.261  27.536  1.00  0.00     0.023 A 
ATOM     39  C   UNL A   1      41.785  24.914  27.579  1.00  0.00     0.031 A 
ATOM     40  C   UNL A   1      42.962  26.689  26.440  1.00  0.00     0.131 A 
ATOM     41  C   UNL A   1      42.171  24.038  26.557  1.00  0.00     0.055 A 
ATOM     42  C   UNL A   1      43.309  25.822  25.404  1.00  0.00     0.041 A 
ATOM     43  F   UNL A   1      43.376  27.963  26.354  1.00  0.00    -0.206 F 
ATOM     44  C   UNL A   1      42.922  24.486  25.465  1.00  0.00     0.022 A 
BRANCH  41  45
ATOM     45  S   UNL A   1      41.767  22.271  26.630  1.00  0.00     0.124 S 
ATOM     46  O   UNL A   1      42.478  21.853  27.836  1.00  0.00    -0.237 OA
ATOM     47  O   UNL A   1      40.311  22.296  26.743  1.00  0.00    -0.237 OA
ATOM     48  O   UNL A   1      42.293  21.737  25.379  1.00  0.00    -0.744 OA
ENDBRANCH  41  45
ENDBRANCH  24  38
BRANCH  25  49
ATOM     49  C   UNL A   1      39.700  32.116  35.268  1.00  0.00     0.023 A 
ATOM     50  C   UNL A   1      39.008  31.577  36.369  1.00  0.00     0.031 A 
ATOM     51  C   UNL A   1      39.855  33.510  35.202  1.00  0.00     0.131 A 
ATOM     52  C   UNL A   1      38.419  32.434  37.308  1.00  0.00     0.055 A 
ATOM     53  C   UNL A   1      39.328  34.356  36.181  1.00  0.00     0.041 A 
ATOM     54  F   UNL A   1      40.496  34.070  34.165  1.00  0.00    -0.206 F 
ATOM     55  C   UNL A   1      38.588  33.819  37.229  1.00  0.00     0.022 A 
BRANCH  52  56
ATOM     56  S   UNL A   1      37.293  31.789  38.577  1.00  0.00     0.124 S 
ATOM     57  O   UNL A   1      38.087  31.926  39.794  1.00  0.00    -0.237 OA
ATOM     58  O   UNL A   1      36.159  32.703  38.457  1.00  0.00    -0.237 OA
ATOM     59  O   UNL A   1      37.033  30.419  38.145  1.00  0.00    -0.744 OA
ENDBRANCH  52  56
ENDBRANCH  25  49
BRANCH  37  60
ATOM     60  C   UNL A   1      45.217  27.964  33.815  1.00  0.00     0.023 A 
ATOM     61  C   UNL A   1      45.186  26.849  34.674  1.00  0.00     0.031 A 
ATOM     62  C   UNL A   1      46.360  28.783  33.828  1.00  0.00     0.131 A 
ATOM     63  C   UNL A   1      46.249  26.618  35.556  1.00  0.00     0.055 A 
ATOM     64  C   UNL A   1      47.439  28.520  34.673  1.00  0.00     0.041 A 
ATOM     65  F   UNL A   1      46.433  29.862  33.033  1.00  0.00    -0.206 F 
ATOM     66  C   UNL A   1      47.378  27.444  35.555  1.00  0.00     0.022 A 
BRANCH  63  67
ATOM     67  S   UNL A   1      46.164  25.301  36.801  1.00  0.00     0.124 S 
ATOM     68  O   UNL A   1      46.824  25.922  37.946  1.00  0.00    -0.237 OA
ATOM     69  O   UNL A   1      44.723  25.105  36.943  1.00  0.00    -0.237 OA
ATOM     70  O   UNL A   1      46.891  24.193  36.192  1.00  0.00    -0.744 OA
ENDBRANCH  63  67
ENDBRANCH  37  60
ENDBRANCH  11  12
ENDBRANCH   4   6
ENDBRANCH   1   2
BRANCH   1  71
ATOM     71  C   UNL A   1      32.352  27.963  26.051  1.00  0.00     0.042 C 
BRANCH  71  72
ATOM     72  C   UNL A   1      31.995  26.939  24.985  1.00  0.00     0.118 C 
BRANCH  72  73
ATOM     73  N   UNL A   1      32.763  27.084  23.753  1.00  0.00    -0.352 N 
ATOM     74  C   UNL A   1      33.475  26.138  23.059  1.00  0.00     0.256 C 
ATOM     75  H   UNL A   1      32.773  27.989  23.364  1.00  0.00     0.163 HD
ATOM     76  O   UNL A   1      34.028  26.427  22.001  1.00  0.00    -0.269 OA
BRANCH  74  77
ATOM     77  C   UNL A   1      33.503  24.771  23.603  1.00  0.00     0.104 A 
ATOM     78  C   UNL A   1      34.409  24.484  24.547  1.00  0.00     0.104 A 
ATOM     79  C   UNL A   1      32.655  23.681  23.083  1.00  0.00     0.202 A 
ATOM     80  N   UNL A   1      34.729  23.222  25.007  1.00  0.00    -0.343 N 
ATOM     81  C   UNL A   1      32.907  22.322  23.626  1.00  0.00     0.047 A 
ATOM     82  O   UNL A   1      31.798  23.867  22.228  1.00  0.00    -0.288 OA
ATOM     83  C   UNL A   1      33.925  22.120  24.578  1.00  0.00     0.054 A 
ATOM     84  C   UNL A   1      32.155  21.249  23.135  1.00  0.00     0.016 A 
ATOM     85  C   UNL A   1      34.124  20.812  25.049  1.00  0.00     0.053 A 
ATOM     86  C   UNL A   1      32.425  19.956  23.578  1.00  0.00     0.027 A 
ATOM     87  C   UNL A   1      33.411  19.715  24.538  1.00  0.00     0.039 A 
BRANCH  80  88
ATOM     88  C   UNL A   1      36.055  22.991  25.642  1.00  0.00     0.087 C 
ATOM     89  C   UNL A   1      37.293  22.476  24.945  1.00  0.00     0.027 C 
ATOM     90  C   UNL A   1      37.219  23.910  25.380  1.00  0.00     0.027 C 
ENDBRANCH  80  88
BRANCH  87  91
ATOM     91  N   UNL A   1      33.704  18.441  24.971  1.00  0.00    -0.360 N 
ATOM     92  C   UNL A   1      32.854  17.791  25.969  1.00  0.00     0.178 C 
ATOM     93  C   UNL A   1      34.673  17.597  24.266  1.00  0.00     0.178 C 
ATOM     94  C   UNL A   1      32.240  16.500  25.377  1.00  0.00     0.282 C 
ATOM     95  C   UNL A   1      34.005  16.303  23.754  1.00  0.00     0.282 C 
ATOM     96  N   UNL A   1      33.242  15.576  24.797  1.00  0.00    -0.343 N 
ATOM     97  H   UNL A   1      32.771  14.772  24.383  1.00  0.00     0.346 HD
ATOM     98  H   UNL A   1      33.875  15.246  25.527  1.00  0.00     0.346 HD
ENDBRANCH  87  91
ENDBRANCH  74  77
ENDBRANCH  72  73
ENDBRANCH  71  72
ENDBRANCH   1  71
TORSDOF 15
ENDMDL
MODEL 2
REMARK VINA RESULT:     -12.5      2.033      7.593
REMARK SMILES O=C(NCCCNC(=O)c1cn(C2CC2)c2cc(N3CC[NH2+]CC3)ccc2c1=O)c1ccc(-c2c3nc(c(-c4cc(S(=O)(=O)[O-])ccc4F)c4ccc([nH]4)c(-c4cc(S(=O)(=O)[O-])ccc4F)c4nc(c(-c5cc(S(=O)(=O)[O-])ccc5F)c5ccc2[nH]5)C=C4)C=C3)cc1
REMARK SMILES IDX 4 1 3 2 1 3 2 4 30 6 31 7 92 8 32 9 91 10 33 11 34 12 35 13
REMARK SMILES IDX 85 14 36 15 90 16 84 17 86 18 37 19 89 20 83 21 82 22 38 24
REMARK SMILES IDX 70 25 50 26 69 27 51 28 54 29 68 30 87 31 52 32 53 33 67 35
REMARK SMILES IDX 88 36 55 37 39 38 40 39 48 40 41 41 47 42 49 43 46 44 42 45
REMARK SMILES IDX 43 46 44 47 45 48 71 49 72 50 80 51 73 52 79 53 81 54 78 55
REMARK SMILES IDX 74 56 75 57 76 58 77 59 56 60 57 61 65 62 58 63 64 64 66 65
REMARK SMILES IDX 63 66 59 67 60 68 61 69 62 70 5 71 6 72 7 73 8 74 9 76 10 77
REMARK SMILES IDX 11 78 28 79 12 80 27 81 29 82 16 83 26 84 17 85 25 86 18 87
REMARK SMILES IDX 13 88 14 89 15 90 19 91 20 92 24 93 21 94 23 95 22 96
REMARK H PARENT 3 5 86 23 54 34 7 75 22 97 22 98
REMARK Flexibility Score: inf
ROOT
ATOM      1  C   UNL A   1      33.920  28.990  26.082  1.00  0.00     0.118 C 
ENDROOT
BRANCH   1   2
ATOM      2  N   UNL A   1      33.798  30.309  26.689  1.00  0.00    -0.352 N 
ATOM      3  O   UNL A   1      34.140  31.960  28.165  1.00  0.00    -0.269 OA
ATOM      4  C   UNL A   1      34.548  30.913  27.666  1.00  0.00     0.251 C 
ATOM      5  H   UNL A   1      33.056  30.855  26.342  1.00  0.00     0.163 HD
BRANCH   4   6
ATOM      6  C   UNL A   1      35.829  30.328  28.121  1.00  0.00     0.039 A 
ATOM      7  C   UNL A   1      35.878  29.709  29.376  1.00  0.00     0.014 A 
ATOM      8  C   UNL A   1      36.994  30.444  27.359  1.00  0.00     0.014 A 
ATOM      9  C   UNL A   1      37.083  29.182  29.847  1.00  0.00     0.010 A 
ATOM     10  C   UNL A   1      38.174  29.848  27.794  1.00  0.00     0.010 A 
ATOM     11  C   UNL A   1      38.238  29.235  29.052  1.00  0.00    -0.014 A 
BRANCH  11  12
ATOM     12  C   UNL A   1      39.538  28.702  29.527  1.00  0.00     0.031 A 
ATOM     13  C   UNL A   1      40.292  29.426  30.607  1.00  0.00     0.074 A 
ATOM     14  C   UNL A   1      40.075  27.617  28.938  1.00  0.00     0.049 A 
ATOM     15  N   UNL A   1      41.482  29.182  31.088  1.00  0.00    -0.248 NA
ATOM     16  C   UNL A   1      39.632  30.599  31.205  1.00  0.00     0.031 C 
ATOM     17  C   UNL A   1      39.449  26.855  27.859  1.00  0.00     0.029 A 
ATOM     18  N   UNL A   1      41.275  26.982  29.146  1.00  0.00    -0.354 N 
ATOM     19  C   UNL A   1      41.726  30.182  32.021  1.00  0.00     0.074 A 
ATOM     20  C   UNL A   1      40.581  31.065  32.003  1.00  0.00     0.031 C 
ATOM     21  C   UNL A   1      40.262  25.848  27.508  1.00  0.00     0.029 A 
ATOM     22  C   UNL A   1      41.490  25.920  28.299  1.00  0.00     0.049 A 
ATOM     23  H   UNL A   1      41.919  27.261  29.837  1.00  0.00     0.167 HD
ATOM     24  C   UNL A   1      42.796  30.334  32.835  1.00  0.00     0.034 A 
ATOM     25  C   UNL A   1      42.558  25.107  28.160  1.00  0.00     0.034 A 
ATOM     26  C   UNL A   1      43.906  29.420  32.869  1.00  0.00     0.049 A 
ATOM     27  C   UNL A   1      43.745  25.297  29.069  1.00  0.00     0.074 A 
ATOM     28  C   UNL A   1      44.984  29.422  33.736  1.00  0.00     0.029 A 
ATOM     29  N   UNL A   1      44.089  28.352  32.003  1.00  0.00    -0.354 N 
ATOM     30  N   UNL A   1      43.917  26.182  30.023  1.00  0.00    -0.248 NA
ATOM     31  C   UNL A   1      44.883  24.385  28.890  1.00  0.00     0.031 C 
ATOM     32  C   UNL A   1      45.851  28.399  33.351  1.00  0.00     0.029 A 
ATOM     33  C   UNL A   1      45.285  27.714  32.287  1.00  0.00     0.049 A 
ATOM     34  H   UNL A   1      43.461  28.086  31.292  1.00  0.00     0.167 HD
ATOM     35  C   UNL A   1      45.172  25.926  30.567  1.00  0.00     0.074 A 
ATOM     36  C   UNL A   1      45.710  24.788  29.849  1.00  0.00     0.031 C 
ATOM     37  C   UNL A   1      45.818  26.578  31.566  1.00  0.00     0.034 A 
BRANCH  24  38
ATOM     38  C   UNL A   1      42.826  31.513  33.775  1.00  0.00     0.023 A 
ATOM     39  C   UNL A   1      42.347  31.375  35.091  1.00  0.00     0.031 A 
ATOM     40  C   UNL A   1      43.227  32.791  33.344  1.00  0.00     0.131 A 
ATOM     41  C   UNL A   1      42.264  32.498  35.923  1.00  0.00     0.055 A 
ATOM     42  C   UNL A   1      43.181  33.899  34.190  1.00  0.00     0.041 A 
ATOM     43  F   UNL A   1      43.687  32.977  32.096  1.00  0.00    -0.206 F 
ATOM     44  C   UNL A   1      42.687  33.757  35.484  1.00  0.00     0.022 A 
BRANCH  41  45
ATOM     45  S   UNL A   1      41.549  32.384  37.586  1.00  0.00     0.124 S 
ATOM     46  O   UNL A   1      42.325  31.293  38.170  1.00  0.00    -0.237 OA
ATOM     47  O   UNL A   1      41.831  33.710  38.131  1.00  0.00    -0.237 OA
ATOM     48  O   UNL A   1      40.141  32.089  37.345  1.00  0.00    -0.744 OA
ENDBRANCH  41  45
ENDBRANCH  24  38
BRANCH  25  49
ATOM     49  C   UNL A   1      42.492  24.013  27.149  1.00  0.00     0.023 A 
ATOM     50  C   UNL A   1      41.835  22.801  27.436  1.00  0.00     0.031 A 
ATOM     51  C   UNL A   1      43.221  24.103  25.953  1.00  0.00     0.131 A 
ATOM     52  C   UNL A   1      41.998  21.703  26.581  1.00  0.00     0.055 A 
ATOM     53  C   UNL A   1      43.320  23.027  25.068  1.00  0.00     0.041 A 
ATOM     54  F   UNL A   1      43.874  25.234  25.643  1.00  0.00    -0.206 F 
ATOM     55  C   UNL A   1      42.724  21.813  25.392  1.00  0.00     0.022 A 
BRANCH  52  56
ATOM     56  S   UNL A   1      41.399  20.058  27.059  1.00  0.00     0.124 S 
ATOM     57  O   UNL A   1      40.479  19.737  25.972  1.00  0.00    -0.237 OA
ATOM     58  O   UNL A   1      42.640  19.288  27.083  1.00  0.00    -0.237 OA
ATOM     59  O   UNL A   1      40.780  20.279  28.362  1.00  0.00    -0.744 OA
ENDBRANCH  52  56
ENDBRANCH  25  49
BRANCH  37  60
ATOM     60  C   UNL A   1      47.200  26.119  31.964  1.00  0.00     0.023 A 
ATOM     61  C   UNL A   1      47.367  25.251  33.060  1.00  0.00     0.031 A 
ATOM     62  C   UNL A   1      48.347  26.687  31.383  1.00  0.00     0.131 A 
ATOM     63  C   UNL A   1      48.647  25.026  33.582  1.00  0.00     0.055 A 
ATOM     64  C   UNL A   1      49.625  26.419  31.875  1.00  0.00     0.041 A 
ATOM     65  F   UNL A   1      48.238  27.526  30.341  1.00  0.00    -0.206 F 
ATOM     66  C   UNL A   1      49.778  25.600  32.991  1.00  0.00     0.022 A 
BRANCH  63  67
ATOM     67  S   UNL A   1      48.883  24.062  35.101  1.00  0.00     0.124 S 
ATOM     68  O   UNL A   1      49.720  22.959  34.634  1.00  0.00    -0.237 OA
ATOM     69  O   UNL A   1      49.548  25.024  35.975  1.00  0.00    -0.237 OA
ATOM     70  O   UNL A   1      47.528  23.687  35.494  1.00  0.00    -0.744 OA
ENDBRANCH  63  67
ENDBRANCH  37  60
ENDBRANCH  11  12
ENDBRANCH   4   6
ENDBRANCH   1   2
BRANCH   1  71
ATOM     71  C   UNL A   1      32.806  28.045  26.504  1.00  0.00     0.042 C 
BRANCH  71  72
ATOM     72  C   UNL A   1      32.312  27.120  25.404  1.00  0.00     0.118 C 
BRANCH  72  73
ATOM     73  N   UNL A   1      33.015  27.289  24.136  1.00  0.00    -0.352 N 
ATOM     74  C   UNL A   1      33.635  26.345  23.356  1.00  0.00     0.256 C 
ATOM     75  H   UNL A   1      33.050  28.211  23.792  1.00  0.00     0.163 HD
ATOM     76  O   UNL A   1      34.141  26.660  22.283  1.00  0.00    -0.269 OA
BRANCH  74  77
ATOM     77  C   UNL A   1      33.621  24.952  23.831  1.00  0.00     0.104 A 
ATOM     78  C   UNL A   1      34.515  24.593  24.762  1.00  0.00     0.104 A 
ATOM     79  C   UNL A   1      32.745  23.915  23.256  1.00  0.00     0.202 A 
ATOM     80  N   UNL A   1      34.797  23.301  25.159  1.00  0.00    -0.343 N 
ATOM     81  C   UNL A   1      32.956  22.523  23.730  1.00  0.00     0.047 A 
ATOM     82  O   UNL A   1      31.897  24.167  22.408  1.00  0.00    -0.288 OA
ATOM     83  C   UNL A   1      33.964  22.245  24.673  1.00  0.00     0.054 A 
ATOM     84  C   UNL A   1      32.176  21.499  23.184  1.00  0.00     0.016 A 
ATOM     85  C   UNL A   1      34.124  20.910  25.079  1.00  0.00     0.053 A 
ATOM     86  C   UNL A   1      32.407  20.177  23.562  1.00  0.00     0.027 A 
ATOM     87  C   UNL A   1      33.382  19.861  24.511  1.00  0.00     0.039 A 
BRANCH  80  88
ATOM     88  C   UNL A   1      36.114  23.001  25.785  1.00  0.00     0.087 C 
ATOM     89  C   UNL A   1      37.356  22.541  25.058  1.00  0.00     0.027 C 
ATOM     90  C   UNL A   1      37.287  23.929  25.622  1.00  0.00     0.027 C 
ENDBRANCH  80  88
BRANCH  87  91
ATOM     91  N   UNL A   1      33.637  18.559  24.881  1.00  0.00    -0.360 N 
ATOM     92  C   UNL A   1      32.788  17.897  25.873  1.00  0.00     0.178 C 
ATOM     93  C   UNL A   1      34.554  17.711  24.114  1.00  0.00     0.178 C 
ATOM     94  C   UNL A   1      32.109  16.658  25.242  1.00  0.00     0.282 C 
ATOM     95  C   UNL A   1      33.823  16.467  23.565  1.00  0.00     0.282 C 
ATOM     96  N   UNL A   1      33.060  15.724  24.597  1.00  0.00    -0.343 N 
ATOM     97  H   UNL A   1      32.548  14.957  24.161  1.00  0.00     0.346 HD
ATOM     98  H   UNL A   1      33.699  15.338  25.294  1.00  0.00     0.346 HD
ENDBRANCH  87  91
ENDBRANCH  74  77
ENDBRANCH  72  73
ENDBRANCH  71  72
ENDBRANCH   1  71
TORSDOF 15
ENDMDL
MODEL 3
REMARK VINA RESULT:     -12.4      5.073     10.194
REMARK SMILES O=C(NCCCNC(=O)c1cn(C2CC2)c2cc(N3CC[NH2+]CC3)ccc2c1=O)c1ccc(-c2c3nc(c(-c4cc(S(=O)(=O)[O-])ccc4F)c4ccc([nH]4)c(-c4cc(S(=O)(=O)[O-])ccc4F)c4nc(c(-c5cc(S(=O)(=O)[O-])ccc5F)c5ccc2[nH]5)C=C4)C=C3)cc1
REMARK SMILES IDX 4 1 3 2 1 3 2 4 30 6 31 7 92 8 32 9 91 10 33 11 34 12 35 13
REMARK SMILES IDX 85 14 36 15 90 16 84 17 86 18 37 19 89 20 83 21 82 22 38 24
REMARK SMILES IDX 70 25 50 26 69 27 51 28 54 29 68 30 87 31 52 32 53 33 67 35
REMARK SMILES IDX 88 36 55 37 39 38 40 39 48 40 41 41 47 42 49 43 46 44 42 45
REMARK SMILES IDX 43 46 44 47 45 48 71 49 72 50 80 51 73 52 79 53 81 54 78 55
REMARK SMILES IDX 74 56 75 57 76 58 77 59 56 60 57 61 65 62 58 63 64 64 66 65
REMARK SMILES IDX 63 66 59 67 60 68 61 69 62 70 5 71 6 72 7 73 8 74 9 76 10 77
REMARK SMILES IDX 11 78 28 79 12 80 27 81 29 82 16 83 26 84 17 85 25 86 18 87
REMARK SMILES IDX 13 88 14 89 15 90 19 91 20 92 24 93 21 94 23 95 22 96
REMARK H PARENT 3 5 86 23 54 34 7 75 22 97 22 98
REMARK Flexibility Score: inf
ROOT
ATOM      1  C   UNL A   1      36.439  23.215  25.928  1.00  0.00     0.118 C 
ENDROOT
BRANCH   1   2
ATOM      2  N   UNL A   1      37.540  22.282  26.124  1.00  0.00    -0.352 N 
ATOM      3  O   UNL A   1      39.653  21.579  26.377  1.00  0.00    -0.269 OA
ATOM      4  C   UNL A   1      38.850  22.507  26.460  1.00  0.00     0.251 C 
ATOM      5  H   UNL A   1      37.304  21.334  25.994  1.00  0.00     0.163 HD
BRANCH   4   6
ATOM      6  C   UNL A   1      39.307  23.838  26.916  1.00  0.00     0.039 A 
ATOM      7  C   UNL A   1      39.853  24.722  25.978  1.00  0.00     0.014 A 
ATOM      8  C   UNL A   1      39.268  24.198  28.266  1.00  0.00     0.014 A 
ATOM      9  C   UNL A   1      40.327  25.971  26.388  1.00  0.00     0.010 A 
ATOM     10  C   UNL A   1      39.665  25.472  28.660  1.00  0.00     0.010 A 
ATOM     11  C   UNL A   1      40.223  26.360  27.732  1.00  0.00    -0.014 A 
BRANCH  11  12
ATOM     12  C   UNL A   1      40.731  27.671  28.206  1.00  0.00     0.031 A 
ATOM     13  C   UNL A   1      39.768  28.702  28.724  1.00  0.00     0.074 A 
ATOM     14  C   UNL A   1      42.041  27.963  28.097  1.00  0.00     0.049 A 
ATOM     15  N   UNL A   1      39.996  29.936  29.089  1.00  0.00    -0.248 NA
ATOM     16  C   UNL A   1      38.354  28.301  28.818  1.00  0.00     0.031 C 
ATOM     17  C   UNL A   1      43.061  27.054  27.578  1.00  0.00     0.029 A 
ATOM     18  N   UNL A   1      42.734  29.111  28.395  1.00  0.00    -0.354 N 
ATOM     19  C   UNL A   1      38.758  30.467  29.427  1.00  0.00     0.074 A 
ATOM     20  C   UNL A   1      37.774  29.437  29.177  1.00  0.00     0.031 C 
ATOM     21  C   UNL A   1      44.251  27.672  27.606  1.00  0.00     0.029 A 
ATOM     22  C   UNL A   1      44.074  29.038  28.095  1.00  0.00     0.049 A 
ATOM     23  H   UNL A   1      42.311  29.909  28.787  1.00  0.00     0.167 HD
ATOM     24  C   UNL A   1      38.472  31.692  29.924  1.00  0.00     0.034 A 
ATOM     25  C   UNL A   1      45.048  29.968  28.186  1.00  0.00     0.034 A 
ATOM     26  C   UNL A   1      39.471  32.688  30.206  1.00  0.00     0.049 A 
ATOM     27  C   UNL A   1      44.710  31.331  28.733  1.00  0.00     0.074 A 
ATOM     28  C   UNL A   1      39.298  33.917  30.816  1.00  0.00     0.029 A 
ATOM     29  N   UNL A   1      40.819  32.580  29.897  1.00  0.00    -0.354 N 
ATOM     30  N   UNL A   1      43.552  31.784  29.152  1.00  0.00    -0.248 NA
ATOM     31  C   UNL A   1      45.802  32.311  28.824  1.00  0.00     0.031 C 
ATOM     32  C   UNL A   1      40.525  34.579  30.814  1.00  0.00     0.029 A 
ATOM     33  C   UNL A   1      41.482  33.740  30.264  1.00  0.00     0.049 A 
ATOM     34  H   UNL A   1      41.242  31.794  29.479  1.00  0.00     0.167 HD
ATOM     35  C   UNL A   1      43.776  33.093  29.568  1.00  0.00     0.074 A 
ATOM     36  C   UNL A   1      45.188  33.354  29.370  1.00  0.00     0.031 C 
ATOM     37  C   UNL A   1      42.891  33.995  30.063  1.00  0.00     0.034 A 
BRANCH  24  38
ATOM     38  C   UNL A   1      37.033  32.034  30.217  1.00  0.00     0.023 A 
ATOM     39  C   UNL A   1      36.213  32.552  29.198  1.00  0.00     0.031 A 
ATOM     40  C   UNL A   1      36.504  31.949  31.518  1.00  0.00     0.131 A 
ATOM     41  C   UNL A   1      34.914  32.981  29.500  1.00  0.00     0.055 A 
ATOM     42  C   UNL A   1      35.197  32.339  31.806  1.00  0.00     0.041 A 
ATOM     43  F   UNL A   1      37.248  31.467  32.527  1.00  0.00    -0.206 F 
ATOM     44  C   UNL A   1      34.398  32.869  30.796  1.00  0.00     0.022 A 
BRANCH  41  45
ATOM     45  S   UNL A   1      33.864  33.757  28.241  1.00  0.00     0.124 S 
ATOM     46  O   UNL A   1      34.846  34.488  27.443  1.00  0.00    -0.237 OA
ATOM     47  O   UNL A   1      33.268  32.595  27.585  1.00  0.00    -0.237 OA
ATOM     48  O   UNL A   1      32.944  34.586  29.012  1.00  0.00    -0.744 OA
ENDBRANCH  41  45
ENDBRANCH  24  38
BRANCH  25  49
ATOM     49  C   UNL A   1      46.436  29.585  27.796  1.00  0.00     0.023 A 
ATOM     50  C   UNL A   1      46.728  29.156  26.487  1.00  0.00     0.031 A 
ATOM     51  C   UNL A   1      47.447  29.487  28.765  1.00  0.00     0.131 A 
ATOM     52  C   UNL A   1      47.968  28.566  26.209  1.00  0.00     0.055 A 
ATOM     53  C   UNL A   1      48.707  28.965  28.465  1.00  0.00     0.041 A 
ATOM     54  F   UNL A   1      47.210  29.871  30.029  1.00  0.00    -0.206 F 
ATOM     55  C   UNL A   1      48.964  28.482  27.186  1.00  0.00     0.022 A 
BRANCH  52  56
ATOM     56  S   UNL A   1      48.274  27.756  24.614  1.00  0.00     0.124 S 
ATOM     57  O   UNL A   1      48.111  26.345  24.948  1.00  0.00    -0.237 OA
ATOM     58  O   UNL A   1      47.220  28.334  23.783  1.00  0.00    -0.237 OA
ATOM     59  O   UNL A   1      49.631  28.169  24.271  1.00  0.00    -0.744 OA
ENDBRANCH  52  56
ENDBRANCH  25  49
BRANCH  37  60
ATOM     60  C   UNL A   1      43.381  35.377  30.424  1.00  0.00     0.023 A 
ATOM     61  C   UNL A   1      43.439  36.384  29.441  1.00  0.00     0.031 A 
ATOM     62  C   UNL A   1      43.960  35.636  31.678  1.00  0.00     0.131 A 
ATOM     63  C   UNL A   1      44.119  37.578  29.707  1.00  0.00     0.055 A 
ATOM     64  C   UNL A   1      44.593  36.848  31.955  1.00  0.00     0.041 A 
ATOM     65  F   UNL A   1      43.936  34.704  32.644  1.00  0.00    -0.206 F 
ATOM     66  C   UNL A   1      44.691  37.818  30.961  1.00  0.00     0.022 A 
BRANCH  63  67
ATOM     67  S   UNL A   1      44.372  38.821  28.409  1.00  0.00     0.124 S 
ATOM     68  O   UNL A   1      43.903  40.042  29.062  1.00  0.00    -0.237 OA
ATOM     69  O   UNL A   1      45.813  38.746  28.188  1.00  0.00    -0.237 OA
ATOM     70  O   UNL A   1      43.541  38.351  27.305  1.00  0.00    -0.744 OA
ENDBRANCH  63  67
ENDBRANCH  37  60
ENDBRANCH  11  12
ENDBRANCH   4   6
ENDBRANCH   1   2
BRANCH   1  71
ATOM     71  C   UNL A   1      35.817  23.105  24.544  1.00  0.00     0.042 C 
BRANCH  71  72
ATOM     72  C   UNL A   1      34.298  23.038  24.539  1.00  0.00     0.118 C 
BRANCH  72  73
ATOM     73  N   UNL A   1      33.709  22.965  25.872  1.00  0.00    -0.352 N 
ATOM     74  C   UNL A   1      32.843  23.833  26.487  1.00  0.00     0.256 C 
ATOM     75  H   UNL A   1      33.972  22.181  26.408  1.00  0.00     0.163 HD
ATOM     76  O   UNL A   1      32.405  23.588  27.607  1.00  0.00    -0.269 OA
BRANCH  74  77
ATOM     77  C   UNL A   1      32.427  25.028  25.733  1.00  0.00     0.104 A 
ATOM     78  C   UNL A   1      33.186  26.129  25.826  1.00  0.00     0.104 A 
ATOM     79  C   UNL A   1      31.166  25.101  24.973  1.00  0.00     0.202 A 
ATOM     80  N   UNL A   1      32.842  27.389  25.380  1.00  0.00    -0.343 N 
ATOM     81  C   UNL A   1      30.808  26.422  24.396  1.00  0.00     0.047 A 
ATOM     82  O   UNL A   1      30.425  24.135  24.836  1.00  0.00    -0.288 OA
ATOM     83  C   UNL A   1      31.651  27.531  24.600  1.00  0.00     0.054 A 
ATOM     84  C   UNL A   1      29.602  26.550  23.700  1.00  0.00     0.016 A 
ATOM     85  C   UNL A   1      31.259  28.757  24.039  1.00  0.00     0.053 A 
ATOM     86  C   UNL A   1      29.214  27.797  23.213  1.00  0.00     0.027 A 
ATOM     87  C   UNL A   1      30.032  28.918  23.375  1.00  0.00     0.039 A 
BRANCH  80  88
ATOM     88  C   UNL A   1      33.502  28.581  25.979  1.00  0.00     0.087 C 
ATOM     89  C   UNL A   1      33.433  28.995  27.431  1.00  0.00     0.027 C 
ATOM     90  C   UNL A   1      34.709  28.442  26.868  1.00  0.00     0.027 C 
ENDBRANCH  80  88
BRANCH  87  91
ATOM     91  N   UNL A   1      29.654  30.161  22.918  1.00  0.00    -0.360 N 
ATOM     92  C   UNL A   1      29.516  30.406  21.482  1.00  0.00     0.178 C 
ATOM     93  C   UNL A   1      29.109  31.177  23.824  1.00  0.00     0.178 C 
ATOM     94  C   UNL A   1      28.059  30.815  21.155  1.00  0.00     0.282 C 
ATOM     95  C   UNL A   1      27.679  31.577  23.404  1.00  0.00     0.282 C 
ATOM     96  N   UNL A   1      27.562  31.945  21.972  1.00  0.00    -0.343 N 
ATOM     97  H   UNL A   1      26.586  32.133  21.743  1.00  0.00     0.346 HD
ATOM     98  H   UNL A   1      28.111  32.783  21.780  1.00  0.00     0.346 HD
ENDBRANCH  87  91
ENDBRANCH  74  77
ENDBRANCH  72  73
ENDBRANCH  71  72
ENDBRANCH   1  71
TORSDOF 15
ENDMDL
