MODEL 1
REMARK VINA RESULT:     -12.7      0.000      0.000
REMARK SMILES O=C(NCCCNC(=O)[C@H]1CC[C@@H]2CCCC[C@@H]2N1C(=O)Cc1ccn[nH]1)c1ccc(-c2c3nc(c(-c4cc(S(=O)(=O)[O-])ccc4F)c4ccc([nH]4)c(-c4cc(S(=O)(=O)[O-])ccc4F)c4nc(c(-c5cc(S(=O)(=O)[O-])ccc5F)c5ccc2[nH]5)C=C4)C=C3)cc1
REMARK SMILES IDX 5 1 4 2 3 3 1 4 2 5 28 7 29 8 90 9 30 10 89 11 31 12 32 13
REMARK SMILES IDX 33 14 83 15 34 16 88 17 82 18 84 19 35 20 87 21 81 22 80 23
REMARK SMILES IDX 36 25 68 26 48 27 67 28 49 29 52 30 66 31 85 32 50 33 51 34
REMARK SMILES IDX 65 36 86 37 53 38 37 39 38 40 46 41 39 42 45 43 47 44 44 45
REMARK SMILES IDX 40 46 41 47 42 48 43 49 69 50 70 51 78 52 71 53 77 54 79 55
REMARK SMILES IDX 76 56 72 57 73 58 74 59 75 60 54 61 55 62 63 63 56 64 62 65
REMARK SMILES IDX 64 66 61 67 57 68 58 69 59 70 60 71 6 72 7 73 8 74 9 76
REMARK SMILES IDX 10 77 11 78 19 79 12 80 18 81 13 82 17 83 14 84 16 85 15 86
REMARK SMILES IDX 20 87 21 88 22 89 23 90 24 91 27 92 25 93 26 94
REMARK H PARENT 3 6 84 24 52 35 7 75 27 95
REMARK Flexibility Score: inf
ROOT
ATOM      1  C   UNL A   1      36.194  22.517  23.506  1.00  0.00     0.042 C 
ENDROOT
BRANCH   1   2
ATOM      2  C   UNL A   1      36.713  22.590  24.932  1.00  0.00     0.118 C 
BRANCH   2   3
ATOM      3  N   UNL A   1      37.510  21.431  25.315  1.00  0.00    -0.352 N 
ATOM      4  O   UNL A   1      39.315  20.274  26.004  1.00  0.00    -0.269 OA
ATOM      5  C   UNL A   1      38.747  21.353  25.920  1.00  0.00     0.251 C 
ATOM      6  H   UNL A   1      37.098  20.561  25.107  1.00  0.00     0.163 HD
BRANCH   5   7
ATOM      7  C   UNL A   1      39.396  22.581  26.435  1.00  0.00     0.039 A 
ATOM      8  C   UNL A   1      38.819  23.829  26.219  1.00  0.00     0.014 A 
ATOM      9  C   UNL A   1      40.600  22.486  27.139  1.00  0.00     0.014 A 
ATOM     10  C   UNL A   1      39.546  24.979  26.486  1.00  0.00     0.010 A 
ATOM     11  C   UNL A   1      41.261  23.651  27.546  1.00  0.00     0.010 A 
ATOM     12  C   UNL A   1      40.763  24.910  27.182  1.00  0.00    -0.014 A 
BRANCH  12  13
ATOM     13  C   UNL A   1      41.444  26.182  27.550  1.00  0.00     0.031 A 
ATOM     14  C   UNL A   1      42.808  26.524  27.014  1.00  0.00     0.074 A 
ATOM     15  C   UNL A   1      40.781  27.061  28.329  1.00  0.00     0.049 A 
ATOM     16  N   UNL A   1      43.528  27.598  27.220  1.00  0.00    -0.248 NA
ATOM     17  C   UNL A   1      43.455  25.529  26.148  1.00  0.00     0.031 C 
ATOM     18  C   UNL A   1      39.452  26.834  28.909  1.00  0.00     0.029 A 
ATOM     19  N   UNL A   1      41.101  28.329  28.737  1.00  0.00    -0.354 N 
ATOM     20  C   UNL A   1      44.723  27.398  26.537  1.00  0.00     0.074 A 
ATOM     21  C   UNL A   1      44.640  26.084  25.933  1.00  0.00     0.031 C 
ATOM     22  C   UNL A   1      39.039  27.952  29.520  1.00  0.00     0.029 A 
ATOM     23  C   UNL A   1      40.107  28.940  29.467  1.00  0.00     0.049 A 
ATOM     24  H   UNL A   1      41.960  28.762  28.528  1.00  0.00     0.167 HD
ATOM     25  C   UNL A   1      45.785  28.236  26.422  1.00  0.00     0.034 A 
ATOM     26  C   UNL A   1      40.064  30.150  30.054  1.00  0.00     0.034 A 
ATOM     27  C   UNL A   1      45.839  29.549  27.022  1.00  0.00     0.049 A 
ATOM     28  C   UNL A   1      41.263  31.046  29.932  1.00  0.00     0.074 A 
ATOM     29  C   UNL A   1      46.854  30.489  26.954  1.00  0.00     0.029 A 
ATOM     30  N   UNL A   1      44.836  30.112  27.803  1.00  0.00    -0.354 N 
ATOM     31  N   UNL A   1      42.388  30.834  29.291  1.00  0.00    -0.248 NA
ATOM     32  C   UNL A   1      41.189  32.340  30.618  1.00  0.00     0.031 C 
ATOM     33  C   UNL A   1      46.492  31.588  27.743  1.00  0.00     0.029 A 
ATOM     34  C   UNL A   1      45.220  31.370  28.246  1.00  0.00     0.049 A 
ATOM     35  H   UNL A   1      43.976  29.679  28.013  1.00  0.00     0.167 HD
ATOM     36  C   UNL A   1      43.156  31.976  29.490  1.00  0.00     0.074 A 
ATOM     37  C   UNL A   1      42.350  32.883  30.285  1.00  0.00     0.031 C 
ATOM     38  C   UNL A   1      44.413  32.249  29.059  1.00  0.00     0.034 A 
BRANCH  25  39
ATOM     39  C   UNL A   1      46.992  27.731  25.664  1.00  0.00     0.023 A 
ATOM     40  C   UNL A   1      47.209  28.046  24.312  1.00  0.00     0.031 A 
ATOM     41  C   UNL A   1      47.930  26.896  26.301  1.00  0.00     0.131 A 
ATOM     42  C   UNL A   1      48.290  27.474  23.621  1.00  0.00     0.055 A 
ATOM     43  C   UNL A   1      49.047  26.394  25.630  1.00  0.00     0.041 A 
ATOM     44  F   UNL A   1      47.767  26.543  27.585  1.00  0.00    -0.206 F 
ATOM     45  C   UNL A   1      49.224  26.669  24.278  1.00  0.00     0.022 A 
BRANCH  42  46
ATOM     46  S   UNL A   1      48.379  27.679  21.820  1.00  0.00     0.124 S 
ATOM     47  O   UNL A   1      48.642  26.311  21.379  1.00  0.00    -0.237 OA
ATOM     48  O   UNL A   1      47.059  28.209  21.498  1.00  0.00    -0.237 OA
ATOM     49  O   UNL A   1      49.490  28.610  21.634  1.00  0.00    -0.744 OA
ENDBRANCH  42  46
ENDBRANCH  25  39
BRANCH  26  50
ATOM     50  C   UNL A   1      38.865  30.560  30.839  1.00  0.00     0.023 A 
ATOM     51  C   UNL A   1      37.782  31.205  30.227  1.00  0.00     0.031 A 
ATOM     52  C   UNL A   1      38.794  30.319  32.225  1.00  0.00     0.131 A 
ATOM     53  C   UNL A   1      36.687  31.617  31.002  1.00  0.00     0.055 A 
ATOM     54  C   UNL A   1      37.679  30.679  32.981  1.00  0.00     0.041 A 
ATOM     55  F   UNL A   1      39.803  29.700  32.859  1.00  0.00    -0.206 F 
ATOM     56  C   UNL A   1      36.620  31.344  32.370  1.00  0.00     0.022 A 
BRANCH  53  57
ATOM     57  S   UNL A   1      35.374  32.583  30.207  1.00  0.00     0.124 S 
ATOM     58  O   UNL A   1      34.391  32.689  31.280  1.00  0.00    -0.237 OA
ATOM     59  O   UNL A   1      36.075  33.813  29.854  1.00  0.00    -0.237 OA
ATOM     60  O   UNL A   1      34.976  31.748  29.075  1.00  0.00    -0.744 OA
ENDBRANCH  53  57
ENDBRANCH  26  50
BRANCH  38  61
ATOM     61  C   UNL A   1      44.966  33.604  29.424  1.00  0.00     0.023 A 
ATOM     62  C   UNL A   1      44.778  34.723  28.593  1.00  0.00     0.031 A 
ATOM     63  C   UNL A   1      45.727  33.767  30.593  1.00  0.00     0.131 A 
ATOM     64  C   UNL A   1      45.399  35.939  28.909  1.00  0.00     0.055 A 
ATOM     65  C   UNL A   1      46.292  34.995  30.935  1.00  0.00     0.041 A 
ATOM     66  F   UNL A   1      45.941  32.730  31.419  1.00  0.00    -0.206 F 
ATOM     67  C   UNL A   1      46.143  36.087  30.083  1.00  0.00     0.022 A 
BRANCH  64  68
ATOM     68  S   UNL A   1      45.308  37.300  27.713  1.00  0.00     0.124 S 
ATOM     69  O   UNL A   1      43.868  37.511  27.604  1.00  0.00    -0.237 OA
ATOM     70  O   UNL A   1      46.059  38.356  28.384  1.00  0.00    -0.237 OA
ATOM     71  O   UNL A   1      45.946  36.750  26.519  1.00  0.00    -0.744 OA
ENDBRANCH  64  68
ENDBRANCH  38  61
ENDBRANCH  12  13
ENDBRANCH   5   7
ENDBRANCH   2   3
ENDBRANCH   1   2
BRANCH   1  72
ATOM     72  C   UNL A   1      35.031  23.454  23.238  1.00  0.00     0.117 C 
BRANCH  72  73
ATOM     73  N   UNL A   1      33.844  22.752  22.777  1.00  0.00    -0.354 N 
ATOM     74  C   UNL A   1      32.551  22.843  23.195  1.00  0.00     0.242 C 
ATOM     75  H   UNL A   1      34.000  22.110  22.048  1.00  0.00     0.163 HD
ATOM     76  O   UNL A   1      31.794  21.949  22.809  1.00  0.00    -0.273 OA
BRANCH  74  77
ATOM     77  C   UNL A   1      32.139  23.926  24.218  1.00  0.00     0.174 C 
ATOM     78  C   UNL A   1      30.646  24.248  24.393  1.00  0.00     0.036 C 
ATOM     79  N   UNL A   1      32.732  23.991  25.582  1.00  0.00    -0.327 N 
ATOM     80  C   UNL A   1      30.543  25.717  24.816  1.00  0.00     0.008 C 
ATOM     81  C   UNL A   1      32.758  25.376  26.128  1.00  0.00     0.089 C 
ATOM     82  C   UNL A   1      31.321  25.971  26.128  1.00  0.00     0.012 C 
ATOM     83  C   UNL A   1      33.836  26.243  25.444  1.00  0.00     0.025 C 
ATOM     84  C   UNL A   1      31.341  27.456  26.493  1.00  0.00     0.006 C 
ATOM     85  C   UNL A   1      33.672  27.756  25.570  1.00  0.00     0.002 C 
ATOM     86  C   UNL A   1      32.237  28.264  25.567  1.00  0.00     0.000 C 
BRANCH  79  87
ATOM     87  C   UNL A   1      32.599  22.957  26.524  1.00  0.00     0.229 C 
ATOM     88  O   UNL A   1      31.678  22.960  27.351  1.00  0.00    -0.274 OA
BRANCH  87  89
ATOM     89  C   UNL A   1      33.656  21.864  26.637  1.00  0.00     0.155 C 
BRANCH  89  90
ATOM     90  C   UNL A   1      33.441  20.686  25.749  1.00  0.00     0.044 A 
ATOM     91  C   UNL A   1      34.277  19.881  25.007  1.00  0.00     0.045 A 
ATOM     92  N   UNL A   1      32.174  20.211  25.509  1.00  0.00    -0.282 N 
ATOM     93  C   UNL A   1      33.432  18.924  24.417  1.00  0.00     0.135 A 
ATOM     94  N   UNL A   1      32.149  19.126  24.717  1.00  0.00    -0.184 NA
ATOM     95  H   UNL A   1      31.364  20.626  25.882  1.00  0.00     0.190 HD
ENDBRANCH  89  90
ENDBRANCH  87  89
ENDBRANCH  79  87
ENDBRANCH  74  77
ENDBRANCH  72  73
ENDBRANCH   1  72
TORSDOF 16
ENDMDL
MODEL 2
REMARK VINA RESULT:     -12.5      1.909      3.425
REMARK SMILES O=C(NCCCNC(=O)[C@H]1CC[C@@H]2CCCC[C@@H]2N1C(=O)Cc1ccn[nH]1)c1ccc(-c2c3nc(c(-c4cc(S(=O)(=O)[O-])ccc4F)c4ccc([nH]4)c(-c4cc(S(=O)(=O)[O-])ccc4F)c4nc(c(-c5cc(S(=O)(=O)[O-])ccc5F)c5ccc2[nH]5)C=C4)C=C3)cc1
REMARK SMILES IDX 5 1 4 2 3 3 1 4 2 5 28 7 29 8 90 9 30 10 89 11 31 12 32 13
REMARK SMILES IDX 33 14 83 15 34 16 88 17 82 18 84 19 35 20 87 21 81 22 80 23
REMARK SMILES IDX 36 25 68 26 48 27 67 28 49 29 52 30 66 31 85 32 50 33 51 34
REMARK SMILES IDX 65 36 86 37 53 38 37 39 38 40 46 41 39 42 45 43 47 44 44 45
REMARK SMILES IDX 40 46 41 47 42 48 43 49 69 50 70 51 78 52 71 53 77 54 79 55
REMARK SMILES IDX 76 56 72 57 73 58 74 59 75 60 54 61 55 62 63 63 56 64 62 65
REMARK SMILES IDX 64 66 61 67 57 68 58 69 59 70 60 71 6 72 7 73 8 74 9 76
REMARK SMILES IDX 10 77 11 78 19 79 12 80 18 81 13 82 17 83 14 84 16 85 15 86
REMARK SMILES IDX 20 87 21 88 22 89 23 90 24 91 27 92 25 93 26 94
REMARK H PARENT 3 6 84 24 52 35 7 75 27 95
REMARK Flexibility Score: inf
ROOT
ATOM      1  C   UNL A   1      35.049  22.522  24.727  1.00  0.00     0.042 C 
ENDROOT
BRANCH   1   2
ATOM      2  C   UNL A   1      35.918  22.225  25.937  1.00  0.00     0.118 C 
BRANCH   2   3
ATOM      3  N   UNL A   1      36.926  21.203  25.685  1.00  0.00    -0.352 N 
ATOM      4  O   UNL A   1      38.973  20.332  25.335  1.00  0.00    -0.269 OA
ATOM      5  C   UNL A   1      38.302  21.267  25.749  1.00  0.00     0.251 C 
ATOM      6  H   UNL A   1      36.566  20.324  25.427  1.00  0.00     0.163 HD
BRANCH   5   7
ATOM      7  C   UNL A   1      38.962  22.478  26.287  1.00  0.00     0.039 A 
ATOM      8  C   UNL A   1      38.511  23.746  25.930  1.00  0.00     0.014 A 
ATOM      9  C   UNL A   1      40.050  22.348  27.155  1.00  0.00     0.014 A 
ATOM     10  C   UNL A   1      39.276  24.861  26.238  1.00  0.00     0.010 A 
ATOM     11  C   UNL A   1      40.732  23.491  27.591  1.00  0.00     0.010 A 
ATOM     12  C   UNL A   1      40.379  24.756  27.098  1.00  0.00    -0.014 A 
BRANCH  12  13
ATOM     13  C   UNL A   1      41.094  26.001  27.493  1.00  0.00     0.031 A 
ATOM     14  C   UNL A   1      42.470  26.314  26.971  1.00  0.00     0.074 A 
ATOM     15  C   UNL A   1      40.451  26.885  28.284  1.00  0.00     0.049 A 
ATOM     16  N   UNL A   1      43.219  27.363  27.199  1.00  0.00    -0.248 NA
ATOM     17  C   UNL A   1      43.094  25.317  26.090  1.00  0.00     0.031 C 
ATOM     18  C   UNL A   1      39.113  26.685  28.852  1.00  0.00     0.029 A 
ATOM     19  N   UNL A   1      40.805  28.136  28.716  1.00  0.00    -0.354 N 
ATOM     20  C   UNL A   1      44.412  27.141  26.519  1.00  0.00     0.074 A 
ATOM     21  C   UNL A   1      44.296  25.842  25.892  1.00  0.00     0.031 C 
ATOM     22  C   UNL A   1      38.728  27.803  29.481  1.00  0.00     0.029 A 
ATOM     23  C   UNL A   1      39.824  28.761  29.452  1.00  0.00     0.049 A 
ATOM     24  H   UNL A   1      41.677  28.547  28.520  1.00  0.00     0.167 HD
ATOM     25  C   UNL A   1      45.498  27.951  26.426  1.00  0.00     0.034 A 
ATOM     26  C   UNL A   1      39.812  29.962  30.060  1.00  0.00     0.034 A 
ATOM     27  C   UNL A   1      45.586  29.251  27.049  1.00  0.00     0.049 A 
ATOM     28  C   UNL A   1      41.036  30.825  29.961  1.00  0.00     0.074 A 
ATOM     29  C   UNL A   1      46.627  30.163  27.004  1.00  0.00     0.029 A 
ATOM     30  N   UNL A   1      44.594  29.828  27.835  1.00  0.00    -0.354 N 
ATOM     31  N   UNL A   1      42.159  30.592  29.323  1.00  0.00    -0.248 NA
ATOM     32  C   UNL A   1      40.994  32.108  30.670  1.00  0.00     0.031 C 
ATOM     33  C   UNL A   1      46.292  31.258  27.810  1.00  0.00     0.029 A 
ATOM     34  C   UNL A   1      45.011  31.067  28.303  1.00  0.00     0.049 A 
ATOM     35  H   UNL A   1      43.721  29.416  28.032  1.00  0.00     0.167 HD
ATOM     36  C   UNL A   1      42.957  31.709  29.546  1.00  0.00     0.074 A 
ATOM     37  C   UNL A   1      42.172  32.624  30.353  1.00  0.00     0.031 C 
ATOM     38  C   UNL A   1      44.224  31.954  29.126  1.00  0.00     0.034 A 
BRANCH  25  39
ATOM     39  C   UNL A   1      46.695  27.426  25.665  1.00  0.00     0.023 A 
ATOM     40  C   UNL A   1      47.019  27.883  24.376  1.00  0.00     0.031 A 
ATOM     41  C   UNL A   1      47.511  26.428  26.231  1.00  0.00     0.131 A 
ATOM     42  C   UNL A   1      48.080  27.296  23.668  1.00  0.00     0.055 A 
ATOM     43  C   UNL A   1      48.614  25.904  25.554  1.00  0.00     0.041 A 
ATOM     44  F   UNL A   1      47.241  25.936  27.450  1.00  0.00    -0.206 F 
ATOM     45  C   UNL A   1      48.895  26.326  24.258  1.00  0.00     0.022 A 
BRANCH  42  46
ATOM     46  S   UNL A   1      48.293  27.713  21.916  1.00  0.00     0.124 S 
ATOM     47  O   UNL A   1      49.414  28.649  21.967  1.00  0.00    -0.237 OA
ATOM     48  O   UNL A   1      48.575  26.416  21.314  1.00  0.00    -0.237 OA
ATOM     49  O   UNL A   1      47.011  28.309  21.546  1.00  0.00    -0.744 OA
ENDBRANCH  42  46
ENDBRANCH  25  39
BRANCH  26  50
ATOM     50  C   UNL A   1      38.620  30.391  30.846  1.00  0.00     0.023 A 
ATOM     51  C   UNL A   1      37.580  31.116  30.249  1.00  0.00     0.031 A 
ATOM     52  C   UNL A   1      38.513  30.088  32.217  1.00  0.00     0.131 A 
ATOM     53  C   UNL A   1      36.492  31.544  31.027  1.00  0.00     0.055 A 
ATOM     54  C   UNL A   1      37.404  30.465  32.972  1.00  0.00     0.041 A 
ATOM     55  F   UNL A   1      39.480  29.392  32.836  1.00  0.00    -0.206 F 
ATOM     56  C   UNL A   1      36.389  31.209  32.379  1.00  0.00     0.022 A 
BRANCH  53  57
ATOM     57  S   UNL A   1      35.241  32.608  30.259  1.00  0.00     0.124 S 
ATOM     58  O   UNL A   1      34.748  31.758  29.181  1.00  0.00    -0.237 OA
ATOM     59  O   UNL A   1      34.320  32.838  31.367  1.00  0.00    -0.237 OA
ATOM     60  O   UNL A   1      36.005  33.779  29.833  1.00  0.00    -0.744 OA
ENDBRANCH  53  57
ENDBRANCH  26  50
BRANCH  38  61
ATOM     61  C   UNL A   1      44.813  33.286  29.519  1.00  0.00     0.023 A 
ATOM     62  C   UNL A   1      44.671  34.421  28.701  1.00  0.00     0.031 A 
ATOM     63  C   UNL A   1      45.561  33.409  30.701  1.00  0.00     0.131 A 
ATOM     64  C   UNL A   1      45.325  35.613  29.044  1.00  0.00     0.055 A 
ATOM     65  C   UNL A   1      46.158  34.614  31.069  1.00  0.00     0.041 A 
ATOM     66  F   UNL A   1      45.731  32.354  31.515  1.00  0.00    -0.206 F 
ATOM     67  C   UNL A   1      46.056  35.721  30.230  1.00  0.00     0.022 A 
BRANCH  64  68
ATOM     68  S   UNL A   1      45.294  36.993  27.867  1.00  0.00     0.124 S 
ATOM     69  O   UNL A   1      46.496  37.733  28.236  1.00  0.00    -0.237 OA
ATOM     70  O   UNL A   1      45.338  36.306  26.580  1.00  0.00    -0.237 OA
ATOM     71  O   UNL A   1      44.033  37.670  28.164  1.00  0.00    -0.744 OA
ENDBRANCH  64  68
ENDBRANCH  38  61
ENDBRANCH  12  13
ENDBRANCH   5   7
ENDBRANCH   2   3
ENDBRANCH   1   2
BRANCH   1  72
ATOM     72  C   UNL A   1      33.985  23.571  24.989  1.00  0.00     0.117 C 
BRANCH  72  73
ATOM     73  N   UNL A   1      32.893  23.511  24.030  1.00  0.00    -0.354 N 
ATOM     74  C   UNL A   1      32.046  24.488  23.599  1.00  0.00     0.242 C 
ATOM     75  H   UNL A   1      32.742  22.626  23.629  1.00  0.00     0.163 HD
ATOM     76  O   UNL A   1      31.051  24.105  22.979  1.00  0.00    -0.273 OA
BRANCH  74  77
ATOM     77  C   UNL A   1      32.273  25.956  24.024  1.00  0.00     0.174 C 
ATOM     78  C   UNL A   1      33.442  26.733  23.399  1.00  0.00     0.036 C 
ATOM     79  N   UNL A   1      31.152  26.929  24.137  1.00  0.00    -0.327 N 
ATOM     80  C   UNL A   1      33.902  27.772  24.429  1.00  0.00     0.008 C 
ATOM     81  C   UNL A   1      31.416  27.990  25.147  1.00  0.00     0.089 C 
ATOM     82  C   UNL A   1      32.744  28.724  24.808  1.00  0.00     0.012 C 
ATOM     83  C   UNL A   1      31.304  27.451  26.588  1.00  0.00     0.025 C 
ATOM     84  C   UNL A   1      33.146  29.681  25.931  1.00  0.00     0.006 C 
ATOM     85  C   UNL A   1      31.980  28.281  27.678  1.00  0.00     0.002 C 
ATOM     86  C   UNL A   1      33.273  28.973  27.271  1.00  0.00     0.000 C 
BRANCH  79  87
ATOM     87  C   UNL A   1      30.348  27.300  23.046  1.00  0.00     0.229 C 
ATOM     88  O   UNL A   1      30.811  27.350  21.898  1.00  0.00    -0.274 OA
BRANCH  87  89
ATOM     89  C   UNL A   1      28.914  27.772  23.257  1.00  0.00     0.155 C 
BRANCH  89  90
ATOM     90  C   UNL A   1      28.658  29.194  22.886  1.00  0.00     0.044 A 
ATOM     91  C   UNL A   1      27.519  29.951  22.725  1.00  0.00     0.045 A 
ATOM     92  N   UNL A   1      29.699  30.038  22.586  1.00  0.00    -0.282 N 
ATOM     93  C   UNL A   1      27.980  31.238  22.397  1.00  0.00     0.135 A 
ATOM     94  N   UNL A   1      29.309  31.293  22.305  1.00  0.00    -0.184 NA
ATOM     95  H   UNL A   1      30.641  29.751  22.578  1.00  0.00     0.190 HD
ENDBRANCH  89  90
ENDBRANCH  87  89
ENDBRANCH  79  87
ENDBRANCH  74  77
ENDBRANCH  72  73
ENDBRANCH   1  72
TORSDOF 16
ENDMDL
MODEL 3
REMARK VINA RESULT:     -12.5      5.238      7.898
REMARK SMILES O=C(NCCCNC(=O)[C@H]1CC[C@@H]2CCCC[C@@H]2N1C(=O)Cc1ccn[nH]1)c1ccc(-c2c3nc(c(-c4cc(S(=O)(=O)[O-])ccc4F)c4ccc([nH]4)c(-c4cc(S(=O)(=O)[O-])ccc4F)c4nc(c(-c5cc(S(=O)(=O)[O-])ccc5F)c5ccc2[nH]5)C=C4)C=C3)cc1
REMARK SMILES IDX 5 1 4 2 3 3 1 4 2 5 28 7 29 8 90 9 30 10 89 11 31 12 32 13
REMARK SMILES IDX 33 14 83 15 34 16 88 17 82 18 84 19 35 20 87 21 81 22 80 23
REMARK SMILES IDX 36 25 68 26 48 27 67 28 49 29 52 30 66 31 85 32 50 33 51 34
REMARK SMILES IDX 65 36 86 37 53 38 37 39 38 40 46 41 39 42 45 43 47 44 44 45
REMARK SMILES IDX 40 46 41 47 42 48 43 49 69 50 70 51 78 52 71 53 77 54 79 55
REMARK SMILES IDX 76 56 72 57 73 58 74 59 75 60 54 61 55 62 63 63 56 64 62 65
REMARK SMILES IDX 64 66 61 67 57 68 58 69 59 70 60 71 6 72 7 73 8 74 9 76
REMARK SMILES IDX 10 77 11 78 19 79 12 80 18 81 13 82 17 83 14 84 16 85 15 86
REMARK SMILES IDX 20 87 21 88 22 89 23 90 24 91 27 92 25 93 26 94
REMARK H PARENT 3 6 84 24 52 35 7 75 27 95
REMARK Flexibility Score: inf
ROOT
ATOM      1  C   UNL A   1      31.787  28.616  27.175  1.00  0.00     0.042 C 
ENDROOT
BRANCH   1   2
ATOM      2  C   UNL A   1      32.579  29.437  26.171  1.00  0.00     0.118 C 
BRANCH   2   3
ATOM      3  N   UNL A   1      32.431  30.875  26.358  1.00  0.00    -0.352 N 
ATOM      4  O   UNL A   1      32.777  32.908  27.263  1.00  0.00    -0.269 OA
ATOM      5  C   UNL A   1      33.173  31.761  27.111  1.00  0.00     0.251 C 
ATOM      6  H   UNL A   1      31.679  31.279  25.868  1.00  0.00     0.163 HD
BRANCH   5   7
ATOM      7  C   UNL A   1      34.427  31.312  27.759  1.00  0.00     0.039 A 
ATOM      8  C   UNL A   1      34.592  29.981  28.132  1.00  0.00     0.014 A 
ATOM      9  C   UNL A   1      35.449  32.233  28.003  1.00  0.00     0.014 A 
ATOM     10  C   UNL A   1      35.653  29.622  28.949  1.00  0.00     0.010 A 
ATOM     11  C   UNL A   1      36.597  31.830  28.698  1.00  0.00     0.010 A 
ATOM     12  C   UNL A   1      36.688  30.531  29.218  1.00  0.00    -0.014 A 
BRANCH  12  13
ATOM     13  C   UNL A   1      37.863  30.058  30.000  1.00  0.00     0.031 A 
ATOM     14  C   UNL A   1      38.900  29.155  29.389  1.00  0.00     0.074 A 
ATOM     15  C   UNL A   1      38.018  30.512  31.261  1.00  0.00     0.049 A 
ATOM     16  N   UNL A   1      39.993  28.673  29.926  1.00  0.00    -0.248 NA
ATOM     17  C   UNL A   1      38.678  28.726  28.001  1.00  0.00     0.031 C 
ATOM     18  C   UNL A   1      37.073  31.391  31.959  1.00  0.00     0.029 A 
ATOM     19  N   UNL A   1      39.032  30.341  32.166  1.00  0.00    -0.354 N 
ATOM     20  C   UNL A   1      40.572  27.860  28.957  1.00  0.00     0.074 A 
ATOM     21  C   UNL A   1      39.693  27.894  27.807  1.00  0.00     0.031 C 
ATOM     22  C   UNL A   1      37.590  31.748  33.142  1.00  0.00     0.029 A 
ATOM     23  C   UNL A   1      38.853  31.048  33.334  1.00  0.00     0.049 A 
ATOM     24  H   UNL A   1      39.813  29.766  31.998  1.00  0.00     0.167 HD
ATOM     25  C   UNL A   1      41.732  27.158  29.023  1.00  0.00     0.034 A 
ATOM     26  C   UNL A   1      39.603  31.109  34.449  1.00  0.00     0.034 A 
ATOM     27  C   UNL A   1      42.601  27.150  30.177  1.00  0.00     0.049 A 
ATOM     28  C   UNL A   1      40.869  30.302  34.503  1.00  0.00     0.074 A 
ATOM     29  C   UNL A   1      43.808  26.492  30.346  1.00  0.00     0.029 A 
ATOM     30  N   UNL A   1      42.358  27.833  31.363  1.00  0.00    -0.354 N 
ATOM     31  N   UNL A   1      41.393  29.530  33.581  1.00  0.00    -0.248 NA
ATOM     32  C   UNL A   1      41.637  30.367  35.751  1.00  0.00     0.031 C 
ATOM     33  C   UNL A   1      44.261  26.725  31.650  1.00  0.00     0.029 A 
ATOM     34  C   UNL A   1      43.375  27.588  32.276  1.00  0.00     0.049 A 
ATOM     35  H   UNL A   1      41.576  28.407  31.532  1.00  0.00     0.167 HD
ATOM     36  C   UNL A   1      42.564  29.023  34.135  1.00  0.00     0.074 A 
ATOM     37  C   UNL A   1      42.678  29.603  35.460  1.00  0.00     0.031 C 
ATOM     38  C   UNL A   1      43.460  28.156  33.601  1.00  0.00     0.034 A 
BRANCH  25  39
ATOM     39  C   UNL A   1      42.094  26.298  27.833  1.00  0.00     0.023 A 
ATOM     40  C   UNL A   1      41.640  24.975  27.702  1.00  0.00     0.031 A 
ATOM     41  C   UNL A   1      42.935  26.805  26.824  1.00  0.00     0.131 A 
ATOM     42  C   UNL A   1      42.083  24.181  26.631  1.00  0.00     0.055 A 
ATOM     43  C   UNL A   1      43.309  26.037  25.719  1.00  0.00     0.041 A 
ATOM     44  F   UNL A   1      43.419  28.054  26.903  1.00  0.00    -0.206 F 
ATOM     45  C   UNL A   1      42.896  24.712  25.626  1.00  0.00     0.022 A 
BRANCH  42  46
ATOM     46  S   UNL A   1      41.700  22.408  26.645  1.00  0.00     0.124 S 
ATOM     47  O   UNL A   1      42.278  21.969  25.377  1.00  0.00    -0.237 OA
ATOM     48  O   UNL A   1      42.383  21.948  27.848  1.00  0.00    -0.237 OA
ATOM     49  O   UNL A   1      40.241  22.371  26.701  1.00  0.00    -0.744 OA
ENDBRANCH  42  46
ENDBRANCH  25  39
BRANCH  26  50
ATOM     50  C   UNL A   1      39.155  31.928  35.610  1.00  0.00     0.023 A 
ATOM     51  C   UNL A   1      38.437  31.356  36.670  1.00  0.00     0.031 A 
ATOM     52  C   UNL A   1      39.431  33.308  35.668  1.00  0.00     0.131 A 
ATOM     53  C   UNL A   1      37.991  32.164  37.727  1.00  0.00     0.055 A 
ATOM     54  C   UNL A   1      39.036  34.096  36.748  1.00  0.00     0.041 A 
ATOM     55  F   UNL A   1      40.119  33.905  34.681  1.00  0.00    -0.206 F 
ATOM     56  C   UNL A   1      38.300  33.526  37.782  1.00  0.00     0.022 A 
BRANCH  53  57
ATOM     57  S   UNL A   1      36.937  31.422  39.002  1.00  0.00     0.124 S 
ATOM     58  O   UNL A   1      36.734  30.077  38.476  1.00  0.00    -0.237 OA
ATOM     59  O   UNL A   1      37.780  31.527  40.189  1.00  0.00    -0.237 OA
ATOM     60  O   UNL A   1      35.753  32.278  39.004  1.00  0.00    -0.744 OA
ENDBRANCH  53  57
ENDBRANCH  26  50
BRANCH  38  61
ATOM     61  C   UNL A   1      44.655  27.816  34.456  1.00  0.00     0.023 A 
ATOM     62  C   UNL A   1      44.642  26.716  35.333  1.00  0.00     0.031 A 
ATOM     63  C   UNL A   1      45.801  28.627  34.426  1.00  0.00     0.131 A 
ATOM     64  C   UNL A   1      45.728  26.497  36.191  1.00  0.00     0.055 A 
ATOM     65  C   UNL A   1      46.904  28.368  35.238  1.00  0.00     0.041 A 
ATOM     66  F   UNL A   1      45.863  29.692  33.610  1.00  0.00    -0.206 F 
ATOM     67  C   UNL A   1      46.866  27.307  36.140  1.00  0.00     0.022 A 
BRANCH  64  68
ATOM     68  S   UNL A   1      45.593  25.199  37.452  1.00  0.00     0.124 S 
ATOM     69  O   UNL A   1      44.303  25.505  38.063  1.00  0.00    -0.237 OA
ATOM     70  O   UNL A   1      45.647  23.980  36.652  1.00  0.00    -0.237 OA
ATOM     71  O   UNL A   1      46.754  25.431  38.309  1.00  0.00    -0.744 OA
ENDBRANCH  64  68
ENDBRANCH  38  61
ENDBRANCH  12  13
ENDBRANCH   5   7
ENDBRANCH   2   3
ENDBRANCH   1   2
BRANCH   1  72
ATOM     72  C   UNL A   1      31.764  27.132  26.859  1.00  0.00     0.117 C 
BRANCH  72  73
ATOM     73  N   UNL A   1      30.478  26.692  26.342  1.00  0.00    -0.354 N 
ATOM     74  C   UNL A   1      30.185  25.899  25.273  1.00  0.00     0.242 C 
ATOM     75  H   UNL A   1      29.696  27.018  26.842  1.00  0.00     0.163 HD
ATOM     76  O   UNL A   1      29.006  25.898  24.908  1.00  0.00    -0.273 OA
BRANCH  74  77
ATOM     77  C   UNL A   1      31.318  25.189  24.498  1.00  0.00     0.174 C 
ATOM     78  C   UNL A   1      30.965  23.981  23.616  1.00  0.00     0.036 C 
ATOM     79  N   UNL A   1      32.362  25.945  23.753  1.00  0.00    -0.327 N 
ATOM     80  C   UNL A   1      32.193  23.064  23.584  1.00  0.00     0.008 C 
ATOM     81  C   UNL A   1      33.653  25.209  23.675  1.00  0.00     0.089 C 
ATOM     82  C   UNL A   1      33.427  23.813  23.031  1.00  0.00     0.012 C 
ATOM     83  C   UNL A   1      34.395  25.205  25.028  1.00  0.00     0.025 C 
ATOM     84  C   UNL A   1      34.691  22.956  23.117  1.00  0.00     0.006 C 
ATOM     85  C   UNL A   1      35.468  24.134  25.211  1.00  0.00     0.002 C 
ATOM     86  C   UNL A   1      35.179  22.794  24.549  1.00  0.00     0.000 C 
BRANCH  79  87
ATOM     87  C   UNL A   1      32.067  26.795  22.674  1.00  0.00     0.229 C 
ATOM     88  O   UNL A   1      31.964  26.354  21.522  1.00  0.00    -0.274 OA
BRANCH  87  89
ATOM     89  C   UNL A   1      31.987  28.305  22.869  1.00  0.00     0.155 C 
BRANCH  89  90
ATOM     90  C   UNL A   1      30.685  28.921  22.483  1.00  0.00     0.044 A 
ATOM     91  C   UNL A   1      29.369  28.641  22.779  1.00  0.00     0.045 A 
ATOM     92  N   UNL A   1      30.643  29.994  21.626  1.00  0.00    -0.282 N 
ATOM     93  C   UNL A   1      28.627  29.632  22.111  1.00  0.00     0.135 A 
ATOM     94  N   UNL A   1      29.401  30.455  21.403  1.00  0.00    -0.184 NA
ATOM     95  H   UNL A   1      31.446  30.387  21.215  1.00  0.00     0.190 HD
ENDBRANCH  89  90
ENDBRANCH  87  89
ENDBRANCH  79  87
ENDBRANCH  74  77
ENDBRANCH  72  73
ENDBRANCH   1  72
TORSDOF 16
ENDMDL
