MODEL 1
REMARK VINA RESULT:     -11.5      0.000      0.000
REMARK SMILES CCC[C@]1(C(=O)NCCCNC(=O)c2ccc(-c3c4nc(c(-c5cc(S(=O)(=O)[O-])ccc5F)c5ccc([nH]5)c(-c5cc(S(=O)(=O)[O-])ccc5F)c5nc(c(-c6cc(S(=O)(=O)[O-])ccc6F)c6ccc3[nH]6)C=C5)C=C4)cc2)CCN(c2cncc(C(=O)OC)n2)C1
REMARK SMILES IDX 9 1 8 2 7 3 5 4 6 5 4 7 77 8 90 9 78 10 79 11 3 12 2 13 1 14
REMARK SMILES IDX 80 15 81 16 89 17 82 18 84 19 83 20 85 21 86 22 87 23 88 24
REMARK SMILES IDX 10 25 11 26 12 27 13 29 14 30 15 31 76 32 16 33 75 34 17 35
REMARK SMILES IDX 18 36 19 37 69 38 20 39 74 40 68 41 70 42 21 43 73 44 67 45
REMARK SMILES IDX 66 46 22 48 54 49 34 50 53 51 35 52 38 53 52 54 71 55 36 56
REMARK SMILES IDX 37 57 51 59 72 60 39 61 23 62 24 63 32 64 25 65 31 66 33 67
REMARK SMILES IDX 30 68 26 69 27 70 28 71 29 72 55 73 56 74 64 75 57 76 63 77
REMARK SMILES IDX 65 78 62 79 58 80 59 81 60 82 61 83 40 84 41 85 49 86 42 87
REMARK SMILES IDX 48 88 50 89 47 90 43 91 44 92 45 93 46 94
REMARK H PARENT 7 6 11 28 70 47 38 58
REMARK Flexibility Score: inf
ROOT
ATOM      1  C   UNL A   1      31.468  31.309  26.443  1.00  0.00     0.042 C 
ENDROOT
BRANCH   1   2
ATOM      2  C   UNL A   1      31.587  29.947  25.751  1.00  0.00     0.117 C 
BRANCH   2   3
ATOM      3  N   UNL A   1      31.570  30.050  24.301  1.00  0.00    -0.355 N 
ATOM      4  C   UNL A   1      31.917  28.996  23.510  1.00  0.00     0.228 C 
ATOM      5  O   UNL A   1      33.033  29.032  22.987  1.00  0.00    -0.274 OA
ATOM      6  H   UNL A   1      31.302  30.898  23.881  1.00  0.00     0.163 HD
BRANCH   4   7
ATOM      7  C   UNL A   1      30.980  27.805  23.294  1.00  0.00     0.068 C 
ATOM      8  C   UNL A   1      31.631  26.902  22.212  1.00  0.00     0.040 C 
ATOM      9  C   UNL A   1      30.753  26.856  24.504  1.00  0.00     0.135 C 
ATOM     10  C   UNL A   1      31.616  25.482  22.755  1.00  0.00     0.119 C 
ATOM     11  N   UNL A   1      31.552  25.669  24.189  1.00  0.00    -0.354 N 
BRANCH   7  12
ATOM     12  C   UNL A   1      29.632  28.383  22.758  1.00  0.00     0.018 C 
BRANCH  12  13
ATOM     13  C   UNL A   1      28.335  27.899  23.443  1.00  0.00    -0.002 C 
ATOM     14  C   UNL A   1      27.085  28.717  23.110  1.00  0.00     0.004 C 
ENDBRANCH  12  13
ENDBRANCH   7  12
BRANCH  11  15
ATOM     15  C   UNL A   1      31.470  24.508  24.943  1.00  0.00     0.148 A 
ATOM     16  C   UNL A   1      31.028  24.602  26.271  1.00  0.00     0.157 A 
ATOM     17  N   UNL A   1      31.959  23.332  24.472  1.00  0.00    -0.221 NA
ATOM     18  N   UNL A   1      31.057  23.581  27.165  1.00  0.00    -0.258 NA
ATOM     19  C   UNL A   1      31.999  22.296  25.368  1.00  0.00     0.169 A 
ATOM     20  C   UNL A   1      31.568  22.428  26.682  1.00  0.00     0.147 A 
BRANCH  19  21
ATOM     21  C   UNL A   1      32.534  20.964  24.972  1.00  0.00     0.358 C 
ATOM     22  O   UNL A   1      31.916  19.926  25.153  1.00  0.00    -0.244 OA
BRANCH  21  23
ATOM     23  O   UNL A   1      33.767  21.047  24.407  1.00  0.00    -0.464 OA
ATOM     24  C   UNL A   1      34.817  21.193  25.368  1.00  0.00     0.282 C 
ENDBRANCH  21  23
ENDBRANCH  19  21
ENDBRANCH  11  15
ENDBRANCH   4   7
ENDBRANCH   2   3
ENDBRANCH   1   2
BRANCH   1  25
ATOM     25  C   UNL A   1      32.776  31.858  27.014  1.00  0.00     0.118 C 
BRANCH  25  26
ATOM     26  N   UNL A   1      32.689  33.279  27.310  1.00  0.00    -0.352 N 
ATOM     27  C   UNL A   1      33.311  34.019  28.284  1.00  0.00     0.251 C 
ATOM     28  H   UNL A   1      32.091  33.790  26.719  1.00  0.00     0.163 HD
ATOM     29  O   UNL A   1      32.877  35.140  28.539  1.00  0.00    -0.269 OA
BRANCH  27  30
ATOM     30  C   UNL A   1      34.474  33.485  29.032  1.00  0.00     0.039 A 
ATOM     31  C   UNL A   1      34.247  32.538  30.034  1.00  0.00     0.014 A 
ATOM     32  C   UNL A   1      35.772  33.953  28.806  1.00  0.00     0.014 A 
ATOM     33  C   UNL A   1      35.320  32.028  30.770  1.00  0.00     0.010 A 
ATOM     34  C   UNL A   1      36.851  33.385  29.485  1.00  0.00     0.010 A 
ATOM     35  C   UNL A   1      36.638  32.422  30.482  1.00  0.00    -0.014 A 
BRANCH  35  36
ATOM     36  C   UNL A   1      37.790  31.834  31.220  1.00  0.00     0.031 A 
ATOM     37  C   UNL A   1      38.620  30.742  30.599  1.00  0.00     0.074 A 
ATOM     38  C   UNL A   1      38.063  32.257  32.470  1.00  0.00     0.049 A 
ATOM     39  N   UNL A   1      39.631  30.080  31.104  1.00  0.00    -0.248 NA
ATOM     40  C   UNL A   1      38.247  30.322  29.240  1.00  0.00     0.031 C 
ATOM     41  C   UNL A   1      37.305  33.277  33.198  1.00  0.00     0.029 A 
ATOM     42  N   UNL A   1      39.044  31.881  33.355  1.00  0.00    -0.354 N 
ATOM     43  C   UNL A   1      40.011  29.162  30.129  1.00  0.00     0.074 A 
ATOM     44  C   UNL A   1      39.072  29.307  29.036  1.00  0.00     0.031 C 
ATOM     45  C   UNL A   1      37.865  33.465  34.403  1.00  0.00     0.029 A 
ATOM     46  C   UNL A   1      38.987  32.546  34.558  1.00  0.00     0.049 A 
ATOM     47  H   UNL A   1      39.723  31.200  33.147  1.00  0.00     0.167 HD
ATOM     48  C   UNL A   1      41.058  28.297  30.133  1.00  0.00     0.034 A 
ATOM     49  C   UNL A   1      39.742  32.423  35.667  1.00  0.00     0.034 A 
ATOM     50  C   UNL A   1      41.981  28.162  31.237  1.00  0.00     0.049 A 
ATOM     51  C   UNL A   1      40.878  31.433  35.667  1.00  0.00     0.074 A 
ATOM     52  C   UNL A   1      43.098  27.351  31.334  1.00  0.00     0.029 A 
ATOM     53  N   UNL A   1      41.887  28.847  32.444  1.00  0.00    -0.354 N 
ATOM     54  N   UNL A   1      41.255  30.608  34.716  1.00  0.00    -0.248 NA
ATOM     55  C   UNL A   1      41.697  31.367  36.882  1.00  0.00     0.031 C 
ATOM     56  C   UNL A   1      43.631  27.488  32.620  1.00  0.00     0.029 A 
ATOM     57  C   UNL A   1      42.903  28.449  33.300  1.00  0.00     0.049 A 
ATOM     58  H   UNL A   1      41.197  29.516  32.659  1.00  0.00     0.167 HD
ATOM     59  C   UNL A   1      42.371  29.941  35.214  1.00  0.00     0.074 A 
ATOM     60  C   UNL A   1      42.618  30.478  36.538  1.00  0.00     0.031 C 
ATOM     61  C   UNL A   1      43.126  28.975  34.629  1.00  0.00     0.034 A 
BRANCH  48  62
ATOM     62  C   UNL A   1      41.237  27.417  28.916  1.00  0.00     0.023 A 
ATOM     63  C   UNL A   1      42.234  27.676  27.958  1.00  0.00     0.031 A 
ATOM     64  C   UNL A   1      40.377  26.327  28.684  1.00  0.00     0.131 A 
ATOM     65  C   UNL A   1      42.288  26.922  26.776  1.00  0.00     0.055 A 
ATOM     66  C   UNL A   1      40.497  25.521  27.549  1.00  0.00     0.041 A 
ATOM     67  F   UNL A   1      39.393  26.037  29.549  1.00  0.00    -0.206 F 
ATOM     68  C   UNL A   1      41.443  25.827  26.577  1.00  0.00     0.022 A 
BRANCH  65  69
ATOM     69  S   UNL A   1      43.362  27.497  25.431  1.00  0.00     0.124 S 
ATOM     70  O   UNL A   1      43.944  26.242  24.962  1.00  0.00    -0.237 OA
ATOM     71  O   UNL A   1      42.417  28.141  24.526  1.00  0.00    -0.237 OA
ATOM     72  O   UNL A   1      44.298  28.397  26.101  1.00  0.00    -0.744 OA
ENDBRANCH  65  69
ENDBRANCH  48  62
BRANCH  49  73
ATOM     73  C   UNL A   1      39.438  33.243  36.876  1.00  0.00     0.023 A 
ATOM     74  C   UNL A   1      40.083  34.468  37.108  1.00  0.00     0.031 A 
ATOM     75  C   UNL A   1      38.504  32.799  37.830  1.00  0.00     0.131 A 
ATOM     76  C   UNL A   1      39.815  35.187  38.283  1.00  0.00     0.055 A 
ATOM     77  C   UNL A   1      38.200  33.545  38.970  1.00  0.00     0.041 A 
ATOM     78  F   UNL A   1      37.854  31.637  37.656  1.00  0.00    -0.206 F 
ATOM     79  C   UNL A   1      38.867  34.742  39.208  1.00  0.00     0.022 A 
BRANCH  76  80
ATOM     80  S   UNL A   1      40.783  36.683  38.626  1.00  0.00     0.124 S 
ATOM     81  O   UNL A   1      41.550  36.831  37.395  1.00  0.00    -0.237 OA
ATOM     82  O   UNL A   1      39.738  37.675  38.856  1.00  0.00    -0.237 OA
ATOM     83  O   UNL A   1      41.563  36.320  39.808  1.00  0.00    -0.744 OA
ENDBRANCH  76  80
ENDBRANCH  49  73
BRANCH  61  84
ATOM     84  C   UNL A   1      44.310  28.461  35.416  1.00  0.00     0.023 A 
ATOM     85  C   UNL A   1      44.177  27.438  36.371  1.00  0.00     0.031 A 
ATOM     86  C   UNL A   1      45.586  29.019  35.221  1.00  0.00     0.131 A 
ATOM     87  C   UNL A   1      45.285  27.052  37.142  1.00  0.00     0.055 A 
ATOM     88  C   UNL A   1      46.699  28.582  35.939  1.00  0.00     0.041 A 
ATOM     89  F   UNL A   1      45.774  30.002  34.324  1.00  0.00    -0.206 F 
ATOM     90  C   UNL A   1      46.549  27.604  36.918  1.00  0.00     0.022 A 
BRANCH  87  91
ATOM     91  S   UNL A   1      45.029  25.900  38.518  1.00  0.00     0.124 S 
ATOM     92  O   UNL A   1      44.423  24.755  37.846  1.00  0.00    -0.237 OA
ATOM     93  O   UNL A   1      46.385  25.702  39.017  1.00  0.00    -0.237 OA
ATOM     94  O   UNL A   1      44.139  26.632  39.418  1.00  0.00    -0.744 OA
ENDBRANCH  87  91
ENDBRANCH  61  84
ENDBRANCH  35  36
ENDBRANCH  27  30
ENDBRANCH  25  26
ENDBRANCH   1  25
TORSDOF 18
ENDMDL
MODEL 2
REMARK VINA RESULT:     -11.3      5.996     11.367
REMARK SMILES CCC[C@]1(C(=O)NCCCNC(=O)c2ccc(-c3c4nc(c(-c5cc(S(=O)(=O)[O-])ccc5F)c5ccc([nH]5)c(-c5cc(S(=O)(=O)[O-])ccc5F)c5nc(c(-c6cc(S(=O)(=O)[O-])ccc6F)c6ccc3[nH]6)C=C5)C=C4)cc2)CCN(c2cncc(C(=O)OC)n2)C1
REMARK SMILES IDX 9 1 8 2 7 3 5 4 6 5 4 7 77 8 90 9 78 10 79 11 3 12 2 13 1 14
REMARK SMILES IDX 80 15 81 16 89 17 82 18 84 19 83 20 85 21 86 22 87 23 88 24
REMARK SMILES IDX 10 25 11 26 12 27 13 29 14 30 15 31 76 32 16 33 75 34 17 35
REMARK SMILES IDX 18 36 19 37 69 38 20 39 74 40 68 41 70 42 21 43 73 44 67 45
REMARK SMILES IDX 66 46 22 48 54 49 34 50 53 51 35 52 38 53 52 54 71 55 36 56
REMARK SMILES IDX 37 57 51 59 72 60 39 61 23 62 24 63 32 64 25 65 31 66 33 67
REMARK SMILES IDX 30 68 26 69 27 70 28 71 29 72 55 73 56 74 64 75 57 76 63 77
REMARK SMILES IDX 65 78 62 79 58 80 59 81 60 82 61 83 40 84 41 85 49 86 42 87
REMARK SMILES IDX 48 88 50 89 47 90 43 91 44 92 45 93 46 94
REMARK H PARENT 7 6 11 28 70 47 38 58
REMARK Flexibility Score: inf
ROOT
ATOM      1  C   UNL A   1      37.523  19.621  24.969  1.00  0.00     0.042 C 
ENDROOT
BRANCH   1   2
ATOM      2  C   UNL A   1      36.298  20.517  24.754  1.00  0.00     0.117 C 
BRANCH   2   3
ATOM      3  N   UNL A   1      35.076  19.937  25.287  1.00  0.00    -0.355 N 
ATOM      4  C   UNL A   1      33.981  20.705  25.549  1.00  0.00     0.228 C 
ATOM      5  O   UNL A   1      33.760  20.979  26.731  1.00  0.00    -0.274 OA
ATOM      6  H   UNL A   1      35.039  18.970  25.463  1.00  0.00     0.163 HD
BRANCH   4   7
ATOM      7  C   UNL A   1      33.076  21.228  24.431  1.00  0.00     0.068 C 
ATOM      8  C   UNL A   1      31.762  21.718  25.100  1.00  0.00     0.040 C 
ATOM      9  C   UNL A   1      33.584  22.460  23.630  1.00  0.00     0.135 C 
ATOM     10  C   UNL A   1      31.484  23.111  24.557  1.00  0.00     0.119 C 
ATOM     11  N   UNL A   1      32.789  23.579  24.141  1.00  0.00    -0.354 N 
BRANCH   7  12
ATOM     12  C   UNL A   1      32.772  20.018  23.493  1.00  0.00     0.018 C 
BRANCH  12  13
ATOM     13  C   UNL A   1      32.342  18.695  24.165  1.00  0.00    -0.002 C 
ATOM     14  C   UNL A   1      32.789  17.426  23.435  1.00  0.00     0.004 C 
ENDBRANCH  12  13
ENDBRANCH   7  12
BRANCH  11  15
ATOM     15  C   UNL A   1      32.816  24.832  23.546  1.00  0.00     0.148 A 
ATOM     16  C   UNL A   1      33.385  24.954  22.270  1.00  0.00     0.157 A 
ATOM     17  N   UNL A   1      32.455  25.943  24.238  1.00  0.00    -0.221 NA
ATOM     18  N   UNL A   1      33.626  26.134  21.646  1.00  0.00    -0.258 NA
ATOM     19  C   UNL A   1      32.699  27.140  23.620  1.00  0.00     0.169 A 
ATOM     20  C   UNL A   1      33.280  27.227  22.360  1.00  0.00     0.147 A 
BRANCH  19  21
ATOM     21  C   UNL A   1      32.365  28.428  24.289  1.00  0.00     0.358 C 
ATOM     22  O   UNL A   1      33.208  29.272  24.553  1.00  0.00    -0.244 OA
BRANCH  21  23
ATOM     23  O   UNL A   1      31.040  28.538  24.570  1.00  0.00    -0.464 OA
ATOM     24  C   UNL A   1      30.284  29.105  23.496  1.00  0.00     0.282 C 
ENDBRANCH  21  23
ENDBRANCH  19  21
ENDBRANCH  11  15
ENDBRANCH   4   7
ENDBRANCH   2   3
ENDBRANCH   1   2
BRANCH   1  25
ATOM     25  C   UNL A   1      38.720  20.312  25.623  1.00  0.00     0.118 C 
BRANCH  25  26
ATOM     26  N   UNL A   1      39.802  19.383  25.902  1.00  0.00    -0.352 N 
ATOM     27  C   UNL A   1      41.135  19.618  26.127  1.00  0.00     0.251 C 
ATOM     28  H   UNL A   1      39.537  18.435  25.935  1.00  0.00     0.163 HD
ATOM     29  O   UNL A   1      41.921  18.677  26.054  1.00  0.00    -0.269 OA
BRANCH  27  30
ATOM     30  C   UNL A   1      41.634  20.979  26.438  1.00  0.00     0.039 A 
ATOM     31  C   UNL A   1      41.971  21.826  25.378  1.00  0.00     0.014 A 
ATOM     32  C   UNL A   1      41.837  21.405  27.754  1.00  0.00     0.014 A 
ATOM     33  C   UNL A   1      42.462  23.108  25.638  1.00  0.00     0.010 A 
ATOM     34  C   UNL A   1      42.250  22.713  28.012  1.00  0.00     0.010 A 
ATOM     35  C   UNL A   1      42.577  23.578  26.958  1.00  0.00    -0.014 A 
BRANCH  35  36
ATOM     36  C   UNL A   1      43.038  24.966  27.238  1.00  0.00     0.031 A 
ATOM     37  C   UNL A   1      42.114  25.965  27.883  1.00  0.00     0.074 A 
ATOM     38  C   UNL A   1      44.279  25.340  26.870  1.00  0.00     0.049 A 
ATOM     39  N   UNL A   1      42.323  27.227  28.163  1.00  0.00    -0.248 NA
ATOM     40  C   UNL A   1      40.769  25.487  28.235  1.00  0.00     0.031 C 
ATOM     41  C   UNL A   1      45.254  24.477  26.197  1.00  0.00     0.029 A 
ATOM     42  N   UNL A   1      44.937  26.538  27.002  1.00  0.00    -0.354 N 
ATOM     43  C   UNL A   1      41.135  27.696  28.719  1.00  0.00     0.074 A 
ATOM     44  C   UNL A   1      40.192  26.598  28.666  1.00  0.00     0.031 C 
ATOM     45  C   UNL A   1      46.389  25.165  26.002  1.00  0.00     0.029 A 
ATOM     46  C   UNL A   1      46.212  26.530  26.485  1.00  0.00     0.049 A 
ATOM     47  H   UNL A   1      44.533  27.329  27.427  1.00  0.00     0.167 HD
ATOM     48  C   UNL A   1      40.865  28.917  29.247  1.00  0.00     0.034 A 
ATOM     49  C   UNL A   1      47.131  27.510  26.396  1.00  0.00     0.034 A 
ATOM     50  C   UNL A   1      41.818  30.002  29.286  1.00  0.00     0.049 A 
ATOM     51  C   UNL A   1      46.801  28.870  26.956  1.00  0.00     0.074 A 
ATOM     52  C   UNL A   1      41.667  31.265  29.832  1.00  0.00     0.029 A 
ATOM     53  N   UNL A   1      43.098  29.959  28.744  1.00  0.00    -0.354 N 
ATOM     54  N   UNL A   1      45.690  29.281  27.525  1.00  0.00    -0.248 NA
ATOM     55  C   UNL A   1      47.850  29.892  26.873  1.00  0.00     0.031 C 
ATOM     56  C   UNL A   1      42.821  32.006  29.555  1.00  0.00     0.029 A 
ATOM     57  C   UNL A   1      43.731  31.183  28.913  1.00  0.00     0.049 A 
ATOM     58  H   UNL A   1      43.497  29.174  28.305  1.00  0.00     0.167 HD
ATOM     59  C   UNL A   1      45.919  30.606  27.888  1.00  0.00     0.074 A 
ATOM     60  C   UNL A   1      47.280  30.913  27.495  1.00  0.00     0.031 C 
ATOM     61  C   UNL A   1      45.082  31.486  28.495  1.00  0.00     0.034 A 
BRANCH  48  62
ATOM     62  C   UNL A   1      39.474  29.142  29.799  1.00  0.00     0.023 A 
ATOM     63  C   UNL A   1      38.502  29.858  29.077  1.00  0.00     0.031 A 
ATOM     64  C   UNL A   1      39.123  28.672  31.077  1.00  0.00     0.131 A 
ATOM     65  C   UNL A   1      37.266  30.162  29.671  1.00  0.00     0.055 A 
ATOM     66  C   UNL A   1      37.858  28.899  31.626  1.00  0.00     0.041 A 
ATOM     67  F   UNL A   1      40.011  28.000  31.826  1.00  0.00    -0.206 F 
ATOM     68  C   UNL A   1      36.927  29.664  30.930  1.00  0.00     0.022 A 
BRANCH  65  69
ATOM     69  S   UNL A   1      36.182  31.360  28.845  1.00  0.00     0.124 S 
ATOM     70  O   UNL A   1      35.716  30.589  27.694  1.00  0.00    -0.237 OA
ATOM     71  O   UNL A   1      35.185  31.643  29.870  1.00  0.00    -0.237 OA
ATOM     72  O   UNL A   1      37.078  32.467  28.520  1.00  0.00    -0.744 OA
ENDBRANCH  65  69
ENDBRANCH  48  62
BRANCH  49  73
ATOM     73  C   UNL A   1      48.443  27.250  25.735  1.00  0.00     0.023 A 
ATOM     74  C   UNL A   1      48.617  27.445  24.356  1.00  0.00     0.031 A 
ATOM     75  C   UNL A   1      49.543  26.782  26.477  1.00  0.00     0.131 A 
ATOM     76  C   UNL A   1      49.848  27.137  23.756  1.00  0.00     0.055 A 
ATOM     77  C   UNL A   1      50.781  26.530  25.886  1.00  0.00     0.041 A 
ATOM     78  F   UNL A   1      49.433  26.583  27.801  1.00  0.00    -0.206 F 
ATOM     79  C   UNL A   1      50.936  26.696  24.514  1.00  0.00     0.022 A 
BRANCH  76  80
ATOM     80  S   UNL A   1      49.988  27.249  21.951  1.00  0.00     0.124 S 
ATOM     81  O   UNL A   1      49.774  28.673  21.723  1.00  0.00    -0.237 OA
ATOM     82  O   UNL A   1      51.342  26.757  21.720  1.00  0.00    -0.237 OA
ATOM     83  O   UNL A   1      48.920  26.372  21.472  1.00  0.00    -0.744 OA
ENDBRANCH  76  80
ENDBRANCH  49  73
BRANCH  61  84
ATOM     84  C   UNL A   1      45.634  32.861  28.795  1.00  0.00     0.023 A 
ATOM     85  C   UNL A   1      45.636  33.885  27.831  1.00  0.00     0.031 A 
ATOM     86  C   UNL A   1      46.187  33.143  30.057  1.00  0.00     0.131 A 
ATOM     87  C   UNL A   1      46.239  35.119  28.122  1.00  0.00     0.055 A 
ATOM     88  C   UNL A   1      46.720  34.395  30.365  1.00  0.00     0.041 A 
ATOM     89  F   UNL A   1      46.216  32.203  31.016  1.00  0.00    -0.206 F 
ATOM     90  C   UNL A   1      46.763  35.387  29.389  1.00  0.00     0.022 A 
BRANCH  87  91
ATOM     91  S   UNL A   1      46.430  36.330  26.787  1.00  0.00     0.124 S 
ATOM     92  O   UNL A   1      46.327  35.490  25.598  1.00  0.00    -0.237 OA
ATOM     93  O   UNL A   1      45.311  37.237  27.025  1.00  0.00    -0.237 OA
ATOM     94  O   UNL A   1      47.753  36.903  27.029  1.00  0.00    -0.744 OA
ENDBRANCH  87  91
ENDBRANCH  61  84
ENDBRANCH  35  36
ENDBRANCH  27  30
ENDBRANCH  25  26
ENDBRANCH   1  25
TORSDOF 18
ENDMDL
MODEL 3
REMARK VINA RESULT:     -11.2      5.541     11.508
REMARK SMILES CCC[C@]1(C(=O)NCCCNC(=O)c2ccc(-c3c4nc(c(-c5cc(S(=O)(=O)[O-])ccc5F)c5ccc([nH]5)c(-c5cc(S(=O)(=O)[O-])ccc5F)c5nc(c(-c6cc(S(=O)(=O)[O-])ccc6F)c6ccc3[nH]6)C=C5)C=C4)cc2)CCN(c2cncc(C(=O)OC)n2)C1
REMARK SMILES IDX 9 1 8 2 7 3 5 4 6 5 4 7 77 8 90 9 78 10 79 11 3 12 2 13 1 14
REMARK SMILES IDX 80 15 81 16 89 17 82 18 84 19 83 20 85 21 86 22 87 23 88 24
REMARK SMILES IDX 10 25 11 26 12 27 13 29 14 30 15 31 76 32 16 33 75 34 17 35
REMARK SMILES IDX 18 36 19 37 69 38 20 39 74 40 68 41 70 42 21 43 73 44 67 45
REMARK SMILES IDX 66 46 22 48 54 49 34 50 53 51 35 52 38 53 52 54 71 55 36 56
REMARK SMILES IDX 37 57 51 59 72 60 39 61 23 62 24 63 32 64 25 65 31 66 33 67
REMARK SMILES IDX 30 68 26 69 27 70 28 71 29 72 55 73 56 74 64 75 57 76 63 77
REMARK SMILES IDX 65 78 62 79 58 80 59 81 60 82 61 83 40 84 41 85 49 86 42 87
REMARK SMILES IDX 48 88 50 89 47 90 43 91 44 92 45 93 46 94
REMARK H PARENT 7 6 11 28 70 47 38 58
REMARK Flexibility Score: inf
ROOT
ATOM      1  C   UNL A   1      37.919  19.969  24.960  1.00  0.00     0.042 C 
ENDROOT
BRANCH   1   2
ATOM      2  C   UNL A   1      36.614  20.772  24.995  1.00  0.00     0.117 C 
BRANCH   2   3
ATOM      3  N   UNL A   1      36.812  22.180  24.692  1.00  0.00    -0.355 N 
ATOM      4  C   UNL A   1      36.033  22.827  23.780  1.00  0.00     0.228 C 
ATOM      5  O   UNL A   1      36.533  23.046  22.673  1.00  0.00    -0.274 OA
ATOM      6  H   UNL A   1      37.523  22.678  25.156  1.00  0.00     0.163 HD
BRANCH   4   7
ATOM      7  C   UNL A   1      34.595  23.244  24.096  1.00  0.00     0.068 C 
ATOM      8  C   UNL A   1      34.439  23.210  25.641  1.00  0.00     0.040 C 
ATOM      9  C   UNL A   1      34.174  24.685  23.696  1.00  0.00     0.135 C 
ATOM     10  C   UNL A   1      33.808  24.532  26.049  1.00  0.00     0.119 C 
ATOM     11  N   UNL A   1      34.156  25.423  24.962  1.00  0.00    -0.354 N 
BRANCH   7  12
ATOM     12  C   UNL A   1      33.662  22.172  23.448  1.00  0.00     0.018 C 
BRANCH  12  13
ATOM     13  C   UNL A   1      32.925  21.209  24.404  1.00  0.00    -0.002 C 
ATOM     14  C   UNL A   1      32.498  19.880  23.776  1.00  0.00     0.004 C 
ENDBRANCH  12  13
ENDBRANCH   7  12
BRANCH  11  15
ATOM     15  C   UNL A   1      33.648  26.710  25.055  1.00  0.00     0.148 A 
ATOM     16  C   UNL A   1      32.913  27.219  23.974  1.00  0.00     0.157 A 
ATOM     17  N   UNL A   1      33.987  27.523  26.088  1.00  0.00    -0.221 NA
ATOM     18  N   UNL A   1      32.504  28.508  23.862  1.00  0.00    -0.258 NA
ATOM     19  C   UNL A   1      33.584  28.828  25.983  1.00  0.00     0.169 A 
ATOM     20  C   UNL A   1      32.871  29.304  24.890  1.00  0.00     0.147 A 
BRANCH  19  21
ATOM     21  C   UNL A   1      33.916  29.818  27.045  1.00  0.00     0.358 C 
ATOM     22  O   UNL A   1      34.779  29.618  27.886  1.00  0.00    -0.244 OA
BRANCH  21  23
ATOM     23  O   UNL A   1      33.150  30.938  26.967  1.00  0.00    -0.464 OA
ATOM     24  C   UNL A   1      33.582  31.976  27.852  1.00  0.00     0.282 C 
ENDBRANCH  21  23
ENDBRANCH  19  21
ENDBRANCH  11  15
ENDBRANCH   4   7
ENDBRANCH   2   3
ENDBRANCH   1   2
BRANCH   1  25
ATOM     25  C   UNL A   1      39.072  20.578  25.757  1.00  0.00     0.118 C 
BRANCH  25  26
ATOM     26  N   UNL A   1      40.098  19.597  26.071  1.00  0.00    -0.352 N 
ATOM     27  C   UNL A   1      41.440  19.764  26.306  1.00  0.00     0.251 C 
ATOM     28  H   UNL A   1      39.780  18.667  26.123  1.00  0.00     0.163 HD
ATOM     29  O   UNL A   1      42.172  18.779  26.264  1.00  0.00    -0.269 OA
BRANCH  27  30
ATOM     30  C   UNL A   1      42.010  21.102  26.591  1.00  0.00     0.039 A 
ATOM     31  C   UNL A   1      42.234  21.975  25.521  1.00  0.00     0.014 A 
ATOM     32  C   UNL A   1      42.389  21.481  27.881  1.00  0.00     0.014 A 
ATOM     33  C   UNL A   1      42.789  23.236  25.754  1.00  0.00     0.010 A 
ATOM     34  C   UNL A   1      42.866  22.770  28.123  1.00  0.00     0.010 A 
ATOM     35  C   UNL A   1      43.081  23.661  27.061  1.00  0.00    -0.014 A 
BRANCH  35  36
ATOM     36  C   UNL A   1      43.612  25.028  27.321  1.00  0.00     0.031 A 
ATOM     37  C   UNL A   1      42.722  26.098  27.897  1.00  0.00     0.074 A 
ATOM     38  C   UNL A   1      44.887  25.318  26.996  1.00  0.00     0.049 A 
ATOM     39  N   UNL A   1      42.993  27.354  28.149  1.00  0.00    -0.248 NA
ATOM     40  C   UNL A   1      41.338  25.709  28.204  1.00  0.00     0.031 C 
ATOM     41  C   UNL A   1      45.836  24.379  26.390  1.00  0.00     0.029 A 
ATOM     42  N   UNL A   1      45.608  26.480  27.121  1.00  0.00    -0.354 N 
ATOM     43  C   UNL A   1      41.814  27.908  28.640  1.00  0.00     0.074 A 
ATOM     44  C   UNL A   1      40.810  26.865  28.578  1.00  0.00     0.031 C 
ATOM     45  C   UNL A   1      47.016  24.994  26.224  1.00  0.00     0.029 A 
ATOM     46  C   UNL A   1      46.901  26.381  26.660  1.00  0.00     0.049 A 
ATOM     47  H   UNL A   1      45.234  27.305  27.505  1.00  0.00     0.167 HD
ATOM     48  C   UNL A   1      41.594  29.159  29.120  1.00  0.00     0.034 A 
ATOM     49  C   UNL A   1      47.879  27.304  26.581  1.00  0.00     0.034 A 
ATOM     50  C   UNL A   1      42.608  30.187  29.168  1.00  0.00     0.049 A 
ATOM     51  C   UNL A   1      47.606  28.698  27.087  1.00  0.00     0.074 A 
ATOM     52  C   UNL A   1      42.509  31.473  29.671  1.00  0.00     0.029 A 
ATOM     53  N   UNL A   1      43.904  30.054  28.683  1.00  0.00    -0.354 N 
ATOM     54  N   UNL A   1      46.499  29.190  27.596  1.00  0.00    -0.248 NA
ATOM     55  C   UNL A   1      48.717  29.654  27.020  1.00  0.00     0.031 C 
ATOM     56  C   UNL A   1      43.715  32.138  29.422  1.00  0.00     0.029 A 
ATOM     57  C   UNL A   1      44.600  31.244  28.843  1.00  0.00     0.049 A 
ATOM     58  H   UNL A   1      44.274  29.233  28.284  1.00  0.00     0.167 HD
ATOM     59  C   UNL A   1      46.791  30.509  27.930  1.00  0.00     0.074 A 
ATOM     60  C   UNL A   1      48.183  30.725  27.587  1.00  0.00     0.031 C 
ATOM     61  C   UNL A   1      45.982  31.456  28.475  1.00  0.00     0.034 A 
BRANCH  48  62
ATOM     62  C   UNL A   1      40.198  29.481  29.605  1.00  0.00     0.023 A 
ATOM     63  C   UNL A   1      39.893  29.560  30.976  1.00  0.00     0.031 A 
ATOM     64  C   UNL A   1      39.146  29.672  28.690  1.00  0.00     0.131 A 
ATOM     65  C   UNL A   1      38.563  29.729  31.393  1.00  0.00     0.055 A 
ATOM     66  C   UNL A   1      37.840  29.934  29.112  1.00  0.00     0.041 A 
ATOM     67  F   UNL A   1      39.366  29.590  27.369  1.00  0.00    -0.206 F 
ATOM     68  C   UNL A   1      37.537  29.945  30.470  1.00  0.00     0.022 A 
BRANCH  65  69
ATOM     69  S   UNL A   1      38.171  29.493  33.148  1.00  0.00     0.124 S 
ATOM     70  O   UNL A   1      37.366  28.273  33.109  1.00  0.00    -0.237 OA
ATOM     71  O   UNL A   1      39.492  29.368  33.753  1.00  0.00    -0.237 OA
ATOM     72  O   UNL A   1      37.433  30.704  33.501  1.00  0.00    -0.744 OA
ENDBRANCH  65  69
ENDBRANCH  48  62
BRANCH  49  73
ATOM     73  C   UNL A   1      49.199  26.948  25.985  1.00  0.00     0.023 A 
ATOM     74  C   UNL A   1      49.543  27.345  24.683  1.00  0.00     0.031 A 
ATOM     75  C   UNL A   1      50.133  26.185  26.709  1.00  0.00     0.131 A 
ATOM     76  C   UNL A   1      50.771  26.946  24.132  1.00  0.00     0.055 A 
ATOM     77  C   UNL A   1      51.375  25.837  26.176  1.00  0.00     0.041 A 
ATOM     78  F   UNL A   1      49.857  25.781  27.960  1.00  0.00    -0.206 F 
ATOM     79  C   UNL A   1      51.695  26.208  24.875  1.00  0.00     0.022 A 
BRANCH  76  80
ATOM     80  S   UNL A   1      51.114  27.342  22.395  1.00  0.00     0.124 S 
ATOM     81  O   UNL A   1      51.087  28.800  22.411  1.00  0.00    -0.237 OA
ATOM     82  O   UNL A   1      52.420  26.724  22.195  1.00  0.00    -0.237 OA
ATOM     83  O   UNL A   1      50.010  26.705  21.677  1.00  0.00    -0.744 OA
ENDBRANCH  76  80
ENDBRANCH  49  73
BRANCH  61  84
ATOM     84  C   UNL A   1      46.602  32.805  28.758  1.00  0.00     0.023 A 
ATOM     85  C   UNL A   1      46.521  33.866  27.839  1.00  0.00     0.031 A 
ATOM     86  C   UNL A   1      47.304  33.025  29.957  1.00  0.00     0.131 A 
ATOM     87  C   UNL A   1      47.185  35.073  28.102  1.00  0.00     0.055 A 
ATOM     88  C   UNL A   1      47.902  34.251  30.246  1.00  0.00     0.041 A 
ATOM     89  F   UNL A   1      47.419  32.048  30.872  1.00  0.00    -0.206 F 
ATOM     90  C   UNL A   1      47.859  35.280  29.309  1.00  0.00     0.022 A 
BRANCH  87  91
ATOM     91  S   UNL A   1      47.253  36.332  26.799  1.00  0.00     0.124 S 
ATOM     92  O   UNL A   1      45.838  36.583  26.547  1.00  0.00    -0.237 OA
ATOM     93  O   UNL A   1      47.986  37.414  27.447  1.00  0.00    -0.237 OA
ATOM     94  O   UNL A   1      47.967  35.663  25.713  1.00  0.00    -0.744 OA
ENDBRANCH  87  91
ENDBRANCH  61  84
ENDBRANCH  35  36
ENDBRANCH  27  30
ENDBRANCH  25  26
ENDBRANCH   1  25
TORSDOF 18
ENDMDL
