MODEL 1
REMARK VINA RESULT:     -11.4      0.000      0.000
REMARK SMILES C[C@@H](Oc1cccc(Cl)c1)C(=O)N1CSC[C@@H]1C(=O)NCCCNC(=O)c1ccc(-c2c3nc(c(-c4cc(S(=O)(=O)[O-])ccc4F)c4ccc([nH]4)c(-c4cc(S(=O)(=O)[O-])ccc4F)c4nc(c(-c5cc(S(=O)(=O)[O-])ccc5F)c5ccc2[nH]5)C=C4)C=C3)cc1
REMARK SMILES IDX 21 1 20 2 18 3 19 4 17 6 13 7 14 8 15 9 16 10 11 11 12 12
REMARK SMILES IDX 2 13 1 14 3 15 4 16 5 17 10 18 6 19 8 20 7 21 9 22 22 23
REMARK SMILES IDX 23 24 24 25 25 26 26 28 27 29 28 30 89 31 29 32 88 33 30 34
REMARK SMILES IDX 31 35 32 36 82 37 33 38 87 39 81 40 83 41 34 42 86 43 80 44
REMARK SMILES IDX 79 45 35 47 67 48 47 49 66 50 48 51 51 52 65 53 84 54 49 55
REMARK SMILES IDX 50 56 64 58 85 59 52 60 36 61 37 62 45 63 38 64 44 65 46 66
REMARK SMILES IDX 43 67 39 68 40 69 41 70 42 71 68 72 69 73 77 74 70 75 76 76
REMARK SMILES IDX 78 77 75 78 71 79 72 80 73 81 74 82 53 83 54 84 62 85 55 86
REMARK SMILES IDX 61 87 63 88 60 89 56 90 57 91 58 92 59 93
REMARK H PARENT 20 5 24 27 83 46 51 57
REMARK Flexibility Score: inf
ROOT
ATOM      1  C   UNL A   1      32.724  30.075  27.269  1.00  0.00     0.117 C 
ENDROOT
BRANCH   1   2
ATOM      2  N   UNL A   1      33.325  29.471  26.095  1.00  0.00    -0.354 N 
ATOM      3  C   UNL A   1      32.786  29.031  24.925  1.00  0.00     0.243 C 
ATOM      4  O   UNL A   1      33.612  28.809  24.031  1.00  0.00    -0.273 OA
ATOM      5  H   UNL A   1      34.301  29.358  26.157  1.00  0.00     0.163 HD
BRANCH   3   6
ATOM      6  C   UNL A   1      31.266  28.724  24.758  1.00  0.00     0.185 C 
ATOM      7  N   UNL A   1      31.033  27.285  24.961  1.00  0.00    -0.317 N 
ATOM      8  C   UNL A   1      29.902  26.745  24.256  1.00  0.00     0.190 C 
ATOM      9  S   UNL A   1      29.499  27.846  22.907  1.00  0.00    -0.138 SA
ATOM     10  C   UNL A   1      30.770  29.048  23.349  1.00  0.00     0.106 C 
BRANCH   7  11
ATOM     11  C   UNL A   1      31.404  26.671  26.151  1.00  0.00     0.264 C 
ATOM     12  O   UNL A   1      30.987  27.053  27.243  1.00  0.00    -0.271 OA
BRANCH  11  13
ATOM     13  C   UNL A   1      32.379  25.479  26.007  1.00  0.00     0.259 C 
ATOM     14  C   UNL A   1      31.653  24.163  26.272  1.00  0.00     0.064 C 
BRANCH  13  15
ATOM     15  O   UNL A   1      32.925  25.494  24.677  1.00  0.00    -0.481 OA
BRANCH  15  16
ATOM     16  C   UNL A   1      33.979  24.647  24.498  1.00  0.00     0.121 A 
ATOM     17  C   UNL A   1      33.991  23.861  23.348  1.00  0.00     0.046 A 
ATOM     18  C   UNL A   1      35.081  24.681  25.351  1.00  0.00     0.067 A 
ATOM     19  C   UNL A   1      35.093  23.058  23.063  1.00  0.00     0.005 A 
ATOM     20  C   UNL A   1      36.185  23.882  25.055  1.00  0.00     0.044 A 
ATOM     21  C   UNL A   1      36.194  23.068  23.919  1.00  0.00     0.021 A 
ATOM     22  Cl  UNL A   1      37.570  23.911  26.079  1.00  0.00    -0.084 Cl
ENDBRANCH  15  16
ENDBRANCH  13  15
ENDBRANCH  11  13
ENDBRANCH   7  11
ENDBRANCH   3   6
ENDBRANCH   1   2
BRANCH   1  23
ATOM     23  C   UNL A   1      32.243  31.500  27.051  1.00  0.00     0.042 C 
BRANCH  23  24
ATOM     24  C   UNL A   1      33.323  32.568  27.141  1.00  0.00     0.118 C 
BRANCH  24  25
ATOM     25  N   UNL A   1      32.830  33.848  27.630  1.00  0.00    -0.352 N 
ATOM     26  C   UNL A   1      33.210  34.598  28.723  1.00  0.00     0.251 C 
ATOM     27  H   UNL A   1      32.108  34.244  27.091  1.00  0.00     0.163 HD
ATOM     28  O   UNL A   1      32.547  35.575  29.043  1.00  0.00    -0.269 OA
BRANCH  26  29
ATOM     29  C   UNL A   1      34.386  34.197  29.531  1.00  0.00     0.039 A 
ATOM     30  C   UNL A   1      34.197  33.416  30.675  1.00  0.00     0.014 A 
ATOM     31  C   UNL A   1      35.674  34.584  29.164  1.00  0.00     0.014 A 
ATOM     32  C   UNL A   1      35.306  32.943  31.388  1.00  0.00     0.010 A 
ATOM     33  C   UNL A   1      36.772  34.020  29.801  1.00  0.00     0.010 A 
ATOM     34  C   UNL A   1      36.605  33.196  30.926  1.00  0.00    -0.014 A 
BRANCH  34  35
ATOM     35  C   UNL A   1      37.821  32.666  31.602  1.00  0.00     0.031 A 
ATOM     36  C   UNL A   1      38.583  31.537  30.958  1.00  0.00     0.074 A 
ATOM     37  C   UNL A   1      38.170  33.103  32.829  1.00  0.00     0.049 A 
ATOM     38  N   UNL A   1      39.500  30.754  31.466  1.00  0.00    -0.248 NA
ATOM     39  C   UNL A   1      38.217  31.214  29.571  1.00  0.00     0.031 C 
ATOM     40  C   UNL A   1      37.501  34.173  33.574  1.00  0.00     0.029 A 
ATOM     41  N   UNL A   1      39.162  32.680  33.680  1.00  0.00    -0.354 N 
ATOM     42  C   UNL A   1      39.781  29.814  30.479  1.00  0.00     0.074 A 
ATOM     43  C   UNL A   1      38.895  30.095  29.368  1.00  0.00     0.031 C 
ATOM     44  C   UNL A   1      38.110  34.331  34.760  1.00  0.00     0.029 A 
ATOM     45  C   UNL A   1      39.173  33.339  34.890  1.00  0.00     0.049 A 
ATOM     46  H   UNL A   1      39.805  31.973  33.447  1.00  0.00     0.167 HD
ATOM     47  C   UNL A   1      40.706  28.822  30.489  1.00  0.00     0.034 A 
ATOM     48  C   UNL A   1      39.932  33.145  35.987  1.00  0.00     0.034 A 
ATOM     49  C   UNL A   1      41.616  28.594  31.583  1.00  0.00     0.049 A 
ATOM     50  C   UNL A   1      40.968  32.048  35.972  1.00  0.00     0.074 A 
ATOM     51  C   UNL A   1      42.630  27.657  31.682  1.00  0.00     0.029 A 
ATOM     52  N   UNL A   1      41.628  29.320  32.766  1.00  0.00    -0.354 N 
ATOM     53  N   UNL A   1      41.228  31.172  35.030  1.00  0.00    -0.248 NA
ATOM     54  C   UNL A   1      41.816  31.917  37.165  1.00  0.00     0.031 C 
ATOM     55  C   UNL A   1      43.224  27.786  32.942  1.00  0.00     0.029 A 
ATOM     56  C   UNL A   1      42.625  28.847  33.603  1.00  0.00     0.049 A 
ATOM     57  H   UNL A   1      41.018  30.063  32.980  1.00  0.00     0.167 HD
ATOM     58  C   UNL A   1      42.298  30.416  35.500  1.00  0.00     0.074 A 
ATOM     59  C   UNL A   1      42.632  30.934  36.810  1.00  0.00     0.031 C 
ATOM     60  C   UNL A   1      42.953  29.392  34.898  1.00  0.00     0.034 A 
BRANCH  47  61
ATOM     61  C   UNL A   1      40.756  27.907  29.289  1.00  0.00     0.023 A 
ATOM     62  C   UNL A   1      41.698  28.088  28.261  1.00  0.00     0.031 A 
ATOM     63  C   UNL A   1      39.822  26.866  29.146  1.00  0.00     0.131 A 
ATOM     64  C   UNL A   1      41.625  27.307  27.097  1.00  0.00     0.055 A 
ATOM     65  C   UNL A   1      39.814  26.030  28.026  1.00  0.00     0.041 A 
ATOM     66  F   UNL A   1      38.886  26.653  30.085  1.00  0.00    -0.206 F 
ATOM     67  C   UNL A   1      40.706  26.262  26.985  1.00  0.00     0.022 A 
BRANCH  64  68
ATOM     68  S   UNL A   1      42.640  27.787  25.674  1.00  0.00     0.124 S 
ATOM     69  O   UNL A   1      41.892  28.928  25.153  1.00  0.00    -0.237 OA
ATOM     70  O   UNL A   1      43.925  28.094  26.291  1.00  0.00    -0.237 OA
ATOM     71  O   UNL A   1      42.623  26.598  24.824  1.00  0.00    -0.744 OA
ENDBRANCH  64  68
ENDBRANCH  47  61
BRANCH  48  72
ATOM     72  C   UNL A   1      39.744  33.996  37.196  1.00  0.00     0.023 A 
ATOM     73  C   UNL A   1      39.069  33.503  38.325  1.00  0.00     0.031 A 
ATOM     74  C   UNL A   1      40.201  35.325  37.231  1.00  0.00     0.131 A 
ATOM     75  C   UNL A   1      38.829  34.345  39.421  1.00  0.00     0.055 A 
ATOM     76  C   UNL A   1      40.004  36.144  38.345  1.00  0.00     0.041 A 
ATOM     77  F   UNL A   1      40.861  35.844  36.183  1.00  0.00    -0.206 F 
ATOM     78  C   UNL A   1      39.302  35.659  39.444  1.00  0.00     0.022 A 
BRANCH  75  79
ATOM     79  S   UNL A   1      37.814  33.721  40.789  1.00  0.00     0.124 S 
ATOM     80  O   UNL A   1      38.767  32.880  41.505  1.00  0.00    -0.237 OA
ATOM     81  O   UNL A   1      37.417  34.955  41.457  1.00  0.00    -0.237 OA
ATOM     82  O   UNL A   1      36.735  33.005  40.112  1.00  0.00    -0.744 OA
ENDBRANCH  75  79
ENDBRANCH  48  72
BRANCH  60  83
ATOM     83  C   UNL A   1      44.151  28.822  35.612  1.00  0.00     0.023 A 
ATOM     84  C   UNL A   1      44.037  27.775  36.540  1.00  0.00     0.031 A 
ATOM     85  C   UNL A   1      45.433  29.324  35.325  1.00  0.00     0.131 A 
ATOM     86  C   UNL A   1      45.188  27.281  37.176  1.00  0.00     0.055 A 
ATOM     87  C   UNL A   1      46.577  28.799  35.925  1.00  0.00     0.041 A 
ATOM     88  F   UNL A   1      45.594  30.324  34.444  1.00  0.00    -0.206 F 
ATOM     89  C   UNL A   1      46.457  27.776  36.862  1.00  0.00     0.022 A 
BRANCH  86  90
ATOM     90  S   UNL A   1      45.003  26.010  38.455  1.00  0.00     0.124 S 
ATOM     91  O   UNL A   1      46.389  25.620  38.698  1.00  0.00    -0.237 OA
ATOM     92  O   UNL A   1      44.349  26.744  39.534  1.00  0.00    -0.237 OA
ATOM     93  O   UNL A   1      44.176  24.991  37.811  1.00  0.00    -0.744 OA
ENDBRANCH  86  90
ENDBRANCH  60  83
ENDBRANCH  34  35
ENDBRANCH  26  29
ENDBRANCH  24  25
ENDBRANCH  23  24
ENDBRANCH   1  23
TORSDOF 17
ENDMDL
MODEL 2
REMARK VINA RESULT:     -11.4      2.919      3.945
REMARK SMILES C[C@@H](Oc1cccc(Cl)c1)C(=O)N1CSC[C@@H]1C(=O)NCCCNC(=O)c1ccc(-c2c3nc(c(-c4cc(S(=O)(=O)[O-])ccc4F)c4ccc([nH]4)c(-c4cc(S(=O)(=O)[O-])ccc4F)c4nc(c(-c5cc(S(=O)(=O)[O-])ccc5F)c5ccc2[nH]5)C=C4)C=C3)cc1
REMARK SMILES IDX 21 1 20 2 18 3 19 4 17 6 13 7 14 8 15 9 16 10 11 11 12 12
REMARK SMILES IDX 2 13 1 14 3 15 4 16 5 17 10 18 6 19 8 20 7 21 9 22 22 23
REMARK SMILES IDX 23 24 24 25 25 26 26 28 27 29 28 30 89 31 29 32 88 33 30 34
REMARK SMILES IDX 31 35 32 36 82 37 33 38 87 39 81 40 83 41 34 42 86 43 80 44
REMARK SMILES IDX 79 45 35 47 67 48 47 49 66 50 48 51 51 52 65 53 84 54 49 55
REMARK SMILES IDX 50 56 64 58 85 59 52 60 36 61 37 62 45 63 38 64 44 65 46 66
REMARK SMILES IDX 43 67 39 68 40 69 41 70 42 71 68 72 69 73 77 74 70 75 76 76
REMARK SMILES IDX 78 77 75 78 71 79 72 80 73 81 74 82 53 83 54 84 62 85 55 86
REMARK SMILES IDX 61 87 63 88 60 89 56 90 57 91 58 92 59 93
REMARK H PARENT 20 5 24 27 83 46 51 57
REMARK Flexibility Score: inf
ROOT
ATOM      1  C   UNL A   1      32.401  26.611  26.333  1.00  0.00     0.117 C 
ENDROOT
BRANCH   1   2
ATOM      2  N   UNL A   1      31.456  25.639  26.849  1.00  0.00    -0.354 N 
ATOM      3  C   UNL A   1      31.095  24.403  26.408  1.00  0.00     0.243 C 
ATOM      4  O   UNL A   1      30.452  23.734  27.227  1.00  0.00    -0.273 OA
ATOM      5  H   UNL A   1      30.990  25.928  27.667  1.00  0.00     0.163 HD
BRANCH   3   6
ATOM      6  C   UNL A   1      31.371  23.911  24.954  1.00  0.00     0.185 C 
ATOM      7  N   UNL A   1      32.823  23.891  24.711  1.00  0.00    -0.317 N 
ATOM      8  C   UNL A   1      33.214  24.088  23.342  1.00  0.00     0.190 C 
ATOM      9  S   UNL A   1      31.866  24.879  22.476  1.00  0.00    -0.138 SA
ATOM     10  C   UNL A   1      30.772  24.855  23.910  1.00  0.00     0.106 C 
BRANCH   7  11
ATOM     11  C   UNL A   1      33.662  23.135  25.521  1.00  0.00     0.264 C 
ATOM     12  O   UNL A   1      34.151  23.583  26.557  1.00  0.00    -0.271 OA
BRANCH  11  13
ATOM     13  C   UNL A   1      33.939  21.696  25.028  1.00  0.00     0.259 C 
ATOM     14  C   UNL A   1      35.396  21.319  25.280  1.00  0.00     0.064 C 
BRANCH  13  15
ATOM     15  O   UNL A   1      33.058  20.797  25.725  1.00  0.00    -0.481 OA
BRANCH  15  16
ATOM     16  C   UNL A   1      32.772  19.655  25.037  1.00  0.00     0.121 A 
ATOM     17  C   UNL A   1      32.606  19.753  23.657  1.00  0.00     0.046 A 
ATOM     18  C   UNL A   1      32.802  18.411  25.665  1.00  0.00     0.067 A 
ATOM     19  C   UNL A   1      32.419  18.603  22.894  1.00  0.00     0.005 A 
ATOM     20  C   UNL A   1      32.623  17.263  24.894  1.00  0.00     0.044 A 
ATOM     21  C   UNL A   1      32.426  17.354  23.514  1.00  0.00     0.021 A 
ATOM     22  Cl  UNL A   1      32.669  15.709  25.636  1.00  0.00    -0.084 Cl
ENDBRANCH  15  16
ENDBRANCH  13  15
ENDBRANCH  11  13
ENDBRANCH   7  11
ENDBRANCH   3   6
ENDBRANCH   1   2
BRANCH   1  23
ATOM     23  C   UNL A   1      32.058  28.050  26.681  1.00  0.00     0.042 C 
BRANCH  23  24
ATOM     24  C   UNL A   1      32.946  29.102  26.033  1.00  0.00     0.118 C 
BRANCH  24  25
ATOM     25  N   UNL A   1      32.583  30.465  26.392  1.00  0.00    -0.352 N 
ATOM     26  C   UNL A   1      33.229  31.384  27.194  1.00  0.00     0.251 C 
ATOM     27  H   UNL A   1      31.740  30.785  25.999  1.00  0.00     0.163 HD
ATOM     28  O   UNL A   1      32.661  32.425  27.493  1.00  0.00    -0.269 OA
BRANCH  26  29
ATOM     29  C   UNL A   1      34.581  31.092  27.724  1.00  0.00     0.039 A 
ATOM     30  C   UNL A   1      35.542  32.108  27.748  1.00  0.00     0.014 A 
ATOM     31  C   UNL A   1      34.907  29.823  28.201  1.00  0.00     0.014 A 
ATOM     32  C   UNL A   1      36.789  31.875  28.342  1.00  0.00     0.010 A 
ATOM     33  C   UNL A   1      36.096  29.629  28.892  1.00  0.00     0.010 A 
ATOM     34  C   UNL A   1      37.057  30.650  28.967  1.00  0.00    -0.014 A 
BRANCH  34  35
ATOM     35  C   UNL A   1      38.338  30.365  29.672  1.00  0.00     0.031 A 
ATOM     36  C   UNL A   1      39.307  29.386  29.062  1.00  0.00     0.074 A 
ATOM     37  C   UNL A   1      38.577  30.880  30.894  1.00  0.00     0.049 A 
ATOM     38  N   UNL A   1      40.343  28.795  29.598  1.00  0.00    -0.248 NA
ATOM     39  C   UNL A   1      39.032  28.976  27.676  1.00  0.00     0.031 C 
ATOM     40  C   UNL A   1      37.709  31.820  31.608  1.00  0.00     0.029 A 
ATOM     41  N   UNL A   1      39.615  30.663  31.768  1.00  0.00    -0.354 N 
ATOM     42  C   UNL A   1      40.811  27.907  28.635  1.00  0.00     0.074 A 
ATOM     43  C   UNL A   1      39.909  27.999  27.506  1.00  0.00     0.031 C 
ATOM     44  C   UNL A   1      38.257  32.109  32.799  1.00  0.00     0.029 A 
ATOM     45  C   UNL A   1      39.482  31.332  32.965  1.00  0.00     0.049 A 
ATOM     46  H   UNL A   1      40.382  30.083  31.559  1.00  0.00     0.167 HD
ATOM     47  C   UNL A   1      41.903  27.103  28.678  1.00  0.00     0.034 A 
ATOM     48  C   UNL A   1      40.244  31.302  34.077  1.00  0.00     0.034 A 
ATOM     49  C   UNL A   1      42.820  27.066  29.790  1.00  0.00     0.049 A 
ATOM     50  C   UNL A   1      41.465  30.415  34.099  1.00  0.00     0.074 A 
ATOM     51  C   UNL A   1      43.987  26.335  29.923  1.00  0.00     0.029 A 
ATOM     52  N   UNL A   1      42.676  27.802  30.959  1.00  0.00    -0.354 N 
ATOM     53  N   UNL A   1      41.900  29.586  33.178  1.00  0.00    -0.248 NA
ATOM     54  C   UNL A   1      42.301  30.463  35.307  1.00  0.00     0.031 C 
ATOM     55  C   UNL A   1      44.525  26.593  31.188  1.00  0.00     0.029 A 
ATOM     56  C   UNL A   1      43.728  27.536  31.819  1.00  0.00     0.049 A 
ATOM     57  H   UNL A   1      41.936  28.423  31.149  1.00  0.00     0.167 HD
ATOM     58  C   UNL A   1      43.082  29.050  33.679  1.00  0.00     0.074 A 
ATOM     59  C   UNL A   1      43.291  29.642  34.983  1.00  0.00     0.031 C 
ATOM     60  C   UNL A   1      43.926  28.155  33.108  1.00  0.00     0.034 A 
BRANCH  47  61
ATOM     61  C   UNL A   1      42.144  26.193  27.498  1.00  0.00     0.023 A 
ATOM     62  C   UNL A   1      41.623  24.888  27.453  1.00  0.00     0.031 A 
ATOM     63  C   UNL A   1      42.942  26.618  26.422  1.00  0.00     0.131 A 
ATOM     64  C   UNL A   1      41.984  24.025  26.407  1.00  0.00     0.055 A 
ATOM     65  C   UNL A   1      43.222  25.783  25.336  1.00  0.00     0.041 A 
ATOM     66  F   UNL A   1      43.484  27.846  26.414  1.00  0.00    -0.206 F 
ATOM     67  C   UNL A   1      42.757  24.472  25.335  1.00  0.00     0.022 A 
BRANCH  64  68
ATOM     68  S   UNL A   1      41.560  22.268  26.557  1.00  0.00     0.124 S 
ATOM     69  O   UNL A   1      40.156  22.271  26.155  1.00  0.00    -0.237 OA
ATOM     70  O   UNL A   1      42.489  21.639  25.624  1.00  0.00    -0.237 OA
ATOM     71  O   UNL A   1      41.798  21.976  27.968  1.00  0.00    -0.744 OA
ENDBRANCH  64  68
ENDBRANCH  47  61
BRANCH  48  72
ATOM     72  C   UNL A   1      39.881  32.123  35.265  1.00  0.00     0.023 A 
ATOM     73  C   UNL A   1      39.019  31.618  36.253  1.00  0.00     0.031 A 
ATOM     74  C   UNL A   1      40.355  33.438  35.417  1.00  0.00     0.131 A 
ATOM     75  C   UNL A   1      38.622  32.435  37.322  1.00  0.00     0.055 A 
ATOM     76  C   UNL A   1      39.997  34.231  36.509  1.00  0.00     0.041 A 
ATOM     77  F   UNL A   1      41.189  33.968  34.507  1.00  0.00    -0.206 F 
ATOM     78  C   UNL A   1      39.115  33.735  37.463  1.00  0.00     0.022 A 
BRANCH  75  79
ATOM     79  S   UNL A   1      37.384  31.802  38.485  1.00  0.00     0.124 S 
ATOM     80  O   UNL A   1      37.198  30.437  38.006  1.00  0.00    -0.237 OA
ATOM     81  O   UNL A   1      38.069  31.946  39.765  1.00  0.00    -0.237 OA
ATOM     82  O   UNL A   1      36.243  32.694  38.287  1.00  0.00    -0.744 OA
ENDBRANCH  75  79
ENDBRANCH  48  72
BRANCH  60  83
ATOM     83  C   UNL A   1      45.196  27.828  33.850  1.00  0.00     0.023 A 
ATOM     84  C   UNL A   1      45.260  26.794  34.798  1.00  0.00     0.031 A 
ATOM     85  C   UNL A   1      46.368  28.554  33.573  1.00  0.00     0.131 A 
ATOM     86  C   UNL A   1      46.471  26.533  35.460  1.00  0.00     0.055 A 
ATOM     87  C   UNL A   1      47.578  28.260  34.200  1.00  0.00     0.041 A 
ATOM     88  F   UNL A   1      46.357  29.551  32.674  1.00  0.00    -0.206 F 
ATOM     89  C   UNL A   1      47.632  27.249  35.155  1.00  0.00     0.022 A 
BRANCH  86  90
ATOM     90  S   UNL A   1      46.501  25.271  36.761  1.00  0.00     0.124 S 
ATOM     91  O   UNL A   1      46.032  26.021  37.922  1.00  0.00    -0.237 OA
ATOM     92  O   UNL A   1      45.583  24.262  36.241  1.00  0.00    -0.237 OA
ATOM     93  O   UNL A   1      47.904  24.863  36.812  1.00  0.00    -0.744 OA
ENDBRANCH  86  90
ENDBRANCH  60  83
ENDBRANCH  34  35
ENDBRANCH  26  29
ENDBRANCH  24  25
ENDBRANCH  23  24
ENDBRANCH   1  23
TORSDOF 17
ENDMDL
MODEL 3
REMARK VINA RESULT:     -11.3      3.247      4.429
REMARK SMILES C[C@@H](Oc1cccc(Cl)c1)C(=O)N1CSC[C@@H]1C(=O)NCCCNC(=O)c1ccc(-c2c3nc(c(-c4cc(S(=O)(=O)[O-])ccc4F)c4ccc([nH]4)c(-c4cc(S(=O)(=O)[O-])ccc4F)c4nc(c(-c5cc(S(=O)(=O)[O-])ccc5F)c5ccc2[nH]5)C=C4)C=C3)cc1
REMARK SMILES IDX 21 1 20 2 18 3 19 4 17 6 13 7 14 8 15 9 16 10 11 11 12 12
REMARK SMILES IDX 2 13 1 14 3 15 4 16 5 17 10 18 6 19 8 20 7 21 9 22 22 23
REMARK SMILES IDX 23 24 24 25 25 26 26 28 27 29 28 30 89 31 29 32 88 33 30 34
REMARK SMILES IDX 31 35 32 36 82 37 33 38 87 39 81 40 83 41 34 42 86 43 80 44
REMARK SMILES IDX 79 45 35 47 67 48 47 49 66 50 48 51 51 52 65 53 84 54 49 55
REMARK SMILES IDX 50 56 64 58 85 59 52 60 36 61 37 62 45 63 38 64 44 65 46 66
REMARK SMILES IDX 43 67 39 68 40 69 41 70 42 71 68 72 69 73 77 74 70 75 76 76
REMARK SMILES IDX 78 77 75 78 71 79 72 80 73 81 74 82 53 83 54 84 62 85 55 86
REMARK SMILES IDX 61 87 63 88 60 89 56 90 57 91 58 92 59 93
REMARK H PARENT 20 5 24 27 83 46 51 57
REMARK Flexibility Score: inf
ROOT
ATOM      1  C   UNL A   1      33.475  26.217  25.592  1.00  0.00     0.117 C 
ENDROOT
BRANCH   1   2
ATOM      2  N   UNL A   1      32.859  25.088  26.261  1.00  0.00    -0.354 N 
ATOM      3  C   UNL A   1      33.224  23.780  26.357  1.00  0.00     0.243 C 
ATOM      4  O   UNL A   1      32.612  23.138  27.220  1.00  0.00    -0.273 OA
ATOM      5  H   UNL A   1      32.022  25.308  26.732  1.00  0.00     0.163 HD
BRANCH   3   6
ATOM      6  C   UNL A   1      34.248  23.116  25.385  1.00  0.00     0.185 C 
ATOM      7  N   UNL A   1      33.838  21.728  25.118  1.00  0.00    -0.317 N 
ATOM      8  C   UNL A   1      34.912  20.825  24.805  1.00  0.00     0.190 C 
ATOM      9  S   UNL A   1      36.437  21.527  25.418  1.00  0.00    -0.138 SA
ATOM     10  C   UNL A   1      35.648  23.043  25.995  1.00  0.00     0.106 C 
BRANCH   7  11
ATOM     11  C   UNL A   1      32.587  21.454  24.578  1.00  0.00     0.264 C 
ATOM     12  O   UNL A   1      31.781  20.709  25.136  1.00  0.00    -0.271 OA
BRANCH  11  13
ATOM     13  C   UNL A   1      32.279  22.146  23.230  1.00  0.00     0.259 C 
ATOM     14  C   UNL A   1      32.002  21.106  22.149  1.00  0.00     0.064 C 
BRANCH  13  15
ATOM     15  O   UNL A   1      31.138  23.005  23.408  1.00  0.00    -0.481 OA
BRANCH  15  16
ATOM     16  C   UNL A   1      31.385  24.320  23.144  1.00  0.00     0.121 A 
ATOM     17  C   UNL A   1      32.500  24.626  22.366  1.00  0.00     0.046 A 
ATOM     18  C   UNL A   1      30.472  25.309  23.504  1.00  0.00     0.067 A 
ATOM     19  C   UNL A   1      32.738  25.942  21.977  1.00  0.00     0.005 A 
ATOM     20  C   UNL A   1      30.711  26.623  23.104  1.00  0.00     0.044 A 
ATOM     21  C   UNL A   1      31.841  26.944  22.348  1.00  0.00     0.021 A 
ATOM     22  Cl  UNL A   1      29.595  27.868  23.517  1.00  0.00    -0.084 Cl
ENDBRANCH  15  16
ENDBRANCH  13  15
ENDBRANCH  11  13
ENDBRANCH   7  11
ENDBRANCH   3   6
ENDBRANCH   1   2
BRANCH   1  23
ATOM     23  C   UNL A   1      32.905  27.564  26.003  1.00  0.00     0.042 C 
BRANCH  23  24
ATOM     24  C   UNL A   1      33.581  28.772  25.372  1.00  0.00     0.118 C 
BRANCH  24  25
ATOM     25  N   UNL A   1      32.925  30.033  25.690  1.00  0.00    -0.352 N 
ATOM     26  C   UNL A   1      33.178  30.948  26.691  1.00  0.00     0.251 C 
ATOM     27  H   UNL A   1      32.181  30.272  25.093  1.00  0.00     0.163 HD
ATOM     28  O   UNL A   1      32.394  31.869  26.876  1.00  0.00    -0.269 OA
BRANCH  26  29
ATOM     29  C   UNL A   1      34.364  30.791  27.565  1.00  0.00     0.039 A 
ATOM     30  C   UNL A   1      34.500  29.630  28.334  1.00  0.00     0.014 A 
ATOM     31  C   UNL A   1      35.345  31.778  27.627  1.00  0.00     0.014 A 
ATOM     32  C   UNL A   1      35.665  29.422  29.083  1.00  0.00     0.010 A 
ATOM     33  C   UNL A   1      36.547  31.519  28.275  1.00  0.00     0.010 A 
ATOM     34  C   UNL A   1      36.722  30.340  29.017  1.00  0.00    -0.014 A 
BRANCH  34  35
ATOM     35  C   UNL A   1      38.010  30.142  29.737  1.00  0.00     0.031 A 
ATOM     36  C   UNL A   1      39.036  29.203  29.156  1.00  0.00     0.074 A 
ATOM     37  C   UNL A   1      38.211  30.696  30.949  1.00  0.00     0.049 A 
ATOM     38  N   UNL A   1      40.098  28.682  29.714  1.00  0.00    -0.248 NA
ATOM     39  C   UNL A   1      38.796  28.748  27.779  1.00  0.00     0.031 C 
ATOM     40  C   UNL A   1      37.287  31.603  31.635  1.00  0.00     0.029 A 
ATOM     41  N   UNL A   1      39.251  30.555  31.836  1.00  0.00    -0.354 N 
ATOM     42  C   UNL A   1      40.622  27.799  28.774  1.00  0.00     0.074 A 
ATOM     43  C   UNL A   1      39.726  27.817  27.637  1.00  0.00     0.031 C 
ATOM     44  C   UNL A   1      37.809  31.947  32.824  1.00  0.00     0.029 A 
ATOM     45  C   UNL A   1      39.072  31.243  33.015  1.00  0.00     0.049 A 
ATOM     46  H   UNL A   1      40.051  30.013  31.645  1.00  0.00     0.167 HD
ATOM     47  C   UNL A   1      41.755  27.057  28.844  1.00  0.00     0.034 A 
ATOM     48  C   UNL A   1      39.826  31.279  34.133  1.00  0.00     0.034 A 
ATOM     49  C   UNL A   1      42.663  27.094  29.963  1.00  0.00     0.049 A 
ATOM     50  C   UNL A   1      41.093  30.461  34.185  1.00  0.00     0.074 A 
ATOM     51  C   UNL A   1      43.867  26.432  30.121  1.00  0.00     0.029 A 
ATOM     52  N   UNL A   1      42.470  27.848  31.114  1.00  0.00    -0.354 N 
ATOM     53  N   UNL A   1      41.579  29.636  33.286  1.00  0.00    -0.248 NA
ATOM     54  C   UNL A   1      41.914  30.581  35.397  1.00  0.00     0.031 C 
ATOM     55  C   UNL A   1      44.379  26.747  31.384  1.00  0.00     0.029 A 
ATOM     56  C   UNL A   1      43.527  27.659  31.988  1.00  0.00     0.049 A 
ATOM     57  H   UNL A   1      41.695  28.431  31.284  1.00  0.00     0.167 HD
ATOM     58  C   UNL A   1      42.785  29.176  33.808  1.00  0.00     0.074 A 
ATOM     59  C   UNL A   1      42.950  29.808  35.099  1.00  0.00     0.031 C 
ATOM     60  C   UNL A   1      43.681  28.316  33.263  1.00  0.00     0.034 A 
BRANCH  47  61
ATOM     61  C   UNL A   1      42.055  26.135  27.687  1.00  0.00     0.023 A 
ATOM     62  C   UNL A   1      41.550  24.825  27.636  1.00  0.00     0.031 A 
ATOM     63  C   UNL A   1      42.895  26.555  26.640  1.00  0.00     0.131 A 
ATOM     64  C   UNL A   1      41.963  23.952  26.617  1.00  0.00     0.055 A 
ATOM     65  C   UNL A   1      43.228  25.711  25.578  1.00  0.00     0.041 A 
ATOM     66  F   UNL A   1      43.424  27.789  26.640  1.00  0.00    -0.206 F 
ATOM     67  C   UNL A   1      42.777  24.394  25.573  1.00  0.00     0.022 A 
BRANCH  64  68
ATOM     68  S   UNL A   1      41.551  22.193  26.771  1.00  0.00     0.124 S 
ATOM     69  O   UNL A   1      40.096  22.244  26.896  1.00  0.00    -0.237 OA
ATOM     70  O   UNL A   1      42.065  21.639  25.523  1.00  0.00    -0.237 OA
ATOM     71  O   UNL A   1      42.260  21.778  27.979  1.00  0.00    -0.744 OA
ENDBRANCH  64  68
ENDBRANCH  47  61
BRANCH  48  72
ATOM     72  C   UNL A   1      39.408  32.106  35.300  1.00  0.00     0.023 A 
ATOM     73  C   UNL A   1      38.692  31.536  36.366  1.00  0.00     0.031 A 
ATOM     74  C   UNL A   1      39.683  33.483  35.354  1.00  0.00     0.131 A 
ATOM     75  C   UNL A   1      38.235  32.347  37.416  1.00  0.00     0.055 A 
ATOM     76  C   UNL A   1      39.269  34.277  36.426  1.00  0.00     0.041 A 
ATOM     77  F   UNL A   1      40.372  34.078  34.366  1.00  0.00    -0.206 F 
ATOM     78  C   UNL A   1      38.529  33.712  37.459  1.00  0.00     0.022 A 
BRANCH  75  79
ATOM     79  S   UNL A   1      37.177  31.605  38.688  1.00  0.00     0.124 S 
ATOM     80  O   UNL A   1      37.029  30.241  38.192  1.00  0.00    -0.237 OA
ATOM     81  O   UNL A   1      37.989  31.768  39.889  1.00  0.00    -0.237 OA
ATOM     82  O   UNL A   1      35.965  32.421  38.642  1.00  0.00    -0.744 OA
ENDBRANCH  75  79
ENDBRANCH  48  72
BRANCH  60  83
ATOM     83  C   UNL A   1      44.960  28.076  34.022  1.00  0.00     0.023 A 
ATOM     84  C   UNL A   1      46.102  28.869  33.828  1.00  0.00     0.031 A 
ATOM     85  C   UNL A   1      45.015  27.049  34.981  1.00  0.00     0.131 A 
ATOM     86  C   UNL A   1      47.268  28.600  34.564  1.00  0.00     0.055 A 
ATOM     87  C   UNL A   1      46.160  26.816  35.742  1.00  0.00     0.041 A 
ATOM     88  F   UNL A   1      43.948  26.265  35.204  1.00  0.00    -0.206 F 
ATOM     89  C   UNL A   1      47.298  27.590  35.529  1.00  0.00     0.022 A 
BRANCH  86  90
ATOM     90  S   UNL A   1      48.764  29.561  34.213  1.00  0.00     0.124 S 
ATOM     91  O   UNL A   1      48.453  30.143  32.911  1.00  0.00    -0.237 OA
ATOM     92  O   UNL A   1      48.806  30.496  35.334  1.00  0.00    -0.237 OA
ATOM     93  O   UNL A   1      49.825  28.556  34.206  1.00  0.00    -0.744 OA
ENDBRANCH  86  90
ENDBRANCH  60  83
ENDBRANCH  34  35
ENDBRANCH  26  29
ENDBRANCH  24  25
ENDBRANCH  23  24
ENDBRANCH   1  23
TORSDOF 17
ENDMDL
