MODEL 1
REMARK VINA RESULT:     -12.9      0.000      0.000
REMARK SMILES COc1cccc([C@H](CC(=O)NCCCNC(=O)c2ccc(-c3c4nc(c(-c5cc(S(=O)(=O)[O-])ccc5F)c5ccc([nH]5)c(-c5cc(S(=O)(=O)[O-])ccc5F)c5nc(c(-c6cc(S(=O)(=O)[O-])ccc6F)c6ccc3[nH]6)C=C5)C=C4)cc2)NS(=O)(=O)c2ccc3c(c2)C[C@@H](C)N3C(C)=O)c1
REMARK SMILES IDX 13 1 12 2 10 3 11 4 9 6 8 7 7 8 3 9 4 10 99 11 5 12 6 13
REMARK SMILES IDX 2 14 1 15 82 16 83 18 84 19 85 20 86 21 87 22 91 23 88 24
REMARK SMILES IDX 90 25 89 26 92 27 95 28 93 29 94 30 96 31 97 32 98 33 14 34
REMARK SMILES IDX 15 35 16 36 17 37 18 39 19 40 20 41 81 42 21 43 80 44 22 45
REMARK SMILES IDX 23 46 24 47 74 48 25 49 79 50 73 51 75 52 26 53 78 54 72 55
REMARK SMILES IDX 71 56 27 58 59 59 39 60 58 61 40 62 43 63 57 64 76 65 41 66
REMARK SMILES IDX 42 67 56 69 77 70 44 71 28 72 29 73 37 74 30 75 36 76 38 77
REMARK SMILES IDX 35 78 31 79 32 80 33 81 34 82 60 83 61 84 69 85 62 86 68 87
REMARK SMILES IDX 70 88 67 89 63 90 64 91 65 92 66 93 45 94 46 95 54 96 47 97
REMARK SMILES IDX 53 98 55 99 52 100 48 101 49 102 50 103 51 104
REMARK H PARENT 12 5 82 17 16 38 75 57 43 68
REMARK Flexibility Score: inf
ROOT
ATOM      1  C   UNL A   1      31.389  30.870  26.320  1.00  0.00     0.117 C 
ENDROOT
BRANCH   1   2
ATOM      2  N   UNL A   1      32.601  30.152  25.955  1.00  0.00    -0.356 N 
ATOM      3  C   UNL A   1      32.790  28.866  25.554  1.00  0.00     0.221 C 
ATOM      4  O   UNL A   1      33.930  28.497  25.264  1.00  0.00    -0.275 OA
ATOM      5  H   UNL A   1      33.425  30.689  26.007  1.00  0.00     0.163 HD
BRANCH   3   6
ATOM      6  C   UNL A   1      31.616  27.931  25.394  1.00  0.00     0.124 C 
BRANCH   6   7
ATOM      7  C   UNL A   1      31.100  27.579  23.965  1.00  0.00     0.109 C 
BRANCH   7   8
ATOM      8  C   UNL A   1      29.947  28.417  23.434  1.00  0.00    -0.026 A 
ATOM      9  C   UNL A   1      29.061  30.433  22.351  1.00  0.00     0.119 A 
ATOM     10  C   UNL A   1      27.767  29.946  22.458  1.00  0.00     0.046 A 
ATOM     11  C   UNL A   1      30.117  29.694  22.885  1.00  0.00     0.051 A 
ATOM     12  C   UNL A   1      27.551  28.690  23.018  1.00  0.00     0.004 A 
ATOM     13  C   UNL A   1      28.631  27.919  23.463  1.00  0.00     0.005 A 
BRANCH   9  14
ATOM     14  O   UNL A   1      29.213  31.669  21.785  1.00  0.00    -0.497 OA
ATOM     15  C   UNL A   1      28.146  32.577  22.075  1.00  0.00     0.278 C 
ENDBRANCH   9  14
ENDBRANCH   7   8
BRANCH   7  16
ATOM     16  N   UNL A   1      32.321  27.444  23.134  1.00  0.00    -0.203 NA
ATOM     17  H   UNL A   1      33.075  27.424  23.820  1.00  0.00     0.142 HD
BRANCH  16  18
ATOM     18  S   UNL A   1      32.784  26.305  22.011  1.00  0.00     0.241 S 
ATOM     19  O   UNL A   1      31.713  25.912  21.131  1.00  0.00    -0.207 OA
ATOM     20  O   UNL A   1      33.979  26.920  21.461  1.00  0.00    -0.207 OA
BRANCH  18  21
ATOM     21  C   UNL A   1      33.320  24.848  22.844  1.00  0.00     0.082 A 
ATOM     22  C   UNL A   1      33.119  23.549  22.342  1.00  0.00     0.024 A 
ATOM     23  C   UNL A   1      33.991  25.061  24.050  1.00  0.00     0.027 A 
ATOM     24  C   UNL A   1      33.471  22.432  23.113  1.00  0.00     0.028 A 
ATOM     25  C   UNL A   1      34.316  23.960  24.798  1.00  0.00    -0.021 A 
ATOM     26  C   UNL A   1      34.009  22.665  24.363  1.00  0.00     0.047 A 
ATOM     27  C   UNL A   1      35.042  23.931  26.107  1.00  0.00     0.063 C 
ATOM     28  N   UNL A   1      34.387  21.769  25.379  1.00  0.00    -0.309 N 
ATOM     29  C   UNL A   1      34.535  22.580  26.619  1.00  0.00     0.092 C 
ATOM     30  C   UNL A   1      33.158  22.770  27.297  1.00  0.00     0.032 C 
BRANCH  28  31
ATOM     31  C   UNL A   1      34.895  20.518  25.105  1.00  0.00     0.224 C 
ATOM     32  C   UNL A   1      36.392  20.500  24.900  1.00  0.00     0.115 C 
ATOM     33  O   UNL A   1      34.214  19.523  24.865  1.00  0.00    -0.275 OA
ENDBRANCH  28  31
ENDBRANCH  18  21
ENDBRANCH  16  18
ENDBRANCH   7  16
ENDBRANCH   6   7
ENDBRANCH   3   6
ENDBRANCH   1   2
BRANCH   1  34
ATOM     34  C   UNL A   1      31.595  32.370  26.496  1.00  0.00     0.042 C 
BRANCH  34  35
ATOM     35  C   UNL A   1      32.761  32.772  27.399  1.00  0.00     0.118 C 
BRANCH  35  36
ATOM     36  N   UNL A   1      32.750  34.200  27.651  1.00  0.00    -0.352 N 
ATOM     37  C   UNL A   1      33.305  34.906  28.689  1.00  0.00     0.251 C 
ATOM     38  H   UNL A   1      32.276  34.743  26.980  1.00  0.00     0.163 HD
ATOM     39  O   UNL A   1      32.897  36.049  28.893  1.00  0.00    -0.269 OA
BRANCH  37  40
ATOM     40  C   UNL A   1      34.373  34.337  29.557  1.00  0.00     0.039 A 
ATOM     41  C   UNL A   1      35.686  34.349  29.072  1.00  0.00     0.014 A 
ATOM     42  C   UNL A   1      34.099  33.689  30.767  1.00  0.00     0.014 A 
ATOM     43  C   UNL A   1      36.711  33.722  29.789  1.00  0.00     0.010 A 
ATOM     44  C   UNL A   1      35.136  33.102  31.508  1.00  0.00     0.010 A 
ATOM     45  C   UNL A   1      36.451  33.092  31.016  1.00  0.00    -0.014 A 
BRANCH  45  46
ATOM     46  C   UNL A   1      37.554  32.399  31.746  1.00  0.00     0.031 A 
ATOM     47  C   UNL A   1      38.334  31.287  31.089  1.00  0.00     0.074 A 
ATOM     48  C   UNL A   1      37.886  32.794  32.992  1.00  0.00     0.049 A 
ATOM     49  N   UNL A   1      39.363  30.615  31.545  1.00  0.00    -0.248 NA
ATOM     50  C   UNL A   1      37.892  30.868  29.751  1.00  0.00     0.031 C 
ATOM     51  C   UNL A   1      37.197  33.836  33.755  1.00  0.00     0.029 A 
ATOM     52  N   UNL A   1      38.889  32.376  33.832  1.00  0.00    -0.354 N 
ATOM     53  C   UNL A   1      39.700  29.704  30.548  1.00  0.00     0.074 A 
ATOM     54  C   UNL A   1      38.725  29.870  29.489  1.00  0.00     0.031 C 
ATOM     55  C   UNL A   1      37.814  33.995  34.937  1.00  0.00     0.029 A 
ATOM     56  C   UNL A   1      38.922  33.047  35.033  1.00  0.00     0.049 A 
ATOM     57  H   UNL A   1      39.526  31.663  33.596  1.00  0.00     0.167 HD
ATOM     58  C   UNL A   1      40.736  28.828  30.505  1.00  0.00     0.034 A 
ATOM     59  C   UNL A   1      39.748  32.918  36.092  1.00  0.00     0.034 A 
ATOM     60  C   UNL A   1      41.705  28.660  31.563  1.00  0.00     0.049 A 
ATOM     61  C   UNL A   1      40.879  31.921  36.028  1.00  0.00     0.074 A 
ATOM     62  C   UNL A   1      42.798  27.809  31.606  1.00  0.00     0.029 A 
ATOM     63  N   UNL A   1      41.699  29.351  32.767  1.00  0.00    -0.354 N 
ATOM     64  N   UNL A   1      41.203  31.097  35.057  1.00  0.00    -0.248 NA
ATOM     65  C   UNL A   1      41.767  31.851  37.196  1.00  0.00     0.031 C 
ATOM     66  C   UNL A   1      43.418  27.947  32.853  1.00  0.00     0.029 A 
ATOM     67  C   UNL A   1      42.755  28.931  33.564  1.00  0.00     0.049 A 
ATOM     68  H   UNL A   1      41.041  30.038  33.018  1.00  0.00     0.167 HD
ATOM     69  C   UNL A   1      42.347  30.433  35.491  1.00  0.00     0.074 A 
ATOM     70  C   UNL A   1      42.672  30.971  36.795  1.00  0.00     0.031 C 
ATOM     71  C   UNL A   1      43.066  29.464  34.869  1.00  0.00     0.034 A 
BRANCH  58  72
ATOM     72  C   UNL A   1      40.868  27.969  29.269  1.00  0.00     0.023 A 
ATOM     73  C   UNL A   1      41.864  28.216  28.308  1.00  0.00     0.031 A 
ATOM     74  C   UNL A   1      39.996  26.889  29.052  1.00  0.00     0.131 A 
ATOM     75  C   UNL A   1      41.928  27.431  27.147  1.00  0.00     0.055 A 
ATOM     76  C   UNL A   1      40.110  26.066  27.928  1.00  0.00     0.041 A 
ATOM     77  F   UNL A   1      39.017  26.614  29.927  1.00  0.00    -0.206 F 
ATOM     78  C   UNL A   1      41.073  26.341  26.962  1.00  0.00     0.022 A 
BRANCH  75  79
ATOM     79  S   UNL A   1      43.076  27.917  25.830  1.00  0.00     0.124 S 
ATOM     80  O   UNL A   1      43.622  29.164  26.359  1.00  0.00    -0.237 OA
ATOM     81  O   UNL A   1      43.997  26.786  25.779  1.00  0.00    -0.237 OA
ATOM     82  O   UNL A   1      42.212  28.069  24.660  1.00  0.00    -0.744 OA
ENDBRANCH  75  79
ENDBRANCH  58  72
BRANCH  59  83
ATOM     83  C   UNL A   1      39.537  33.736  37.322  1.00  0.00     0.023 A 
ATOM     84  C   UNL A   1      38.845  33.220  38.430  1.00  0.00     0.031 A 
ATOM     85  C   UNL A   1      39.962  35.075  37.375  1.00  0.00     0.131 A 
ATOM     86  C   UNL A   1      38.544  34.054  39.517  1.00  0.00     0.055 A 
ATOM     87  C   UNL A   1      39.711  35.884  38.484  1.00  0.00     0.041 A 
ATOM     88  F   UNL A   1      40.629  35.618  36.345  1.00  0.00    -0.206 F 
ATOM     89  C   UNL A   1      38.982  35.380  39.556  1.00  0.00     0.022 A 
BRANCH  86  90
ATOM     90  S   UNL A   1      37.468  33.416  40.832  1.00  0.00     0.124 S 
ATOM     91  O   UNL A   1      36.415  32.761  40.065  1.00  0.00    -0.237 OA
ATOM     92  O   UNL A   1      38.375  32.535  41.561  1.00  0.00    -0.237 OA
ATOM     93  O   UNL A   1      37.060  34.621  41.551  1.00  0.00    -0.744 OA
ENDBRANCH  86  90
ENDBRANCH  59  83
BRANCH  71  94
ATOM     94  C   UNL A   1      44.295  28.957  35.586  1.00  0.00     0.023 A 
ATOM     95  C   UNL A   1      44.227  27.905  36.517  1.00  0.00     0.031 A 
ATOM     96  C   UNL A   1      45.546  29.559  35.361  1.00  0.00     0.131 A 
ATOM     97  C   UNL A   1      45.371  27.532  37.238  1.00  0.00     0.055 A 
ATOM     98  C   UNL A   1      46.694  29.144  36.038  1.00  0.00     0.041 A 
ATOM     99  F   UNL A   1      45.671  30.566  34.483  1.00  0.00    -0.206 F 
ATOM    100  C   UNL A   1      46.608  28.136  36.995  1.00  0.00     0.022 A 
BRANCH  97 101
ATOM    101  S   UNL A   1      45.203  26.316  38.574  1.00  0.00     0.124 S 
ATOM    102  O   UNL A   1      43.819  26.513  38.993  1.00  0.00    -0.237 OA
ATOM    103  O   UNL A   1      45.490  25.060  37.889  1.00  0.00    -0.237 OA
ATOM    104  O   UNL A   1      46.211  26.733  39.547  1.00  0.00    -0.744 OA
ENDBRANCH  97 101
ENDBRANCH  71  94
ENDBRANCH  45  46
ENDBRANCH  37  40
ENDBRANCH  35  36
ENDBRANCH  34  35
ENDBRANCH   1  34
TORSDOF 20
ENDMDL
MODEL 2
REMARK VINA RESULT:     -12.7      0.984      7.375
REMARK SMILES COc1cccc([C@H](CC(=O)NCCCNC(=O)c2ccc(-c3c4nc(c(-c5cc(S(=O)(=O)[O-])ccc5F)c5ccc([nH]5)c(-c5cc(S(=O)(=O)[O-])ccc5F)c5nc(c(-c6cc(S(=O)(=O)[O-])ccc6F)c6ccc3[nH]6)C=C5)C=C4)cc2)NS(=O)(=O)c2ccc3c(c2)C[C@@H](C)N3C(C)=O)c1
REMARK SMILES IDX 13 1 12 2 10 3 11 4 9 6 8 7 7 8 3 9 4 10 99 11 5 12 6 13
REMARK SMILES IDX 2 14 1 15 82 16 83 18 84 19 85 20 86 21 87 22 91 23 88 24
REMARK SMILES IDX 90 25 89 26 92 27 95 28 93 29 94 30 96 31 97 32 98 33 14 34
REMARK SMILES IDX 15 35 16 36 17 37 18 39 19 40 20 41 81 42 21 43 80 44 22 45
REMARK SMILES IDX 23 46 24 47 74 48 25 49 79 50 73 51 75 52 26 53 78 54 72 55
REMARK SMILES IDX 71 56 27 58 59 59 39 60 58 61 40 62 43 63 57 64 76 65 41 66
REMARK SMILES IDX 42 67 56 69 77 70 44 71 28 72 29 73 37 74 30 75 36 76 38 77
REMARK SMILES IDX 35 78 31 79 32 80 33 81 34 82 60 83 61 84 69 85 62 86 68 87
REMARK SMILES IDX 70 88 67 89 63 90 64 91 65 92 66 93 45 94 46 95 54 96 47 97
REMARK SMILES IDX 53 98 55 99 52 100 48 101 49 102 50 103 51 104
REMARK H PARENT 12 5 82 17 16 38 75 57 43 68
REMARK Flexibility Score: inf
ROOT
ATOM      1  C   UNL A   1      31.363  30.676  26.287  1.00  0.00     0.117 C 
ENDROOT
BRANCH   1   2
ATOM      2  N   UNL A   1      32.544  30.105  25.658  1.00  0.00    -0.356 N 
ATOM      3  C   UNL A   1      32.754  28.884  25.096  1.00  0.00     0.221 C 
ATOM      4  O   UNL A   1      33.852  28.646  24.589  1.00  0.00    -0.275 OA
ATOM      5  H   UNL A   1      33.324  30.705  25.634  1.00  0.00     0.163 HD
BRANCH   3   6
ATOM      6  C   UNL A   1      31.640  27.868  25.028  1.00  0.00     0.124 C 
BRANCH   6   7
ATOM      7  C   UNL A   1      30.942  27.581  23.662  1.00  0.00     0.109 C 
BRANCH   7   8
ATOM      8  C   UNL A   1      29.719  28.424  23.335  1.00  0.00    -0.026 A 
ATOM      9  C   UNL A   1      28.673  30.521  22.604  1.00  0.00     0.119 A 
ATOM     10  C   UNL A   1      27.412  29.961  22.736  1.00  0.00     0.046 A 
ATOM     11  C   UNL A   1      29.796  29.771  22.955  1.00  0.00     0.051 A 
ATOM     12  C   UNL A   1      27.289  28.632  23.133  1.00  0.00     0.004 A 
ATOM     13  C   UNL A   1      28.430  27.863  23.390  1.00  0.00     0.005 A 
BRANCH   9  14
ATOM     14  O   UNL A   1      28.733  31.827  22.203  1.00  0.00    -0.497 OA
ATOM     15  C   UNL A   1      28.165  32.066  20.912  1.00  0.00     0.278 C 
ENDBRANCH   9  14
ENDBRANCH   7   8
BRANCH   7  16
ATOM     16  N   UNL A   1      32.042  27.511  22.671  1.00  0.00    -0.203 NA
ATOM     17  H   UNL A   1      32.864  27.791  23.206  1.00  0.00     0.142 HD
BRANCH  16  18
ATOM     18  S   UNL A   1      32.604  26.268  21.716  1.00  0.00     0.241 S 
ATOM     19  O   UNL A   1      31.766  26.014  20.571  1.00  0.00    -0.207 OA
ATOM     20  O   UNL A   1      33.988  26.664  21.522  1.00  0.00    -0.207 OA
BRANCH  18  21
ATOM     21  C   UNL A   1      32.646  24.780  22.658  1.00  0.00     0.082 A 
ATOM     22  C   UNL A   1      32.456  23.502  22.100  1.00  0.00     0.024 A 
ATOM     23  C   UNL A   1      32.905  24.942  24.021  1.00  0.00     0.027 A 
ATOM     24  C   UNL A   1      32.389  22.373  22.929  1.00  0.00     0.028 A 
ATOM     25  C   UNL A   1      32.823  23.832  24.818  1.00  0.00    -0.021 A 
ATOM     26  C   UNL A   1      32.512  22.573  24.289  1.00  0.00     0.047 A 
ATOM     27  C   UNL A   1      33.069  23.750  26.294  1.00  0.00     0.063 C 
ATOM     28  N   UNL A   1      32.417  21.666  25.360  1.00  0.00    -0.309 N 
ATOM     29  C   UNL A   1      32.253  22.488  26.591  1.00  0.00     0.092 C 
ATOM     30  C   UNL A   1      30.766  22.869  26.780  1.00  0.00     0.032 C 
BRANCH  28  31
ATOM     31  C   UNL A   1      32.823  20.354  25.251  1.00  0.00     0.224 C 
ATOM     32  C   UNL A   1      34.298  20.194  24.965  1.00  0.00     0.115 C 
ATOM     33  O   UNL A   1      32.063  19.389  25.206  1.00  0.00    -0.275 OA
ENDBRANCH  28  31
ENDBRANCH  18  21
ENDBRANCH  16  18
ENDBRANCH   7  16
ENDBRANCH   6   7
ENDBRANCH   3   6
ENDBRANCH   1   2
BRANCH   1  34
ATOM     34  C   UNL A   1      31.451  32.182  26.503  1.00  0.00     0.042 C 
BRANCH  34  35
ATOM     35  C   UNL A   1      32.712  32.671  27.215  1.00  0.00     0.118 C 
BRANCH  35  36
ATOM     36  N   UNL A   1      32.571  34.056  27.623  1.00  0.00    -0.352 N 
ATOM     37  C   UNL A   1      33.123  34.709  28.696  1.00  0.00     0.251 C 
ATOM     38  H   UNL A   1      31.996  34.608  27.045  1.00  0.00     0.163 HD
ATOM     39  O   UNL A   1      32.614  35.772  29.049  1.00  0.00    -0.269 OA
BRANCH  37  40
ATOM     40  C   UNL A   1      34.304  34.176  29.430  1.00  0.00     0.039 A 
ATOM     41  C   UNL A   1      35.572  34.406  28.884  1.00  0.00     0.014 A 
ATOM     42  C   UNL A   1      34.187  33.361  30.562  1.00  0.00     0.014 A 
ATOM     43  C   UNL A   1      36.708  33.828  29.463  1.00  0.00     0.010 A 
ATOM     44  C   UNL A   1      35.331  32.821  31.169  1.00  0.00     0.010 A 
ATOM     45  C   UNL A   1      36.603  33.030  30.614  1.00  0.00    -0.014 A 
BRANCH  45  46
ATOM     46  C   UNL A   1      37.825  32.397  31.193  1.00  0.00     0.031 A 
ATOM     47  C   UNL A   1      38.411  32.896  32.490  1.00  0.00     0.074 A 
ATOM     48  C   UNL A   1      38.392  31.342  30.572  1.00  0.00     0.049 A 
ATOM     49  N   UNL A   1      39.429  32.431  33.173  1.00  0.00    -0.248 NA
ATOM     50  C   UNL A   1      37.780  34.080  33.092  1.00  0.00     0.031 C 
ATOM     51  C   UNL A   1      37.945  30.777  29.298  1.00  0.00     0.029 A 
ATOM     52  N   UNL A   1      39.457  30.552  30.930  1.00  0.00    -0.354 N 
ATOM     53  C   UNL A   1      39.552  33.253  34.288  1.00  0.00     0.074 A 
ATOM     54  C   UNL A   1      38.542  34.283  34.157  1.00  0.00     0.031 C 
ATOM     55  C   UNL A   1      38.711  29.715  28.997  1.00  0.00     0.029 A 
ATOM     56  C   UNL A   1      39.723  29.542  30.035  1.00  0.00     0.049 A 
ATOM     57  H   UNL A   1      39.980  30.696  31.752  1.00  0.00     0.167 HD
ATOM     58  C   UNL A   1      40.408  33.149  35.338  1.00  0.00     0.034 A 
ATOM     59  C   UNL A   1      40.672  28.583  30.046  1.00  0.00     0.034 A 
ATOM     60  C   UNL A   1      41.417  32.124  35.466  1.00  0.00     0.049 A 
ATOM     61  C   UNL A   1      41.626  28.502  31.213  1.00  0.00     0.074 A 
ATOM     62  C   UNL A   1      42.321  31.927  36.498  1.00  0.00     0.029 A 
ATOM     63  N   UNL A   1      41.662  31.124  34.535  1.00  0.00    -0.354 N 
ATOM     64  N   UNL A   1      41.698  29.268  32.278  1.00  0.00    -0.248 NA
ATOM     65  C   UNL A   1      42.614  27.415  31.187  1.00  0.00     0.031 C 
ATOM     66  C   UNL A   1      43.145  30.845  36.165  1.00  0.00     0.029 A 
ATOM     67  C   UNL A   1      42.713  30.323  34.958  1.00  0.00     0.049 A 
ATOM     68  H   UNL A   1      41.162  31.002  33.696  1.00  0.00     0.167 HD
ATOM     69  C   UNL A   1      42.722  28.735  33.057  1.00  0.00     0.074 A 
ATOM     70  C   UNL A   1      43.218  27.570  32.356  1.00  0.00     0.031 C 
ATOM     71  C   UNL A   1      43.210  29.169  34.247  1.00  0.00     0.034 A 
BRANCH  58  72
ATOM     72  C   UNL A   1      40.296  34.186  36.431  1.00  0.00     0.023 A 
ATOM     73  C   UNL A   1      39.836  33.849  37.716  1.00  0.00     0.031 A 
ATOM     74  C   UNL A   1      40.658  35.522  36.190  1.00  0.00     0.131 A 
ATOM     75  C   UNL A   1      39.696  34.845  38.694  1.00  0.00     0.055 A 
ATOM     76  C   UNL A   1      40.584  36.496  37.188  1.00  0.00     0.041 A 
ATOM     77  F   UNL A   1      41.090  35.905  34.978  1.00  0.00    -0.206 F 
ATOM     78  C   UNL A   1      40.091  36.163  38.446  1.00  0.00     0.022 A 
BRANCH  75  79
ATOM     79  S   UNL A   1      38.892  34.419  40.262  1.00  0.00     0.124 S 
ATOM     80  O   UNL A   1      39.743  33.335  40.745  1.00  0.00    -0.237 OA
ATOM     81  O   UNL A   1      38.966  35.671  41.007  1.00  0.00    -0.237 OA
ATOM     82  O   UNL A   1      37.546  34.013  39.859  1.00  0.00    -0.744 OA
ENDBRANCH  75  79
ENDBRANCH  58  72
BRANCH  59  83
ATOM     83  C   UNL A   1      40.794  27.623  28.910  1.00  0.00     0.023 A 
ATOM     84  C   UNL A   1      41.749  27.810  27.898  1.00  0.00     0.031 A 
ATOM     85  C   UNL A   1      39.901  26.545  28.783  1.00  0.00     0.131 A 
ATOM     86  C   UNL A   1      41.750  26.970  26.774  1.00  0.00     0.055 A 
ATOM     87  C   UNL A   1      39.945  25.676  27.691  1.00  0.00     0.041 A 
ATOM     88  F   UNL A   1      38.969  26.319  29.722  1.00  0.00    -0.206 F 
ATOM     89  C   UNL A   1      40.862  25.898  26.669  1.00  0.00     0.022 A 
BRANCH  86  90
ATOM     90  S   UNL A   1      42.856  27.369  25.391  1.00  0.00     0.124 S 
ATOM     91  O   UNL A   1      42.923  26.095  24.685  1.00  0.00    -0.237 OA
ATOM     92  O   UNL A   1      42.125  28.439  24.719  1.00  0.00    -0.237 OA
ATOM     93  O   UNL A   1      44.092  27.783  26.053  1.00  0.00    -0.744 OA
ENDBRANCH  86  90
ENDBRANCH  59  83
BRANCH  71  94
ATOM     94  C   UNL A   1      44.314  28.351  34.874  1.00  0.00     0.023 A 
ATOM     95  C   UNL A   1      44.060  27.442  35.917  1.00  0.00     0.031 A 
ATOM     96  C   UNL A   1      45.644  28.510  34.447  1.00  0.00     0.131 A 
ATOM     97  C   UNL A   1      45.126  26.778  36.542  1.00  0.00     0.055 A 
ATOM     98  C   UNL A   1      46.695  27.802  35.033  1.00  0.00     0.041 A 
ATOM     99  F   UNL A   1      45.946  29.362  33.455  1.00  0.00    -0.206 F 
ATOM    100  C   UNL A   1      46.441  26.942  36.099  1.00  0.00     0.022 A 
BRANCH  97 101
ATOM    101  S   UNL A   1      44.784  25.773  38.015  1.00  0.00     0.124 S 
ATOM    102  O   UNL A   1      44.524  24.459  37.434  1.00  0.00    -0.237 OA
ATOM    103  O   UNL A   1      46.025  25.902  38.773  1.00  0.00    -0.237 OA
ATOM    104  O   UNL A   1      43.623  26.427  38.614  1.00  0.00    -0.744 OA
ENDBRANCH  97 101
ENDBRANCH  71  94
ENDBRANCH  45  46
ENDBRANCH  37  40
ENDBRANCH  35  36
ENDBRANCH  34  35
ENDBRANCH   1  34
TORSDOF 20
ENDMDL
MODEL 3
REMARK VINA RESULT:     -11.8      2.191      7.215
REMARK SMILES COc1cccc([C@H](CC(=O)NCCCNC(=O)c2ccc(-c3c4nc(c(-c5cc(S(=O)(=O)[O-])ccc5F)c5ccc([nH]5)c(-c5cc(S(=O)(=O)[O-])ccc5F)c5nc(c(-c6cc(S(=O)(=O)[O-])ccc6F)c6ccc3[nH]6)C=C5)C=C4)cc2)NS(=O)(=O)c2ccc3c(c2)C[C@@H](C)N3C(C)=O)c1
REMARK SMILES IDX 13 1 12 2 10 3 11 4 9 6 8 7 7 8 3 9 4 10 99 11 5 12 6 13
REMARK SMILES IDX 2 14 1 15 82 16 83 18 84 19 85 20 86 21 87 22 91 23 88 24
REMARK SMILES IDX 90 25 89 26 92 27 95 28 93 29 94 30 96 31 97 32 98 33 14 34
REMARK SMILES IDX 15 35 16 36 17 37 18 39 19 40 20 41 81 42 21 43 80 44 22 45
REMARK SMILES IDX 23 46 24 47 74 48 25 49 79 50 73 51 75 52 26 53 78 54 72 55
REMARK SMILES IDX 71 56 27 58 59 59 39 60 58 61 40 62 43 63 57 64 76 65 41 66
REMARK SMILES IDX 42 67 56 69 77 70 44 71 28 72 29 73 37 74 30 75 36 76 38 77
REMARK SMILES IDX 35 78 31 79 32 80 33 81 34 82 60 83 61 84 69 85 62 86 68 87
REMARK SMILES IDX 70 88 67 89 63 90 64 91 65 92 66 93 45 94 46 95 54 96 47 97
REMARK SMILES IDX 53 98 55 99 52 100 48 101 49 102 50 103 51 104
REMARK H PARENT 12 5 82 17 16 38 75 57 43 68
REMARK Flexibility Score: inf
ROOT
ATOM      1  C   UNL A   1      32.112  30.355  27.229  1.00  0.00     0.117 C 
ENDROOT
BRANCH   1   2
ATOM      2  N   UNL A   1      33.088  29.661  26.402  1.00  0.00    -0.356 N 
ATOM      3  C   UNL A   1      32.966  28.560  25.612  1.00  0.00     0.221 C 
ATOM      4  O   UNL A   1      33.949  28.178  24.973  1.00  0.00    -0.275 OA
ATOM      5  H   UNL A   1      33.990  30.055  26.417  1.00  0.00     0.163 HD
BRANCH   3   6
ATOM      6  C   UNL A   1      31.635  27.867  25.460  1.00  0.00     0.124 C 
BRANCH   6   7
ATOM      7  C   UNL A   1      31.116  27.497  24.036  1.00  0.00     0.109 C 
BRANCH   7   8
ATOM      8  C   UNL A   1      29.978  28.344  23.487  1.00  0.00    -0.026 A 
ATOM      9  C   UNL A   1      29.116  30.398  22.456  1.00  0.00     0.119 A 
ATOM     10  C   UNL A   1      27.827  29.890  22.475  1.00  0.00     0.046 A 
ATOM     11  C   UNL A   1      30.156  29.649  23.008  1.00  0.00     0.051 A 
ATOM     12  C   UNL A   1      27.602  28.606  22.964  1.00  0.00     0.004 A 
ATOM     13  C   UNL A   1      28.670  27.829  23.426  1.00  0.00     0.005 A 
BRANCH   9  14
ATOM     14  O   UNL A   1      29.278  31.661  21.958  1.00  0.00    -0.497 OA
ATOM     15  C   UNL A   1      28.216  32.559  22.293  1.00  0.00     0.278 C 
ENDBRANCH   9  14
ENDBRANCH   7   8
BRANCH   7  16
ATOM     16  N   UNL A   1      32.336  27.326  23.211  1.00  0.00    -0.203 NA
ATOM     17  H   UNL A   1      33.085  27.276  23.901  1.00  0.00     0.142 HD
BRANCH  16  18
ATOM     18  S   UNL A   1      32.766  26.180  22.083  1.00  0.00     0.241 S 
ATOM     19  O   UNL A   1      31.727  25.920  21.118  1.00  0.00    -0.207 OA
ATOM     20  O   UNL A   1      34.050  26.690  21.637  1.00  0.00    -0.207 OA
BRANCH  18  21
ATOM     21  C   UNL A   1      33.099  24.654  22.897  1.00  0.00     0.082 A 
ATOM     22  C   UNL A   1      32.652  23.407  22.423  1.00  0.00     0.024 A 
ATOM     23  C   UNL A   1      33.868  24.751  24.059  1.00  0.00     0.027 A 
ATOM     24  C   UNL A   1      32.857  22.247  23.184  1.00  0.00     0.028 A 
ATOM     25  C   UNL A   1      34.048  23.613  24.798  1.00  0.00    -0.021 A 
ATOM     26  C   UNL A   1      33.502  22.388  24.397  1.00  0.00     0.047 A 
ATOM     27  C   UNL A   1      34.837  23.462  26.062  1.00  0.00     0.063 C 
ATOM     28  N   UNL A   1      33.785  21.441  25.399  1.00  0.00    -0.309 N 
ATOM     29  C   UNL A   1      34.142  22.217  26.618  1.00  0.00     0.092 C 
ATOM     30  C   UNL A   1      32.860  22.636  27.375  1.00  0.00     0.032 C 
BRANCH  28  31
ATOM     31  C   UNL A   1      34.058  20.122  25.108  1.00  0.00     0.224 C 
ATOM     32  C   UNL A   1      32.969  19.166  25.538  1.00  0.00     0.115 C 
ATOM     33  O   UNL A   1      35.140  19.705  24.704  1.00  0.00    -0.275 OA
ENDBRANCH  28  31
ENDBRANCH  18  21
ENDBRANCH  16  18
ENDBRANCH   7  16
ENDBRANCH   6   7
ENDBRANCH   3   6
ENDBRANCH   1   2
BRANCH   1  34
ATOM     34  C   UNL A   1      31.893  31.809  26.828  1.00  0.00     0.042 C 
BRANCH  34  35
ATOM     35  C   UNL A   1      33.130  32.704  26.897  1.00  0.00     0.118 C 
BRANCH  35  36
ATOM     36  N   UNL A   1      32.850  33.916  27.642  1.00  0.00    -0.352 N 
ATOM     37  C   UNL A   1      33.305  34.305  28.877  1.00  0.00     0.251 C 
ATOM     38  H   UNL A   1      32.246  34.554  27.196  1.00  0.00     0.163 HD
ATOM     39  O   UNL A   1      32.690  35.194  29.465  1.00  0.00    -0.269 OA
BRANCH  37  40
ATOM     40  C   UNL A   1      34.505  33.693  29.511  1.00  0.00     0.039 A 
ATOM     41  C   UNL A   1      35.765  34.115  29.071  1.00  0.00     0.014 A 
ATOM     42  C   UNL A   1      34.421  32.639  30.428  1.00  0.00     0.014 A 
ATOM     43  C   UNL A   1      36.925  33.492  29.544  1.00  0.00     0.010 A 
ATOM     44  C   UNL A   1      35.587  32.047  30.937  1.00  0.00     0.010 A 
ATOM     45  C   UNL A   1      36.852  32.451  30.484  1.00  0.00    -0.014 A 
BRANCH  45  46
ATOM     46  C   UNL A   1      38.103  31.778  30.946  1.00  0.00     0.031 A 
ATOM     47  C   UNL A   1      38.713  32.121  32.282  1.00  0.00     0.074 A 
ATOM     48  C   UNL A   1      38.675  30.827  30.181  1.00  0.00     0.049 A 
ATOM     49  N   UNL A   1      39.759  31.596  32.875  1.00  0.00    -0.248 NA
ATOM     50  C   UNL A   1      38.073  33.201  33.047  1.00  0.00     0.031 C 
ATOM     51  C   UNL A   1      38.205  30.419  28.856  1.00  0.00     0.029 A 
ATOM     52  N   UNL A   1      39.766  30.023  30.408  1.00  0.00    -0.354 N 
ATOM     53  C   UNL A   1      39.895  32.271  34.084  1.00  0.00     0.074 A 
ATOM     54  C   UNL A   1      38.860  33.285  34.111  1.00  0.00     0.031 C 
ATOM     55  C   UNL A   1      38.985  29.424  28.401  1.00  0.00     0.029 A 
ATOM     56  C   UNL A   1      40.029  29.143  29.384  1.00  0.00     0.049 A 
ATOM     57  H   UNL A   1      40.308  30.073  31.229  1.00  0.00     0.167 HD
ATOM     58  C   UNL A   1      40.781  32.054  35.090  1.00  0.00     0.034 A 
ATOM     59  C   UNL A   1      40.998  28.215  29.248  1.00  0.00     0.034 A 
ATOM     60  C   UNL A   1      41.814  31.046  35.060  1.00  0.00     0.049 A 
ATOM     61  C   UNL A   1      41.985  28.008  30.371  1.00  0.00     0.074 A 
ATOM     62  C   UNL A   1      42.750  30.740  36.036  1.00  0.00     0.029 A 
ATOM     63  N   UNL A   1      42.055  30.181  34.002  1.00  0.00    -0.354 N 
ATOM     64  N   UNL A   1      42.070  28.631  31.524  1.00  0.00    -0.248 NA
ATOM     65  C   UNL A   1      42.994  26.958  30.181  1.00  0.00     0.031 C 
ATOM     66  C   UNL A   1      43.587  29.730  35.546  1.00  0.00     0.029 A 
ATOM     67  C   UNL A   1      43.134  29.357  34.293  1.00  0.00     0.049 A 
ATOM     68  H   UNL A   1      41.535  30.155  33.167  1.00  0.00     0.167 HD
ATOM     69  C   UNL A   1      43.125  28.028  32.203  1.00  0.00     0.074 A 
ATOM     70  C   UNL A   1      43.626  26.976  31.345  1.00  0.00     0.031 C 
ATOM     71  C   UNL A   1      43.636  28.317  33.427  1.00  0.00     0.034 A 
BRANCH  58  72
ATOM     72  C   UNL A   1      40.676  32.938  36.311  1.00  0.00     0.023 A 
ATOM     73  C   UNL A   1      41.589  33.983  36.540  1.00  0.00     0.031 A 
ATOM     74  C   UNL A   1      39.651  32.741  37.251  1.00  0.00     0.131 A 
ATOM     75  C   UNL A   1      41.493  34.753  37.708  1.00  0.00     0.055 A 
ATOM     76  C   UNL A   1      39.518  33.557  38.378  1.00  0.00     0.041 A 
ATOM     77  F   UNL A   1      38.759  31.750  37.093  1.00  0.00    -0.206 F 
ATOM     78  C   UNL A   1      40.449  34.563  38.617  1.00  0.00     0.022 A 
BRANCH  75  79
ATOM     79  S   UNL A   1      42.815  35.939  38.079  1.00  0.00     0.124 S 
ATOM     80  O   UNL A   1      42.685  36.082  39.526  1.00  0.00    -0.237 OA
ATOM     81  O   UNL A   1      44.007  35.242  37.609  1.00  0.00    -0.237 OA
ATOM     82  O   UNL A   1      42.441  37.122  37.306  1.00  0.00    -0.744 OA
ENDBRANCH  75  79
ENDBRANCH  58  72
BRANCH  59  83
ATOM     83  C   UNL A   1      41.109  27.412  27.994  1.00  0.00     0.023 A 
ATOM     84  C   UNL A   1      40.748  26.056  27.963  1.00  0.00     0.031 A 
ATOM     85  C   UNL A   1      41.653  27.977  26.827  1.00  0.00     0.131 A 
ATOM     86  C   UNL A   1      40.990  25.294  26.810  1.00  0.00     0.055 A 
ATOM     87  C   UNL A   1      41.837  27.229  25.663  1.00  0.00     0.041 A 
ATOM     88  F   UNL A   1      42.014  29.270  26.802  1.00  0.00    -0.206 F 
ATOM     89  C   UNL A   1      41.523  25.874  25.656  1.00  0.00     0.022 A 
BRANCH  86  90
ATOM     90  S   UNL A   1      40.708  23.502  26.876  1.00  0.00     0.124 S 
ATOM     91  O   UNL A   1      41.090  23.190  28.249  1.00  0.00    -0.237 OA
ATOM     92  O   UNL A   1      39.285  23.410  26.568  1.00  0.00    -0.237 OA
ATOM     93  O   UNL A   1      41.602  22.980  25.845  1.00  0.00    -0.744 OA
ENDBRANCH  86  90
ENDBRANCH  59  83
BRANCH  71  94
ATOM     94  C   UNL A   1      44.774  27.452  33.916  1.00  0.00     0.023 A 
ATOM     95  C   UNL A   1      44.558  26.374  34.794  1.00  0.00     0.031 A 
ATOM     96  C   UNL A   1      46.095  27.734  33.528  1.00  0.00     0.131 A 
ATOM     97  C   UNL A   1      45.651  25.659  35.306  1.00  0.00     0.055 A 
ATOM     98  C   UNL A   1      47.175  26.982  33.995  1.00  0.00     0.041 A 
ATOM     99  F   UNL A   1      46.360  28.750  32.692  1.00  0.00    -0.206 F 
ATOM    100  C   UNL A   1      46.958  25.948  34.903  1.00  0.00     0.022 A 
BRANCH  97 101
ATOM    101  S   UNL A   1      45.353  24.412  36.590  1.00  0.00     0.124 S 
ATOM    102  O   UNL A   1      44.012  24.760  37.049  1.00  0.00    -0.237 OA
ATOM    103  O   UNL A   1      45.468  23.164  35.843  1.00  0.00    -0.237 OA
ATOM    104  O   UNL A   1      46.421  24.654  37.558  1.00  0.00    -0.744 OA
ENDBRANCH  97 101
ENDBRANCH  71  94
ENDBRANCH  45  46
ENDBRANCH  37  40
ENDBRANCH  35  36
ENDBRANCH  34  35
ENDBRANCH   1  34
TORSDOF 20
ENDMDL
