MODEL 1
REMARK VINA RESULT:     -12.9      0.000      0.000
REMARK SMILES COc1ccc2c(c1)c(CC(=O)NCCCNC(=O)c1ccc(-c3c4nc(c(-c5cc(S(=O)(=O)[O-])ccc5F)c5ccc([nH]5)c(-c5cc(S(=O)(=O)[O-])ccc5F)c5nc(c(-c6cc(S(=O)(=O)[O-])ccc6F)c6ccc3[nH]6)C=C5)C=C4)cc1)c(C)n2Cc1ccn(C(F)F)c(=O)c1
REMARK SMILES IDX 14 1 13 2 11 3 12 4 10 6 9 7 3 8 4 9 8 10 5 11 7 12 6 13
REMARK SMILES IDX 85 14 83 15 84 16 2 17 1 18 86 19 87 20 88 21 96 22 89 23
REMARK SMILES IDX 94 24 90 25 95 26 91 27 92 28 93 29 15 30 16 31 17 32 18 33
REMARK SMILES IDX 19 35 20 36 21 37 82 38 22 39 81 40 23 41 24 42 25 43 75 44
REMARK SMILES IDX 26 45 80 46 74 47 76 48 27 49 79 50 73 51 72 52 28 54 60 55
REMARK SMILES IDX 40 56 59 57 41 58 44 59 58 60 77 61 42 62 43 63 57 65 78 66
REMARK SMILES IDX 45 67 29 68 30 69 38 70 31 71 37 72 39 73 36 74 32 75 33 76
REMARK SMILES IDX 34 77 35 78 61 79 62 80 70 81 63 82 69 83 71 84 68 85 64 86
REMARK SMILES IDX 65 87 66 88 67 89 46 90 47 91 55 92 48 93 54 94 56 95 53 96
REMARK SMILES IDX 49 97 50 98 51 99 52 100
REMARK H PARENT 13 5 17 34 76 53 44 64
REMARK Flexibility Score: inf
ROOT
ATOM      1  C   UNL A   1      38.334  21.990  25.789  1.00  0.00     0.117 C 
ENDROOT
BRANCH   1   2
ATOM      2  N   UNL A   1      37.843  22.166  24.427  1.00  0.00    -0.356 N 
ATOM      3  C   UNL A   1      36.860  22.982  23.941  1.00  0.00     0.224 C 
ATOM      4  O   UNL A   1      36.675  23.001  22.719  1.00  0.00    -0.275 OA
ATOM      5  H   UNL A   1      38.290  21.608  23.751  1.00  0.00     0.163 HD
BRANCH   3   6
ATOM      6  C   UNL A   1      36.067  23.900  24.859  1.00  0.00     0.138 C 
BRANCH   6   7
ATOM      7  C   UNL A   1      34.597  23.618  24.853  1.00  0.00    -0.010 A 
ATOM      8  C   UNL A   1      32.394  26.096  22.978  1.00  0.00     0.119 A 
ATOM      9  C   UNL A   1      31.216  25.367  23.091  1.00  0.00     0.048 A 
ATOM     10  C   UNL A   1      33.589  25.580  23.478  1.00  0.00     0.057 A 
ATOM     11  C   UNL A   1      31.191  24.133  23.758  1.00  0.00     0.031 A 
ATOM     12  C   UNL A   1      33.583  24.362  24.189  1.00  0.00     0.007 A 
ATOM     13  C   UNL A   1      32.382  23.658  24.336  1.00  0.00     0.049 A 
ATOM     14  N   UNL A   1      32.669  22.521  25.084  1.00  0.00    -0.340 N 
ATOM     15  C   UNL A   1      33.954  22.637  25.591  1.00  0.00     0.020 A 
ATOM     16  C   UNL A   1      34.536  21.822  26.691  1.00  0.00     0.065 C 
BRANCH   8  17
ATOM     17  O   UNL A   1      32.483  27.301  22.332  1.00  0.00    -0.497 OA
ATOM     18  C   UNL A   1      33.825  27.703  22.068  1.00  0.00     0.278 C 
ENDBRANCH   8  17
BRANCH  14  19
ATOM     19  C   UNL A   1      31.721  21.427  25.353  1.00  0.00     0.158 C 
BRANCH  19  20
ATOM     20  C   UNL A   1      32.210  20.070  24.896  1.00  0.00    -0.021 A 
ATOM     21  C   UNL A   1      32.732  19.142  25.877  1.00  0.00     0.024 A 
ATOM     22  C   UNL A   1      32.123  19.653  23.621  1.00  0.00     0.077 A 
ATOM     23  C   UNL A   1      33.216  17.952  25.525  1.00  0.00     0.095 A 
ATOM     24  C   UNL A   1      32.641  18.317  23.208  1.00  0.00     0.255 A 
ATOM     25  N   UNL A   1      33.151  17.524  24.220  1.00  0.00    -0.258 N 
ATOM     26  O   UNL A   1      32.595  18.049  22.007  1.00  0.00    -0.269 OA
BRANCH  25  27
ATOM     27  C   UNL A   1      33.684  16.221  23.915  1.00  0.00     0.451 C 
ATOM     28  F   UNL A   1      34.912  16.037  24.420  1.00  0.00    -0.185 F 
ATOM     29  F   UNL A   1      32.847  15.271  24.401  1.00  0.00    -0.185 F 
ENDBRANCH  25  27
ENDBRANCH  19  20
ENDBRANCH  14  19
ENDBRANCH   6   7
ENDBRANCH   3   6
ENDBRANCH   1   2
BRANCH   1  30
ATOM     30  C   UNL A   1      39.434  20.928  25.914  1.00  0.00     0.042 C 
BRANCH  30  31
ATOM     31  C   UNL A   1      40.485  21.211  26.990  1.00  0.00     0.118 C 
BRANCH  31  32
ATOM     32  N   UNL A   1      41.724  21.779  26.489  1.00  0.00    -0.352 N 
ATOM     33  C   UNL A   1      42.441  22.931  26.671  1.00  0.00     0.251 C 
ATOM     34  H   UNL A   1      42.166  21.176  25.850  1.00  0.00     0.163 HD
ATOM     35  O   UNL A   1      43.560  22.926  26.145  1.00  0.00    -0.269 OA
BRANCH  33  36
ATOM     36  C   UNL A   1      41.983  24.174  27.353  1.00  0.00     0.039 A 
ATOM     37  C   UNL A   1      40.825  24.887  27.069  1.00  0.00     0.014 A 
ATOM     38  C   UNL A   1      42.861  24.695  28.333  1.00  0.00     0.014 A 
ATOM     39  C   UNL A   1      40.622  26.136  27.665  1.00  0.00     0.010 A 
ATOM     40  C   UNL A   1      42.670  25.950  28.912  1.00  0.00     0.010 A 
ATOM     41  C   UNL A   1      41.581  26.710  28.521  1.00  0.00    -0.014 A 
BRANCH  41  42
ATOM     42  C   UNL A   1      41.331  28.072  29.023  1.00  0.00     0.031 A 
ATOM     43  C   UNL A   1      42.272  29.067  28.450  1.00  0.00     0.074 A 
ATOM     44  C   UNL A   1      40.369  28.437  29.903  1.00  0.00     0.049 A 
ATOM     45  N   UNL A   1      43.218  29.706  29.052  1.00  0.00    -0.248 NA
ATOM     46  C   UNL A   1      42.280  29.215  26.987  1.00  0.00     0.031 C 
ATOM     47  C   UNL A   1      39.226  27.634  30.351  1.00  0.00     0.029 A 
ATOM     48  N   UNL A   1      40.170  29.629  30.558  1.00  0.00    -0.354 N 
ATOM     49  C   UNL A   1      43.823  30.492  28.075  1.00  0.00     0.074 A 
ATOM     50  C   UNL A   1      43.334  30.011  26.812  1.00  0.00     0.031 C 
ATOM     51  C   UNL A   1      38.350  28.423  31.015  1.00  0.00     0.029 A 
ATOM     52  C   UNL A   1      38.920  29.753  31.158  1.00  0.00     0.049 A 
ATOM     53  H   UNL A   1      40.855  30.336  30.599  1.00  0.00     0.167 HD
ATOM     54  C   UNL A   1      44.474  31.641  28.409  1.00  0.00     0.034 A 
ATOM     55  C   UNL A   1      38.346  30.872  31.675  1.00  0.00     0.034 A 
ATOM     56  C   UNL A   1      44.765  31.670  29.817  1.00  0.00     0.049 A 
ATOM     57  C   UNL A   1      39.404  31.861  31.959  1.00  0.00     0.074 A 
ATOM     58  C   UNL A   1      45.641  31.025  30.659  1.00  0.00     0.029 A 
ATOM     59  N   UNL A   1      43.766  32.207  30.587  1.00  0.00    -0.354 N 
ATOM     60  N   UNL A   1      40.258  31.754  32.935  1.00  0.00    -0.248 NA
ATOM     61  C   UNL A   1      39.743  32.835  30.930  1.00  0.00     0.031 C 
ATOM     62  C   UNL A   1      45.005  30.998  31.931  1.00  0.00     0.029 A 
ATOM     63  C   UNL A   1      43.789  31.681  31.849  1.00  0.00     0.049 A 
ATOM     64  H   UNL A   1      43.120  32.880  30.275  1.00  0.00     0.167 HD
ATOM     65  C   UNL A   1      41.429  32.254  32.398  1.00  0.00     0.074 A 
ATOM     66  C   UNL A   1      41.014  33.068  31.262  1.00  0.00     0.031 C 
ATOM     67  C   UNL A   1      42.632  31.702  32.725  1.00  0.00     0.034 A 
BRANCH  54  68
ATOM     68  C   UNL A   1      44.402  32.907  27.578  1.00  0.00     0.023 A 
ATOM     69  C   UNL A   1      43.650  34.033  27.956  1.00  0.00     0.031 A 
ATOM     70  C   UNL A   1      45.300  33.108  26.508  1.00  0.00     0.131 A 
ATOM     71  C   UNL A   1      43.790  35.271  27.315  1.00  0.00     0.055 A 
ATOM     72  C   UNL A   1      45.487  34.360  25.904  1.00  0.00     0.041 A 
ATOM     73  F   UNL A   1      46.075  32.110  26.054  1.00  0.00    -0.206 F 
ATOM     74  C   UNL A   1      44.732  35.452  26.311  1.00  0.00     0.022 A 
BRANCH  71  75
ATOM     75  S   UNL A   1      42.753  36.675  27.813  1.00  0.00     0.124 S 
ATOM     76  O   UNL A   1      43.611  37.364  28.770  1.00  0.00    -0.237 OA
ATOM     77  O   UNL A   1      42.551  37.355  26.537  1.00  0.00    -0.237 OA
ATOM     78  O   UNL A   1      41.560  36.042  28.371  1.00  0.00    -0.744 OA
ENDBRANCH  71  75
ENDBRANCH  54  68
BRANCH  55  79
ATOM     79  C   UNL A   1      36.928  31.296  31.542  1.00  0.00     0.023 A 
ATOM     80  C   UNL A   1      36.392  31.473  30.255  1.00  0.00     0.031 A 
ATOM     81  C   UNL A   1      36.211  31.855  32.618  1.00  0.00     0.131 A 
ATOM     82  C   UNL A   1      35.238  32.240  30.060  1.00  0.00     0.055 A 
ATOM     83  C   UNL A   1      35.041  32.605  32.422  1.00  0.00     0.041 A 
ATOM     84  F   UNL A   1      36.675  31.758  33.874  1.00  0.00    -0.206 F 
ATOM     85  C   UNL A   1      34.560  32.817  31.133  1.00  0.00     0.022 A 
BRANCH  82  86
ATOM     86  S   UNL A   1      34.670  32.596  28.376  1.00  0.00     0.124 S 
ATOM     87  O   UNL A   1      34.158  31.298  27.943  1.00  0.00    -0.237 OA
ATOM     88  O   UNL A   1      33.663  33.624  28.615  1.00  0.00    -0.237 OA
ATOM     89  O   UNL A   1      35.881  33.039  27.693  1.00  0.00    -0.744 OA
ENDBRANCH  82  86
ENDBRANCH  55  79
BRANCH  67  90
ATOM     90  C   UNL A   1      42.737  30.910  34.003  1.00  0.00     0.023 A 
ATOM     91  C   UNL A   1      42.453  29.536  33.900  1.00  0.00     0.031 A 
ATOM     92  C   UNL A   1      42.909  31.449  35.291  1.00  0.00     0.131 A 
ATOM     93  C   UNL A   1      42.274  28.761  35.047  1.00  0.00     0.055 A 
ATOM     94  C   UNL A   1      42.816  30.648  36.436  1.00  0.00     0.041 A 
ATOM     95  F   UNL A   1      43.098  32.760  35.492  1.00  0.00    -0.206 F 
ATOM     96  C   UNL A   1      42.473  29.303  36.318  1.00  0.00     0.022 A 
BRANCH  93  97
ATOM     97  S   UNL A   1      41.604  27.085  34.913  1.00  0.00     0.124 S 
ATOM     98  O   UNL A   1      41.233  26.789  36.293  1.00  0.00    -0.237 OA
ATOM     99  O   UNL A   1      40.484  27.273  33.991  1.00  0.00    -0.237 OA
ATOM    100  O   UNL A   1      42.713  26.297  34.382  1.00  0.00    -0.744 OA
ENDBRANCH  93  97
ENDBRANCH  67  90
ENDBRANCH  41  42
ENDBRANCH  33  36
ENDBRANCH  31  32
ENDBRANCH  30  31
ENDBRANCH   1  30
TORSDOF 18
ENDMDL
MODEL 2
REMARK VINA RESULT:     -12.5      3.233      8.807
REMARK SMILES COc1ccc2c(c1)c(CC(=O)NCCCNC(=O)c1ccc(-c3c4nc(c(-c5cc(S(=O)(=O)[O-])ccc5F)c5ccc([nH]5)c(-c5cc(S(=O)(=O)[O-])ccc5F)c5nc(c(-c6cc(S(=O)(=O)[O-])ccc6F)c6ccc3[nH]6)C=C5)C=C4)cc1)c(C)n2Cc1ccn(C(F)F)c(=O)c1
REMARK SMILES IDX 14 1 13 2 11 3 12 4 10 6 9 7 3 8 4 9 8 10 5 11 7 12 6 13
REMARK SMILES IDX 85 14 83 15 84 16 2 17 1 18 86 19 87 20 88 21 96 22 89 23
REMARK SMILES IDX 94 24 90 25 95 26 91 27 92 28 93 29 15 30 16 31 17 32 18 33
REMARK SMILES IDX 19 35 20 36 21 37 82 38 22 39 81 40 23 41 24 42 25 43 75 44
REMARK SMILES IDX 26 45 80 46 74 47 76 48 27 49 79 50 73 51 72 52 28 54 60 55
REMARK SMILES IDX 40 56 59 57 41 58 44 59 58 60 77 61 42 62 43 63 57 65 78 66
REMARK SMILES IDX 45 67 29 68 30 69 38 70 31 71 37 72 39 73 36 74 32 75 33 76
REMARK SMILES IDX 34 77 35 78 61 79 62 80 70 81 63 82 69 83 71 84 68 85 64 86
REMARK SMILES IDX 65 87 66 88 67 89 46 90 47 91 55 92 48 93 54 94 56 95 53 96
REMARK SMILES IDX 49 97 50 98 51 99 52 100
REMARK H PARENT 13 5 17 34 76 53 44 64
REMARK Flexibility Score: inf
ROOT
ATOM      1  C   UNL A   1      32.919  30.499  26.577  1.00  0.00     0.117 C 
ENDROOT
BRANCH   1   2
ATOM      2  N   UNL A   1      31.899  29.693  27.238  1.00  0.00    -0.356 N 
ATOM      3  C   UNL A   1      31.819  28.339  27.412  1.00  0.00     0.224 C 
ATOM      4  O   UNL A   1      30.877  27.896  28.078  1.00  0.00    -0.275 OA
ATOM      5  H   UNL A   1      31.149  30.205  27.619  1.00  0.00     0.163 HD
BRANCH   3   6
ATOM      6  C   UNL A   1      32.894  27.406  26.875  1.00  0.00     0.138 C 
BRANCH   6   7
ATOM      7  C   UNL A   1      32.405  26.503  25.787  1.00  0.00    -0.010 A 
ATOM      8  C   UNL A   1      30.970  28.189  22.688  1.00  0.00     0.119 A 
ATOM      9  C   UNL A   1      30.826  27.028  21.936  1.00  0.00     0.048 A 
ATOM     10  C   UNL A   1      31.538  28.135  23.960  1.00  0.00     0.057 A 
ATOM     11  C   UNL A   1      31.191  25.779  22.460  1.00  0.00     0.031 A 
ATOM     12  C   UNL A   1      31.874  26.888  24.525  1.00  0.00     0.007 A 
ATOM     13  C   UNL A   1      31.684  25.720  23.777  1.00  0.00     0.049 A 
ATOM     14  N   UNL A   1      32.080  24.656  24.579  1.00  0.00    -0.340 N 
ATOM     15  C   UNL A   1      32.281  25.125  25.869  1.00  0.00     0.020 A 
ATOM     16  C   UNL A   1      32.388  24.289  27.095  1.00  0.00     0.065 C 
BRANCH   8  17
ATOM     17  O   UNL A   1      30.639  29.437  22.229  1.00  0.00    -0.497 OA
ATOM     18  C   UNL A   1      29.673  30.100  23.040  1.00  0.00     0.278 C 
ENDBRANCH   8  17
BRANCH  14  19
ATOM     19  C   UNL A   1      32.178  23.255  24.136  1.00  0.00     0.158 C 
BRANCH  19  20
ATOM     20  C   UNL A   1      33.584  22.698  24.184  1.00  0.00    -0.021 A 
ATOM     21  C   UNL A   1      33.868  21.578  25.055  1.00  0.00     0.024 A 
ATOM     22  C   UNL A   1      34.578  23.154  23.402  1.00  0.00     0.077 A 
ATOM     23  C   UNL A   1      35.096  21.076  25.169  1.00  0.00     0.095 A 
ATOM     24  C   UNL A   1      35.956  22.593  23.499  1.00  0.00     0.255 A 
ATOM     25  N   UNL A   1      36.125  21.548  24.389  1.00  0.00    -0.258 N 
ATOM     26  O   UNL A   1      36.823  23.124  22.804  1.00  0.00    -0.269 OA
BRANCH  25  27
ATOM     27  C   UNL A   1      37.424  20.950  24.558  1.00  0.00     0.451 C 
ATOM     28  F   UNL A   1      38.216  21.662  25.373  1.00  0.00    -0.185 F 
ATOM     29  F   UNL A   1      37.277  19.696  25.053  1.00  0.00    -0.185 F 
ENDBRANCH  25  27
ENDBRANCH  19  20
ENDBRANCH  14  19
ENDBRANCH   6   7
ENDBRANCH   3   6
ENDBRANCH   1   2
BRANCH   1  30
ATOM     30  C   UNL A   1      34.063  30.926  27.507  1.00  0.00     0.042 C 
BRANCH  30  31
ATOM     31  C   UNL A   1      34.138  32.428  27.790  1.00  0.00     0.118 C 
BRANCH  31  32
ATOM     32  N   UNL A   1      34.523  32.768  29.149  1.00  0.00    -0.352 N 
ATOM     33  C   UNL A   1      35.600  32.553  29.966  1.00  0.00     0.251 C 
ATOM     34  H   UNL A   1      33.825  33.291  29.602  1.00  0.00     0.163 HD
ATOM     35  O   UNL A   1      35.569  33.182  31.030  1.00  0.00    -0.269 OA
BRANCH  33  36
ATOM     36  C   UNL A   1      36.727  31.605  29.734  1.00  0.00     0.039 A 
ATOM     37  C   UNL A   1      36.622  30.230  29.569  1.00  0.00     0.014 A 
ATOM     38  C   UNL A   1      38.022  32.177  29.754  1.00  0.00     0.014 A 
ATOM     39  C   UNL A   1      37.783  29.450  29.546  1.00  0.00     0.010 A 
ATOM     40  C   UNL A   1      39.179  31.397  29.753  1.00  0.00     0.010 A 
ATOM     41  C   UNL A   1      39.058  30.018  29.724  1.00  0.00    -0.014 A 
BRANCH  41  42
ATOM     42  C   UNL A   1      40.216  29.109  29.787  1.00  0.00     0.031 A 
ATOM     43  C   UNL A   1      40.567  28.739  31.181  1.00  0.00     0.074 A 
ATOM     44  C   UNL A   1      40.917  28.632  28.732  1.00  0.00     0.049 A 
ATOM     45  N   UNL A   1      41.611  29.085  31.857  1.00  0.00    -0.248 NA
ATOM     46  C   UNL A   1      39.531  28.063  31.975  1.00  0.00     0.031 C 
ATOM     47  C   UNL A   1      40.544  28.698  27.315  1.00  0.00     0.029 A 
ATOM     48  N   UNL A   1      42.101  27.933  28.695  1.00  0.00    -0.354 N 
ATOM     49  C   UNL A   1      41.456  28.505  33.113  1.00  0.00     0.074 A 
ATOM     50  C   UNL A   1      40.092  28.056  33.183  1.00  0.00     0.031 C 
ATOM     51  C   UNL A   1      41.352  27.888  26.594  1.00  0.00     0.029 A 
ATOM     52  C   UNL A   1      42.382  27.344  27.465  1.00  0.00     0.049 A 
ATOM     53  H   UNL A   1      42.699  27.856  29.473  1.00  0.00     0.167 HD
ATOM     54  C   UNL A   1      42.540  28.212  33.884  1.00  0.00     0.034 A 
ATOM     55  C   UNL A   1      43.339  26.421  27.178  1.00  0.00     0.034 A 
ATOM     56  C   UNL A   1      43.702  28.918  33.417  1.00  0.00     0.049 A 
ATOM     57  C   UNL A   1      44.370  26.462  28.232  1.00  0.00     0.074 A 
ATOM     58  C   UNL A   1      44.141  30.222  33.437  1.00  0.00     0.029 A 
ATOM     59  N   UNL A   1      44.415  28.254  32.453  1.00  0.00    -0.354 N 
ATOM     60  N   UNL A   1      45.233  27.426  28.370  1.00  0.00    -0.248 NA
ATOM     61  C   UNL A   1      44.235  25.570  29.376  1.00  0.00     0.031 C 
ATOM     62  C   UNL A   1      44.975  30.366  32.294  1.00  0.00     0.029 A 
ATOM     63  C   UNL A   1      45.075  29.135  31.642  1.00  0.00     0.049 A 
ATOM     64  H   UNL A   1      44.448  27.275  32.356  1.00  0.00     0.167 HD
ATOM     65  C   UNL A   1      45.361  27.555  29.740  1.00  0.00     0.074 A 
ATOM     66  C   UNL A   1      44.891  26.288  30.289  1.00  0.00     0.031 C 
ATOM     67  C   UNL A   1      45.526  28.782  30.308  1.00  0.00     0.034 A 
BRANCH  54  68
ATOM     68  C   UNL A   1      42.649  26.950  34.718  1.00  0.00     0.023 A 
ATOM     69  C   UNL A   1      43.366  25.814  34.304  1.00  0.00     0.031 A 
ATOM     70  C   UNL A   1      42.247  26.954  36.071  1.00  0.00     0.131 A 
ATOM     71  C   UNL A   1      43.664  24.762  35.179  1.00  0.00     0.055 A 
ATOM     72  C   UNL A   1      42.597  25.932  36.965  1.00  0.00     0.041 A 
ATOM     73  F   UNL A   1      41.556  27.983  36.587  1.00  0.00    -0.206 F 
ATOM     74  C   UNL A   1      43.315  24.829  36.521  1.00  0.00     0.022 A 
BRANCH  71  75
ATOM     75  S   UNL A   1      44.548  23.298  34.572  1.00  0.00     0.124 S 
ATOM     76  O   UNL A   1      45.753  23.884  33.997  1.00  0.00    -0.237 OA
ATOM     77  O   UNL A   1      44.737  22.540  35.806  1.00  0.00    -0.237 OA
ATOM     78  O   UNL A   1      43.616  22.702  33.619  1.00  0.00    -0.744 OA
ENDBRANCH  71  75
ENDBRANCH  54  68
BRANCH  55  79
ATOM     79  C   UNL A   1      43.201  25.232  26.297  1.00  0.00     0.023 A 
ATOM     80  C   UNL A   1      42.351  24.187  26.696  1.00  0.00     0.031 A 
ATOM     81  C   UNL A   1      44.127  24.950  25.272  1.00  0.00     0.131 A 
ATOM     82  C   UNL A   1      42.484  22.906  26.147  1.00  0.00     0.055 A 
ATOM     83  C   UNL A   1      44.243  23.672  24.706  1.00  0.00     0.041 A 
ATOM     84  F   UNL A   1      44.995  25.887  24.857  1.00  0.00    -0.206 F 
ATOM     85  C   UNL A   1      43.430  22.636  25.158  1.00  0.00     0.022 A 
BRANCH  82  86
ATOM     86  S   UNL A   1      41.494  21.539  26.806  1.00  0.00     0.124 S 
ATOM     87  O   UNL A   1      40.412  22.243  27.488  1.00  0.00    -0.237 OA
ATOM     88  O   UNL A   1      41.118  20.833  25.586  1.00  0.00    -0.237 OA
ATOM     89  O   UNL A   1      42.423  20.838  27.687  1.00  0.00    -0.744 OA
ENDBRANCH  82  86
ENDBRANCH  55  79
BRANCH  67  90
ATOM     90  C   UNL A   1      46.055  29.906  29.454  1.00  0.00     0.023 A 
ATOM     91  C   UNL A   1      45.104  30.576  28.662  1.00  0.00     0.031 A 
ATOM     92  C   UNL A   1      47.412  30.211  29.246  1.00  0.00     0.131 A 
ATOM     93  C   UNL A   1      45.511  31.453  27.656  1.00  0.00     0.055 A 
ATOM     94  C   UNL A   1      47.810  31.159  28.296  1.00  0.00     0.041 A 
ATOM     95  F   UNL A   1      48.391  29.563  29.893  1.00  0.00    -0.206 F 
ATOM     96  C   UNL A   1      46.860  31.767  27.479  1.00  0.00     0.022 A 
BRANCH  93  97
ATOM     97  S   UNL A   1      44.312  32.064  26.445  1.00  0.00     0.124 S 
ATOM     98  O   UNL A   1      43.732  33.212  27.136  1.00  0.00    -0.237 OA
ATOM     99  O   UNL A   1      45.165  32.388  25.302  1.00  0.00    -0.237 OA
ATOM    100  O   UNL A   1      43.406  30.937  26.238  1.00  0.00    -0.744 OA
ENDBRANCH  93  97
ENDBRANCH  67  90
ENDBRANCH  41  42
ENDBRANCH  33  36
ENDBRANCH  31  32
ENDBRANCH  30  31
ENDBRANCH   1  30
TORSDOF 18
ENDMDL
MODEL 3
REMARK VINA RESULT:     -12.3      4.330      9.641
REMARK SMILES COc1ccc2c(c1)c(CC(=O)NCCCNC(=O)c1ccc(-c3c4nc(c(-c5cc(S(=O)(=O)[O-])ccc5F)c5ccc([nH]5)c(-c5cc(S(=O)(=O)[O-])ccc5F)c5nc(c(-c6cc(S(=O)(=O)[O-])ccc6F)c6ccc3[nH]6)C=C5)C=C4)cc1)c(C)n2Cc1ccn(C(F)F)c(=O)c1
REMARK SMILES IDX 14 1 13 2 11 3 12 4 10 6 9 7 3 8 4 9 8 10 5 11 7 12 6 13
REMARK SMILES IDX 85 14 83 15 84 16 2 17 1 18 86 19 87 20 88 21 96 22 89 23
REMARK SMILES IDX 94 24 90 25 95 26 91 27 92 28 93 29 15 30 16 31 17 32 18 33
REMARK SMILES IDX 19 35 20 36 21 37 82 38 22 39 81 40 23 41 24 42 25 43 75 44
REMARK SMILES IDX 26 45 80 46 74 47 76 48 27 49 79 50 73 51 72 52 28 54 60 55
REMARK SMILES IDX 40 56 59 57 41 58 44 59 58 60 77 61 42 62 43 63 57 65 78 66
REMARK SMILES IDX 45 67 29 68 30 69 38 70 31 71 37 72 39 73 36 74 32 75 33 76
REMARK SMILES IDX 34 77 35 78 61 79 62 80 70 81 63 82 69 83 71 84 68 85 64 86
REMARK SMILES IDX 65 87 66 88 67 89 46 90 47 91 55 92 48 93 54 94 56 95 53 96
REMARK SMILES IDX 49 97 50 98 51 99 52 100
REMARK H PARENT 13 5 17 34 76 53 44 64
REMARK Flexibility Score: inf
ROOT
ATOM      1  C   UNL A   1      34.259  30.542  26.977  1.00  0.00     0.117 C 
ENDROOT
BRANCH   1   2
ATOM      2  N   UNL A   1      33.125  29.803  27.520  1.00  0.00    -0.356 N 
ATOM      3  C   UNL A   1      32.792  28.483  27.400  1.00  0.00     0.224 C 
ATOM      4  O   UNL A   1      31.805  28.076  28.022  1.00  0.00    -0.275 OA
ATOM      5  H   UNL A   1      32.501  30.340  28.059  1.00  0.00     0.163 HD
BRANCH   3   6
ATOM      6  C   UNL A   1      33.649  27.520  26.592  1.00  0.00     0.138 C 
BRANCH   6   7
ATOM      7  C   UNL A   1      32.915  26.888  25.452  1.00  0.00    -0.010 A 
ATOM      8  C   UNL A   1      31.732  23.304  25.965  1.00  0.00     0.119 A 
ATOM      9  C   UNL A   1      30.996  23.217  24.788  1.00  0.00     0.048 A 
ATOM     10  C   UNL A   1      32.362  24.498  26.312  1.00  0.00     0.057 A 
ATOM     11  C   UNL A   1      30.923  24.301  23.901  1.00  0.00     0.031 A 
ATOM     12  C   UNL A   1      32.338  25.588  25.417  1.00  0.00     0.007 A 
ATOM     13  C   UNL A   1      31.632  25.475  24.214  1.00  0.00     0.049 A 
ATOM     14  N   UNL A   1      31.793  26.678  23.535  1.00  0.00    -0.340 N 
ATOM     15  C   UNL A   1      32.766  27.424  24.182  1.00  0.00     0.020 A 
ATOM     16  C   UNL A   1      33.475  28.607  23.624  1.00  0.00     0.065 C 
BRANCH   8  17
ATOM     17  O   UNL A   1      31.835  22.284  26.874  1.00  0.00    -0.497 OA
ATOM     18  C   UNL A   1      32.958  22.412  27.743  1.00  0.00     0.278 C 
ENDBRANCH   8  17
BRANCH  14  19
ATOM     19  C   UNL A   1      31.101  27.042  22.288  1.00  0.00     0.158 C 
BRANCH  19  20
ATOM     20  C   UNL A   1      30.116  28.180  22.448  1.00  0.00    -0.021 A 
ATOM     21  C   UNL A   1      30.530  29.523  22.106  1.00  0.00     0.024 A 
ATOM     22  C   UNL A   1      28.841  27.994  22.833  1.00  0.00     0.077 A 
ATOM     23  C   UNL A   1      29.719  30.567  22.268  1.00  0.00     0.095 A 
ATOM     24  C   UNL A   1      27.910  29.146  23.002  1.00  0.00     0.255 A 
ATOM     25  N   UNL A   1      28.419  30.391  22.681  1.00  0.00    -0.258 N 
ATOM     26  O   UNL A   1      26.786  28.894  23.437  1.00  0.00    -0.269 OA
BRANCH  25  27
ATOM     27  C   UNL A   1      27.597  31.565  22.824  1.00  0.00     0.451 C 
ATOM     28  F   UNL A   1      28.142  32.479  23.639  1.00  0.00    -0.185 F 
ATOM     29  F   UNL A   1      27.387  32.115  21.602  1.00  0.00    -0.185 F 
ENDBRANCH  25  27
ENDBRANCH  19  20
ENDBRANCH  14  19
ENDBRANCH   6   7
ENDBRANCH   3   6
ENDBRANCH   1   2
BRANCH   1  30
ATOM     30  C   UNL A   1      35.155  31.172  28.051  1.00  0.00     0.042 C 
BRANCH  30  31
ATOM     31  C   UNL A   1      34.603  32.454  28.680  1.00  0.00     0.118 C 
BRANCH  31  32
ATOM     32  N   UNL A   1      34.408  32.386  30.118  1.00  0.00    -0.352 N 
ATOM     33  C   UNL A   1      35.158  32.054  31.214  1.00  0.00     0.251 C 
ATOM     34  H   UNL A   1      33.494  32.648  30.372  1.00  0.00     0.163 HD
ATOM     35  O   UNL A   1      34.617  32.301  32.299  1.00  0.00    -0.269 OA
BRANCH  33  36
ATOM     36  C   UNL A   1      36.484  31.375  31.221  1.00  0.00     0.039 A 
ATOM     37  C   UNL A   1      37.726  31.998  31.223  1.00  0.00     0.014 A 
ATOM     38  C   UNL A   1      36.449  29.961  31.151  1.00  0.00     0.014 A 
ATOM     39  C   UNL A   1      38.881  31.231  31.041  1.00  0.00     0.010 A 
ATOM     40  C   UNL A   1      37.599  29.197  30.947  1.00  0.00     0.010 A 
ATOM     41  C   UNL A   1      38.818  29.842  30.817  1.00  0.00    -0.014 A 
BRANCH  41  42
ATOM     42  C   UNL A   1      40.076  29.131  30.534  1.00  0.00     0.031 A 
ATOM     43  C   UNL A   1      40.871  28.880  31.762  1.00  0.00     0.074 A 
ATOM     44  C   UNL A   1      40.510  28.725  29.317  1.00  0.00     0.049 A 
ATOM     45  N   UNL A   1      41.995  29.415  32.104  1.00  0.00    -0.248 NA
ATOM     46  C   UNL A   1      40.234  28.083  32.820  1.00  0.00     0.031 C 
ATOM     47  C   UNL A   1      39.737  28.671  28.072  1.00  0.00     0.029 A 
ATOM     48  N   UNL A   1      41.729  28.220  28.932  1.00  0.00    -0.354 N 
ATOM     49  C   UNL A   1      42.307  28.871  33.347  1.00  0.00     0.074 A 
ATOM     50  C   UNL A   1      41.114  28.217  33.812  1.00  0.00     0.031 C 
ATOM     51  C   UNL A   1      40.422  27.968  27.142  1.00  0.00     0.029 A 
ATOM     52  C   UNL A   1      41.734  27.631  27.670  1.00  0.00     0.049 A 
ATOM     53  H   UNL A   1      42.532  28.272  29.500  1.00  0.00     0.167 HD
ATOM     54  C   UNL A   1      43.601  28.786  33.766  1.00  0.00     0.034 A 
ATOM     55  C   UNL A   1      42.704  26.859  27.111  1.00  0.00     0.034 A 
ATOM     56  C   UNL A   1      44.446  29.645  32.984  1.00  0.00     0.049 A 
ATOM     57  C   UNL A   1      43.975  27.106  27.817  1.00  0.00     0.074 A 
ATOM     58  C   UNL A   1      44.654  31.002  32.882  1.00  0.00     0.029 A 
ATOM     59  N   UNL A   1      44.948  29.062  31.849  1.00  0.00    -0.354 N 
ATOM     60  N   UNL A   1      44.672  28.200  27.701  1.00  0.00    -0.248 NA
ATOM     61  C   UNL A   1      44.324  26.254  28.946  1.00  0.00     0.031 C 
ATOM     62  C   UNL A   1      45.086  31.227  31.545  1.00  0.00     0.029 A 
ATOM     63  C   UNL A   1      45.192  30.000  30.885  1.00  0.00     0.049 A 
ATOM     64  H   UNL A   1      45.111  28.097  31.742  1.00  0.00     0.167 HD
ATOM     65  C   UNL A   1      45.168  28.405  28.975  1.00  0.00     0.074 A 
ATOM     66  C   UNL A   1      45.091  27.104  29.631  1.00  0.00     0.031 C 
ATOM     67  C   UNL A   1      45.289  29.666  29.476  1.00  0.00     0.034 A 
BRANCH  54  68
ATOM     68  C   UNL A   1      44.150  27.594  34.525  1.00  0.00     0.023 A 
ATOM     69  C   UNL A   1      44.503  27.644  35.886  1.00  0.00     0.031 A 
ATOM     70  C   UNL A   1      44.089  26.302  33.961  1.00  0.00     0.131 A 
ATOM     71  C   UNL A   1      44.769  26.487  36.628  1.00  0.00     0.055 A 
ATOM     72  C   UNL A   1      44.296  25.138  34.717  1.00  0.00     0.041 A 
ATOM     73  F   UNL A   1      43.764  26.121  32.671  1.00  0.00    -0.206 F 
ATOM     74  C   UNL A   1      44.633  25.227  36.061  1.00  0.00     0.022 A 
BRANCH  71  75
ATOM     75  S   UNL A   1      45.270  26.619  38.368  1.00  0.00     0.124 S 
ATOM     76  O   UNL A   1      44.612  27.852  38.783  1.00  0.00    -0.237 OA
ATOM     77  O   UNL A   1      44.718  25.386  38.924  1.00  0.00    -0.237 OA
ATOM     78  O   UNL A   1      46.728  26.667  38.304  1.00  0.00    -0.744 OA
ENDBRANCH  71  75
ENDBRANCH  54  68
BRANCH  55  79
ATOM     79  C   UNL A   1      42.513  25.627  26.302  1.00  0.00     0.023 A 
ATOM     80  C   UNL A   1      41.598  24.658  26.748  1.00  0.00     0.031 A 
ATOM     81  C   UNL A   1      43.437  25.230  25.315  1.00  0.00     0.131 A 
ATOM     82  C   UNL A   1      41.667  23.340  26.282  1.00  0.00     0.055 A 
ATOM     83  C   UNL A   1      43.489  23.913  24.831  1.00  0.00     0.041 A 
ATOM     84  F   UNL A   1      44.364  26.088  24.861  1.00  0.00    -0.206 F 
ATOM     85  C   UNL A   1      42.611  22.955  25.331  1.00  0.00     0.022 A 
BRANCH  82  86
ATOM     86  S   UNL A   1      40.589  22.074  27.004  1.00  0.00     0.124 S 
ATOM     87  O   UNL A   1      41.098  21.980  28.370  1.00  0.00    -0.237 OA
ATOM     88  O   UNL A   1      39.274  22.691  26.862  1.00  0.00    -0.237 OA
ATOM     89  O   UNL A   1      40.836  20.900  26.173  1.00  0.00    -0.744 OA
ENDBRANCH  82  86
ENDBRANCH  55  79
BRANCH  67  90
ATOM     90  C   UNL A   1      45.356  30.822  28.511  1.00  0.00     0.023 A 
ATOM     91  C   UNL A   1      46.646  31.302  28.216  1.00  0.00     0.031 A 
ATOM     92  C   UNL A   1      44.258  31.562  28.038  1.00  0.00     0.131 A 
ATOM     93  C   UNL A   1      46.815  32.513  27.544  1.00  0.00     0.055 A 
ATOM     94  C   UNL A   1      44.434  32.730  27.286  1.00  0.00     0.041 A 
ATOM     95  F   UNL A   1      42.995  31.229  28.340  1.00  0.00    -0.206 F 
ATOM     96  C   UNL A   1      45.716  33.223  27.057  1.00  0.00     0.022 A 
BRANCH  93  97
ATOM     97  S   UNL A   1      48.454  33.275  27.446  1.00  0.00     0.124 S 
ATOM     98  O   UNL A   1      48.128  34.677  27.203  1.00  0.00    -0.237 OA
ATOM     99  O   UNL A   1      49.009  32.983  28.768  1.00  0.00    -0.237 OA
ATOM    100  O   UNL A   1      49.105  32.584  26.338  1.00  0.00    -0.744 OA
ENDBRANCH  93  97
ENDBRANCH  67  90
ENDBRANCH  41  42
ENDBRANCH  33  36
ENDBRANCH  31  32
ENDBRANCH  30  31
ENDBRANCH   1  30
TORSDOF 18
ENDMDL
