MODEL 1
REMARK VINA RESULT:     -10.0      0.000      0.000
REMARK SMILES CCC[N@H+](C)CC[C@@H]1CCC[C@]1([NH2+]C)C(=O)NCCCNC(=O)c1ccc(-c2c3nc(c(-c4cc(S(=O)(=O)[O-])ccc4F)c4ccc([nH]4)c(-c4cc(S(=O)(=O)[O-])ccc4F)c4nc(c(-c5cc(S(=O)(=O)[O-])ccc5F)c5ccc2[nH]5)C=C4)C=C3)cc1
REMARK SMILES IDX 18 1 17 2 15 3 16 4 12 6 8 7 9 8 10 9 11 10 7 11 6 12 4 13
REMARK SMILES IDX 5 14 3 16 2 17 1 18 13 19 14 20 19 23 20 24 21 25 22 26
REMARK SMILES IDX 23 28 24 29 25 30 86 31 26 32 85 33 27 34 28 35 29 36 79 37
REMARK SMILES IDX 30 38 84 39 78 40 80 41 31 42 83 43 77 44 76 45 32 47 64 48
REMARK SMILES IDX 44 49 63 50 45 51 48 52 62 53 81 54 46 55 47 56 61 58 82 59
REMARK SMILES IDX 49 60 33 61 34 62 42 63 35 64 41 65 43 66 40 67 36 68 37 69
REMARK SMILES IDX 38 70 39 71 65 72 66 73 74 74 67 75 73 76 75 77 72 78 68 79
REMARK SMILES IDX 69 80 70 81 71 82 50 83 51 84 59 85 52 86 58 87 60 88 57 89
REMARK SMILES IDX 53 90 54 91 55 92 56 93
REMARK H PARENT 17 5 4 15 13 21 13 22 21 27 80 46 48 57
REMARK Flexibility Score: inf
ROOT
ATOM      1  C   UNL A   1      36.256  23.194  23.608  1.00  0.00     0.118 C 
ENDROOT
BRANCH   1   2
ATOM      2  N   UNL A   1      35.132  22.897  22.729  1.00  0.00    -0.351 N 
ATOM      3  C   UNL A   1      33.789  23.219  22.816  1.00  0.00     0.281 C 
ATOM      4  O   UNL A   1      33.198  23.412  21.744  1.00  0.00    -0.268 OA
ATOM      5  H   UNL A   1      35.370  22.374  21.930  1.00  0.00     0.163 HD
BRANCH   3   6
ATOM      6  C   UNL A   1      33.031  23.400  24.189  1.00  0.00     0.178 C 
ATOM      7  C   UNL A   1      33.269  24.792  24.881  1.00  0.00     0.066 C 
ATOM      8  C   UNL A   1      34.051  24.588  26.179  1.00  0.00     0.011 C 
ATOM      9  C   UNL A   1      33.888  23.144  26.563  1.00  0.00     0.008 C 
ATOM     10  C   UNL A   1      33.485  22.389  25.303  1.00  0.00     0.079 C 
BRANCH   7  11
ATOM     11  C   UNL A   1      33.823  26.000  24.110  1.00  0.00     0.072 C 
BRANCH  11  12
ATOM     12  C   UNL A   1      33.736  27.497  24.544  1.00  0.00     0.262 C 
BRANCH  12  13
ATOM     13  N   UNL A   1      32.504  28.256  24.430  1.00  0.00    -0.337 N 
ATOM     14  C   UNL A   1      32.218  28.886  23.146  1.00  0.00     0.332 C 
ATOM     15  H   UNL A   1      32.836  28.980  25.067  1.00  0.00     0.347 HD
BRANCH  13  16
ATOM     16  C   UNL A   1      31.282  27.801  25.080  1.00  0.00     0.261 C 
BRANCH  16  17
ATOM     17  C   UNL A   1      31.304  27.292  26.531  1.00  0.00     0.058 C 
ATOM     18  C   UNL A   1      31.763  28.244  27.624  1.00  0.00     0.010 C 
ENDBRANCH  16  17
ENDBRANCH  13  16
ENDBRANCH  12  13
ENDBRANCH  11  12
ENDBRANCH   7  11
BRANCH   6  19
ATOM     19  N   UNL A   1      31.571  23.135  23.936  1.00  0.00    -0.336 N 
ATOM     20  C   UNL A   1      30.686  24.011  24.719  1.00  0.00     0.331 C 
ATOM     21  H   UNL A   1      31.369  22.166  24.180  1.00  0.00     0.346 HD
ATOM     22  H   UNL A   1      31.392  23.323  22.949  1.00  0.00     0.346 HD
ENDBRANCH   6  19
ENDBRANCH   3   6
ENDBRANCH   1   2
BRANCH   1  23
ATOM     23  C   UNL A   1      37.041  22.038  24.270  1.00  0.00     0.042 C 
BRANCH  23  24
ATOM     24  C   UNL A   1      37.786  22.224  25.591  1.00  0.00     0.118 C 
BRANCH  24  25
ATOM     25  N   UNL A   1      38.849  21.280  25.841  1.00  0.00    -0.352 N 
ATOM     26  C   UNL A   1      40.068  21.510  26.443  1.00  0.00     0.251 C 
ATOM     27  H   UNL A   1      38.684  20.357  25.543  1.00  0.00     0.163 HD
ATOM     28  O   UNL A   1      40.887  20.597  26.498  1.00  0.00    -0.269 OA
BRANCH  26  29
ATOM     29  C   UNL A   1      40.427  22.847  26.994  1.00  0.00     0.039 A 
ATOM     30  C   UNL A   1      40.063  23.980  26.259  1.00  0.00     0.014 A 
ATOM     31  C   UNL A   1      41.197  23.002  28.152  1.00  0.00     0.014 A 
ATOM     32  C   UNL A   1      40.453  25.258  26.683  1.00  0.00     0.010 A 
ATOM     33  C   UNL A   1      41.567  24.289  28.589  1.00  0.00     0.010 A 
ATOM     34  C   UNL A   1      41.208  25.434  27.856  1.00  0.00    -0.014 A 
BRANCH  34  35
ATOM     35  C   UNL A   1      41.615  26.812  28.277  1.00  0.00     0.031 A 
ATOM     36  C   UNL A   1      43.049  27.270  28.164  1.00  0.00     0.074 A 
ATOM     37  C   UNL A   1      40.686  27.679  28.733  1.00  0.00     0.049 A 
ATOM     38  N   UNL A   1      43.567  28.451  28.409  1.00  0.00    -0.248 NA
ATOM     39  C   UNL A   1      44.030  26.267  27.731  1.00  0.00     0.031 C 
ATOM     40  C   UNL A   1      39.267  27.368  28.913  1.00  0.00     0.029 A 
ATOM     41  N   UNL A   1      40.785  28.996  29.114  1.00  0.00    -0.354 N 
ATOM     42  C   UNL A   1      44.931  28.336  28.153  1.00  0.00     0.074 A 
ATOM     43  C   UNL A   1      45.164  26.952  27.791  1.00  0.00     0.031 C 
ATOM     44  C   UNL A   1      38.625  28.469  29.337  1.00  0.00     0.029 A 
ATOM     45  C   UNL A   1      39.585  29.558  29.493  1.00  0.00     0.049 A 
ATOM     46  H   UNL A   1      41.635  29.493  29.117  1.00  0.00     0.167 HD
ATOM     47  C   UNL A   1      45.895  29.293  28.193  1.00  0.00     0.034 A 
ATOM     48  C   UNL A   1      39.285  30.805  29.915  1.00  0.00     0.034 A 
ATOM     49  C   UNL A   1      45.659  30.671  28.564  1.00  0.00     0.049 A 
ATOM     50  C   UNL A   1      40.378  31.844  29.983  1.00  0.00     0.074 A 
ATOM     51  C   UNL A   1      46.562  31.720  28.611  1.00  0.00     0.029 A 
ATOM     52  N   UNL A   1      44.435  31.194  28.964  1.00  0.00    -0.354 N 
ATOM     53  N   UNL A   1      41.654  31.725  29.690  1.00  0.00    -0.248 NA
ATOM     54  C   UNL A   1      39.986  33.191  30.419  1.00  0.00     0.031 C 
ATOM     55  C   UNL A   1      45.904  32.853  29.107  1.00  0.00     0.029 A 
ATOM     56  C   UNL A   1      44.568  32.538  29.285  1.00  0.00     0.049 A 
ATOM     57  H   UNL A   1      43.594  30.683  29.012  1.00  0.00     0.167 HD
ATOM     58  C   UNL A   1      42.203  32.994  29.867  1.00  0.00     0.074 A 
ATOM     59  C   UNL A   1      41.118  33.862  30.275  1.00  0.00     0.031 C 
ATOM     60  C   UNL A   1      43.487  33.404  29.700  1.00  0.00     0.034 A 
BRANCH  47  61
ATOM     61  C   UNL A   1      47.311  28.872  27.853  1.00  0.00     0.023 A 
ATOM     62  C   UNL A   1      47.714  28.636  26.527  1.00  0.00     0.031 A 
ATOM     63  C   UNL A   1      48.268  28.694  28.868  1.00  0.00     0.131 A 
ATOM     64  C   UNL A   1      49.008  28.163  26.259  1.00  0.00     0.055 A 
ATOM     65  C   UNL A   1      49.580  28.304  28.588  1.00  0.00     0.041 A 
ATOM     66  F   UNL A   1      47.942  28.887  30.157  1.00  0.00    -0.206 F 
ATOM     67  C   UNL A   1      49.952  28.019  27.278  1.00  0.00     0.022 A 
BRANCH  64  68
ATOM     68  S   UNL A   1      49.394  27.595  24.579  1.00  0.00     0.124 S 
ATOM     69  O   UNL A   1      48.134  27.854  23.886  1.00  0.00    -0.237 OA
ATOM     70  O   UNL A   1      50.517  28.448  24.208  1.00  0.00    -0.237 OA
ATOM     71  O   UNL A   1      49.716  26.181  24.761  1.00  0.00    -0.744 OA
ENDBRANCH  64  68
ENDBRANCH  47  61
BRANCH  48  72
ATOM     72  C   UNL A   1      37.887  31.156  30.313  1.00  0.00     0.023 A 
ATOM     73  C   UNL A   1      36.951  31.614  29.371  1.00  0.00     0.031 A 
ATOM     74  C   UNL A   1      37.487  31.094  31.660  1.00  0.00     0.131 A 
ATOM     75  C   UNL A   1      35.683  32.042  29.794  1.00  0.00     0.055 A 
ATOM     76  C   UNL A   1      36.204  31.465  32.067  1.00  0.00     0.041 A 
ATOM     77  F   UNL A   1      38.340  30.665  32.603  1.00  0.00    -0.206 F 
ATOM     78  C   UNL A   1      35.298  31.956  31.133  1.00  0.00     0.022 A 
BRANCH  75  79
ATOM     79  S   UNL A   1      34.571  32.809  28.580  1.00  0.00     0.124 S 
ATOM     80  O   UNL A   1      33.813  33.734  29.414  1.00  0.00    -0.237 OA
ATOM     81  O   UNL A   1      35.516  33.412  27.645  1.00  0.00    -0.237 OA
ATOM     82  O   UNL A   1      33.812  31.677  28.053  1.00  0.00    -0.744 OA
ENDBRANCH  75  79
ENDBRANCH  48  72
BRANCH  60  83
ATOM     83  C   UNL A   1      43.774  34.876  29.902  1.00  0.00     0.023 A 
ATOM     84  C   UNL A   1      43.647  35.812  28.860  1.00  0.00     0.031 A 
ATOM     85  C   UNL A   1      44.218  35.343  31.153  1.00  0.00     0.131 A 
ATOM     86  C   UNL A   1      44.033  37.147  29.065  1.00  0.00     0.055 A 
ATOM     87  C   UNL A   1      44.533  36.686  31.371  1.00  0.00     0.041 A 
ATOM     88  F   UNL A   1      44.364  34.498  32.186  1.00  0.00    -0.206 F 
ATOM     89  C   UNL A   1      44.459  37.593  30.318  1.00  0.00     0.022 A 
BRANCH  86  90
ATOM     90  S   UNL A   1      44.095  38.266  27.636  1.00  0.00     0.124 S 
ATOM     91  O   UNL A   1      45.252  37.760  26.905  1.00  0.00    -0.237 OA
ATOM     92  O   UNL A   1      42.797  38.042  27.010  1.00  0.00    -0.237 OA
ATOM     93  O   UNL A   1      44.273  39.584  28.241  1.00  0.00    -0.744 OA
ENDBRANCH  86  90
ENDBRANCH  60  83
ENDBRANCH  34  35
ENDBRANCH  26  29
ENDBRANCH  24  25
ENDBRANCH  23  24
ENDBRANCH   1  23
TORSDOF 19
ENDMDL
MODEL 2
REMARK VINA RESULT:      -9.9      1.933      3.355
REMARK SMILES CCC[N@H+](C)CC[C@@H]1CCC[C@]1([NH2+]C)C(=O)NCCCNC(=O)c1ccc(-c2c3nc(c(-c4cc(S(=O)(=O)[O-])ccc4F)c4ccc([nH]4)c(-c4cc(S(=O)(=O)[O-])ccc4F)c4nc(c(-c5cc(S(=O)(=O)[O-])ccc5F)c5ccc2[nH]5)C=C4)C=C3)cc1
REMARK SMILES IDX 18 1 17 2 15 3 16 4 12 6 8 7 9 8 10 9 11 10 7 11 6 12 4 13
REMARK SMILES IDX 5 14 3 16 2 17 1 18 13 19 14 20 19 23 20 24 21 25 22 26
REMARK SMILES IDX 23 28 24 29 25 30 86 31 26 32 85 33 27 34 28 35 29 36 79 37
REMARK SMILES IDX 30 38 84 39 78 40 80 41 31 42 83 43 77 44 76 45 32 47 64 48
REMARK SMILES IDX 44 49 63 50 45 51 48 52 62 53 81 54 46 55 47 56 61 58 82 59
REMARK SMILES IDX 49 60 33 61 34 62 42 63 35 64 41 65 43 66 40 67 36 68 37 69
REMARK SMILES IDX 38 70 39 71 65 72 66 73 74 74 67 75 73 76 75 77 72 78 68 79
REMARK SMILES IDX 69 80 70 81 71 82 50 83 51 84 59 85 52 86 58 87 60 88 57 89
REMARK SMILES IDX 53 90 54 91 55 92 56 93
REMARK H PARENT 17 5 4 15 13 21 13 22 21 27 80 46 48 57
REMARK Flexibility Score: inf
ROOT
ATOM      1  C   UNL A   1      35.942  21.424  25.080  1.00  0.00     0.118 C 
ENDROOT
BRANCH   1   2
ATOM      2  N   UNL A   1      35.380  21.847  26.357  1.00  0.00    -0.351 N 
ATOM      3  C   UNL A   1      34.138  22.359  26.688  1.00  0.00     0.281 C 
ATOM      4  O   UNL A   1      33.700  22.060  27.808  1.00  0.00    -0.268 OA
ATOM      5  H   UNL A   1      35.994  21.752  27.120  1.00  0.00     0.163 HD
BRANCH   3   6
ATOM      6  C   UNL A   1      33.269  23.229  25.698  1.00  0.00     0.178 C 
ATOM      7  C   UNL A   1      32.456  22.392  24.644  1.00  0.00     0.066 C 
ATOM      8  C   UNL A   1      33.002  22.667  23.244  1.00  0.00     0.011 C 
ATOM      9  C   UNL A   1      33.763  23.960  23.319  1.00  0.00     0.008 C 
ATOM     10  C   UNL A   1      34.117  24.186  24.784  1.00  0.00     0.079 C 
BRANCH   7  11
ATOM     11  C   UNL A   1      32.192  20.889  24.828  1.00  0.00     0.072 C 
BRANCH  11  12
ATOM     12  C   UNL A   1      33.044  19.719  24.244  1.00  0.00     0.262 C 
BRANCH  12  13
ATOM     13  N   UNL A   1      32.484  18.396  24.032  1.00  0.00    -0.337 N 
ATOM     14  C   UNL A   1      32.632  17.806  22.707  1.00  0.00     0.332 C 
ATOM     15  H   UNL A   1      31.526  18.736  24.118  1.00  0.00     0.347 HD
BRANCH  13  16
ATOM     16  C   UNL A   1      32.552  17.380  25.075  1.00  0.00     0.261 C 
BRANCH  16  17
ATOM     17  C   UNL A   1      33.013  15.949  24.753  1.00  0.00     0.058 C 
ATOM     18  C   UNL A   1      32.494  14.811  25.617  1.00  0.00     0.010 C 
ENDBRANCH  16  17
ENDBRANCH  13  16
ENDBRANCH  12  13
ENDBRANCH  11  12
ENDBRANCH   7  11
BRANCH   6  19
ATOM     19  N   UNL A   1      32.379  24.109  26.534  1.00  0.00    -0.336 N 
ATOM     20  C   UNL A   1      31.103  24.423  25.874  1.00  0.00     0.331 C 
ATOM     21  H   UNL A   1      32.870  24.982  26.724  1.00  0.00     0.346 HD
ATOM     22  H   UNL A   1      32.163  23.600  27.391  1.00  0.00     0.346 HD
ENDBRANCH   6  19
ENDBRANCH   3   6
ENDBRANCH   1   2
BRANCH   1  23
ATOM     23  C   UNL A   1      37.360  20.809  25.029  1.00  0.00     0.042 C 
BRANCH  23  24
ATOM     24  C   UNL A   1      38.524  21.405  25.819  1.00  0.00     0.118 C 
BRANCH  24  25
ATOM     25  N   UNL A   1      39.669  20.541  25.981  1.00  0.00    -0.352 N 
ATOM     26  C   UNL A   1      40.915  20.861  26.479  1.00  0.00     0.251 C 
ATOM     27  H   UNL A   1      39.545  19.605  25.700  1.00  0.00     0.163 HD
ATOM     28  O   UNL A   1      41.798  20.008  26.467  1.00  0.00    -0.269 OA
BRANCH  26  29
ATOM     29  C   UNL A   1      41.222  22.224  26.995  1.00  0.00     0.039 A 
ATOM     30  C   UNL A   1      41.124  23.301  26.107  1.00  0.00     0.014 A 
ATOM     31  C   UNL A   1      41.701  22.448  28.291  1.00  0.00     0.014 A 
ATOM     32  C   UNL A   1      41.488  24.592  26.513  1.00  0.00     0.010 A 
ATOM     33  C   UNL A   1      42.043  23.751  28.703  1.00  0.00     0.010 A 
ATOM     34  C   UNL A   1      41.950  24.839  27.818  1.00  0.00    -0.014 A 
BRANCH  34  35
ATOM     35  C   UNL A   1      42.338  26.229  28.218  1.00  0.00     0.031 A 
ATOM     36  C   UNL A   1      43.744  26.738  28.003  1.00  0.00     0.074 A 
ATOM     37  C   UNL A   1      41.415  27.060  28.746  1.00  0.00     0.049 A 
ATOM     38  N   UNL A   1      44.237  27.936  28.217  1.00  0.00    -0.248 NA
ATOM     39  C   UNL A   1      44.725  25.772  27.493  1.00  0.00     0.031 C 
ATOM     40  C   UNL A   1      40.026  26.698  29.027  1.00  0.00     0.029 A 
ATOM     41  N   UNL A   1      41.496  28.379  29.127  1.00  0.00    -0.354 N 
ATOM     42  C   UNL A   1      45.581  27.870  27.861  1.00  0.00     0.074 A 
ATOM     43  C   UNL A   1      45.835  26.497  27.474  1.00  0.00     0.031 C 
ATOM     44  C   UNL A   1      39.378  27.774  29.503  1.00  0.00     0.029 A 
ATOM     45  C   UNL A   1      40.308  28.897  29.596  1.00  0.00     0.049 A 
ATOM     46  H   UNL A   1      42.326  28.906  29.071  1.00  0.00     0.167 HD
ATOM     47  C   UNL A   1      46.511  28.861  27.837  1.00  0.00     0.034 A 
ATOM     48  C   UNL A   1      39.996  30.130  30.047  1.00  0.00     0.034 A 
ATOM     49  C   UNL A   1      46.255  30.228  28.233  1.00  0.00     0.049 A 
ATOM     50  C   UNL A   1      41.054  31.208  30.042  1.00  0.00     0.074 A 
ATOM     51  C   UNL A   1      47.122  31.308  28.221  1.00  0.00     0.029 A 
ATOM     52  N   UNL A   1      45.045  30.705  28.725  1.00  0.00    -0.354 N 
ATOM     53  N   UNL A   1      42.308  31.135  29.656  1.00  0.00    -0.248 NA
ATOM     54  C   UNL A   1      40.648  32.538  30.515  1.00  0.00     0.031 C 
ATOM     55  C   UNL A   1      46.463  32.415  28.772  1.00  0.00     0.029 A 
ATOM     56  C   UNL A   1      45.155  32.052  29.045  1.00  0.00     0.049 A 
ATOM     57  H   UNL A   1      44.229  30.165  28.831  1.00  0.00     0.167 HD
ATOM     58  C   UNL A   1      42.824  32.422  29.801  1.00  0.00     0.074 A 
ATOM     59  C   UNL A   1      41.743  33.249  30.292  1.00  0.00     0.031 C 
ATOM     60  C   UNL A   1      44.078  32.878  29.543  1.00  0.00     0.034 A 
BRANCH  47  61
ATOM     61  C   UNL A   1      47.912  28.492  27.392  1.00  0.00     0.023 A 
ATOM     62  C   UNL A   1      48.204  28.177  26.053  1.00  0.00     0.031 A 
ATOM     63  C   UNL A   1      48.969  28.443  28.319  1.00  0.00     0.131 A 
ATOM     64  C   UNL A   1      49.494  27.754  25.695  1.00  0.00     0.055 A 
ATOM     65  C   UNL A   1      50.270  28.104  27.941  1.00  0.00     0.041 A 
ATOM     66  F   UNL A   1      48.753  28.717  29.616  1.00  0.00    -0.206 F 
ATOM     67  C   UNL A   1      50.536  27.740  26.625  1.00  0.00     0.022 A 
BRANCH  64  68
ATOM     68  S   UNL A   1      49.756  27.082  24.030  1.00  0.00     0.124 S 
ATOM     69  O   UNL A   1      48.833  25.949  24.023  1.00  0.00    -0.237 OA
ATOM     70  O   UNL A   1      49.396  28.206  23.175  1.00  0.00    -0.237 OA
ATOM     71  O   UNL A   1      51.172  26.721  24.025  1.00  0.00    -0.744 OA
ENDBRANCH  64  68
ENDBRANCH  47  61
BRANCH  48  72
ATOM     72  C   UNL A   1      38.620  30.430  30.549  1.00  0.00     0.023 A 
ATOM     73  C   UNL A   1      37.639  30.981  29.708  1.00  0.00     0.031 A 
ATOM     74  C   UNL A   1      38.287  30.223  31.900  1.00  0.00     0.131 A 
ATOM     75  C   UNL A   1      36.393  31.355  30.236  1.00  0.00     0.055 A 
ATOM     76  C   UNL A   1      37.025  30.542  32.406  1.00  0.00     0.041 A 
ATOM     77  F   UNL A   1      39.185  29.700  32.749  1.00  0.00    -0.206 F 
ATOM     78  C   UNL A   1      36.075  31.125  31.575  1.00  0.00     0.022 A 
BRANCH  75  79
ATOM     79  S   UNL A   1      35.223  32.241  29.167  1.00  0.00     0.124 S 
ATOM     80  O   UNL A   1      36.104  33.170  28.469  1.00  0.00    -0.237 OA
ATOM     81  O   UNL A   1      34.666  31.156  28.365  1.00  0.00    -0.237 OA
ATOM     82  O   UNL A   1      34.294  32.853  30.114  1.00  0.00    -0.744 OA
ENDBRANCH  75  79
ENDBRANCH  48  72
BRANCH  60  83
ATOM     83  C   UNL A   1      44.326  34.358  29.733  1.00  0.00     0.023 A 
ATOM     84  C   UNL A   1      43.985  35.305  28.751  1.00  0.00     0.031 A 
ATOM     85  C   UNL A   1      44.952  34.824  30.904  1.00  0.00     0.131 A 
ATOM     86  C   UNL A   1      44.339  36.654  28.924  1.00  0.00     0.055 A 
ATOM     87  C   UNL A   1      45.237  36.176  31.102  1.00  0.00     0.041 A 
ATOM     88  F   UNL A   1      45.307  33.968  31.876  1.00  0.00    -0.206 F 
ATOM     89  C   UNL A   1      44.947  37.097  30.100  1.00  0.00     0.022 A 
BRANCH  86  90
ATOM     90  S   UNL A   1      44.110  37.801  27.535  1.00  0.00     0.124 S 
ATOM     91  O   UNL A   1      43.649  39.009  28.212  1.00  0.00    -0.237 OA
ATOM     92  O   UNL A   1      45.449  37.863  26.960  1.00  0.00    -0.237 OA
ATOM     93  O   UNL A   1      43.108  37.136  26.704  1.00  0.00    -0.744 OA
ENDBRANCH  86  90
ENDBRANCH  60  83
ENDBRANCH  34  35
ENDBRANCH  26  29
ENDBRANCH  24  25
ENDBRANCH  23  24
ENDBRANCH   1  23
TORSDOF 19
ENDMDL
MODEL 3
REMARK VINA RESULT:      -9.6      1.909      2.498
REMARK SMILES CCC[N@H+](C)CC[C@@H]1CCC[C@]1([NH2+]C)C(=O)NCCCNC(=O)c1ccc(-c2c3nc(c(-c4cc(S(=O)(=O)[O-])ccc4F)c4ccc([nH]4)c(-c4cc(S(=O)(=O)[O-])ccc4F)c4nc(c(-c5cc(S(=O)(=O)[O-])ccc5F)c5ccc2[nH]5)C=C4)C=C3)cc1
REMARK SMILES IDX 18 1 17 2 15 3 16 4 12 6 8 7 9 8 10 9 11 10 7 11 6 12 4 13
REMARK SMILES IDX 5 14 3 16 2 17 1 18 13 19 14 20 19 23 20 24 21 25 22 26
REMARK SMILES IDX 23 28 24 29 25 30 86 31 26 32 85 33 27 34 28 35 29 36 79 37
REMARK SMILES IDX 30 38 84 39 78 40 80 41 31 42 83 43 77 44 76 45 32 47 64 48
REMARK SMILES IDX 44 49 63 50 45 51 48 52 62 53 81 54 46 55 47 56 61 58 82 59
REMARK SMILES IDX 49 60 33 61 34 62 42 63 35 64 41 65 43 66 40 67 36 68 37 69
REMARK SMILES IDX 38 70 39 71 65 72 66 73 74 74 67 75 73 76 75 77 72 78 68 79
REMARK SMILES IDX 69 80 70 81 71 82 50 83 51 84 59 85 52 86 58 87 60 88 57 89
REMARK SMILES IDX 53 90 54 91 55 92 56 93
REMARK H PARENT 17 5 4 15 13 21 13 22 21 27 80 46 48 57
REMARK Flexibility Score: inf
ROOT
ATOM      1  C   UNL A   1      35.075  23.562  24.146  1.00  0.00     0.118 C 
ENDROOT
BRANCH   1   2
ATOM      2  N   UNL A   1      34.376  23.799  22.888  1.00  0.00    -0.351 N 
ATOM      3  C   UNL A   1      33.254  24.552  22.590  1.00  0.00     0.281 C 
ATOM      4  O   UNL A   1      33.231  25.084  21.471  1.00  0.00    -0.268 OA
ATOM      5  H   UNL A   1      34.774  23.342  22.113  1.00  0.00     0.163 HD
BRANCH   3   6
ATOM      6  C   UNL A   1      32.077  24.791  23.613  1.00  0.00     0.178 C 
ATOM      7  C   UNL A   1      32.510  25.516  24.940  1.00  0.00     0.066 C 
ATOM      8  C   UNL A   1      32.361  24.555  26.118  1.00  0.00     0.011 C 
ATOM      9  C   UNL A   1      31.423  23.466  25.676  1.00  0.00     0.008 C 
ATOM     10  C   UNL A   1      31.425  23.467  24.152  1.00  0.00     0.079 C 
BRANCH   7  11
ATOM     11  C   UNL A   1      33.833  26.291  25.049  1.00  0.00     0.072 C 
BRANCH  11  12
ATOM     12  C   UNL A   1      33.993  27.815  25.347  1.00  0.00     0.262 C 
BRANCH  12  13
ATOM     13  N   UNL A   1      33.900  28.345  26.695  1.00  0.00    -0.337 N 
ATOM     14  C   UNL A   1      34.832  29.403  27.069  1.00  0.00     0.332 C 
ATOM     15  H   UNL A   1      34.231  27.474  27.111  1.00  0.00     0.347 HD
BRANCH  13  16
ATOM     16  C   UNL A   1      32.605  28.528  27.339  1.00  0.00     0.261 C 
BRANCH  16  17
ATOM     17  C   UNL A   1      31.819  29.838  27.171  1.00  0.00     0.058 C 
ATOM     18  C   UNL A   1      31.641  30.400  25.769  1.00  0.00     0.010 C 
ENDBRANCH  16  17
ENDBRANCH  13  16
ENDBRANCH  12  13
ENDBRANCH  11  12
ENDBRANCH   7  11
BRANCH   6  19
ATOM     19  N   UNL A   1      30.992  25.540  22.886  1.00  0.00    -0.336 N 
ATOM     20  C   UNL A   1      30.363  26.582  23.711  1.00  0.00     0.331 C 
ATOM     21  H   UNL A   1      30.274  24.875  22.598  1.00  0.00     0.346 HD
ATOM     22  H   UNL A   1      31.424  26.002  22.085  1.00  0.00     0.346 HD
ENDBRANCH   6  19
ENDBRANCH   3   6
ENDBRANCH   1   2
BRANCH   1  23
ATOM     23  C   UNL A   1      35.397  22.115  24.586  1.00  0.00     0.042 C 
BRANCH  23  24
ATOM     24  C   UNL A   1      36.219  21.819  25.839  1.00  0.00     0.118 C 
BRANCH  24  25
ATOM     25  N   UNL A   1      37.177  20.746  25.712  1.00  0.00    -0.352 N 
ATOM     26  C   UNL A   1      38.549  20.810  25.837  1.00  0.00     0.251 C 
ATOM     27  H   UNL A   1      36.804  19.858  25.510  1.00  0.00     0.163 HD
ATOM     28  O   UNL A   1      39.214  19.802  25.615  1.00  0.00    -0.269 OA
BRANCH  26  29
ATOM     29  C   UNL A   1      39.242  22.078  26.200  1.00  0.00     0.039 A 
ATOM     30  C   UNL A   1      40.330  22.004  27.077  1.00  0.00     0.014 A 
ATOM     31  C   UNL A   1      38.783  23.332  25.783  1.00  0.00     0.014 A 
ATOM     32  C   UNL A   1      40.962  23.173  27.523  1.00  0.00     0.010 A 
ATOM     33  C   UNL A   1      39.436  24.503  26.215  1.00  0.00     0.010 A 
ATOM     34  C   UNL A   1      40.529  24.440  27.098  1.00  0.00    -0.014 A 
BRANCH  34  35
ATOM     35  C   UNL A   1      41.222  25.670  27.599  1.00  0.00     0.031 A 
ATOM     36  C   UNL A   1      42.656  25.962  27.228  1.00  0.00     0.074 A 
ATOM     37  C   UNL A   1      40.551  26.556  28.366  1.00  0.00     0.049 A 
ATOM     38  N   UNL A   1      43.390  27.014  27.508  1.00  0.00    -0.248 NA
ATOM     39  C   UNL A   1      43.360  24.932  26.454  1.00  0.00     0.031 C 
ATOM     40  C   UNL A   1      39.168  26.394  28.817  1.00  0.00     0.029 A 
ATOM     41  N   UNL A   1      40.929  27.770  28.889  1.00  0.00    -0.354 N 
ATOM     42  C   UNL A   1      44.638  26.778  26.938  1.00  0.00     0.074 A 
ATOM     43  C   UNL A   1      44.575  25.454  26.349  1.00  0.00     0.031 C 
ATOM     44  C   UNL A   1      38.805  27.480  29.520  1.00  0.00     0.029 A 
ATOM     45  C   UNL A   1      39.933  28.403  29.601  1.00  0.00     0.049 A 
ATOM     46  H   UNL A   1      41.828  28.152  28.767  1.00  0.00     0.167 HD
ATOM     47  C   UNL A   1      45.726  27.590  26.889  1.00  0.00     0.034 A 
ATOM     48  C   UNL A   1      39.923  29.589  30.245  1.00  0.00     0.034 A 
ATOM     49  C   UNL A   1      45.787  28.905  27.487  1.00  0.00     0.049 A 
ATOM     50  C   UNL A   1      41.154  30.462  30.205  1.00  0.00     0.074 A 
ATOM     51  C   UNL A   1      46.833  29.814  27.471  1.00  0.00     0.029 A 
ATOM     52  N   UNL A   1      44.766  29.500  28.219  1.00  0.00    -0.354 N 
ATOM     53  N   UNL A   1      42.309  30.239  29.619  1.00  0.00    -0.248 NA
ATOM     54  C   UNL A   1      41.073  31.756  30.897  1.00  0.00     0.031 C 
ATOM     55  C   UNL A   1      46.473  30.920  28.251  1.00  0.00     0.029 A 
ATOM     56  C   UNL A   1      45.169  30.746  28.681  1.00  0.00     0.049 A 
ATOM     57  H   UNL A   1      43.884  29.095  28.386  1.00  0.00     0.167 HD
ATOM     58  C   UNL A   1      43.072  31.384  29.838  1.00  0.00     0.074 A 
ATOM     59  C   UNL A   1      42.242  32.298  30.593  1.00  0.00     0.031 C 
ATOM     60  C   UNL A   1      44.343  31.656  29.442  1.00  0.00     0.034 A 
BRANCH  47  61
ATOM     61  C   UNL A   1      46.960  27.062  26.185  1.00  0.00     0.023 A 
ATOM     62  C   UNL A   1      47.964  26.362  26.876  1.00  0.00     0.031 A 
ATOM     63  C   UNL A   1      47.141  27.270  24.805  1.00  0.00     0.131 A 
ATOM     64  C   UNL A   1      49.133  25.966  26.209  1.00  0.00     0.055 A 
ATOM     65  C   UNL A   1      48.269  26.800  24.128  1.00  0.00     0.041 A 
ATOM     66  F   UNL A   1      46.227  27.946  24.090  1.00  0.00    -0.206 F 
ATOM     67  C   UNL A   1      49.282  26.157  24.833  1.00  0.00     0.022 A 
BRANCH  64  68
ATOM     68  S   UNL A   1      50.521  25.331  27.190  1.00  0.00     0.124 S 
ATOM     69  O   UNL A   1      51.472  24.958  26.146  1.00  0.00    -0.237 OA
ATOM     70  O   UNL A   1      50.884  26.483  28.006  1.00  0.00    -0.237 OA
ATOM     71  O   UNL A   1      49.938  24.206  27.920  1.00  0.00    -0.744 OA
ENDBRANCH  64  68
ENDBRANCH  47  61
BRANCH  48  72
ATOM     72  C   UNL A   1      38.707  30.037  30.992  1.00  0.00     0.023 A 
ATOM     73  C   UNL A   1      37.763  30.896  30.405  1.00  0.00     0.031 A 
ATOM     74  C   UNL A   1      38.506  29.657  32.331  1.00  0.00     0.131 A 
ATOM     75  C   UNL A   1      36.692  31.388  31.169  1.00  0.00     0.055 A 
ATOM     76  C   UNL A   1      37.407  30.102  33.068  1.00  0.00     0.041 A 
ATOM     77  F   UNL A   1      39.377  28.840  32.943  1.00  0.00    -0.206 F 
ATOM     78  C   UNL A   1      36.500  30.985  32.491  1.00  0.00     0.022 A 
BRANCH  75  79
ATOM     79  S   UNL A   1      35.605  32.645  30.438  1.00  0.00     0.124 S 
ATOM     80  O   UNL A   1      36.367  33.866  30.668  1.00  0.00    -0.237 OA
ATOM     81  O   UNL A   1      35.512  32.195  29.053  1.00  0.00    -0.237 OA
ATOM     82  O   UNL A   1      34.374  32.521  31.216  1.00  0.00    -0.744 OA
ENDBRANCH  75  79
ENDBRANCH  48  72
BRANCH  60  83
ATOM     83  C   UNL A   1      44.890  33.028  29.772  1.00  0.00     0.023 A 
ATOM     84  C   UNL A   1      44.735  34.123  28.902  1.00  0.00     0.031 A 
ATOM     85  C   UNL A   1      45.611  33.234  30.963  1.00  0.00     0.131 A 
ATOM     86  C   UNL A   1      45.358  35.348  29.198  1.00  0.00     0.055 A 
ATOM     87  C   UNL A   1      46.167  34.473  31.286  1.00  0.00     0.041 A 
ATOM     88  F   UNL A   1      45.797  32.227  31.831  1.00  0.00    -0.206 F 
ATOM     89  C   UNL A   1      46.058  35.534  30.392  1.00  0.00     0.022 A 
BRANCH  86  90
ATOM     90  S   UNL A   1      45.349  36.656  27.940  1.00  0.00     0.124 S 
ATOM     91  O   UNL A   1      45.085  37.846  28.742  1.00  0.00    -0.237 OA
ATOM     92  O   UNL A   1      46.691  36.553  27.375  1.00  0.00    -0.237 OA
ATOM     93  O   UNL A   1      44.266  36.261  27.042  1.00  0.00    -0.744 OA
ENDBRANCH  86  90
ENDBRANCH  60  83
ENDBRANCH  34  35
ENDBRANCH  26  29
ENDBRANCH  24  25
ENDBRANCH  23  24
ENDBRANCH   1  23
TORSDOF 19
ENDMDL
