MODEL 1
REMARK VINA RESULT:     -12.2      0.000      0.000
REMARK SMILES C[C@H]1CCC[C@H](C)N1C(=O)[C@H]1[C@@H](C(=O)NCCCNC(=O)c2ccc(-c3c4nc(c(-c5cc(S(=O)(=O)[O-])ccc5F)c5ccc([nH]5)c(-c5cc(S(=O)(=O)[O-])ccc5F)c5nc(c(-c6cc(S(=O)(=O)[O-])ccc6F)c6ccc3[nH]6)C=C5)C=C4)cc2)[C@H]2CC[C@@H]1O2
REMARK SMILES IDX 18 1 17 2 16 3 15 4 13 5 14 6 12 8 11 9 88 10 85 11 87 12
REMARK SMILES IDX 89 13 86 14 9 15 1 16 2 17 3 18 8 19 4 20 6 21 5 22 7 23
REMARK SMILES IDX 10 24 19 25 20 26 21 28 22 29 23 30 84 31 24 32 83 33 25 34
REMARK SMILES IDX 26 35 27 36 77 37 28 38 82 39 76 40 78 41 29 42 81 43 75 44
REMARK SMILES IDX 74 45 30 47 62 48 42 49 61 50 43 51 46 52 60 53 79 54 44 55
REMARK SMILES IDX 45 56 59 58 80 59 47 60 31 61 32 62 40 63 33 64 39 65 41 66
REMARK SMILES IDX 38 67 34 68 35 69 36 70 37 71 63 72 64 73 72 74 65 75 71 76
REMARK SMILES IDX 73 77 70 78 66 79 67 80 68 81 69 82 48 83 49 84 57 85 50 86
REMARK SMILES IDX 56 87 58 88 55 89 51 90 52 91 53 92 54 93
REMARK H PARENT 15 7 19 27 78 46 46 57
REMARK Flexibility Score: inf
ROOT
ATOM      1  C   UNL A   1      32.319  29.308  25.693  1.00  0.00     0.118 C 
ENDROOT
BRANCH   1   2
ATOM      2  C   UNL A   1      33.268  29.139  24.510  1.00  0.00     0.042 C 
BRANCH   2   3
ATOM      3  C   UNL A   1      34.075  27.820  24.457  1.00  0.00     0.117 C 
BRANCH   3   4
ATOM      4  N   UNL A   1      33.652  26.808  25.438  1.00  0.00    -0.356 N 
ATOM      5  C   UNL A   1      33.681  25.430  25.440  1.00  0.00     0.226 C 
ATOM      6  O   UNL A   1      33.423  24.860  26.501  1.00  0.00    -0.275 OA
ATOM      7  H   UNL A   1      33.270  27.195  26.259  1.00  0.00     0.163 HD
BRANCH   5   8
ATOM      8  C   UNL A   1      34.063  24.644  24.198  1.00  0.00     0.122 C 
ATOM      9  C   UNL A   1      33.032  24.262  23.121  1.00  0.00     0.122 C 
ATOM     10  C   UNL A   1      33.559  22.879  22.660  1.00  0.00     0.132 C 
ATOM     11  C   UNL A   1      34.734  23.279  24.450  1.00  0.00     0.132 C 
ATOM     12  C   UNL A   1      33.168  21.694  23.513  1.00  0.00     0.035 C 
ATOM     13  O   UNL A   1      34.978  22.961  23.043  1.00  0.00    -0.373 OA
ATOM     14  C   UNL A   1      33.905  22.027  24.810  1.00  0.00     0.035 C 
BRANCH   9  15
ATOM     15  C   UNL A   1      31.566  24.368  23.539  1.00  0.00     0.229 C 
ATOM     16  C   UNL A   1      32.119  26.643  21.336  1.00  0.00     0.031 C 
ATOM     17  C   UNL A   1      31.332  26.782  22.649  1.00  0.00     0.082 C 
ATOM     18  C   UNL A   1      30.244  27.833  22.355  1.00  0.00     0.025 C 
ATOM     19  N   UNL A   1      30.848  25.561  23.340  1.00  0.00    -0.337 N 
ATOM     20  C   UNL A   1      29.293  28.078  23.503  1.00  0.00     0.004 C 
ATOM     21  C   UNL A   1      29.722  25.737  24.311  1.00  0.00     0.082 C 
ATOM     22  C   UNL A   1      28.664  26.754  23.876  1.00  0.00     0.025 C 
ATOM     23  C   UNL A   1      30.253  26.105  25.710  1.00  0.00     0.031 C 
ATOM     24  O   UNL A   1      31.032  23.425  24.130  1.00  0.00    -0.274 OA
ENDBRANCH   9  15
ENDBRANCH   5   8
ENDBRANCH   3   4
ENDBRANCH   2   3
ENDBRANCH   1   2
BRANCH   1  25
ATOM     25  N   UNL A   1      32.145  30.707  26.041  1.00  0.00    -0.352 N 
ATOM     26  C   UNL A   1      32.775  31.517  26.959  1.00  0.00     0.251 C 
ATOM     27  H   UNL A   1      31.444  31.164  25.523  1.00  0.00     0.163 HD
ATOM     28  O   UNL A   1      32.215  32.575  27.251  1.00  0.00    -0.269 OA
BRANCH  26  29
ATOM     29  C   UNL A   1      34.072  31.178  27.612  1.00  0.00     0.039 A 
ATOM     30  C   UNL A   1      34.283  29.848  28.008  1.00  0.00     0.014 A 
ATOM     31  C   UNL A   1      35.027  32.133  27.969  1.00  0.00     0.014 A 
ATOM     32  C   UNL A   1      35.430  29.483  28.729  1.00  0.00     0.010 A 
ATOM     33  C   UNL A   1      36.213  31.754  28.615  1.00  0.00     0.010 A 
ATOM     34  C   UNL A   1      36.419  30.430  29.031  1.00  0.00    -0.014 A 
BRANCH  34  35
ATOM     35  C   UNL A   1      37.624  30.062  29.837  1.00  0.00     0.031 A 
ATOM     36  C   UNL A   1      38.667  29.128  29.263  1.00  0.00     0.074 A 
ATOM     37  C   UNL A   1      37.787  30.548  31.085  1.00  0.00     0.049 A 
ATOM     38  N   UNL A   1      39.744  28.637  29.824  1.00  0.00    -0.248 NA
ATOM     39  C   UNL A   1      38.453  28.668  27.883  1.00  0.00     0.031 C 
ATOM     40  C   UNL A   1      36.856  31.447  31.768  1.00  0.00     0.029 A 
ATOM     41  N   UNL A   1      38.790  30.354  32.004  1.00  0.00    -0.354 N 
ATOM     42  C   UNL A   1      40.330  27.808  28.870  1.00  0.00     0.074 A 
ATOM     43  C   UNL A   1      39.446  27.808  27.724  1.00  0.00     0.031 C 
ATOM     44  C   UNL A   1      37.343  31.748  32.983  1.00  0.00     0.029 A 
ATOM     45  C   UNL A   1      38.596  31.026  33.191  1.00  0.00     0.049 A 
ATOM     46  H   UNL A   1      39.577  29.787  31.831  1.00  0.00     0.167 HD
ATOM     47  C   UNL A   1      41.507  27.133  28.927  1.00  0.00     0.034 A 
ATOM     48  C   UNL A   1      39.331  31.050  34.322  1.00  0.00     0.034 A 
ATOM     49  C   UNL A   1      42.391  27.148  30.068  1.00  0.00     0.049 A 
ATOM     50  C   UNL A   1      40.612  30.250  34.382  1.00  0.00     0.074 A 
ATOM     51  C   UNL A   1      43.614  26.516  30.222  1.00  0.00     0.029 A 
ATOM     52  N   UNL A   1      42.150  27.831  31.254  1.00  0.00    -0.354 N 
ATOM     53  N   UNL A   1      41.156  29.491  33.459  1.00  0.00    -0.248 NA
ATOM     54  C   UNL A   1      41.382  30.322  35.631  1.00  0.00     0.031 C 
ATOM     55  C   UNL A   1      44.080  26.766  31.517  1.00  0.00     0.029 A 
ATOM     56  C   UNL A   1      43.188  27.617  32.147  1.00  0.00     0.049 A 
ATOM     57  H   UNL A   1      41.356  28.387  31.432  1.00  0.00     0.167 HD
ATOM     58  C   UNL A   1      42.351  29.028  34.006  1.00  0.00     0.074 A 
ATOM     59  C   UNL A   1      42.455  29.607  35.329  1.00  0.00     0.031 C 
ATOM     60  C   UNL A   1      43.281  28.200  33.464  1.00  0.00     0.034 A 
BRANCH  47  61
ATOM     61  C   UNL A   1      41.895  26.309  27.721  1.00  0.00     0.023 A 
ATOM     62  C   UNL A   1      41.523  24.958  27.603  1.00  0.00     0.031 A 
ATOM     63  C   UNL A   1      42.662  26.869  26.683  1.00  0.00     0.131 A 
ATOM     64  C   UNL A   1      41.983  24.193  26.520  1.00  0.00     0.055 A 
ATOM     65  C   UNL A   1      43.043  26.126  25.563  1.00  0.00     0.041 A 
ATOM     66  F   UNL A   1      43.064  28.148  26.744  1.00  0.00    -0.206 F 
ATOM     67  C   UNL A   1      42.718  24.774  25.485  1.00  0.00     0.022 A 
BRANCH  64  68
ATOM     68  S   UNL A   1      41.735  22.397  26.558  1.00  0.00     0.124 S 
ATOM     69  O   UNL A   1      42.354  22.043  27.834  1.00  0.00    -0.237 OA
ATOM     70  O   UNL A   1      40.278  22.280  26.504  1.00  0.00    -0.237 OA
ATOM     71  O   UNL A   1      42.442  21.925  25.377  1.00  0.00    -0.744 OA
ENDBRANCH  64  68
ENDBRANCH  47  61
BRANCH  48  72
ATOM     72  C   UNL A   1      38.882  31.840  35.508  1.00  0.00     0.023 A 
ATOM     73  C   UNL A   1      38.313  31.209  36.625  1.00  0.00     0.031 A 
ATOM     74  C   UNL A   1      38.949  33.245  35.512  1.00  0.00     0.131 A 
ATOM     75  C   UNL A   1      37.776  31.979  37.670  1.00  0.00     0.055 A 
ATOM     76  C   UNL A   1      38.471  34.005  36.583  1.00  0.00     0.041 A 
ATOM     77  F   UNL A   1      39.483  33.904  34.471  1.00  0.00    -0.206 F 
ATOM     78  C   UNL A   1      37.865  33.372  37.663  1.00  0.00     0.022 A 
BRANCH  75  79
ATOM     79  S   UNL A   1      36.854  31.136  38.986  1.00  0.00     0.124 S 
ATOM     80  O   UNL A   1      37.764  31.269  40.117  1.00  0.00    -0.237 OA
ATOM     81  O   UNL A   1      35.630  31.927  39.050  1.00  0.00    -0.237 OA
ATOM     82  O   UNL A   1      36.691  29.779  38.469  1.00  0.00    -0.744 OA
ENDBRANCH  75  79
ENDBRANCH  48  72
BRANCH  60  83
ATOM     83  C   UNL A   1      44.517  27.921  34.286  1.00  0.00     0.023 A 
ATOM     84  C   UNL A   1      44.593  26.829  35.167  1.00  0.00     0.031 A 
ATOM     85  C   UNL A   1      45.633  28.774  34.193  1.00  0.00     0.131 A 
ATOM     86  C   UNL A   1      45.734  26.651  35.964  1.00  0.00     0.055 A 
ATOM     87  C   UNL A   1      46.790  28.555  34.942  1.00  0.00     0.041 A 
ATOM     88  F   UNL A   1      45.616  29.834  33.369  1.00  0.00    -0.206 F 
ATOM     89  C   UNL A   1      46.839  27.498  35.845  1.00  0.00     0.022 A 
BRANCH  86  90
ATOM     90  S   UNL A   1      45.718  25.353  37.231  1.00  0.00     0.124 S 
ATOM     91  O   UNL A   1      47.130  24.991  37.312  1.00  0.00    -0.237 OA
ATOM     92  O   UNL A   1      45.173  26.053  38.388  1.00  0.00    -0.237 OA
ATOM     93  O   UNL A   1      44.847  24.327  36.660  1.00  0.00    -0.744 OA
ENDBRANCH  86  90
ENDBRANCH  60  83
ENDBRANCH  34  35
ENDBRANCH  26  29
ENDBRANCH   1  25
TORSDOF 14
ENDMDL
MODEL 2
REMARK VINA RESULT:     -12.1      2.038      7.709
REMARK SMILES C[C@H]1CCC[C@H](C)N1C(=O)[C@H]1[C@@H](C(=O)NCCCNC(=O)c2ccc(-c3c4nc(c(-c5cc(S(=O)(=O)[O-])ccc5F)c5ccc([nH]5)c(-c5cc(S(=O)(=O)[O-])ccc5F)c5nc(c(-c6cc(S(=O)(=O)[O-])ccc6F)c6ccc3[nH]6)C=C5)C=C4)cc2)[C@H]2CC[C@@H]1O2
REMARK SMILES IDX 18 1 17 2 16 3 15 4 13 5 14 6 12 8 11 9 88 10 85 11 87 12
REMARK SMILES IDX 89 13 86 14 9 15 1 16 2 17 3 18 8 19 4 20 6 21 5 22 7 23
REMARK SMILES IDX 10 24 19 25 20 26 21 28 22 29 23 30 84 31 24 32 83 33 25 34
REMARK SMILES IDX 26 35 27 36 77 37 28 38 82 39 76 40 78 41 29 42 81 43 75 44
REMARK SMILES IDX 74 45 30 47 62 48 42 49 61 50 43 51 46 52 60 53 79 54 44 55
REMARK SMILES IDX 45 56 59 58 80 59 47 60 31 61 32 62 40 63 33 64 39 65 41 66
REMARK SMILES IDX 38 67 34 68 35 69 36 70 37 71 63 72 64 73 72 74 65 75 71 76
REMARK SMILES IDX 73 77 70 78 66 79 67 80 68 81 69 82 48 83 49 84 57 85 50 86
REMARK SMILES IDX 56 87 58 88 55 89 51 90 52 91 53 92 54 93
REMARK H PARENT 15 7 19 27 78 46 46 57
REMARK Flexibility Score: inf
ROOT
ATOM      1  C   UNL A   1      33.910  29.254  25.766  1.00  0.00     0.118 C 
ENDROOT
BRANCH   1   2
ATOM      2  C   UNL A   1      33.242  28.085  26.487  1.00  0.00     0.042 C 
BRANCH   2   3
ATOM      3  C   UNL A   1      33.747  26.670  26.119  1.00  0.00     0.117 C 
BRANCH   3   4
ATOM      4  N   UNL A   1      32.802  25.587  26.432  1.00  0.00    -0.356 N 
ATOM      5  C   UNL A   1      32.611  24.325  25.911  1.00  0.00     0.226 C 
ATOM      6  O   UNL A   1      31.849  23.571  26.518  1.00  0.00    -0.275 OA
ATOM      7  H   UNL A   1      32.178  25.810  27.161  1.00  0.00     0.163 HD
BRANCH   5   8
ATOM      8  C   UNL A   1      33.347  23.862  24.666  1.00  0.00     0.122 C 
ATOM      9  C   UNL A   1      32.855  24.205  23.248  1.00  0.00     0.122 C 
ATOM     10  C   UNL A   1      33.252  22.929  22.462  1.00  0.00     0.132 C 
ATOM     11  C   UNL A   1      33.555  22.340  24.538  1.00  0.00     0.132 C 
ATOM     12  C   UNL A   1      32.299  21.759  22.556  1.00  0.00     0.035 C 
ATOM     13  O   UNL A   1      34.335  22.391  23.302  1.00  0.00    -0.373 OA
ATOM     14  C   UNL A   1      32.427  21.412  24.038  1.00  0.00     0.035 C 
BRANCH   9  15
ATOM     15  C   UNL A   1      31.409  24.688  23.147  1.00  0.00     0.229 C 
ATOM     16  C   UNL A   1      33.309  27.089  22.168  1.00  0.00     0.031 C 
ATOM     17  C   UNL A   1      32.088  27.180  23.097  1.00  0.00     0.082 C 
ATOM     18  C   UNL A   1      31.475  28.566  22.818  1.00  0.00     0.025 C 
ATOM     19  N   UNL A   1      31.111  26.063  23.126  1.00  0.00    -0.337 N 
ATOM     20  C   UNL A   1      30.202  28.846  23.581  1.00  0.00     0.004 C 
ATOM     21  C   UNL A   1      29.744  26.375  23.651  1.00  0.00     0.082 C 
ATOM     22  C   UNL A   1      29.211  27.753  23.248  1.00  0.00     0.025 C 
ATOM     23  C   UNL A   1      29.695  26.227  25.184  1.00  0.00     0.031 C 
ATOM     24  O   UNL A   1      30.489  23.865  23.166  1.00  0.00    -0.274 OA
ENDBRANCH   9  15
ENDBRANCH   5   8
ENDBRANCH   3   4
ENDBRANCH   2   3
ENDBRANCH   1   2
BRANCH   1  25
ATOM     25  N   UNL A   1      33.652  30.514  26.441  1.00  0.00    -0.352 N 
ATOM     26  C   UNL A   1      34.184  31.081  27.577  1.00  0.00     0.251 C 
ATOM     27  H   UNL A   1      32.967  31.069  26.004  1.00  0.00     0.163 HD
ATOM     28  O   UNL A   1      33.560  32.014  28.083  1.00  0.00    -0.269 OA
BRANCH  26  29
ATOM     29  C   UNL A   1      35.450  30.622  28.218  1.00  0.00     0.039 A 
ATOM     30  C   UNL A   1      36.665  31.014  27.634  1.00  0.00     0.014 A 
ATOM     31  C   UNL A   1      35.489  29.719  29.283  1.00  0.00     0.014 A 
ATOM     32  C   UNL A   1      37.888  30.525  28.116  1.00  0.00     0.010 A 
ATOM     33  C   UNL A   1      36.716  29.297  29.820  1.00  0.00     0.010 A 
ATOM     34  C   UNL A   1      37.931  29.670  29.227  1.00  0.00    -0.014 A 
BRANCH  34  35
ATOM     35  C   UNL A   1      39.226  29.108  29.722  1.00  0.00     0.031 A 
ATOM     36  C   UNL A   1      39.915  29.726  30.918  1.00  0.00     0.074 A 
ATOM     37  C   UNL A   1      39.797  28.054  29.102  1.00  0.00     0.049 A 
ATOM     38  N   UNL A   1      41.071  29.429  31.459  1.00  0.00    -0.248 NA
ATOM     39  C   UNL A   1      39.221  30.843  31.575  1.00  0.00     0.031 C 
ATOM     40  C   UNL A   1      39.249  27.366  27.931  1.00  0.00     0.029 A 
ATOM     41  N   UNL A   1      40.963  27.376  29.365  1.00  0.00    -0.354 N 
ATOM     42  C   UNL A   1      41.244  30.325  32.511  1.00  0.00     0.074 A 
ATOM     43  C   UNL A   1      40.107  31.221  32.483  1.00  0.00     0.031 C 
ATOM     44  C   UNL A   1      40.062  26.352  27.596  1.00  0.00     0.029 A 
ATOM     45  C   UNL A   1      41.215  26.342  28.491  1.00  0.00     0.049 A 
ATOM     46  H   UNL A   1      41.564  27.608  30.111  1.00  0.00     0.167 HD
ATOM     47  C   UNL A   1      42.237  30.381  33.436  1.00  0.00     0.034 A 
ATOM     48  C   UNL A   1      42.260  25.491  28.409  1.00  0.00     0.034 A 
ATOM     49  C   UNL A   1      43.362  29.476  33.467  1.00  0.00     0.049 A 
ATOM     50  C   UNL A   1      43.379  25.605  29.417  1.00  0.00     0.074 A 
ATOM     51  C   UNL A   1      44.411  29.434  34.370  1.00  0.00     0.029 A 
ATOM     52  N   UNL A   1      43.585  28.452  32.556  1.00  0.00    -0.354 N 
ATOM     53  N   UNL A   1      43.510  26.446  30.417  1.00  0.00    -0.248 NA
ATOM     54  C   UNL A   1      44.485  24.645  29.292  1.00  0.00     0.031 C 
ATOM     55  C   UNL A   1      45.297  28.427  33.970  1.00  0.00     0.029 A 
ATOM     56  C   UNL A   1      44.763  27.789  32.863  1.00  0.00     0.049 A 
ATOM     57  H   UNL A   1      42.991  28.229  31.803  1.00  0.00     0.167 HD
ATOM     58  C   UNL A   1      44.693  26.089  31.060  1.00  0.00     0.074 A 
ATOM     59  C   UNL A   1      45.227  24.948  30.347  1.00  0.00     0.031 C 
ATOM     60  C   UNL A   1      45.286  26.652  32.144  1.00  0.00     0.034 A 
BRANCH  47  61
ATOM     61  C   UNL A   1      42.155  31.471  34.480  1.00  0.00     0.023 A 
ATOM     62  C   UNL A   1      41.184  31.444  35.497  1.00  0.00     0.031 A 
ATOM     63  C   UNL A   1      43.044  32.562  34.453  1.00  0.00     0.131 A 
ATOM     64  C   UNL A   1      41.070  32.520  36.390  1.00  0.00     0.055 A 
ATOM     65  C   UNL A   1      42.981  33.588  35.399  1.00  0.00     0.041 A 
ATOM     66  F   UNL A   1      43.982  32.656  33.498  1.00  0.00    -0.206 F 
ATOM     67  C   UNL A   1      41.979  33.580  36.366  1.00  0.00     0.022 A 
BRANCH  64  68
ATOM     68  S   UNL A   1      39.627  32.589  37.486  1.00  0.00     0.124 S 
ATOM     69  O   UNL A   1      39.052  33.886  37.131  1.00  0.00    -0.237 OA
ATOM     70  O   UNL A   1      38.858  31.417  37.068  1.00  0.00    -0.237 OA
ATOM     71  O   UNL A   1      40.203  32.514  38.821  1.00  0.00    -0.744 OA
ENDBRANCH  64  68
ENDBRANCH  47  61
BRANCH  48  72
ATOM     72  C   UNL A   1      42.322  24.461  27.329  1.00  0.00     0.023 A 
ATOM     73  C   UNL A   1      41.558  23.286  27.402  1.00  0.00     0.031 A 
ATOM     74  C   UNL A   1      43.203  24.604  26.240  1.00  0.00     0.131 A 
ATOM     75  C   UNL A   1      41.733  22.273  26.445  1.00  0.00     0.055 A 
ATOM     76  C   UNL A   1      43.326  23.621  25.255  1.00  0.00     0.041 A 
ATOM     77  F   UNL A   1      43.959  25.706  26.117  1.00  0.00    -0.206 F 
ATOM     78  C   UNL A   1      42.601  22.439  25.364  1.00  0.00     0.022 A 
BRANCH  75  79
ATOM     79  S   UNL A   1      40.894  20.685  26.698  1.00  0.00     0.124 S 
ATOM     80  O   UNL A   1      41.795  19.761  26.021  1.00  0.00    -0.237 OA
ATOM     81  O   UNL A   1      40.856  20.593  28.154  1.00  0.00    -0.237 OA
ATOM     82  O   UNL A   1      39.597  20.881  26.054  1.00  0.00    -0.744 OA
ENDBRANCH  75  79
ENDBRANCH  48  72
BRANCH  60  83
ATOM     83  C   UNL A   1      46.550  26.000  32.654  1.00  0.00     0.023 A 
ATOM     84  C   UNL A   1      46.521  24.949  33.585  1.00  0.00     0.031 A 
ATOM     85  C   UNL A   1      47.805  26.451  32.206  1.00  0.00     0.131 A 
ATOM     86  C   UNL A   1      47.722  24.423  34.085  1.00  0.00     0.055 A 
ATOM     87  C   UNL A   1      48.996  25.882  32.659  1.00  0.00     0.041 A 
ATOM     88  F   UNL A   1      47.894  27.455  31.317  1.00  0.00    -0.206 F 
ATOM     89  C   UNL A   1      48.959  24.871  33.616  1.00  0.00     0.022 A 
BRANCH  86  90
ATOM     90  S   UNL A   1      47.648  23.209  35.430  1.00  0.00     0.124 S 
ATOM     91  O   UNL A   1      48.479  22.128  34.910  1.00  0.00    -0.237 OA
ATOM     92  O   UNL A   1      48.204  23.954  36.554  1.00  0.00    -0.237 OA
ATOM     93  O   UNL A   1      46.223  22.899  35.536  1.00  0.00    -0.744 OA
ENDBRANCH  86  90
ENDBRANCH  60  83
ENDBRANCH  34  35
ENDBRANCH  26  29
ENDBRANCH   1  25
TORSDOF 14
ENDMDL
MODEL 3
REMARK VINA RESULT:     -12.1      2.229      7.831
REMARK SMILES C[C@H]1CCC[C@H](C)N1C(=O)[C@H]1[C@@H](C(=O)NCCCNC(=O)c2ccc(-c3c4nc(c(-c5cc(S(=O)(=O)[O-])ccc5F)c5ccc([nH]5)c(-c5cc(S(=O)(=O)[O-])ccc5F)c5nc(c(-c6cc(S(=O)(=O)[O-])ccc6F)c6ccc3[nH]6)C=C5)C=C4)cc2)[C@H]2CC[C@@H]1O2
REMARK SMILES IDX 18 1 17 2 16 3 15 4 13 5 14 6 12 8 11 9 88 10 85 11 87 12
REMARK SMILES IDX 89 13 86 14 9 15 1 16 2 17 3 18 8 19 4 20 6 21 5 22 7 23
REMARK SMILES IDX 10 24 19 25 20 26 21 28 22 29 23 30 84 31 24 32 83 33 25 34
REMARK SMILES IDX 26 35 27 36 77 37 28 38 82 39 76 40 78 41 29 42 81 43 75 44
REMARK SMILES IDX 74 45 30 47 62 48 42 49 61 50 43 51 46 52 60 53 79 54 44 55
REMARK SMILES IDX 45 56 59 58 80 59 47 60 31 61 32 62 40 63 33 64 39 65 41 66
REMARK SMILES IDX 38 67 34 68 35 69 36 70 37 71 63 72 64 73 72 74 65 75 71 76
REMARK SMILES IDX 73 77 70 78 66 79 67 80 68 81 69 82 48 83 49 84 57 85 50 86
REMARK SMILES IDX 56 87 58 88 55 89 51 90 52 91 53 92 54 93
REMARK H PARENT 15 7 19 27 78 46 46 57
REMARK Flexibility Score: inf
ROOT
ATOM      1  C   UNL A   1      33.601  29.315  25.549  1.00  0.00     0.118 C 
ENDROOT
BRANCH   1   2
ATOM      2  C   UNL A   1      32.965  28.192  26.364  1.00  0.00     0.042 C 
BRANCH   2   3
ATOM      3  C   UNL A   1      33.520  26.768  26.126  1.00  0.00     0.117 C 
BRANCH   3   4
ATOM      4  N   UNL A   1      32.575  25.686  26.443  1.00  0.00    -0.356 N 
ATOM      5  C   UNL A   1      32.406  24.410  25.949  1.00  0.00     0.226 C 
ATOM      6  O   UNL A   1      31.636  23.665  26.556  1.00  0.00    -0.275 OA
ATOM      7  H   UNL A   1      31.932  25.922  27.151  1.00  0.00     0.163 HD
BRANCH   5   8
ATOM      8  C   UNL A   1      33.176  23.922  24.734  1.00  0.00     0.122 C 
ATOM      9  C   UNL A   1      32.729  24.247  23.297  1.00  0.00     0.122 C 
ATOM     10  C   UNL A   1      33.140  22.956  22.543  1.00  0.00     0.132 C 
ATOM     11  C   UNL A   1      33.375  22.397  24.636  1.00  0.00     0.132 C 
ATOM     12  C   UNL A   1      32.175  21.795  22.627  1.00  0.00     0.035 C 
ATOM     13  O   UNL A   1      34.193  22.423  23.424  1.00  0.00    -0.373 OA
ATOM     14  C   UNL A   1      32.255  21.469  24.117  1.00  0.00     0.035 C 
BRANCH   9  15
ATOM     15  C   UNL A   1      31.291  24.739  23.146  1.00  0.00     0.229 C 
ATOM     16  C   UNL A   1      33.239  27.107  22.179  1.00  0.00     0.031 C 
ATOM     17  C   UNL A   1      31.992  27.224  23.070  1.00  0.00     0.082 C 
ATOM     18  C   UNL A   1      31.399  28.610  22.748  1.00  0.00     0.025 C 
ATOM     19  N   UNL A   1      31.005  26.115  23.091  1.00  0.00    -0.337 N 
ATOM     20  C   UNL A   1      30.107  28.913  23.468  1.00  0.00     0.004 C 
ATOM     21  C   UNL A   1      29.626  26.448  23.569  1.00  0.00     0.082 C 
ATOM     22  C   UNL A   1      29.116  27.822  23.126  1.00  0.00     0.025 C 
ATOM     23  C   UNL A   1      29.531  26.328  25.103  1.00  0.00     0.031 C 
ATOM     24  O   UNL A   1      30.364  23.923  23.152  1.00  0.00    -0.274 OA
ENDBRANCH   9  15
ENDBRANCH   5   8
ENDBRANCH   3   4
ENDBRANCH   2   3
ENDBRANCH   1   2
BRANCH   1  25
ATOM     25  N   UNL A   1      33.304  30.619  26.115  1.00  0.00    -0.352 N 
ATOM     26  C   UNL A   1      33.814  31.294  27.201  1.00  0.00     0.251 C 
ATOM     27  H   UNL A   1      32.605  31.115  25.631  1.00  0.00     0.163 HD
ATOM     28  O   UNL A   1      33.161  32.248  27.626  1.00  0.00    -0.269 OA
BRANCH  26  29
ATOM     29  C   UNL A   1      35.088  30.927  27.882  1.00  0.00     0.039 A 
ATOM     30  C   UNL A   1      35.153  29.687  28.537  1.00  0.00     0.014 A 
ATOM     31  C   UNL A   1      36.169  31.801  28.016  1.00  0.00     0.014 A 
ATOM     32  C   UNL A   1      36.278  29.327  29.293  1.00  0.00     0.010 A 
ATOM     33  C   UNL A   1      37.329  31.408  28.700  1.00  0.00     0.010 A 
ATOM     34  C   UNL A   1      37.390  30.178  29.374  1.00  0.00    -0.014 A 
BRANCH  34  35
ATOM     35  C   UNL A   1      38.577  29.826  30.212  1.00  0.00     0.031 A 
ATOM     36  C   UNL A   1      38.731  30.413  31.598  1.00  0.00     0.074 A 
ATOM     37  C   UNL A   1      39.527  28.994  29.738  1.00  0.00     0.049 A 
ATOM     38  N   UNL A   1      39.716  30.285  32.452  1.00  0.00    -0.248 NA
ATOM     39  C   UNL A   1      37.641  31.278  32.072  1.00  0.00     0.031 C 
ATOM     40  C   UNL A   1      39.514  28.364  28.416  1.00  0.00     0.029 A 
ATOM     41  N   UNL A   1      40.689  28.533  30.309  1.00  0.00    -0.354 N 
ATOM     42  C   UNL A   1      39.368  31.057  33.558  1.00  0.00     0.074 A 
ATOM     43  C   UNL A   1      38.116  31.706  33.232  1.00  0.00     0.031 C 
ATOM     44  C   UNL A   1      40.597  27.582  28.289  1.00  0.00     0.029 A 
ATOM     45  C   UNL A   1      41.412  27.688  29.496  1.00  0.00     0.049 A 
ATOM     46  H   UNL A   1      40.979  28.783  31.217  1.00  0.00     0.167 HD
ATOM     47  C   UNL A   1      40.011  31.192  34.747  1.00  0.00     0.034 A 
ATOM     48  C   UNL A   1      42.601  27.078  29.692  1.00  0.00     0.034 A 
ATOM     49  C   UNL A   1      41.253  30.531  35.071  1.00  0.00     0.049 A 
ATOM     50  C   UNL A   1      43.323  27.283  31.003  1.00  0.00     0.074 A 
ATOM     51  C   UNL A   1      41.977  30.584  36.251  1.00  0.00     0.029 A 
ATOM     52  N   UNL A   1      41.957  29.695  34.215  1.00  0.00    -0.354 N 
ATOM     53  N   UNL A   1      42.963  28.000  32.042  1.00  0.00    -0.248 NA
ATOM     54  C   UNL A   1      44.606  26.586  31.170  1.00  0.00     0.031 C 
ATOM     55  C   UNL A   1      43.145  29.832  36.086  1.00  0.00     0.029 A 
ATOM     56  C   UNL A   1      43.115  29.246  34.833  1.00  0.00     0.049 A 
ATOM     57  H   UNL A   1      41.675  29.456  33.302  1.00  0.00     0.167 HD
ATOM     58  C   UNL A   1      43.958  27.807  32.998  1.00  0.00     0.074 A 
ATOM     59  C   UNL A   1      44.921  26.894  32.419  1.00  0.00     0.031 C 
ATOM     60  C   UNL A   1      44.067  28.335  34.245  1.00  0.00     0.034 A 
BRANCH  47  61
ATOM     61  C   UNL A   1      39.384  32.104  35.777  1.00  0.00     0.023 A 
ATOM     62  C   UNL A   1      39.761  33.454  35.890  1.00  0.00     0.031 A 
ATOM     63  C   UNL A   1      38.412  31.619  36.671  1.00  0.00     0.131 A 
ATOM     64  C   UNL A   1      39.234  34.247  36.921  1.00  0.00     0.055 A 
ATOM     65  C   UNL A   1      37.826  32.437  37.639  1.00  0.00     0.041 A 
ATOM     66  F   UNL A   1      38.022  30.335  36.626  1.00  0.00    -0.206 F 
ATOM     67  C   UNL A   1      38.249  33.756  37.780  1.00  0.00     0.022 A 
BRANCH  64  68
ATOM     68  S   UNL A   1      39.963  35.881  37.218  1.00  0.00     0.124 S 
ATOM     69  O   UNL A   1      41.371  35.541  37.420  1.00  0.00    -0.237 OA
ATOM     70  O   UNL A   1      39.653  36.593  35.979  1.00  0.00    -0.237 OA
ATOM     71  O   UNL A   1      39.268  36.360  38.404  1.00  0.00    -0.744 OA
ENDBRANCH  64  68
ENDBRANCH  47  61
BRANCH  48  72
ATOM     72  C   UNL A   1      43.206  26.226  28.625  1.00  0.00     0.023 A 
ATOM     73  C   UNL A   1      44.228  26.717  27.798  1.00  0.00     0.031 A 
ATOM     74  C   UNL A   1      42.721  24.930  28.367  1.00  0.00     0.131 A 
ATOM     75  C   UNL A   1      44.689  25.947  26.717  1.00  0.00     0.055 A 
ATOM     76  C   UNL A   1      43.226  24.143  27.330  1.00  0.00     0.041 A 
ATOM     77  F   UNL A   1      41.743  24.407  29.125  1.00  0.00    -0.206 F 
ATOM     78  C   UNL A   1      44.205  24.659  26.487  1.00  0.00     0.022 A 
BRANCH  75  79
ATOM     79  S   UNL A   1      45.848  26.704  25.544  1.00  0.00     0.124 S 
ATOM     80  O   UNL A   1      46.949  27.086  26.420  1.00  0.00    -0.237 OA
ATOM     81  O   UNL A   1      46.111  25.601  24.626  1.00  0.00    -0.237 OA
ATOM     82  O   UNL A   1      45.083  27.814  24.980  1.00  0.00    -0.744 OA
ENDBRANCH  75  79
ENDBRANCH  48  72
BRANCH  60  83
ATOM     83  C   UNL A   1      45.243  27.888  35.081  1.00  0.00     0.023 A 
ATOM     84  C   UNL A   1      45.173  26.761  35.918  1.00  0.00     0.031 A 
ATOM     85  C   UNL A   1      46.448  28.612  35.047  1.00  0.00     0.131 A 
ATOM     86  C   UNL A   1      46.266  26.426  36.732  1.00  0.00     0.055 A 
ATOM     87  C   UNL A   1      47.554  28.237  35.812  1.00  0.00     0.041 A 
ATOM     88  F   UNL A   1      46.571  29.699  34.266  1.00  0.00    -0.206 F 
ATOM     89  C   UNL A   1      47.461  27.147  36.672  1.00  0.00     0.022 A 
BRANCH  86  90
ATOM     90  S   UNL A   1      46.073  25.091  37.944  1.00  0.00     0.124 S 
ATOM     91  O   UNL A   1      46.759  23.983  37.287  1.00  0.00    -0.237 OA
ATOM     92  O   UNL A   1      46.734  25.640  39.122  1.00  0.00    -0.237 OA
ATOM     93  O   UNL A   1      44.623  24.940  38.061  1.00  0.00    -0.744 OA
ENDBRANCH  86  90
ENDBRANCH  60  83
ENDBRANCH  34  35
ENDBRANCH  26  29
ENDBRANCH   1  25
TORSDOF 14
ENDMDL
