MODEL 1
REMARK VINA RESULT:     -11.5      0.000      0.000
REMARK SMILES C[C@@H]1CCC[C@H](C)N1C(=O)Cn1cccc1C(=O)NCCCNC(=O)c1ccc(-c2c3nc(c(-c4cc(S(=O)(=O)[O-])ccc4F)c4ccc([nH]4)c(-c4cc(S(=O)(=O)[O-])ccc4F)c4nc(c(-c5cc(S(=O)(=O)[O-])ccc5F)c5ccc2[nH]5)C=C4)C=C3)cc1
REMARK SMILES IDX 21 1 20 2 19 3 17 4 18 5 16 7 12 8 13 9 14 10 15 11 11 12
REMARK SMILES IDX 9 13 10 14 8 15 1 16 2 17 3 18 4 19 6 20 5 21 7 22 22 23
REMARK SMILES IDX 23 24 24 25 25 27 26 28 27 29 88 30 28 31 87 32 29 33 30 34
REMARK SMILES IDX 31 35 81 36 32 37 86 38 80 39 82 40 33 41 85 42 79 43 78 44
REMARK SMILES IDX 34 46 66 47 46 48 65 49 47 50 50 51 64 52 83 53 48 54 49 55
REMARK SMILES IDX 63 57 84 58 51 59 35 60 36 61 44 62 37 63 43 64 45 65 42 66
REMARK SMILES IDX 38 67 39 68 40 69 41 70 67 71 68 72 76 73 69 74 75 75 77 76
REMARK SMILES IDX 74 77 70 78 71 79 72 80 73 81 52 82 53 83 61 84 54 85 60 86
REMARK SMILES IDX 62 87 59 88 55 89 56 90 57 91 58 92
REMARK H PARENT 19 6 23 26 82 45 50 56
REMARK Flexibility Score: inf
ROOT
ATOM      1  C   UNL A   1      37.797  20.888  24.881  1.00  0.00     0.042 C 
ENDROOT
BRANCH   1   2
ATOM      2  C   UNL A   1      36.294  21.075  25.162  1.00  0.00     0.118 C 
BRANCH   2   3
ATOM      3  N   UNL A   1      35.441  21.955  24.285  1.00  0.00    -0.351 N 
ATOM      4  C   UNL A   1      34.356  22.786  24.096  1.00  0.00     0.267 C 
ATOM      5  O   UNL A   1      34.568  23.441  23.057  1.00  0.00    -0.268 OA
ATOM      6  H   UNL A   1      35.877  21.918  23.403  1.00  0.00     0.163 HD
BRANCH   4   7
ATOM      7  C   UNL A   1      33.097  23.091  24.811  1.00  0.00     0.107 A 
ATOM      8  N   UNL A   1      31.801  23.479  24.495  1.00  0.00    -0.334 N 
ATOM      9  C   UNL A   1      31.008  23.525  25.643  1.00  0.00     0.087 A 
ATOM     10  C   UNL A   1      31.845  23.595  26.720  1.00  0.00     0.020 A 
ATOM     11  C   UNL A   1      33.130  23.331  26.208  1.00  0.00     0.033 A 
BRANCH   8  12
ATOM     12  C   UNL A   1      31.248  24.144  23.329  1.00  0.00     0.222 C 
BRANCH  12  13
ATOM     13  C   UNL A   1      31.769  25.512  23.027  1.00  0.00     0.242 C 
ATOM     14  O   UNL A   1      31.707  25.848  21.845  1.00  0.00    -0.273 OA
BRANCH  13  15
ATOM     15  N   UNL A   1      32.136  26.347  24.096  1.00  0.00    -0.336 N 
ATOM     16  C   UNL A   1      30.704  28.320  23.992  1.00  0.00     0.031 C 
ATOM     17  C   UNL A   1      31.054  27.053  24.773  1.00  0.00     0.082 C 
ATOM     18  C   UNL A   1      31.339  27.248  26.262  1.00  0.00     0.025 C 
ATOM     19  C   UNL A   1      32.726  27.795  26.569  1.00  0.00     0.004 C 
ATOM     20  C   UNL A   1      33.516  26.865  24.359  1.00  0.00     0.082 C 
ATOM     21  C   UNL A   1      33.784  26.957  25.870  1.00  0.00     0.025 C 
ATOM     22  C   UNL A   1      33.923  28.170  23.669  1.00  0.00     0.031 C 
ENDBRANCH  13  15
ENDBRANCH  12  13
ENDBRANCH   8  12
ENDBRANCH   4   7
ENDBRANCH   2   3
ENDBRANCH   1   2
BRANCH   1  23
ATOM     23  C   UNL A   1      38.939  21.054  25.879  1.00  0.00     0.118 C 
BRANCH  23  24
ATOM     24  N   UNL A   1      39.977  20.056  25.934  1.00  0.00    -0.352 N 
ATOM     25  C   UNL A   1      41.342  20.332  25.947  1.00  0.00     0.251 C 
ATOM     26  H   UNL A   1      39.701  19.112  25.965  1.00  0.00     0.163 HD
ATOM     27  O   UNL A   1      42.129  19.505  25.524  1.00  0.00    -0.269 OA
BRANCH  25  28
ATOM     28  C   UNL A   1      41.835  21.652  26.443  1.00  0.00     0.039 A 
ATOM     29  C   UNL A   1      41.808  21.921  27.816  1.00  0.00     0.014 A 
ATOM     30  C   UNL A   1      42.269  22.643  25.553  1.00  0.00     0.014 A 
ATOM     31  C   UNL A   1      42.231  23.166  28.277  1.00  0.00     0.010 A 
ATOM     32  C   UNL A   1      42.803  23.834  26.015  1.00  0.00     0.010 A 
ATOM     33  C   UNL A   1      42.726  24.121  27.371  1.00  0.00    -0.014 A 
BRANCH  33  34
ATOM     34  C   UNL A   1      43.140  25.442  27.887  1.00  0.00     0.031 A 
ATOM     35  C   UNL A   1      44.570  25.351  28.455  1.00  0.00     0.074 A 
ATOM     36  C   UNL A   1      42.157  26.406  27.897  1.00  0.00     0.049 A 
ATOM     37  N   UNL A   1      45.009  25.638  29.640  1.00  0.00    -0.248 NA
ATOM     38  C   UNL A   1      45.630  24.675  27.655  1.00  0.00     0.031 C 
ATOM     39  C   UNL A   1      40.852  26.317  27.183  1.00  0.00     0.029 A 
ATOM     40  N   UNL A   1      42.017  27.641  28.495  1.00  0.00    -0.354 N 
ATOM     41  C   UNL A   1      46.411  25.423  29.656  1.00  0.00     0.074 A 
ATOM     42  C   UNL A   1      46.697  24.672  28.467  1.00  0.00     0.031 C 
ATOM     43  C   UNL A   1      40.043  27.361  27.477  1.00  0.00     0.029 A 
ATOM     44  C   UNL A   1      40.709  28.224  28.426  1.00  0.00     0.049 A 
ATOM     45  H   UNL A   1      42.769  28.094  28.941  1.00  0.00     0.167 HD
ATOM     46  C   UNL A   1      47.238  26.033  30.565  1.00  0.00     0.034 A 
ATOM     47  C   UNL A   1      40.183  29.267  29.153  1.00  0.00     0.034 A 
ATOM     48  C   UNL A   1      46.451  26.932  31.348  1.00  0.00     0.049 A 
ATOM     49  C   UNL A   1      41.316  29.691  29.989  1.00  0.00     0.074 A 
ATOM     50  C   UNL A   1      45.504  26.739  32.316  1.00  0.00     0.029 A 
ATOM     51  N   UNL A   1      46.352  28.218  30.863  1.00  0.00    -0.354 N 
ATOM     52  N   UNL A   1      42.349  30.350  29.570  1.00  0.00    -0.248 NA
ATOM     53  C   UNL A   1      41.355  29.229  31.384  1.00  0.00     0.031 C 
ATOM     54  C   UNL A   1      44.530  27.696  31.971  1.00  0.00     0.029 A 
ATOM     55  C   UNL A   1      45.053  28.608  31.042  1.00  0.00     0.049 A 
ATOM     56  H   UNL A   1      47.076  28.753  30.465  1.00  0.00     0.167 HD
ATOM     57  C   UNL A   1      43.278  30.095  30.546  1.00  0.00     0.074 A 
ATOM     58  C   UNL A   1      42.537  29.726  31.734  1.00  0.00     0.031 C 
ATOM     59  C   UNL A   1      44.515  29.653  30.197  1.00  0.00     0.034 A 
BRANCH  46  60
ATOM     60  C   UNL A   1      48.733  26.202  30.730  1.00  0.00     0.023 A 
ATOM     61  C   UNL A   1      49.422  26.755  29.613  1.00  0.00     0.031 A 
ATOM     62  C   UNL A   1      49.531  25.595  31.703  1.00  0.00     0.131 A 
ATOM     63  C   UNL A   1      50.789  26.541  29.403  1.00  0.00     0.055 A 
ATOM     64  C   UNL A   1      50.921  25.450  31.528  1.00  0.00     0.041 A 
ATOM     65  F   UNL A   1      49.001  25.055  32.807  1.00  0.00    -0.206 F 
ATOM     66  C   UNL A   1      51.549  25.882  30.359  1.00  0.00     0.022 A 
BRANCH  63  67
ATOM     67  S   UNL A   1      51.488  26.974  27.780  1.00  0.00     0.124 S 
ATOM     68  O   UNL A   1      52.675  27.738  28.151  1.00  0.00    -0.237 OA
ATOM     69  O   UNL A   1      51.731  25.661  27.190  1.00  0.00    -0.237 OA
ATOM     70  O   UNL A   1      50.422  27.748  27.147  1.00  0.00    -0.744 OA
ENDBRANCH  63  67
ENDBRANCH  46  60
BRANCH  47  71
ATOM     71  C   UNL A   1      38.848  29.955  29.460  1.00  0.00     0.023 A 
ATOM     72  C   UNL A   1      38.468  31.282  29.182  1.00  0.00     0.031 A 
ATOM     73  C   UNL A   1      37.811  29.174  30.074  1.00  0.00     0.131 A 
ATOM     74  C   UNL A   1      37.122  31.712  29.422  1.00  0.00     0.055 A 
ATOM     75  C   UNL A   1      36.480  29.565  30.207  1.00  0.00     0.041 A 
ATOM     76  F   UNL A   1      38.039  27.963  30.600  1.00  0.00    -0.206 F 
ATOM     77  C   UNL A   1      36.122  30.841  29.862  1.00  0.00     0.022 A 
BRANCH  74  78
ATOM     78  S   UNL A   1      36.600  33.443  29.182  1.00  0.00     0.124 S 
ATOM     79  O   UNL A   1      35.766  33.672  30.357  1.00  0.00    -0.237 OA
ATOM     80  O   UNL A   1      37.868  34.163  29.141  1.00  0.00    -0.237 OA
ATOM     81  O   UNL A   1      35.877  33.405  27.910  1.00  0.00    -0.744 OA
ENDBRANCH  74  78
ENDBRANCH  47  71
BRANCH  59  82
ATOM     82  C   UNL A   1      44.956  30.021  28.779  1.00  0.00     0.023 A 
ATOM     83  C   UNL A   1      45.248  29.005  27.846  1.00  0.00     0.031 A 
ATOM     84  C   UNL A   1      45.218  31.334  28.346  1.00  0.00     0.131 A 
ATOM     85  C   UNL A   1      45.799  29.306  26.584  1.00  0.00     0.055 A 
ATOM     86  C   UNL A   1      45.761  31.640  27.089  1.00  0.00     0.041 A 
ATOM     87  F   UNL A   1      44.974  32.376  29.138  1.00  0.00    -0.206 F 
ATOM     88  C   UNL A   1      46.059  30.621  26.199  1.00  0.00     0.022 A 
BRANCH  85  89
ATOM     89  S   UNL A   1      46.158  27.954  25.429  1.00  0.00     0.124 S 
ATOM     90  O   UNL A   1      46.565  28.663  24.222  1.00  0.00    -0.237 OA
ATOM     91  O   UNL A   1      47.208  27.217  26.126  1.00  0.00    -0.237 OA
ATOM     92  O   UNL A   1      44.882  27.244  25.327  1.00  0.00    -0.744 OA
ENDBRANCH  85  89
ENDBRANCH  59  82
ENDBRANCH  33  34
ENDBRANCH  25  28
ENDBRANCH  23  24
ENDBRANCH   1  23
TORSDOF 16
ENDMDL
MODEL 2
REMARK VINA RESULT:     -11.4      4.173      9.703
REMARK SMILES C[C@@H]1CCC[C@H](C)N1C(=O)Cn1cccc1C(=O)NCCCNC(=O)c1ccc(-c2c3nc(c(-c4cc(S(=O)(=O)[O-])ccc4F)c4ccc([nH]4)c(-c4cc(S(=O)(=O)[O-])ccc4F)c4nc(c(-c5cc(S(=O)(=O)[O-])ccc5F)c5ccc2[nH]5)C=C4)C=C3)cc1
REMARK SMILES IDX 21 1 20 2 19 3 17 4 18 5 16 7 12 8 13 9 14 10 15 11 11 12
REMARK SMILES IDX 9 13 10 14 8 15 1 16 2 17 3 18 4 19 6 20 5 21 7 22 22 23
REMARK SMILES IDX 23 24 24 25 25 27 26 28 27 29 88 30 28 31 87 32 29 33 30 34
REMARK SMILES IDX 31 35 81 36 32 37 86 38 80 39 82 40 33 41 85 42 79 43 78 44
REMARK SMILES IDX 34 46 66 47 46 48 65 49 47 50 50 51 64 52 83 53 48 54 49 55
REMARK SMILES IDX 63 57 84 58 51 59 35 60 36 61 44 62 37 63 43 64 45 65 42 66
REMARK SMILES IDX 38 67 39 68 40 69 41 70 67 71 68 72 76 73 69 74 75 75 77 76
REMARK SMILES IDX 74 77 70 78 71 79 72 80 73 81 52 82 53 83 61 84 54 85 60 86
REMARK SMILES IDX 62 87 59 88 55 89 56 90 57 91 58 92
REMARK H PARENT 19 6 23 26 82 45 50 56
REMARK Flexibility Score: inf
ROOT
ATOM      1  C   UNL A   1      31.930  30.454  26.757  1.00  0.00     0.042 C 
ENDROOT
BRANCH   1   2
ATOM      2  C   UNL A   1      31.243  30.753  25.411  1.00  0.00     0.118 C 
BRANCH   2   3
ATOM      3  N   UNL A   1      30.903  29.646  24.447  1.00  0.00    -0.351 N 
ATOM      4  C   UNL A   1      30.691  28.312  24.162  1.00  0.00     0.267 C 
ATOM      5  O   UNL A   1      30.052  28.259  23.094  1.00  0.00    -0.268 OA
ATOM      6  H   UNL A   1      30.760  30.105  23.588  1.00  0.00     0.163 HD
BRANCH   4   7
ATOM      7  C   UNL A   1      30.993  27.014  24.804  1.00  0.00     0.107 A 
ATOM      8  N   UNL A   1      32.114  26.274  25.155  1.00  0.00    -0.334 N 
ATOM      9  C   UNL A   1      31.745  25.117  25.842  1.00  0.00     0.087 A 
ATOM     10  C   UNL A   1      30.428  24.879  25.573  1.00  0.00     0.020 A 
ATOM     11  C   UNL A   1      29.966  26.045  24.933  1.00  0.00     0.033 A 
BRANCH   8  12
ATOM     12  C   UNL A   1      33.480  26.297  24.662  1.00  0.00     0.222 C 
BRANCH  12  13
ATOM     13  C   UNL A   1      33.884  25.180  23.754  1.00  0.00     0.242 C 
ATOM     14  O   UNL A   1      33.400  25.221  22.624  1.00  0.00    -0.273 OA
BRANCH  13  15
ATOM     15  N   UNL A   1      34.873  24.280  24.186  1.00  0.00    -0.336 N 
ATOM     16  C   UNL A   1      34.127  22.040  23.573  1.00  0.00     0.031 C 
ATOM     17  C   UNL A   1      35.150  23.146  23.312  1.00  0.00     0.082 C 
ATOM     18  C   UNL A   1      36.617  22.721  23.371  1.00  0.00     0.025 C 
ATOM     19  C   UNL A   1      37.171  22.569  24.780  1.00  0.00     0.004 C 
ATOM     20  C   UNL A   1      35.389  24.163  25.588  1.00  0.00     0.082 C 
ATOM     21  C   UNL A   1      36.888  23.824  25.590  1.00  0.00     0.025 C 
ATOM     22  C   UNL A   1      34.633  23.233  26.542  1.00  0.00     0.031 C 
ENDBRANCH  13  15
ENDBRANCH  12  13
ENDBRANCH   8  12
ENDBRANCH   4   7
ENDBRANCH   2   3
ENDBRANCH   1   2
BRANCH   1  23
ATOM     23  C   UNL A   1      33.030  31.276  27.422  1.00  0.00     0.118 C 
BRANCH  23  24
ATOM     24  N   UNL A   1      32.855  32.699  27.568  1.00  0.00    -0.352 N 
ATOM     25  C   UNL A   1      33.500  33.483  28.521  1.00  0.00     0.251 C 
ATOM     26  H   UNL A   1      32.237  33.149  26.948  1.00  0.00     0.163 HD
ATOM     27  O   UNL A   1      32.983  34.518  28.900  1.00  0.00    -0.269 OA
BRANCH  25  28
ATOM     28  C   UNL A   1      34.800  33.036  29.104  1.00  0.00     0.039 A 
ATOM     29  C   UNL A   1      35.984  33.269  28.396  1.00  0.00     0.014 A 
ATOM     30  C   UNL A   1      34.847  32.340  30.319  1.00  0.00     0.014 A 
ATOM     31  C   UNL A   1      37.194  32.817  28.920  1.00  0.00     0.010 A 
ATOM     32  C   UNL A   1      36.056  31.998  30.901  1.00  0.00     0.010 A 
ATOM     33  C   UNL A   1      37.224  32.180  30.173  1.00  0.00    -0.014 A 
BRANCH  33  34
ATOM     34  C   UNL A   1      38.518  31.689  30.689  1.00  0.00     0.031 A 
ATOM     35  C   UNL A   1      39.267  32.838  31.392  1.00  0.00     0.074 A 
ATOM     36  C   UNL A   1      38.850  30.403  30.322  1.00  0.00     0.049 A 
ATOM     37  N   UNL A   1      40.447  33.320  31.161  1.00  0.00    -0.248 NA
ATOM     38  C   UNL A   1      38.534  33.696  32.366  1.00  0.00     0.031 C 
ATOM     39  C   UNL A   1      37.915  29.407  29.725  1.00  0.00     0.029 A 
ATOM     40  N   UNL A   1      40.008  29.656  30.351  1.00  0.00    -0.354 N 
ATOM     41  C   UNL A   1      40.697  34.349  32.105  1.00  0.00     0.074 A 
ATOM     42  C   UNL A   1      39.424  34.642  32.698  1.00  0.00     0.031 C 
ATOM     43  C   UNL A   1      38.555  28.272  29.358  1.00  0.00     0.029 A 
ATOM     44  C   UNL A   1      39.965  28.409  29.644  1.00  0.00     0.049 A 
ATOM     45  H   UNL A   1      40.814  29.960  30.827  1.00  0.00     0.167 HD
ATOM     46  C   UNL A   1      41.968  34.749  32.437  1.00  0.00     0.034 A 
ATOM     47  C   UNL A   1      41.003  27.600  29.243  1.00  0.00     0.034 A 
ATOM     48  C   UNL A   1      42.893  33.899  31.758  1.00  0.00     0.049 A 
ATOM     49  C   UNL A   1      42.186  28.296  29.772  1.00  0.00     0.074 A 
ATOM     50  C   UNL A   1      43.257  33.781  30.445  1.00  0.00     0.029 A 
ATOM     51  N   UNL A   1      43.277  32.766  32.442  1.00  0.00    -0.354 N 
ATOM     52  N   UNL A   1      42.539  28.331  31.018  1.00  0.00    -0.248 NA
ATOM     53  C   UNL A   1      42.968  29.128  28.846  1.00  0.00     0.031 C 
ATOM     54  C   UNL A   1      43.319  32.383  30.280  1.00  0.00     0.029 A 
ATOM     55  C   UNL A   1      43.306  31.746  31.531  1.00  0.00     0.049 A 
ATOM     56  H   UNL A   1      43.490  32.703  33.401  1.00  0.00     0.167 HD
ATOM     57  C   UNL A   1      43.364  29.425  31.060  1.00  0.00     0.074 A 
ATOM     58  C   UNL A   1      43.842  29.636  29.709  1.00  0.00     0.031 C 
ATOM     59  C   UNL A   1      43.159  30.385  32.000  1.00  0.00     0.034 A 
BRANCH  46  60
ATOM     60  C   UNL A   1      42.585  35.617  33.511  1.00  0.00     0.023 A 
ATOM     61  C   UNL A   1      42.182  35.332  34.847  1.00  0.00     0.031 A 
ATOM     62  C   UNL A   1      43.238  36.837  33.315  1.00  0.00     0.131 A 
ATOM     63  C   UNL A   1      42.260  36.288  35.866  1.00  0.00     0.055 A 
ATOM     64  C   UNL A   1      43.387  37.768  34.361  1.00  0.00     0.041 A 
ATOM     65  F   UNL A   1      43.679  37.208  32.107  1.00  0.00    -0.206 F 
ATOM     66  C   UNL A   1      42.859  37.517  35.629  1.00  0.00     0.022 A 
BRANCH  63  67
ATOM     67  S   UNL A   1      41.391  35.952  37.429  1.00  0.00     0.124 S 
ATOM     68  O   UNL A   1      42.314  36.501  38.417  1.00  0.00    -0.237 OA
ATOM     69  O   UNL A   1      40.140  36.682  37.249  1.00  0.00    -0.237 OA
ATOM     70  O   UNL A   1      41.262  34.497  37.439  1.00  0.00    -0.744 OA
ENDBRANCH  63  67
ENDBRANCH  46  60
BRANCH  47  71
ATOM     71  C   UNL A   1      41.300  26.393  28.346  1.00  0.00     0.023 A 
ATOM     72  C   UNL A   1      42.008  25.220  28.671  1.00  0.00     0.031 A 
ATOM     73  C   UNL A   1      40.774  26.400  27.010  1.00  0.00     0.131 A 
ATOM     74  C   UNL A   1      42.069  24.133  27.738  1.00  0.00     0.055 A 
ATOM     75  C   UNL A   1      40.746  25.303  26.151  1.00  0.00     0.041 A 
ATOM     76  F   UNL A   1      40.255  27.499  26.447  1.00  0.00    -0.206 F 
ATOM     77  C   UNL A   1      41.384  24.148  26.521  1.00  0.00     0.022 A 
BRANCH  74  78
ATOM     78  S   UNL A   1      43.058  22.636  28.059  1.00  0.00     0.124 S 
ATOM     79  O   UNL A   1      42.147  21.576  27.642  1.00  0.00    -0.237 OA
ATOM     80  O   UNL A   1      44.237  22.838  27.225  1.00  0.00    -0.237 OA
ATOM     81  O   UNL A   1      43.311  22.700  29.500  1.00  0.00    -0.744 OA
ENDBRANCH  74  78
ENDBRANCH  47  71
BRANCH  59  82
ATOM     82  C   UNL A   1      42.429  29.910  33.258  1.00  0.00     0.023 A 
ATOM     83  C   UNL A   1      41.169  30.450  33.588  1.00  0.00     0.031 A 
ATOM     84  C   UNL A   1      42.981  29.035  34.213  1.00  0.00     0.131 A 
ATOM     85  C   UNL A   1      40.540  30.147  34.812  1.00  0.00     0.055 A 
ATOM     86  C   UNL A   1      42.356  28.725  35.431  1.00  0.00     0.041 A 
ATOM     87  F   UNL A   1      44.163  28.458  34.008  1.00  0.00    -0.206 F 
ATOM     88  C   UNL A   1      41.127  29.287  35.738  1.00  0.00     0.022 A 
BRANCH  85  89
ATOM     89  S   UNL A   1      38.921  30.878  35.181  1.00  0.00     0.124 S 
ATOM     90  O   UNL A   1      39.239  32.289  35.363  1.00  0.00    -0.237 OA
ATOM     91  O   UNL A   1      38.147  30.543  33.989  1.00  0.00    -0.237 OA
ATOM     92  O   UNL A   1      38.499  30.180  36.396  1.00  0.00    -0.744 OA
ENDBRANCH  85  89
ENDBRANCH  59  82
ENDBRANCH  33  34
ENDBRANCH  25  28
ENDBRANCH  23  24
ENDBRANCH   1  23
TORSDOF 16
ENDMDL
MODEL 3
REMARK VINA RESULT:     -11.3      3.908      7.706
REMARK SMILES C[C@@H]1CCC[C@H](C)N1C(=O)Cn1cccc1C(=O)NCCCNC(=O)c1ccc(-c2c3nc(c(-c4cc(S(=O)(=O)[O-])ccc4F)c4ccc([nH]4)c(-c4cc(S(=O)(=O)[O-])ccc4F)c4nc(c(-c5cc(S(=O)(=O)[O-])ccc5F)c5ccc2[nH]5)C=C4)C=C3)cc1
REMARK SMILES IDX 21 1 20 2 19 3 17 4 18 5 16 7 12 8 13 9 14 10 15 11 11 12
REMARK SMILES IDX 9 13 10 14 8 15 1 16 2 17 3 18 4 19 6 20 5 21 7 22 22 23
REMARK SMILES IDX 23 24 24 25 25 27 26 28 27 29 88 30 28 31 87 32 29 33 30 34
REMARK SMILES IDX 31 35 81 36 32 37 86 38 80 39 82 40 33 41 85 42 79 43 78 44
REMARK SMILES IDX 34 46 66 47 46 48 65 49 47 50 50 51 64 52 83 53 48 54 49 55
REMARK SMILES IDX 63 57 84 58 51 59 35 60 36 61 44 62 37 63 43 64 45 65 42 66
REMARK SMILES IDX 38 67 39 68 40 69 41 70 67 71 68 72 76 73 69 74 75 75 77 76
REMARK SMILES IDX 74 77 70 78 71 79 72 80 73 81 52 82 53 83 61 84 54 85 60 86
REMARK SMILES IDX 62 87 59 88 55 89 56 90 57 91 58 92
REMARK H PARENT 19 6 23 26 82 45 50 56
REMARK Flexibility Score: inf
ROOT
ATOM      1  C   UNL A   1      34.762  28.887  27.139  1.00  0.00     0.042 C 
ENDROOT
BRANCH   1   2
ATOM      2  C   UNL A   1      33.653  29.504  26.267  1.00  0.00     0.118 C 
BRANCH   2   3
ATOM      3  N   UNL A   1      33.493  29.117  24.820  1.00  0.00    -0.351 N 
ATOM      4  C   UNL A   1      32.707  28.882  23.710  1.00  0.00     0.267 C 
ATOM      5  O   UNL A   1      33.451  28.932  22.712  1.00  0.00    -0.268 OA
ATOM      6  H   UNL A   1      34.411  28.946  24.509  1.00  0.00     0.163 HD
BRANCH   4   7
ATOM      7  C   UNL A   1      31.273  28.636  23.440  1.00  0.00     0.107 A 
ATOM      8  N   UNL A   1      30.366  27.592  23.565  1.00  0.00    -0.334 N 
ATOM      9  C   UNL A   1      29.082  28.011  23.212  1.00  0.00     0.087 A 
ATOM     10  C   UNL A   1      29.209  29.148  22.468  1.00  0.00     0.020 A 
ATOM     11  C   UNL A   1      30.557  29.531  22.606  1.00  0.00     0.033 A 
BRANCH   8  12
ATOM     12  C   UNL A   1      30.552  26.153  23.646  1.00  0.00     0.222 C 
BRANCH  12  13
ATOM     13  C   UNL A   1      31.720  25.587  22.906  1.00  0.00     0.242 C 
ATOM     14  O   UNL A   1      31.744  25.829  21.700  1.00  0.00    -0.273 OA
BRANCH  13  15
ATOM     15  N   UNL A   1      32.751  24.973  23.637  1.00  0.00    -0.336 N 
ATOM     16  C   UNL A   1      32.519  22.564  23.329  1.00  0.00     0.031 C 
ATOM     17  C   UNL A   1      33.370  23.799  23.032  1.00  0.00     0.082 C 
ATOM     18  C   UNL A   1      34.853  23.684  23.386  1.00  0.00     0.025 C 
ATOM     19  C   UNL A   1      35.160  23.855  24.868  1.00  0.00     0.004 C 
ATOM     20  C   UNL A   1      33.016  25.169  25.097  1.00  0.00     0.082 C 
ATOM     21  C   UNL A   1      34.526  25.135  25.387  1.00  0.00     0.025 C 
ATOM     22  C   UNL A   1      32.268  24.260  26.077  1.00  0.00     0.031 C 
ENDBRANCH  13  15
ENDBRANCH  12  13
ENDBRANCH   8  12
ENDBRANCH   4   7
ENDBRANCH   2   3
ENDBRANCH   1   2
BRANCH   1  23
ATOM     23  C   UNL A   1      35.912  29.629  27.813  1.00  0.00     0.118 C 
BRANCH  23  24
ATOM     24  N   UNL A   1      35.689  30.271  29.083  1.00  0.00    -0.352 N 
ATOM     25  C   UNL A   1      36.413  30.008  30.243  1.00  0.00     0.251 C 
ATOM     26  H   UNL A   1      34.972  30.945  29.134  1.00  0.00     0.163 HD
ATOM     27  O   UNL A   1      35.900  30.198  31.331  1.00  0.00    -0.269 OA
BRANCH  25  28
ATOM     28  C   UNL A   1      37.799  29.460  30.152  1.00  0.00     0.039 A 
ATOM     29  C   UNL A   1      38.055  28.166  30.621  1.00  0.00     0.014 A 
ATOM     30  C   UNL A   1      38.855  30.237  29.659  1.00  0.00     0.014 A 
ATOM     31  C   UNL A   1      39.355  27.667  30.573  1.00  0.00     0.010 A 
ATOM     32  C   UNL A   1      40.122  29.704  29.498  1.00  0.00     0.010 A 
ATOM     33  C   UNL A   1      40.386  28.441  30.012  1.00  0.00    -0.014 A 
BRANCH  33  34
ATOM     34  C   UNL A   1      41.759  27.896  30.001  1.00  0.00     0.031 A 
ATOM     35  C   UNL A   1      41.897  26.861  28.867  1.00  0.00     0.074 A 
ATOM     36  C   UNL A   1      42.558  28.287  31.052  1.00  0.00     0.049 A 
ATOM     37  N   UNL A   1      42.257  25.617  28.921  1.00  0.00    -0.248 NA
ATOM     38  C   UNL A   1      41.389  27.199  27.507  1.00  0.00     0.031 C 
ATOM     39  C   UNL A   1      42.261  29.404  31.994  1.00  0.00     0.029 A 
ATOM     40  N   UNL A   1      43.760  27.852  31.570  1.00  0.00    -0.354 N 
ATOM     41  C   UNL A   1      42.263  25.101  27.600  1.00  0.00     0.074 A 
ATOM     42  C   UNL A   1      41.559  26.068  26.808  1.00  0.00     0.031 C 
ATOM     43  C   UNL A   1      43.168  29.475  32.996  1.00  0.00     0.029 A 
ATOM     44  C   UNL A   1      44.131  28.407  32.839  1.00  0.00     0.049 A 
ATOM     45  H   UNL A   1      44.327  27.202  31.098  1.00  0.00     0.167 HD
ATOM     46  C   UNL A   1      43.002  24.000  27.244  1.00  0.00     0.034 A 
ATOM     47  C   UNL A   1      45.084  27.975  33.733  1.00  0.00     0.034 A 
ATOM     48  C   UNL A   1      43.771  23.597  28.377  1.00  0.00     0.049 A 
ATOM     49  C   UNL A   1      45.685  26.825  33.041  1.00  0.00     0.074 A 
ATOM     50  C   UNL A   1      43.439  23.009  29.567  1.00  0.00     0.029 A 
ATOM     51  N   UNL A   1      45.023  24.164  28.483  1.00  0.00    -0.354 N 
ATOM     52  N   UNL A   1      46.495  26.898  32.033  1.00  0.00    -0.248 NA
ATOM     53  C   UNL A   1      45.244  25.477  33.431  1.00  0.00     0.031 C 
ATOM     54  C   UNL A   1      44.231  23.729  30.484  1.00  0.00     0.029 A 
ATOM     55  C   UNL A   1      45.206  24.473  29.803  1.00  0.00     0.049 A 
ATOM     56  H   UNL A   1      45.662  24.318  27.750  1.00  0.00     0.167 HD
ATOM     57  C   UNL A   1      46.395  25.646  31.482  1.00  0.00     0.074 A 
ATOM     58  C   UNL A   1      45.922  24.769  32.534  1.00  0.00     0.031 C 
ATOM     59  C   UNL A   1      46.148  25.514  30.153  1.00  0.00     0.034 A 
BRANCH  46  60
ATOM     60  C   UNL A   1      43.403  23.337  25.945  1.00  0.00     0.023 A 
ATOM     61  C   UNL A   1      43.284  21.918  25.910  1.00  0.00     0.031 A 
ATOM     62  C   UNL A   1      44.158  23.913  24.920  1.00  0.00     0.131 A 
ATOM     63  C   UNL A   1      44.029  21.131  25.023  1.00  0.00     0.055 A 
ATOM     64  C   UNL A   1      44.844  23.124  23.978  1.00  0.00     0.041 A 
ATOM     65  F   UNL A   1      44.327  25.239  24.836  1.00  0.00    -0.206 F 
ATOM     66  C   UNL A   1      44.819  21.730  24.052  1.00  0.00     0.022 A 
BRANCH  63  67
ATOM     67  S   UNL A   1      44.081  19.334  25.303  1.00  0.00     0.124 S 
ATOM     68  O   UNL A   1      43.045  19.151  26.314  1.00  0.00    -0.237 OA
ATOM     69  O   UNL A   1      43.779  18.808  23.975  1.00  0.00    -0.237 OA
ATOM     70  O   UNL A   1      45.449  19.103  25.764  1.00  0.00    -0.744 OA
ENDBRANCH  63  67
ENDBRANCH  46  60
BRANCH  47  71
ATOM     71  C   UNL A   1      45.556  28.194  35.174  1.00  0.00     0.023 A 
ATOM     72  C   UNL A   1      45.070  27.592  36.351  1.00  0.00     0.031 A 
ATOM     73  C   UNL A   1      46.659  29.088  35.395  1.00  0.00     0.131 A 
ATOM     74  C   UNL A   1      45.730  27.820  37.603  1.00  0.00     0.055 A 
ATOM     75  C   UNL A   1      47.359  29.221  36.593  1.00  0.00     0.041 A 
ATOM     76  F   UNL A   1      47.122  29.907  34.442  1.00  0.00    -0.206 F 
ATOM     77  C   UNL A   1      46.905  28.569  37.708  1.00  0.00     0.022 A 
BRANCH  74  78
ATOM     78  S   UNL A   1      45.084  27.155  39.173  1.00  0.00     0.124 S 
ATOM     79  O   UNL A   1      43.789  26.621  38.765  1.00  0.00    -0.237 OA
ATOM     80  O   UNL A   1      46.095  26.175  39.553  1.00  0.00    -0.237 OA
ATOM     81  O   UNL A   1      45.019  28.335  40.038  1.00  0.00    -0.744 OA
ENDBRANCH  74  78
ENDBRANCH  47  71
BRANCH  59  82
ATOM     82  C   UNL A   1      46.571  26.710  29.297  1.00  0.00     0.023 A 
ATOM     83  C   UNL A   1      45.597  27.474  28.623  1.00  0.00     0.031 A 
ATOM     84  C   UNL A   1      47.908  27.054  29.019  1.00  0.00     0.131 A 
ATOM     85  C   UNL A   1      45.961  28.486  27.710  1.00  0.00     0.055 A 
ATOM     86  C   UNL A   1      48.276  28.062  28.116  1.00  0.00     0.041 A 
ATOM     87  F   UNL A   1      48.915  26.407  29.603  1.00  0.00    -0.206 F 
ATOM     88  C   UNL A   1      47.298  28.784  27.452  1.00  0.00     0.022 A 
BRANCH  85  89
ATOM     89  S   UNL A   1      44.660  29.430  26.871  1.00  0.00     0.124 S 
ATOM     90  O   UNL A   1      43.773  29.800  27.967  1.00  0.00    -0.237 OA
ATOM     91  O   UNL A   1      45.411  30.521  26.256  1.00  0.00    -0.237 OA
ATOM     92  O   UNL A   1      44.098  28.468  25.921  1.00  0.00    -0.744 OA
ENDBRANCH  85  89
ENDBRANCH  59  82
ENDBRANCH  33  34
ENDBRANCH  25  28
ENDBRANCH  23  24
ENDBRANCH   1  23
TORSDOF 16
ENDMDL
