MODEL 1
REMARK VINA RESULT:     -13.2      0.000      0.000
REMARK SMILES Cc1noc(-c2cc(=O)n(CC(=O)NCCCNC(=O)c3ccc(-c4c5nc(c(-c6cc(S(=O)(=O)[O-])ccc6F)c6ccc([nH]6)c(-c6cc(S(=O)(=O)[O-])ccc6F)c6nc(c(-c7cc(S(=O)(=O)[O-])ccc7F)c7ccc4[nH]7)C=C6)C=C5)cc3)c3ccccc23)n1
REMARK SMILES IDX 16 1 15 2 14 3 12 4 13 5 11 7 10 8 6 9 7 10 89 11 8 12 84 13
REMARK SMILES IDX 88 14 9 15 85 16 87 17 86 18 5 19 1 20 2 21 3 22 90 23 4 24
REMARK SMILES IDX 17 25 18 26 19 27 20 29 21 30 22 31 83 32 23 33 82 34 24 35
REMARK SMILES IDX 25 36 26 37 76 38 27 39 81 40 75 41 77 42 28 43 80 44 74 45
REMARK SMILES IDX 73 46 29 48 61 49 41 50 60 51 42 52 45 53 59 54 78 55 43 56
REMARK SMILES IDX 44 57 58 59 79 60 46 61 30 62 31 63 39 64 32 65 38 66 40 67
REMARK SMILES IDX 37 68 33 69 34 70 35 71 36 72 62 73 63 74 71 75 64 76 70 77
REMARK SMILES IDX 72 78 69 79 65 80 66 81 67 82 68 83 47 84 48 85 56 86 49 87
REMARK SMILES IDX 55 88 57 89 54 90 50 91 51 92 52 93 53 94
REMARK H PARENT 14 6 18 28 77 47 45 58
REMARK Flexibility Score: inf
ROOT
ATOM      1  C   UNL A   1      31.433  29.888  25.286  1.00  0.00     0.042 C 
ENDROOT
BRANCH   1   2
ATOM      2  C   UNL A   1      32.036  28.543  24.894  1.00  0.00     0.117 C 
BRANCH   2   3
ATOM      3  N   UNL A   1      31.631  27.468  25.777  1.00  0.00    -0.354 N 
ATOM      4  C   UNL A   1      31.856  26.128  25.677  1.00  0.00     0.240 C 
ATOM      5  O   UNL A   1      31.555  25.425  26.647  1.00  0.00    -0.273 OA
ATOM      6  H   UNL A   1      31.115  27.747  26.568  1.00  0.00     0.163 HD
BRANCH   4   7
ATOM      7  C   UNL A   1      32.557  25.514  24.458  1.00  0.00     0.225 C 
BRANCH   7   8
ATOM      8  N   UNL A   1      32.744  24.060  24.476  1.00  0.00    -0.299 N 
ATOM      9  C   UNL A   1      32.981  21.217  24.542  1.00  0.00     0.055 A 
ATOM     10  C   UNL A   1      31.873  21.809  24.074  1.00  0.00     0.086 A 
ATOM     11  C   UNL A   1      34.107  22.082  24.964  1.00  0.00     0.011 A 
ATOM     12  C   UNL A   1      31.708  23.273  24.004  1.00  0.00     0.252 A 
ATOM     13  C   UNL A   1      33.980  23.485  24.913  1.00  0.00     0.053 A 
ATOM     14  C   UNL A   1      35.325  21.520  25.394  1.00  0.00     0.011 A 
ATOM     15  O   UNL A   1      30.653  23.712  23.551  1.00  0.00    -0.269 OA
ATOM     16  C   UNL A   1      35.081  24.278  25.278  1.00  0.00     0.027 A 
ATOM     17  C   UNL A   1      36.399  22.323  25.771  1.00  0.00     0.001 A 
ATOM     18  C   UNL A   1      36.278  23.702  25.709  1.00  0.00     0.002 A 
BRANCH   9  19
ATOM     19  C   UNL A   1      32.949  19.784  24.615  1.00  0.00     0.258 A 
ATOM     20  C   UNL A   1      33.903  16.477  23.815  1.00  0.00     0.093 C 
ATOM     21  C   UNL A   1      33.297  17.713  24.340  1.00  0.00     0.169 A 
ATOM     22  N   UNL A   1      32.383  17.730  25.314  1.00  0.00    -0.062 NA
ATOM     23  N   UNL A   1      33.657  18.948  23.876  1.00  0.00    -0.192 NA
ATOM     24  O   UNL A   1      32.153  19.088  25.509  1.00  0.00    -0.334 OA
ENDBRANCH   9  19
ENDBRANCH   7   8
ENDBRANCH   4   7
ENDBRANCH   2   3
ENDBRANCH   1   2
BRANCH   1  25
ATOM     25  C   UNL A   1      31.824  30.372  26.681  1.00  0.00     0.118 C 
BRANCH  25  26
ATOM     26  N   UNL A   1      31.796  31.824  26.819  1.00  0.00    -0.352 N 
ATOM     27  C   UNL A   1      32.713  32.684  27.375  1.00  0.00     0.251 C 
ATOM     28  H   UNL A   1      30.990  32.257  26.454  1.00  0.00     0.163 HD
ATOM     29  O   UNL A   1      32.420  33.871  27.506  1.00  0.00    -0.269 OA
BRANCH  27  30
ATOM     30  C   UNL A   1      34.024  32.186  27.849  1.00  0.00     0.039 A 
ATOM     31  C   UNL A   1      34.224  30.834  28.130  1.00  0.00     0.014 A 
ATOM     32  C   UNL A   1      35.075  33.094  28.019  1.00  0.00     0.014 A 
ATOM     33  C   UNL A   1      35.401  30.423  28.750  1.00  0.00     0.010 A 
ATOM     34  C   UNL A   1      36.290  32.662  28.562  1.00  0.00     0.010 A 
ATOM     35  C   UNL A   1      36.444  31.334  28.988  1.00  0.00    -0.014 A 
BRANCH  35  36
ATOM     36  C   UNL A   1      37.674  30.876  29.691  1.00  0.00     0.031 A 
ATOM     37  C   UNL A   1      37.965  31.318  31.101  1.00  0.00     0.074 A 
ATOM     38  C   UNL A   1      38.503  30.011  29.074  1.00  0.00     0.049 A 
ATOM     39  N   UNL A   1      38.959  30.978  31.881  1.00  0.00    -0.248 NA
ATOM     40  C   UNL A   1      37.022  32.266  31.718  1.00  0.00     0.031 C 
ATOM     41  C   UNL A   1      38.325  29.515  27.709  1.00  0.00     0.029 A 
ATOM     42  N   UNL A   1      39.637  29.375  29.513  1.00  0.00    -0.354 N 
ATOM     43  C   UNL A   1      38.774  31.679  33.070  1.00  0.00     0.074 A 
ATOM     44  C   UNL A   1      37.591  32.493  32.895  1.00  0.00     0.031 C 
ATOM     45  C   UNL A   1      39.277  28.611  27.443  1.00  0.00     0.029 A 
ATOM     46  C   UNL A   1      40.176  28.506  28.590  1.00  0.00     0.049 A 
ATOM     47  H   UNL A   1      40.030  29.526  30.403  1.00  0.00     0.167 HD
ATOM     48  C   UNL A   1      39.507  31.627  34.207  1.00  0.00     0.034 A 
ATOM     49  C   UNL A   1      41.267  27.717  28.654  1.00  0.00     0.034 A 
ATOM     50  C   UNL A   1      40.660  30.782  34.382  1.00  0.00     0.049 A 
ATOM     51  C   UNL A   1      42.075  27.692  29.926  1.00  0.00     0.074 A 
ATOM     52  C   UNL A   1      41.441  30.630  35.514  1.00  0.00     0.029 A 
ATOM     53  N   UNL A   1      41.191  29.941  33.415  1.00  0.00    -0.354 N 
ATOM     54  N   UNL A   1      41.852  28.320  31.056  1.00  0.00    -0.248 NA
ATOM     55  C   UNL A   1      43.282  26.853  29.937  1.00  0.00     0.031 C 
ATOM     56  C   UNL A   1      42.472  29.740  35.216  1.00  0.00     0.029 A 
ATOM     57  C   UNL A   1      42.302  29.285  33.918  1.00  0.00     0.049 A 
ATOM     58  H   UNL A   1      40.831  29.828  32.506  1.00  0.00     0.167 HD
ATOM     59  C   UNL A   1      42.876  27.938  31.917  1.00  0.00     0.074 A 
ATOM     60  C   UNL A   1      43.705  27.002  31.186  1.00  0.00     0.031 C 
ATOM     61  C   UNL A   1      43.111  28.334  33.193  1.00  0.00     0.034 A 
BRANCH  48  62
ATOM     62  C   UNL A   1      39.083  32.469  35.385  1.00  0.00     0.023 A 
ATOM     63  C   UNL A   1      39.602  33.764  35.564  1.00  0.00     0.031 A 
ATOM     64  C   UNL A   1      38.277  31.931  36.404  1.00  0.00     0.131 A 
ATOM     65  C   UNL A   1      39.333  34.463  36.748  1.00  0.00     0.055 A 
ATOM     66  C   UNL A   1      37.975  32.646  37.561  1.00  0.00     0.041 A 
ATOM     67  F   UNL A   1      37.778  30.692  36.284  1.00  0.00    -0.206 F 
ATOM     68  C   UNL A   1      38.514  33.916  37.743  1.00  0.00     0.022 A 
BRANCH  65  69
ATOM     69  S   UNL A   1      40.088  36.078  37.079  1.00  0.00     0.124 S 
ATOM     70  O   UNL A   1      39.278  36.565  38.193  1.00  0.00    -0.237 OA
ATOM     71  O   UNL A   1      41.460  35.708  37.420  1.00  0.00    -0.237 OA
ATOM     72  O   UNL A   1      39.923  36.806  35.826  1.00  0.00    -0.744 OA
ENDBRANCH  65  69
ENDBRANCH  48  62
BRANCH  49  73
ATOM     73  C   UNL A   1      41.608  26.850  27.487  1.00  0.00     0.023 A 
ATOM     74  C   UNL A   1      41.261  25.486  27.473  1.00  0.00     0.031 A 
ATOM     75  C   UNL A   1      42.381  27.345  26.425  1.00  0.00     0.131 A 
ATOM     76  C   UNL A   1      41.752  24.652  26.460  1.00  0.00     0.055 A 
ATOM     77  C   UNL A   1      42.805  26.525  25.377  1.00  0.00     0.041 A 
ATOM     78  F   UNL A   1      42.747  28.636  26.399  1.00  0.00    -0.206 F 
ATOM     79  C   UNL A   1      42.507  25.167  25.402  1.00  0.00     0.022 A 
BRANCH  76  80
ATOM     80  S   UNL A   1      41.550  22.852  26.561  1.00  0.00     0.124 S 
ATOM     81  O   UNL A   1      40.099  22.704  26.502  1.00  0.00    -0.237 OA
ATOM     82  O   UNL A   1      42.279  22.403  25.376  1.00  0.00    -0.237 OA
ATOM     83  O   UNL A   1      42.170  22.507  27.835  1.00  0.00    -0.744 OA
ENDBRANCH  76  80
ENDBRANCH  49  73
BRANCH  61  84
ATOM     84  C   UNL A   1      44.306  27.768  33.919  1.00  0.00     0.023 A 
ATOM     85  C   UNL A   1      44.154  26.644  34.755  1.00  0.00     0.031 A 
ATOM     86  C   UNL A   1      45.544  28.432  33.916  1.00  0.00     0.131 A 
ATOM     87  C   UNL A   1      45.208  26.246  35.586  1.00  0.00     0.055 A 
ATOM     88  C   UNL A   1      46.608  28.002  34.711  1.00  0.00     0.041 A 
ATOM     89  F   UNL A   1      45.734  29.515  33.144  1.00  0.00    -0.206 F 
ATOM     90  C   UNL A   1      46.436  26.915  35.563  1.00  0.00     0.022 A 
BRANCH  87  91
ATOM     91  S   UNL A   1      44.994  24.909  36.794  1.00  0.00     0.124 S 
ATOM     92  O   UNL A   1      45.597  23.775  36.098  1.00  0.00    -0.237 OA
ATOM     93  O   UNL A   1      45.746  25.408  37.942  1.00  0.00    -0.237 OA
ATOM     94  O   UNL A   1      43.548  24.828  36.978  1.00  0.00    -0.744 OA
ENDBRANCH  87  91
ENDBRANCH  61  84
ENDBRANCH  35  36
ENDBRANCH  27  30
ENDBRANCH  25  26
ENDBRANCH   1  25
TORSDOF 15
ENDMDL
MODEL 2
REMARK VINA RESULT:     -13.1      1.495      1.767
REMARK SMILES Cc1noc(-c2cc(=O)n(CC(=O)NCCCNC(=O)c3ccc(-c4c5nc(c(-c6cc(S(=O)(=O)[O-])ccc6F)c6ccc([nH]6)c(-c6cc(S(=O)(=O)[O-])ccc6F)c6nc(c(-c7cc(S(=O)(=O)[O-])ccc7F)c7ccc4[nH]7)C=C6)C=C5)cc3)c3ccccc23)n1
REMARK SMILES IDX 16 1 15 2 14 3 12 4 13 5 11 7 10 8 6 9 7 10 89 11 8 12 84 13
REMARK SMILES IDX 88 14 9 15 85 16 87 17 86 18 5 19 1 20 2 21 3 22 90 23 4 24
REMARK SMILES IDX 17 25 18 26 19 27 20 29 21 30 22 31 83 32 23 33 82 34 24 35
REMARK SMILES IDX 25 36 26 37 76 38 27 39 81 40 75 41 77 42 28 43 80 44 74 45
REMARK SMILES IDX 73 46 29 48 61 49 41 50 60 51 42 52 45 53 59 54 78 55 43 56
REMARK SMILES IDX 44 57 58 59 79 60 46 61 30 62 31 63 39 64 32 65 38 66 40 67
REMARK SMILES IDX 37 68 33 69 34 70 35 71 36 72 62 73 63 74 71 75 64 76 70 77
REMARK SMILES IDX 72 78 69 79 65 80 66 81 67 82 68 83 47 84 48 85 56 86 49 87
REMARK SMILES IDX 55 88 57 89 54 90 50 91 51 92 52 93 53 94
REMARK H PARENT 14 6 18 28 77 47 45 58
REMARK Flexibility Score: inf
ROOT
ATOM      1  C   UNL A   1      32.446  29.347  25.250  1.00  0.00     0.042 C 
ENDROOT
BRANCH   1   2
ATOM      2  C   UNL A   1      31.430  28.283  24.849  1.00  0.00     0.117 C 
BRANCH   2   3
ATOM      3  N   UNL A   1      31.298  27.232  25.838  1.00  0.00    -0.354 N 
ATOM      4  C   UNL A   1      31.802  25.966  25.836  1.00  0.00     0.240 C 
ATOM      5  O   UNL A   1      31.694  25.308  26.876  1.00  0.00    -0.273 OA
ATOM      6  H   UNL A   1      30.764  27.468  26.631  1.00  0.00     0.163 HD
BRANCH   4   7
ATOM      7  C   UNL A   1      32.573  25.404  24.635  1.00  0.00     0.225 C 
BRANCH   7   8
ATOM      8  N   UNL A   1      32.764  23.951  24.604  1.00  0.00    -0.299 N 
ATOM      9  C   UNL A   1      33.010  21.108  24.577  1.00  0.00     0.055 A 
ATOM     10  C   UNL A   1      31.889  21.711  24.153  1.00  0.00     0.086 A 
ATOM     11  C   UNL A   1      34.143  21.964  24.998  1.00  0.00     0.011 A 
ATOM     12  C   UNL A   1      31.719  23.175  24.132  1.00  0.00     0.252 A 
ATOM     13  C   UNL A   1      34.011  23.367  24.993  1.00  0.00     0.053 A 
ATOM     14  C   UNL A   1      35.372  21.393  25.382  1.00  0.00     0.011 A 
ATOM     15  O   UNL A   1      30.652  23.624  23.719  1.00  0.00    -0.269 OA
ATOM     16  C   UNL A   1      35.118  24.152  25.356  1.00  0.00     0.027 A 
ATOM     17  C   UNL A   1      36.453  22.188  25.758  1.00  0.00     0.001 A 
ATOM     18  C   UNL A   1      36.327  23.568  25.741  1.00  0.00     0.002 A 
BRANCH   9  19
ATOM     19  C   UNL A   1      32.983  19.674  24.606  1.00  0.00     0.258 A 
ATOM     20  C   UNL A   1      33.992  16.396  23.753  1.00  0.00     0.093 C 
ATOM     21  C   UNL A   1      33.355  17.613  24.287  1.00  0.00     0.169 A 
ATOM     22  N   UNL A   1      32.400  17.597  25.219  1.00  0.00    -0.062 NA
ATOM     23  N   UNL A   1      33.728  18.863  23.876  1.00  0.00    -0.192 NA
ATOM     24  O   UNL A   1      32.153  18.947  25.444  1.00  0.00    -0.334 OA
ENDBRANCH   9  19
ENDBRANCH   7   8
ENDBRANCH   4   7
ENDBRANCH   2   3
ENDBRANCH   1   2
BRANCH   1  25
ATOM     25  C   UNL A   1      32.346  29.798  26.706  1.00  0.00     0.118 C 
BRANCH  25  26
ATOM     26  N   UNL A   1      32.304  31.248  26.861  1.00  0.00    -0.352 N 
ATOM     27  C   UNL A   1      33.203  32.106  27.450  1.00  0.00     0.251 C 
ATOM     28  H   UNL A   1      31.505  31.681  26.482  1.00  0.00     0.163 HD
ATOM     29  O   UNL A   1      32.899  33.290  27.589  1.00  0.00    -0.269 OA
BRANCH  27  30
ATOM     30  C   UNL A   1      34.505  31.611  27.949  1.00  0.00     0.039 A 
ATOM     31  C   UNL A   1      34.688  30.267  28.278  1.00  0.00     0.014 A 
ATOM     32  C   UNL A   1      35.565  32.513  28.094  1.00  0.00     0.014 A 
ATOM     33  C   UNL A   1      35.856  29.865  28.920  1.00  0.00     0.010 A 
ATOM     34  C   UNL A   1      36.772  32.086  28.660  1.00  0.00     0.010 A 
ATOM     35  C   UNL A   1      36.908  30.772  29.132  1.00  0.00    -0.014 A 
BRANCH  35  36
ATOM     36  C   UNL A   1      38.129  30.325  29.858  1.00  0.00     0.031 A 
ATOM     37  C   UNL A   1      38.387  30.767  31.275  1.00  0.00     0.074 A 
ATOM     38  C   UNL A   1      38.978  29.469  29.256  1.00  0.00     0.049 A 
ATOM     39  N   UNL A   1      39.369  30.436  32.074  1.00  0.00    -0.248 NA
ATOM     40  C   UNL A   1      37.423  31.705  31.875  1.00  0.00     0.031 C 
ATOM     41  C   UNL A   1      38.832  28.975  27.887  1.00  0.00     0.029 A 
ATOM     42  N   UNL A   1      40.110  28.844  29.717  1.00  0.00    -0.354 N 
ATOM     43  C   UNL A   1      39.153  31.132  33.260  1.00  0.00     0.074 A 
ATOM     44  C   UNL A   1      37.966  31.935  33.063  1.00  0.00     0.031 C 
ATOM     45  C   UNL A   1      39.799  28.081  27.638  1.00  0.00     0.029 A 
ATOM     46  C   UNL A   1      40.675  27.983  28.803  1.00  0.00     0.049 A 
ATOM     47  H   UNL A   1      40.484  28.997  30.615  1.00  0.00     0.167 HD
ATOM     48  C   UNL A   1      39.865  31.086  34.411  1.00  0.00     0.034 A 
ATOM     49  C   UNL A   1      41.773  27.204  28.887  1.00  0.00     0.034 A 
ATOM     50  C   UNL A   1      41.022  30.252  34.607  1.00  0.00     0.049 A 
ATOM     51  C   UNL A   1      42.556  27.185  30.175  1.00  0.00     0.074 A 
ATOM     52  C   UNL A   1      41.783  30.105  35.754  1.00  0.00     0.029 A 
ATOM     53  N   UNL A   1      41.581  29.418  33.650  1.00  0.00    -0.354 N 
ATOM     54  N   UNL A   1      42.305  27.809  31.301  1.00  0.00    -0.248 NA
ATOM     55  C   UNL A   1      43.771  26.358  30.209  1.00  0.00     0.031 C 
ATOM     56  C   UNL A   1      42.828  29.226  35.475  1.00  0.00     0.029 A 
ATOM     57  C   UNL A   1      42.688  28.772  34.173  1.00  0.00     0.049 A 
ATOM     58  H   UNL A   1      41.240  29.303  32.733  1.00  0.00     0.167 HD
ATOM     59  C   UNL A   1      43.315  27.435  32.182  1.00  0.00     0.074 A 
ATOM     60  C   UNL A   1      44.167  26.508  31.466  1.00  0.00     0.031 C 
ATOM     61  C   UNL A   1      43.521  27.831  33.463  1.00  0.00     0.034 A 
BRANCH  48  62
ATOM     62  C   UNL A   1      39.408  31.921  35.582  1.00  0.00     0.023 A 
ATOM     63  C   UNL A   1      38.665  31.343  36.627  1.00  0.00     0.031 A 
ATOM     64  C   UNL A   1      39.586  33.315  35.587  1.00  0.00     0.131 A 
ATOM     65  C   UNL A   1      38.103  32.162  37.616  1.00  0.00     0.055 A 
ATOM     66  C   UNL A   1      39.064  34.123  36.596  1.00  0.00     0.041 A 
ATOM     67  F   UNL A   1      40.271  33.910  34.598  1.00  0.00    -0.206 F 
ATOM     68  C   UNL A   1      38.306  33.547  37.611  1.00  0.00     0.022 A 
BRANCH  65  69
ATOM     69  S   UNL A   1      37.028  31.477  38.906  1.00  0.00     0.124 S 
ATOM     70  O   UNL A   1      36.815  30.114  38.424  1.00  0.00    -0.237 OA
ATOM     71  O   UNL A   1      37.868  31.594  40.095  1.00  0.00    -0.237 OA
ATOM     72  O   UNL A   1      35.852  32.338  38.875  1.00  0.00    -0.744 OA
ENDBRANCH  65  69
ENDBRANCH  48  62
BRANCH  49  73
ATOM     73  C   UNL A   1      42.145  26.343  27.726  1.00  0.00     0.023 A 
ATOM     74  C   UNL A   1      41.628  25.041  27.594  1.00  0.00     0.031 A 
ATOM     75  C   UNL A   1      43.108  26.767  26.795  1.00  0.00     0.131 A 
ATOM     76  C   UNL A   1      42.131  24.186  26.605  1.00  0.00     0.055 A 
ATOM     77  C   UNL A   1      43.553  25.937  25.765  1.00  0.00     0.041 A 
ATOM     78  F   UNL A   1      43.641  27.995  26.886  1.00  0.00    -0.206 F 
ATOM     79  C   UNL A   1      43.079  24.632  25.678  1.00  0.00     0.022 A 
BRANCH  76  80
ATOM     80  S   UNL A   1      41.684  22.428  26.582  1.00  0.00     0.124 S 
ATOM     81  O   UNL A   1      42.353  21.960  25.372  1.00  0.00    -0.237 OA
ATOM     82  O   UNL A   1      42.256  21.958  27.842  1.00  0.00    -0.237 OA
ATOM     83  O   UNL A   1      40.226  22.445  26.533  1.00  0.00    -0.744 OA
ENDBRANCH  76  80
ENDBRANCH  49  73
BRANCH  61  84
ATOM     84  C   UNL A   1      44.707  27.275  34.212  1.00  0.00     0.023 A 
ATOM     85  C   UNL A   1      44.546  26.158  35.055  1.00  0.00     0.031 A 
ATOM     86  C   UNL A   1      45.943  27.944  34.221  1.00  0.00     0.131 A 
ATOM     87  C   UNL A   1      45.590  25.771  35.905  1.00  0.00     0.055 A 
ATOM     88  C   UNL A   1      46.996  27.524  35.035  1.00  0.00     0.041 A 
ATOM     89  F   UNL A   1      46.140  29.020  33.442  1.00  0.00    -0.206 F 
ATOM     90  C   UNL A   1      46.815  26.444  35.894  1.00  0.00     0.022 A 
BRANCH  87  91
ATOM     91  S   UNL A   1      45.362  24.444  37.121  1.00  0.00     0.124 S 
ATOM     92  O   UNL A   1      44.102  24.827  37.752  1.00  0.00    -0.237 OA
ATOM     93  O   UNL A   1      45.301  23.257  36.274  1.00  0.00    -0.237 OA
ATOM     94  O   UNL A   1      46.541  24.544  37.977  1.00  0.00    -0.744 OA
ENDBRANCH  87  91
ENDBRANCH  61  84
ENDBRANCH  35  36
ENDBRANCH  27  30
ENDBRANCH  25  26
ENDBRANCH   1  25
TORSDOF 15
ENDMDL
MODEL 3
REMARK VINA RESULT:     -13.0      4.947     10.409
REMARK SMILES Cc1noc(-c2cc(=O)n(CC(=O)NCCCNC(=O)c3ccc(-c4c5nc(c(-c6cc(S(=O)(=O)[O-])ccc6F)c6ccc([nH]6)c(-c6cc(S(=O)(=O)[O-])ccc6F)c6nc(c(-c7cc(S(=O)(=O)[O-])ccc7F)c7ccc4[nH]7)C=C6)C=C5)cc3)c3ccccc23)n1
REMARK SMILES IDX 16 1 15 2 14 3 12 4 13 5 11 7 10 8 6 9 7 10 89 11 8 12 84 13
REMARK SMILES IDX 88 14 9 15 85 16 87 17 86 18 5 19 1 20 2 21 3 22 90 23 4 24
REMARK SMILES IDX 17 25 18 26 19 27 20 29 21 30 22 31 83 32 23 33 82 34 24 35
REMARK SMILES IDX 25 36 26 37 76 38 27 39 81 40 75 41 77 42 28 43 80 44 74 45
REMARK SMILES IDX 73 46 29 48 61 49 41 50 60 51 42 52 45 53 59 54 78 55 43 56
REMARK SMILES IDX 44 57 58 59 79 60 46 61 30 62 31 63 39 64 32 65 38 66 40 67
REMARK SMILES IDX 37 68 33 69 34 70 35 71 36 72 62 73 63 74 71 75 64 76 70 77
REMARK SMILES IDX 72 78 69 79 65 80 66 81 67 82 68 83 47 84 48 85 56 86 49 87
REMARK SMILES IDX 55 88 57 89 54 90 50 91 51 92 52 93 53 94
REMARK H PARENT 14 6 18 28 77 47 45 58
REMARK Flexibility Score: inf
ROOT
ATOM      1  C   UNL A   1      36.029  21.148  25.460  1.00  0.00     0.042 C 
ENDROOT
BRANCH   1   2
ATOM      2  C   UNL A   1      34.820  22.075  25.406  1.00  0.00     0.117 C 
BRANCH   2   3
ATOM      3  N   UNL A   1      34.798  22.900  24.214  1.00  0.00    -0.354 N 
ATOM      4  C   UNL A   1      33.992  23.952  23.899  1.00  0.00     0.240 C 
ATOM      5  O   UNL A   1      34.278  24.607  22.891  1.00  0.00    -0.273 OA
ATOM      6  H   UNL A   1      35.466  22.664  23.530  1.00  0.00     0.163 HD
BRANCH   4   7
ATOM      7  C   UNL A   1      32.836  24.388  24.808  1.00  0.00     0.225 C 
BRANCH   7   8
ATOM      8  N   UNL A   1      32.119  25.605  24.415  1.00  0.00    -0.299 N 
ATOM      9  C   UNL A   1      30.707  27.921  23.531  1.00  0.00     0.055 A 
ATOM     10  C   UNL A   1      30.354  26.695  23.119  1.00  0.00     0.086 A 
ATOM     11  C   UNL A   1      31.812  28.034  24.512  1.00  0.00     0.011 A 
ATOM     12  C   UNL A   1      31.040  25.467  23.559  1.00  0.00     0.252 A 
ATOM     13  C   UNL A   1      32.491  26.879  24.950  1.00  0.00     0.053 A 
ATOM     14  C   UNL A   1      32.180  29.287  25.040  1.00  0.00     0.011 A 
ATOM     15  O   UNL A   1      30.632  24.392  23.124  1.00  0.00    -0.269 OA
ATOM     16  C   UNL A   1      33.505  27.014  25.913  1.00  0.00     0.027 A 
ATOM     17  C   UNL A   1      33.202  29.403  25.980  1.00  0.00     0.001 A 
ATOM     18  C   UNL A   1      33.862  28.267  26.419  1.00  0.00     0.002 A 
BRANCH   9  19
ATOM     19  C   UNL A   1      29.987  29.016  22.947  1.00  0.00     0.258 A 
ATOM     20  C   UNL A   1      28.027  31.957  22.917  1.00  0.00     0.093 C 
ATOM     21  C   UNL A   1      28.825  30.755  22.614  1.00  0.00     0.169 A 
ATOM     22  N   UNL A   1      29.181  30.400  21.377  1.00  0.00    -0.062 NA
ATOM     23  N   UNL A   1      29.285  29.926  23.599  1.00  0.00    -0.192 NA
ATOM     24  O   UNL A   1      29.953  29.261  21.585  1.00  0.00    -0.334 OA
ENDBRANCH   9  19
ENDBRANCH   7   8
ENDBRANCH   4   7
ENDBRANCH   2   3
ENDBRANCH   1   2
BRANCH   1  25
ATOM     25  C   UNL A   1      37.375  21.867  25.517  1.00  0.00     0.118 C 
BRANCH  25  26
ATOM     26  N   UNL A   1      38.501  20.970  25.751  1.00  0.00    -0.352 N 
ATOM     27  C   UNL A   1      39.747  21.224  26.275  1.00  0.00     0.251 C 
ATOM     28  H   UNL A   1      38.343  20.033  25.493  1.00  0.00     0.163 HD
ATOM     29  O   UNL A   1      40.598  20.336  26.257  1.00  0.00    -0.269 OA
BRANCH  27  30
ATOM     30  C   UNL A   1      40.080  22.559  26.819  1.00  0.00     0.039 A 
ATOM     31  C   UNL A   1      39.543  23.721  26.261  1.00  0.00     0.014 A 
ATOM     32  C   UNL A   1      40.951  22.651  27.911  1.00  0.00     0.014 A 
ATOM     33  C   UNL A   1      40.016  24.966  26.667  1.00  0.00     0.010 A 
ATOM     34  C   UNL A   1      41.359  23.907  28.375  1.00  0.00     0.010 A 
ATOM     35  C   UNL A   1      40.941  25.075  27.720  1.00  0.00    -0.014 A 
BRANCH  35  36
ATOM     36  C   UNL A   1      41.461  26.416  28.105  1.00  0.00     0.031 A 
ATOM     37  C   UNL A   1      42.862  26.832  27.738  1.00  0.00     0.074 A 
ATOM     38  C   UNL A   1      40.646  27.283  28.738  1.00  0.00     0.049 A 
ATOM     39  N   UNL A   1      43.461  27.977  27.948  1.00  0.00    -0.248 NA
ATOM     40  C   UNL A   1      43.702  25.838  27.050  1.00  0.00     0.031 C 
ATOM     41  C   UNL A   1      39.272  26.989  29.146  1.00  0.00     0.029 A 
ATOM     42  N   UNL A   1      40.837  28.586  29.124  1.00  0.00    -0.354 N 
ATOM     43  C   UNL A   1      44.747  27.838  27.435  1.00  0.00     0.074 A 
ATOM     44  C   UNL A   1      44.856  26.484  26.938  1.00  0.00     0.031 C 
ATOM     45  C   UNL A   1      38.725  28.094  29.670  1.00  0.00     0.029 A 
ATOM     46  C   UNL A   1      39.725  29.159  29.699  1.00  0.00     0.049 A 
ATOM     47  H   UNL A   1      41.688  29.066  29.003  1.00  0.00     0.167 HD
ATOM     48  C   UNL A   1      45.736  28.762  27.365  1.00  0.00     0.034 A 
ATOM     49  C   UNL A   1      39.528  30.397  30.195  1.00  0.00     0.034 A 
ATOM     50  C   UNL A   1      45.601  30.119  27.828  1.00  0.00     0.049 A 
ATOM     51  C   UNL A   1      40.651  31.400  30.119  1.00  0.00     0.074 A 
ATOM     52  C   UNL A   1      46.534  31.139  27.759  1.00  0.00     0.029 A 
ATOM     53  N   UNL A   1      44.472  30.651  28.431  1.00  0.00    -0.354 N 
ATOM     54  N   UNL A   1      41.840  31.266  29.583  1.00  0.00    -0.248 NA
ATOM     55  C   UNL A   1      40.409  32.723  30.713  1.00  0.00     0.031 C 
ATOM     56  C   UNL A   1      45.989  32.270  28.365  1.00  0.00     0.029 A 
ATOM     57  C   UNL A   1      44.692  31.979  28.758  1.00  0.00     0.049 A 
ATOM     58  H   UNL A   1      43.637  30.158  28.601  1.00  0.00     0.167 HD
ATOM     59  C   UNL A   1      42.481  32.489  29.756  1.00  0.00     0.074 A 
ATOM     60  C   UNL A   1      41.536  33.361  30.422  1.00  0.00     0.031 C 
ATOM     61  C   UNL A   1      43.739  32.851  29.401  1.00  0.00     0.034 A 
BRANCH  48  62
ATOM     62  C   UNL A   1      47.049  28.374  26.730  1.00  0.00     0.023 A 
ATOM     63  C   UNL A   1      47.159  28.247  25.333  1.00  0.00     0.031 A 
ATOM     64  C   UNL A   1      48.147  27.991  27.520  1.00  0.00     0.131 A 
ATOM     65  C   UNL A   1      48.331  27.722  24.774  1.00  0.00     0.055 A 
ATOM     66  C   UNL A   1      49.329  27.510  26.957  1.00  0.00     0.041 A 
ATOM     67  F   UNL A   1      48.077  28.076  28.856  1.00  0.00    -0.206 F 
ATOM     68  C   UNL A   1      49.420  27.362  25.577  1.00  0.00     0.022 A 
BRANCH  65  69
ATOM     69  S   UNL A   1      48.468  27.417  22.991  1.00  0.00     0.124 S 
ATOM     70  O   UNL A   1      47.378  28.235  22.464  1.00  0.00    -0.237 OA
ATOM     71  O   UNL A   1      49.813  27.907  22.701  1.00  0.00    -0.237 OA
ATOM     72  O   UNL A   1      48.280  25.976  22.867  1.00  0.00    -0.744 OA
ENDBRANCH  65  69
ENDBRANCH  48  62
BRANCH  49  73
ATOM     73  C   UNL A   1      38.189  30.754  30.751  1.00  0.00     0.023 A 
ATOM     74  C   UNL A   1      37.224  31.400  29.956  1.00  0.00     0.031 A 
ATOM     75  C   UNL A   1      37.899  30.558  32.111  1.00  0.00     0.131 A 
ATOM     76  C   UNL A   1      36.051  31.892  30.544  1.00  0.00     0.055 A 
ATOM     77  C   UNL A   1      36.696  30.985  32.677  1.00  0.00     0.041 A 
ATOM     78  F   UNL A   1      38.793  29.959  32.913  1.00  0.00    -0.206 F 
ATOM     79  C   UNL A   1      35.774  31.673  31.896  1.00  0.00     0.022 A 
BRANCH  76  80
ATOM     80  S   UNL A   1      34.921  32.959  29.608  1.00  0.00     0.124 S 
ATOM     81  O   UNL A   1      35.840  33.911  28.993  1.00  0.00    -0.237 OA
ATOM     82  O   UNL A   1      34.297  32.003  28.694  1.00  0.00    -0.237 OA
ATOM     83  O   UNL A   1      34.036  33.504  30.631  1.00  0.00    -0.744 OA
ENDBRANCH  76  80
ENDBRANCH  49  73
BRANCH  61  84
ATOM     84  C   UNL A   1      44.202  34.255  29.707  1.00  0.00     0.023 A 
ATOM     85  C   UNL A   1      44.021  35.278  28.755  1.00  0.00     0.031 A 
ATOM     86  C   UNL A   1      44.962  34.539  30.854  1.00  0.00     0.131 A 
ATOM     87  C   UNL A   1      44.631  36.523  28.948  1.00  0.00     0.055 A 
ATOM     88  C   UNL A   1      45.527  35.797  31.064  1.00  0.00     0.041 A 
ATOM     89  F   UNL A   1      45.171  33.592  31.784  1.00  0.00    -0.206 F 
ATOM     90  C   UNL A   1      45.377  36.790  30.100  1.00  0.00     0.022 A 
BRANCH  87  91
ATOM     91  S   UNL A   1      44.559  37.808  27.668  1.00  0.00     0.124 S 
ATOM     92  O   UNL A   1      43.408  37.381  26.877  1.00  0.00    -0.237 OA
ATOM     93  O   UNL A   1      44.358  39.019  28.459  1.00  0.00    -0.237 OA
ATOM     94  O   UNL A   1      45.850  37.706  26.993  1.00  0.00    -0.744 OA
ENDBRANCH  87  91
ENDBRANCH  61  84
ENDBRANCH  35  36
ENDBRANCH  27  30
ENDBRANCH  25  26
ENDBRANCH   1  25
TORSDOF 15
ENDMDL
