MODEL 1
REMARK VINA RESULT:     -13.5      0.000      0.000
REMARK SMILES Cc1ccc(NC(=O)C[C@H]2SC[C@H](C(=O)NCCCNC(=O)c3ccc(-c4c5nc(c(-c6cc(S(=O)(=O)[O-])ccc6F)c6ccc([nH]6)c(-c6cc(S(=O)(=O)[O-])ccc6F)c6nc(c(-c7cc(S(=O)(=O)[O-])ccc7F)c7ccc4[nH]7)C=C6)C=C5)cc3)NC2=O)cc1
REMARK SMILES IDX 18 1 17 2 16 3 14 4 15 5 13 7 10 8 11 9 87 10 12 11 86 12
REMARK SMILES IDX 88 13 9 15 7 16 6 17 8 19 5 20 1 21 2 22 3 23 90 24 4 25
REMARK SMILES IDX 89 26 19 27 20 28 21 29 22 31 23 32 24 33 85 34 25 35 84 36
REMARK SMILES IDX 26 37 27 38 28 39 78 40 29 41 83 42 77 43 79 44 30 45 82 46
REMARK SMILES IDX 76 47 75 48 31 50 63 51 43 52 62 53 44 54 47 55 61 56 80 57
REMARK SMILES IDX 45 58 46 59 60 61 81 62 48 63 32 64 33 65 41 66 34 67 40 68
REMARK SMILES IDX 42 69 39 70 35 71 36 72 37 73 38 74 64 75 65 76 73 77 66 78
REMARK SMILES IDX 72 79 74 80 71 81 67 82 68 83 69 84 70 85 49 86 50 87 58 88
REMARK SMILES IDX 51 89 57 90 59 91 56 92 52 93 53 94 54 95 55 96
REMARK H PARENT 16 6 86 14 6 18 20 30 79 49 47 60
REMARK Flexibility Score: inf
ROOT
ATOM      1  C   UNL A   1      32.921  30.956  27.065  1.00  0.00     0.042 C 
ENDROOT
BRANCH   1   2
ATOM      2  C   UNL A   1      32.284  30.116  25.957  1.00  0.00     0.117 C 
BRANCH   2   3
ATOM      3  N   UNL A   1      33.237  29.765  24.913  1.00  0.00    -0.354 N 
ATOM      4  C   UNL A   1      33.301  28.693  24.073  1.00  0.00     0.243 C 
ATOM      5  O   UNL A   1      34.307  28.540  23.374  1.00  0.00    -0.273 OA
ATOM      6  H   UNL A   1      33.964  30.418  24.791  1.00  0.00     0.163 HD
BRANCH   4   7
ATOM      7  C   UNL A   1      32.182  27.635  24.029  1.00  0.00     0.181 C 
ATOM      8  C   UNL A   1      31.494  24.850  24.985  1.00  0.00     0.145 C 
ATOM      9  S   UNL A   1      31.354  25.108  23.166  1.00  0.00    -0.145 SA
ATOM     10  C   UNL A   1      31.058  26.132  25.704  1.00  0.00     0.234 C 
ATOM     11  C   UNL A   1      32.528  26.498  23.068  1.00  0.00     0.105 C 
ATOM     12  N   UNL A   1      31.758  27.267  25.383  1.00  0.00    -0.343 N 
ATOM     13  O   UNL A   1      30.211  26.186  26.591  1.00  0.00    -0.274 OA
ATOM     14  H   UNL A   1      31.993  27.880  26.116  1.00  0.00     0.164 HD
BRANCH   8  15
ATOM     15  C   UNL A   1      30.840  23.523  25.379  1.00  0.00     0.124 C 
BRANCH  15  16
ATOM     16  C   UNL A   1      31.041  23.003  26.787  1.00  0.00     0.226 C 
ATOM     17  N   UNL A   1      32.228  22.540  27.255  1.00  0.00    -0.326 N 
ATOM     18  H   UNL A   1      32.223  22.368  28.225  1.00  0.00     0.169 HD
ATOM     19  O   UNL A   1      30.078  22.987  27.564  1.00  0.00    -0.275 OA
BRANCH  17  20
ATOM     20  C   UNL A   1      33.459  22.253  26.651  1.00  0.00     0.041 A 
ATOM     21  C   UNL A   1      37.144  21.044  24.761  1.00  0.00     0.044 C 
ATOM     22  C   UNL A   1      35.850  21.481  25.383  1.00  0.00    -0.051 A 
ATOM     23  C   UNL A   1      35.778  22.676  26.110  1.00  0.00     0.005 A 
ATOM     24  C   UNL A   1      34.708  20.686  25.277  1.00  0.00     0.005 A 
ATOM     25  C   UNL A   1      34.586  23.064  26.736  1.00  0.00     0.026 A 
ATOM     26  C   UNL A   1      33.518  21.080  25.890  1.00  0.00     0.026 A 
ENDBRANCH  17  20
ENDBRANCH  15  16
ENDBRANCH   8  15
ENDBRANCH   4   7
ENDBRANCH   2   3
ENDBRANCH   1   2
BRANCH   1  27
ATOM     27  C   UNL A   1      34.211  30.372  27.635  1.00  0.00     0.118 C 
BRANCH  27  28
ATOM     28  N   UNL A   1      34.882  31.276  28.567  1.00  0.00    -0.352 N 
ATOM     29  C   UNL A   1      36.095  31.109  29.213  1.00  0.00     0.251 C 
ATOM     30  H   UNL A   1      34.408  32.117  28.762  1.00  0.00     0.163 HD
ATOM     31  O   UNL A   1      36.562  31.966  29.947  1.00  0.00    -0.269 OA
BRANCH  29  32
ATOM     32  C   UNL A   1      36.884  29.901  28.891  1.00  0.00     0.039 A 
ATOM     33  C   UNL A   1      37.186  29.035  29.948  1.00  0.00     0.014 A 
ATOM     34  C   UNL A   1      37.524  29.782  27.661  1.00  0.00     0.014 A 
ATOM     35  C   UNL A   1      38.297  28.204  29.845  1.00  0.00     0.010 A 
ATOM     36  C   UNL A   1      38.674  29.015  27.587  1.00  0.00     0.010 A 
ATOM     37  C   UNL A   1      39.099  28.282  28.703  1.00  0.00    -0.014 A 
BRANCH  37  38
ATOM     38  C   UNL A   1      40.477  27.792  28.695  1.00  0.00     0.031 A 
ATOM     39  C   UNL A   1      40.812  26.423  28.256  1.00  0.00     0.074 A 
ATOM     40  C   UNL A   1      41.477  28.592  29.129  1.00  0.00     0.049 A 
ATOM     41  N   UNL A   1      41.779  25.725  28.755  1.00  0.00    -0.248 NA
ATOM     42  C   UNL A   1      40.054  25.716  27.232  1.00  0.00     0.031 C 
ATOM     43  C   UNL A   1      42.914  28.345  29.031  1.00  0.00     0.029 A 
ATOM     44  N   UNL A   1      41.370  29.688  29.982  1.00  0.00    -0.354 N 
ATOM     45  C   UNL A   1      41.947  24.621  27.955  1.00  0.00     0.074 A 
ATOM     46  C   UNL A   1      40.809  24.625  27.061  1.00  0.00     0.031 C 
ATOM     47  C   UNL A   1      43.540  29.064  29.975  1.00  0.00     0.029 A 
ATOM     48  C   UNL A   1      42.522  29.707  30.786  1.00  0.00     0.049 A 
ATOM     49  H   UNL A   1      40.624  30.329  30.017  1.00  0.00     0.167 HD
ATOM     50  C   UNL A   1      43.094  23.888  28.017  1.00  0.00     0.034 A 
ATOM     51  C   UNL A   1      42.445  29.668  32.146  1.00  0.00     0.034 A 
ATOM     52  C   UNL A   1      44.048  24.423  28.981  1.00  0.00     0.049 A 
ATOM     53  C   UNL A   1      43.162  28.487  32.756  1.00  0.00     0.074 A 
ATOM     54  C   UNL A   1      45.165  25.229  28.837  1.00  0.00     0.029 A 
ATOM     55  N   UNL A   1      43.768  24.376  30.342  1.00  0.00    -0.354 N 
ATOM     56  N   UNL A   1      43.544  27.438  32.081  1.00  0.00    -0.248 NA
ATOM     57  C   UNL A   1      43.480  28.382  34.177  1.00  0.00     0.031 C 
ATOM     58  C   UNL A   1      45.524  25.714  30.119  1.00  0.00     0.029 A 
ATOM     59  C   UNL A   1      44.645  25.180  31.044  1.00  0.00     0.049 A 
ATOM     60  H   UNL A   1      43.045  23.844  30.748  1.00  0.00     0.167 HD
ATOM     61  C   UNL A   1      44.113  26.526  32.934  1.00  0.00     0.074 A 
ATOM     62  C   UNL A   1      44.076  27.179  34.230  1.00  0.00     0.031 C 
ATOM     63  C   UNL A   1      44.554  25.307  32.494  1.00  0.00     0.034 A 
BRANCH  50  64
ATOM     64  C   UNL A   1      43.452  22.879  26.956  1.00  0.00     0.023 A 
ATOM     65  C   UNL A   1      42.854  21.603  26.966  1.00  0.00     0.031 A 
ATOM     66  C   UNL A   1      44.397  23.107  25.939  1.00  0.00     0.131 A 
ATOM     67  C   UNL A   1      43.272  20.594  26.080  1.00  0.00     0.055 A 
ATOM     68  C   UNL A   1      44.858  22.089  25.095  1.00  0.00     0.041 A 
ATOM     69  F   UNL A   1      44.900  24.332  25.721  1.00  0.00    -0.206 F 
ATOM     70  C   UNL A   1      44.306  20.817  25.173  1.00  0.00     0.022 A 
BRANCH  67  71
ATOM     71  S   UNL A   1      42.442  18.981  26.124  1.00  0.00     0.124 S 
ATOM     72  O   UNL A   1      43.206  18.209  25.150  1.00  0.00    -0.237 OA
ATOM     73  O   UNL A   1      42.599  18.593  27.522  1.00  0.00    -0.237 OA
ATOM     74  O   UNL A   1      41.070  19.294  25.722  1.00  0.00    -0.744 OA
ENDBRANCH  67  71
ENDBRANCH  50  64
BRANCH  51  75
ATOM     75  C   UNL A   1      41.224  30.324  32.692  1.00  0.00     0.023 A 
ATOM     76  C   UNL A   1      41.183  31.734  32.648  1.00  0.00     0.031 A 
ATOM     77  C   UNL A   1      40.016  29.640  32.872  1.00  0.00     0.131 A 
ATOM     78  C   UNL A   1      39.955  32.407  32.595  1.00  0.00     0.055 A 
ATOM     79  C   UNL A   1      38.793  30.325  32.907  1.00  0.00     0.041 A 
ATOM     80  F   UNL A   1      39.984  28.299  32.892  1.00  0.00    -0.206 F 
ATOM     81  C   UNL A   1      38.755  31.709  32.720  1.00  0.00     0.022 A 
BRANCH  78  82
ATOM     82  S   UNL A   1      39.955  34.139  32.042  1.00  0.00     0.124 S 
ATOM     83  O   UNL A   1      40.086  34.009  30.597  1.00  0.00    -0.237 OA
ATOM     84  O   UNL A   1      38.664  34.629  32.529  1.00  0.00    -0.237 OA
ATOM     85  O   UNL A   1      41.102  34.732  32.727  1.00  0.00    -0.744 OA
ENDBRANCH  78  82
ENDBRANCH  51  75
BRANCH  63  86
ATOM     86  C   UNL A   1      45.035  24.168  33.368  1.00  0.00     0.023 A 
ATOM     87  C   UNL A   1      46.283  24.157  34.009  1.00  0.00     0.031 A 
ATOM     88  C   UNL A   1      44.197  23.058  33.644  1.00  0.00     0.131 A 
ATOM     89  C   UNL A   1      46.694  23.058  34.788  1.00  0.00     0.055 A 
ATOM     90  C   UNL A   1      44.577  22.004  34.482  1.00  0.00     0.041 A 
ATOM     91  F   UNL A   1      42.969  22.951  33.116  1.00  0.00    -0.206 F 
ATOM     92  C   UNL A   1      45.841  21.990  35.046  1.00  0.00     0.022 A 
BRANCH  89  93
ATOM     93  S   UNL A   1      48.399  23.033  35.402  1.00  0.00     0.124 S 
ATOM     94  O   UNL A   1      48.311  22.063  36.490  1.00  0.00    -0.237 OA
ATOM     95  O   UNL A   1      49.149  22.600  34.226  1.00  0.00    -0.237 OA
ATOM     96  O   UNL A   1      48.638  24.412  35.818  1.00  0.00    -0.744 OA
ENDBRANCH  89  93
ENDBRANCH  63  86
ENDBRANCH  37  38
ENDBRANCH  29  32
ENDBRANCH  27  28
ENDBRANCH   1  27
TORSDOF 16
ENDMDL
MODEL 2
REMARK VINA RESULT:     -13.3      4.024     10.602
REMARK SMILES Cc1ccc(NC(=O)C[C@H]2SC[C@H](C(=O)NCCCNC(=O)c3ccc(-c4c5nc(c(-c6cc(S(=O)(=O)[O-])ccc6F)c6ccc([nH]6)c(-c6cc(S(=O)(=O)[O-])ccc6F)c6nc(c(-c7cc(S(=O)(=O)[O-])ccc7F)c7ccc4[nH]7)C=C6)C=C5)cc3)NC2=O)cc1
REMARK SMILES IDX 18 1 17 2 16 3 14 4 15 5 13 7 10 8 11 9 87 10 12 11 86 12
REMARK SMILES IDX 88 13 9 15 7 16 6 17 8 19 5 20 1 21 2 22 3 23 90 24 4 25
REMARK SMILES IDX 89 26 19 27 20 28 21 29 22 31 23 32 24 33 85 34 25 35 84 36
REMARK SMILES IDX 26 37 27 38 28 39 78 40 29 41 83 42 77 43 79 44 30 45 82 46
REMARK SMILES IDX 76 47 75 48 31 50 63 51 43 52 62 53 44 54 47 55 61 56 80 57
REMARK SMILES IDX 45 58 46 59 60 61 81 62 48 63 32 64 33 65 41 66 34 67 40 68
REMARK SMILES IDX 42 69 39 70 35 71 36 72 37 73 38 74 64 75 65 76 73 77 66 78
REMARK SMILES IDX 72 79 74 80 71 81 67 82 68 83 69 84 70 85 49 86 50 87 58 88
REMARK SMILES IDX 51 89 57 90 59 91 56 92 52 93 53 94 54 95 55 96
REMARK H PARENT 16 6 86 14 6 18 20 30 79 49 47 60
REMARK Flexibility Score: inf
ROOT
ATOM      1  C   UNL A   1      38.353  21.545  25.499  1.00  0.00     0.042 C 
ENDROOT
BRANCH   1   2
ATOM      2  C   UNL A   1      36.846  21.441  25.260  1.00  0.00     0.117 C 
BRANCH   2   3
ATOM      3  N   UNL A   1      36.073  21.815  26.437  1.00  0.00    -0.354 N 
ATOM      4  C   UNL A   1      34.794  22.267  26.570  1.00  0.00     0.243 C 
ATOM      5  O   UNL A   1      34.414  22.672  27.672  1.00  0.00    -0.273 OA
ATOM      6  H   UNL A   1      36.561  21.724  27.288  1.00  0.00     0.163 HD
BRANCH   4   7
ATOM      7  C   UNL A   1      33.838  22.348  25.364  1.00  0.00     0.181 C 
ATOM      8  C   UNL A   1      32.591  24.318  23.438  1.00  0.00     0.145 C 
ATOM      9  S   UNL A   1      31.396  23.247  24.344  1.00  0.00    -0.145 SA
ATOM     10  C   UNL A   1      33.853  23.504  23.130  1.00  0.00     0.234 C 
ATOM     11  C   UNL A   1      32.474  22.903  25.771  1.00  0.00     0.105 C 
ATOM     12  N   UNL A   1      34.501  22.969  24.214  1.00  0.00    -0.343 N 
ATOM     13  O   UNL A   1      34.357  23.384  22.017  1.00  0.00    -0.274 OA
ATOM     14  H   UNL A   1      35.485  23.003  24.219  1.00  0.00     0.164 HD
BRANCH   8  15
ATOM     15  C   UNL A   1      31.882  25.045  22.293  1.00  0.00     0.124 C 
BRANCH  15  16
ATOM     16  C   UNL A   1      32.675  26.021  21.449  1.00  0.00     0.226 C 
ATOM     17  N   UNL A   1      33.003  27.274  21.857  1.00  0.00    -0.326 N 
ATOM     18  H   UNL A   1      33.633  27.727  21.251  1.00  0.00     0.169 HD
ATOM     19  O   UNL A   1      33.046  25.675  20.320  1.00  0.00    -0.275 OA
BRANCH  17  20
ATOM     20  C   UNL A   1      32.635  28.058  22.957  1.00  0.00     0.041 A 
ATOM     21  C   UNL A   1      31.785  30.366  26.502  1.00  0.00     0.044 C 
ATOM     22  C   UNL A   1      32.093  29.598  25.250  1.00  0.00    -0.051 A 
ATOM     23  C   UNL A   1      31.082  29.310  24.325  1.00  0.00     0.005 A 
ATOM     24  C   UNL A   1      33.385  29.127  25.006  1.00  0.00     0.005 A 
ATOM     25  C   UNL A   1      31.353  28.548  23.181  1.00  0.00     0.026 A 
ATOM     26  C   UNL A   1      33.656  28.381  23.859  1.00  0.00     0.026 A 
ENDBRANCH  17  20
ENDBRANCH  15  16
ENDBRANCH   8  15
ENDBRANCH   4   7
ENDBRANCH   2   3
ENDBRANCH   1   2
BRANCH   1  27
ATOM     27  C   UNL A   1      38.791  22.828  26.201  1.00  0.00     0.118 C 
BRANCH  27  28
ATOM     28  N   UNL A   1      40.244  22.957  26.296  1.00  0.00    -0.352 N 
ATOM     29  C   UNL A   1      40.995  24.079  26.600  1.00  0.00     0.251 C 
ATOM     30  H   UNL A   1      40.758  22.136  26.121  1.00  0.00     0.163 HD
ATOM     31  O   UNL A   1      42.213  24.043  26.680  1.00  0.00    -0.269 OA
BRANCH  29  32
ATOM     32  C   UNL A   1      40.268  25.318  26.951  1.00  0.00     0.039 A 
ATOM     33  C   UNL A   1      40.689  26.502  26.337  1.00  0.00     0.014 A 
ATOM     34  C   UNL A   1      39.402  25.344  28.041  1.00  0.00     0.014 A 
ATOM     35  C   UNL A   1      40.429  27.718  26.962  1.00  0.00     0.010 A 
ATOM     36  C   UNL A   1      39.212  26.544  28.704  1.00  0.00     0.010 A 
ATOM     37  C   UNL A   1      39.786  27.719  28.202  1.00  0.00    -0.014 A 
BRANCH  37  38
ATOM     38  C   UNL A   1      39.861  28.865  29.108  1.00  0.00     0.031 A 
ATOM     39  C   UNL A   1      38.809  29.899  29.143  1.00  0.00     0.074 A 
ATOM     40  C   UNL A   1      40.935  29.011  29.918  1.00  0.00     0.049 A 
ATOM     41  N   UNL A   1      39.036  31.148  29.389  1.00  0.00    -0.248 NA
ATOM     42  C   UNL A   1      37.408  29.607  28.869  1.00  0.00     0.031 C 
ATOM     43  C   UNL A   1      41.102  29.979  30.999  1.00  0.00     0.029 A 
ATOM     44  N   UNL A   1      42.202  28.459  29.745  1.00  0.00    -0.354 N 
ATOM     45  C   UNL A   1      37.821  31.759  29.577  1.00  0.00     0.074 A 
ATOM     46  C   UNL A   1      36.837  30.777  29.177  1.00  0.00     0.031 C 
ATOM     47  C   UNL A   1      42.414  30.157  31.219  1.00  0.00     0.029 A 
ATOM     48  C   UNL A   1      43.135  29.400  30.212  1.00  0.00     0.049 A 
ATOM     49  H   UNL A   1      42.407  27.575  29.365  1.00  0.00     0.167 HD
ATOM     50  C   UNL A   1      37.744  32.976  30.186  1.00  0.00     0.034 A 
ATOM     51  C   UNL A   1      44.125  29.884  29.409  1.00  0.00     0.034 A 
ATOM     52  C   UNL A   1      39.051  33.484  30.586  1.00  0.00     0.049 A 
ATOM     53  C   UNL A   1      44.083  31.384  29.239  1.00  0.00     0.074 A 
ATOM     54  C   UNL A   1      39.719  33.481  31.798  1.00  0.00     0.029 A 
ATOM     55  N   UNL A   1      39.981  33.858  29.623  1.00  0.00    -0.354 N 
ATOM     56  N   UNL A   1      43.053  32.124  29.544  1.00  0.00    -0.248 NA
ATOM     57  C   UNL A   1      45.187  32.164  28.688  1.00  0.00     0.031 C 
ATOM     58  C   UNL A   1      41.078  33.802  31.551  1.00  0.00     0.029 A 
ATOM     59  C   UNL A   1      41.227  34.029  30.194  1.00  0.00     0.049 A 
ATOM     60  H   UNL A   1      39.780  33.983  28.667  1.00  0.00     0.167 HD
ATOM     61  C   UNL A   1      43.315  33.431  29.220  1.00  0.00     0.074 A 
ATOM     62  C   UNL A   1      44.676  33.408  28.716  1.00  0.00     0.031 C 
ATOM     63  C   UNL A   1      42.379  34.415  29.388  1.00  0.00     0.034 A 
BRANCH  50  64
ATOM     64  C   UNL A   1      36.438  33.531  30.693  1.00  0.00     0.023 A 
ATOM     65  C   UNL A   1      35.563  34.194  29.809  1.00  0.00     0.031 A 
ATOM     66  C   UNL A   1      36.025  33.469  32.036  1.00  0.00     0.131 A 
ATOM     67  C   UNL A   1      34.409  34.847  30.278  1.00  0.00     0.055 A 
ATOM     68  C   UNL A   1      34.909  34.168  32.516  1.00  0.00     0.041 A 
ATOM     69  F   UNL A   1      36.684  32.717  32.931  1.00  0.00    -0.206 F 
ATOM     70  C   UNL A   1      34.101  34.876  31.636  1.00  0.00     0.022 A 
BRANCH  67  71
ATOM     71  S   UNL A   1      33.306  35.657  29.085  1.00  0.00     0.124 S 
ATOM     72  O   UNL A   1      32.470  36.488  29.945  1.00  0.00    -0.237 OA
ATOM     73  O   UNL A   1      34.251  36.363  28.225  1.00  0.00    -0.237 OA
ATOM     74  O   UNL A   1      32.613  34.537  28.448  1.00  0.00    -0.744 OA
ENDBRANCH  67  71
ENDBRANCH  50  64
BRANCH  51  75
ATOM     75  C   UNL A   1      44.598  28.904  28.391  1.00  0.00     0.023 A 
ATOM     76  C   UNL A   1      45.390  27.832  28.857  1.00  0.00     0.031 A 
ATOM     77  C   UNL A   1      44.002  28.777  27.131  1.00  0.00     0.131 A 
ATOM     78  C   UNL A   1      45.417  26.616  28.162  1.00  0.00     0.055 A 
ATOM     79  C   UNL A   1      44.104  27.587  26.397  1.00  0.00     0.041 A 
ATOM     80  F   UNL A   1      43.213  29.747  26.646  1.00  0.00    -0.206 F 
ATOM     81  C   UNL A   1      44.773  26.484  26.933  1.00  0.00     0.022 A 
BRANCH  78  82
ATOM     82  S   UNL A   1      46.024  25.145  29.041  1.00  0.00     0.124 S 
ATOM     83  O   UNL A   1      44.948  24.874  29.985  1.00  0.00    -0.237 OA
ATOM     84  O   UNL A   1      46.191  24.173  27.959  1.00  0.00    -0.237 OA
ATOM     85  O   UNL A   1      47.287  25.582  29.635  1.00  0.00    -0.744 OA
ENDBRANCH  78  82
ENDBRANCH  51  75
BRANCH  63  86
ATOM     86  C   UNL A   1      42.499  35.847  28.908  1.00  0.00     0.023 A 
ATOM     87  C   UNL A   1      43.224  36.835  29.592  1.00  0.00     0.031 A 
ATOM     88  C   UNL A   1      41.928  36.252  27.676  1.00  0.00     0.131 A 
ATOM     89  C   UNL A   1      43.279  38.159  29.117  1.00  0.00     0.055 A 
ATOM     90  C   UNL A   1      42.050  37.549  27.167  1.00  0.00     0.041 A 
ATOM     91  F   UNL A   1      41.228  35.404  26.909  1.00  0.00    -0.206 F 
ATOM     92  C   UNL A   1      42.714  38.519  27.898  1.00  0.00     0.022 A 
BRANCH  89  93
ATOM     93  S   UNL A   1      44.055  39.415  30.169  1.00  0.00     0.124 S 
ATOM     94  O   UNL A   1      44.641  38.599  31.229  1.00  0.00    -0.237 OA
ATOM     95  O   UNL A   1      45.003  40.046  29.257  1.00  0.00    -0.237 OA
ATOM     96  O   UNL A   1      42.936  40.258  30.584  1.00  0.00    -0.744 OA
ENDBRANCH  89  93
ENDBRANCH  63  86
ENDBRANCH  37  38
ENDBRANCH  29  32
ENDBRANCH  27  28
ENDBRANCH   1  27
TORSDOF 16
ENDMDL
MODEL 3
REMARK VINA RESULT:     -13.3      4.086     10.559
REMARK SMILES Cc1ccc(NC(=O)C[C@H]2SC[C@H](C(=O)NCCCNC(=O)c3ccc(-c4c5nc(c(-c6cc(S(=O)(=O)[O-])ccc6F)c6ccc([nH]6)c(-c6cc(S(=O)(=O)[O-])ccc6F)c6nc(c(-c7cc(S(=O)(=O)[O-])ccc7F)c7ccc4[nH]7)C=C6)C=C5)cc3)NC2=O)cc1
REMARK SMILES IDX 18 1 17 2 16 3 14 4 15 5 13 7 10 8 11 9 87 10 12 11 86 12
REMARK SMILES IDX 88 13 9 15 7 16 6 17 8 19 5 20 1 21 2 22 3 23 90 24 4 25
REMARK SMILES IDX 89 26 19 27 20 28 21 29 22 31 23 32 24 33 85 34 25 35 84 36
REMARK SMILES IDX 26 37 27 38 28 39 78 40 29 41 83 42 77 43 79 44 30 45 82 46
REMARK SMILES IDX 76 47 75 48 31 50 63 51 43 52 62 53 44 54 47 55 61 56 80 57
REMARK SMILES IDX 45 58 46 59 60 61 81 62 48 63 32 64 33 65 41 66 34 67 40 68
REMARK SMILES IDX 42 69 39 70 35 71 36 72 37 73 38 74 64 75 65 76 73 77 66 78
REMARK SMILES IDX 72 79 74 80 71 81 67 82 68 83 69 84 70 85 49 86 50 87 58 88
REMARK SMILES IDX 51 89 57 90 59 91 56 92 52 93 53 94 54 95 55 96
REMARK H PARENT 16 6 86 14 6 18 20 30 79 49 47 60
REMARK Flexibility Score: inf
ROOT
ATOM      1  C   UNL A   1      39.326  21.354  26.125  1.00  0.00     0.042 C 
ENDROOT
BRANCH   1   2
ATOM      2  C   UNL A   1      38.041  21.083  25.340  1.00  0.00     0.117 C 
BRANCH   2   3
ATOM      3  N   UNL A   1      37.660  22.210  24.499  1.00  0.00    -0.354 N 
ATOM      4  C   UNL A   1      36.443  22.756  24.219  1.00  0.00     0.243 C 
ATOM      5  O   UNL A   1      36.362  23.619  23.340  1.00  0.00    -0.273 OA
ATOM      6  H   UNL A   1      38.416  22.658  24.055  1.00  0.00     0.163 HD
BRANCH   4   7
ATOM      7  C   UNL A   1      35.161  22.271  24.923  1.00  0.00     0.181 C 
ATOM      8  C   UNL A   1      32.201  22.850  25.151  1.00  0.00     0.145 C 
ATOM      9  S   UNL A   1      33.118  22.824  26.750  1.00  0.00    -0.145 SA
ATOM     10  C   UNL A   1      32.794  21.787  24.221  1.00  0.00     0.234 C 
ATOM     11  C   UNL A   1      34.754  23.218  26.051  1.00  0.00     0.105 C 
ATOM     12  N   UNL A   1      34.132  21.910  23.943  1.00  0.00    -0.343 N 
ATOM     13  O   UNL A   1      32.147  20.913  23.650  1.00  0.00    -0.274 OA
ATOM     14  H   UNL A   1      34.423  21.743  23.018  1.00  0.00     0.164 HD
BRANCH   8  15
ATOM     15  C   UNL A   1      30.693  22.848  25.411  1.00  0.00     0.124 C 
BRANCH  15  16
ATOM     16  C   UNL A   1      30.160  23.605  26.609  1.00  0.00     0.226 C 
ATOM     17  N   UNL A   1      29.921  24.942  26.608  1.00  0.00    -0.326 N 
ATOM     18  H   UNL A   1      29.451  25.254  27.416  1.00  0.00     0.169 HD
ATOM     19  O   UNL A   1      29.931  22.988  27.657  1.00  0.00    -0.275 OA
BRANCH  17  20
ATOM     20  C   UNL A   1      30.204  25.972  25.703  1.00  0.00     0.041 A 
ATOM     21  C   UNL A   1      30.897  28.969  22.677  1.00  0.00     0.044 C 
ATOM     22  C   UNL A   1      30.627  27.951  23.746  1.00  0.00    -0.051 A 
ATOM     23  C   UNL A   1      31.426  27.897  24.895  1.00  0.00     0.005 A 
ATOM     24  C   UNL A   1      29.598  27.019  23.595  1.00  0.00     0.005 A 
ATOM     25  C   UNL A   1      31.212  26.916  25.872  1.00  0.00     0.026 A 
ATOM     26  C   UNL A   1      29.378  26.052  24.575  1.00  0.00     0.026 A 
ENDBRANCH  17  20
ENDBRANCH  15  16
ENDBRANCH   8  15
ENDBRANCH   4   7
ENDBRANCH   2   3
ENDBRANCH   1   2
BRANCH   1  27
ATOM     27  C   UNL A   1      39.580  22.828  26.426  1.00  0.00     0.118 C 
BRANCH  27  28
ATOM     28  N   UNL A   1      40.988  23.202  26.294  1.00  0.00    -0.352 N 
ATOM     29  C   UNL A   1      41.576  24.439  26.490  1.00  0.00     0.251 C 
ATOM     30  H   UNL A   1      41.599  22.476  26.031  1.00  0.00     0.163 HD
ATOM     31  O   UNL A   1      42.781  24.609  26.379  1.00  0.00    -0.269 OA
BRANCH  29  32
ATOM     32  C   UNL A   1      40.715  25.543  26.965  1.00  0.00     0.039 A 
ATOM     33  C   UNL A   1      40.822  26.768  26.300  1.00  0.00     0.014 A 
ATOM     34  C   UNL A   1      40.044  25.442  28.181  1.00  0.00     0.014 A 
ATOM     35  C   UNL A   1      40.463  27.934  26.969  1.00  0.00     0.010 A 
ATOM     36  C   UNL A   1      39.762  26.606  28.877  1.00  0.00     0.010 A 
ATOM     37  C   UNL A   1      40.037  27.851  28.298  1.00  0.00    -0.014 A 
BRANCH  37  38
ATOM     38  C   UNL A   1      40.062  29.011  29.189  1.00  0.00     0.031 A 
ATOM     39  C   UNL A   1      38.971  30.004  29.201  1.00  0.00     0.074 A 
ATOM     40  C   UNL A   1      41.122  29.208  30.005  1.00  0.00     0.049 A 
ATOM     41  N   UNL A   1      39.148  31.264  29.432  1.00  0.00    -0.248 NA
ATOM     42  C   UNL A   1      37.584  29.656  28.919  1.00  0.00     0.031 C 
ATOM     43  C   UNL A   1      41.243  30.196  31.074  1.00  0.00     0.029 A 
ATOM     44  N   UNL A   1      42.411  28.704  29.850  1.00  0.00    -0.354 N 
ATOM     45  C   UNL A   1      37.909  31.831  29.601  1.00  0.00     0.074 A 
ATOM     46  C   UNL A   1      36.966  30.806  29.207  1.00  0.00     0.031 C 
ATOM     47  C   UNL A   1      42.544  30.427  31.302  1.00  0.00     0.029 A 
ATOM     48  C   UNL A   1      43.303  29.686  30.311  1.00  0.00     0.049 A 
ATOM     49  H   UNL A   1      42.652  27.823  29.483  1.00  0.00     0.167 HD
ATOM     50  C   UNL A   1      37.780  33.052  30.192  1.00  0.00     0.034 A 
ATOM     51  C   UNL A   1      44.281  30.196  29.510  1.00  0.00     0.034 A 
ATOM     52  C   UNL A   1      39.063  33.615  30.597  1.00  0.00     0.049 A 
ATOM     53  C   UNL A   1      44.183  31.691  29.320  1.00  0.00     0.074 A 
ATOM     54  C   UNL A   1      39.721  33.654  31.814  1.00  0.00     0.029 A 
ATOM     55  N   UNL A   1      39.986  34.012  29.636  1.00  0.00    -0.354 N 
ATOM     56  N   UNL A   1      43.123  32.395  29.607  1.00  0.00    -0.248 NA
ATOM     57  C   UNL A   1      45.261  32.506  28.767  1.00  0.00     0.031 C 
ATOM     58  C   UNL A   1      41.068  34.022  31.574  1.00  0.00     0.029 A 
ATOM     59  C   UNL A   1      41.220  34.237  30.215  1.00  0.00     0.049 A 
ATOM     60  H   UNL A   1      39.789  34.116  28.677  1.00  0.00     0.167 HD
ATOM     61  C   UNL A   1      43.338  33.707  29.267  1.00  0.00     0.074 A 
ATOM     62  C   UNL A   1      44.703  33.729  28.774  1.00  0.00     0.031 C 
ATOM     63  C   UNL A   1      42.363  34.657  29.414  1.00  0.00     0.034 A 
BRANCH  50  64
ATOM     64  C   UNL A   1      36.449  33.564  30.681  1.00  0.00     0.023 A 
ATOM     65  C   UNL A   1      35.583  34.236  29.795  1.00  0.00     0.031 A 
ATOM     66  C   UNL A   1      36.002  33.451  32.011  1.00  0.00     0.131 A 
ATOM     67  C   UNL A   1      34.404  34.849  30.253  1.00  0.00     0.055 A 
ATOM     68  C   UNL A   1      34.859  34.110  32.482  1.00  0.00     0.041 A 
ATOM     69  F   UNL A   1      36.654  32.684  32.899  1.00  0.00    -0.206 F 
ATOM     70  C   UNL A   1      34.060  34.829  31.603  1.00  0.00     0.022 A 
BRANCH  67  71
ATOM     71  S   UNL A   1      33.316  35.674  29.057  1.00  0.00     0.124 S 
ATOM     72  O   UNL A   1      32.571  34.555  28.488  1.00  0.00    -0.237 OA
ATOM     73  O   UNL A   1      32.560  36.587  29.907  1.00  0.00    -0.237 OA
ATOM     74  O   UNL A   1      34.252  36.320  28.137  1.00  0.00    -0.744 OA
ENDBRANCH  67  71
ENDBRANCH  50  64
BRANCH  51  75
ATOM     75  C   UNL A   1      44.799  29.221  28.510  1.00  0.00     0.023 A 
ATOM     76  C   UNL A   1      45.666  28.215  28.989  1.00  0.00     0.031 A 
ATOM     77  C   UNL A   1      44.193  29.023  27.264  1.00  0.00     0.131 A 
ATOM     78  C   UNL A   1      45.761  26.985  28.325  1.00  0.00     0.055 A 
ATOM     79  C   UNL A   1      44.359  27.823  26.559  1.00  0.00     0.041 A 
ATOM     80  F   UNL A   1      43.335  29.928  26.768  1.00  0.00    -0.206 F 
ATOM     81  C   UNL A   1      45.107  26.779  27.111  1.00  0.00     0.022 A 
BRANCH  78  82
ATOM     82  S   UNL A   1      46.475  25.580  29.230  1.00  0.00     0.124 S 
ATOM     83  O   UNL A   1      45.928  24.434  28.517  1.00  0.00    -0.237 OA
ATOM     84  O   UNL A   1      47.914  25.803  29.082  1.00  0.00    -0.237 OA
ATOM     85  O   UNL A   1      45.994  25.757  30.599  1.00  0.00    -0.744 OA
ENDBRANCH  78  82
ENDBRANCH  51  75
BRANCH  63  86
ATOM     86  C   UNL A   1      42.433  36.085  28.916  1.00  0.00     0.023 A 
ATOM     87  C   UNL A   1      43.052  37.125  29.626  1.00  0.00     0.031 A 
ATOM     88  C   UNL A   1      41.923  36.438  27.641  1.00  0.00     0.131 A 
ATOM     89  C   UNL A   1      43.063  38.442  29.131  1.00  0.00     0.055 A 
ATOM     90  C   UNL A   1      42.005  37.732  27.116  1.00  0.00     0.041 A 
ATOM     91  F   UNL A   1      41.326  35.538  26.845  1.00  0.00    -0.206 F 
ATOM     92  C   UNL A   1      42.562  38.750  27.871  1.00  0.00     0.022 A 
BRANCH  89  93
ATOM     93  S   UNL A   1      43.693  39.758  30.208  1.00  0.00     0.124 S 
ATOM     94  O   UNL A   1      42.637  40.761  30.105  1.00  0.00    -0.237 OA
ATOM     95  O   UNL A   1      43.801  39.082  31.497  1.00  0.00    -0.237 OA
ATOM     96  O   UNL A   1      44.964  40.130  29.592  1.00  0.00    -0.744 OA
ENDBRANCH  89  93
ENDBRANCH  63  86
ENDBRANCH  37  38
ENDBRANCH  29  32
ENDBRANCH  27  28
ENDBRANCH   1  27
TORSDOF 16
ENDMDL
