MODEL 1
REMARK VINA RESULT:     -11.0      0.000      0.000
REMARK SMILES CSCCC(=O)N1[C@H](C)CCC[C@@H]1C(=O)NCCCNC(=O)c1ccc(-c2c3nc(c(-c4cc(S(=O)(=O)[O-])ccc4F)c4ccc([nH]4)c(-c4cc(S(=O)(=O)[O-])ccc4F)c4nc(c(-c5cc(S(=O)(=O)[O-])ccc5F)c5ccc2[nH]5)C=C4)C=C3)cc1
REMARK SMILES IDX 17 1 16 2 14 3 15 4 13 6 7 7 8 8 9 9 10 10 12 11 11 12 5 13
REMARK SMILES IDX 6 14 4 15 3 16 2 17 1 18 18 19 19 20 20 21 21 22 22 24 23 25
REMARK SMILES IDX 24 26 85 27 25 28 84 29 26 30 27 31 28 32 78 33 29 34 83 35
REMARK SMILES IDX 77 36 79 37 30 38 82 39 76 40 75 41 31 43 63 44 43 45 62 46
REMARK SMILES IDX 44 47 47 48 61 49 80 50 45 51 46 52 60 54 81 55 48 56 32 57
REMARK SMILES IDX 33 58 41 59 34 60 40 61 42 62 39 63 35 64 36 65 37 66 38 67
REMARK SMILES IDX 64 68 65 69 73 70 66 71 72 72 74 73 71 74 67 75 68 76 69 77
REMARK SMILES IDX 70 78 49 79 50 80 58 81 51 82 57 83 59 84 56 85 52 86 53 87
REMARK SMILES IDX 54 88 55 89
REMARK H PARENT 16 5 20 23 79 42 47 53
REMARK Flexibility Score: inf
ROOT
ATOM      1  C   UNL A   1      31.861  28.823  25.081  1.00  0.00     0.117 C 
ENDROOT
BRANCH   1   2
ATOM      2  N   UNL A   1      32.943  28.700  24.125  1.00  0.00    -0.354 N 
ATOM      3  C   UNL A   1      33.453  27.673  23.392  1.00  0.00     0.242 C 
ATOM      4  O   UNL A   1      33.952  28.022  22.310  1.00  0.00    -0.273 OA
ATOM      5  H   UNL A   1      33.415  29.550  23.972  1.00  0.00     0.163 HD
BRANCH   3   6
ATOM      6  C   UNL A   1      33.530  26.173  23.821  1.00  0.00     0.174 C 
ATOM      7  N   UNL A   1      32.455  25.211  23.457  1.00  0.00    -0.328 N 
ATOM      8  C   UNL A   1      31.313  25.097  24.355  1.00  0.00     0.082 C 
ATOM      9  C   UNL A   1      30.058  25.792  23.831  1.00  0.00     0.031 C 
ATOM     10  C   UNL A   1      31.668  25.353  25.827  1.00  0.00     0.025 C 
ATOM     11  C   UNL A   1      34.030  25.990  25.263  1.00  0.00     0.035 C 
ATOM     12  C   UNL A   1      33.141  25.078  26.101  1.00  0.00     0.005 C 
BRANCH   7  13
ATOM     13  C   UNL A   1      32.726  24.190  22.534  1.00  0.00     0.224 C 
ATOM     14  O   UNL A   1      33.357  24.389  21.493  1.00  0.00    -0.275 OA
BRANCH  13  15
ATOM     15  C   UNL A   1      32.212  22.776  22.826  1.00  0.00     0.111 C 
BRANCH  15  16
ATOM     16  C   UNL A   1      33.122  21.923  23.717  1.00  0.00     0.079 C 
BRANCH  16  17
ATOM     17  S   UNL A   1      32.529  20.191  23.955  1.00  0.00    -0.165 SA
ATOM     18  C   UNL A   1      33.122  19.832  25.641  1.00  0.00     0.085 C 
ENDBRANCH  16  17
ENDBRANCH  15  16
ENDBRANCH  13  15
ENDBRANCH   7  13
ENDBRANCH   3   6
ENDBRANCH   1   2
BRANCH   1  19
ATOM     19  C   UNL A   1      31.528  30.243  25.506  1.00  0.00     0.042 C 
BRANCH  19  20
ATOM     20  C   UNL A   1      32.226  30.655  26.802  1.00  0.00     0.118 C 
BRANCH  20  21
ATOM     21  N   UNL A   1      32.120  32.057  27.193  1.00  0.00    -0.352 N 
ATOM     22  C   UNL A   1      33.111  32.890  27.693  1.00  0.00     0.251 C 
ATOM     23  H   UNL A   1      31.229  32.464  27.091  1.00  0.00     0.163 HD
ATOM     24  O   UNL A   1      32.854  34.057  27.945  1.00  0.00    -0.269 OA
BRANCH  22  25
ATOM     25  C   UNL A   1      34.456  32.331  27.988  1.00  0.00     0.039 A 
ATOM     26  C   UNL A   1      35.562  33.187  27.985  1.00  0.00     0.014 A 
ATOM     27  C   UNL A   1      34.611  31.000  28.369  1.00  0.00     0.014 A 
ATOM     28  C   UNL A   1      36.782  32.744  28.507  1.00  0.00     0.010 A 
ATOM     29  C   UNL A   1      35.785  30.597  28.993  1.00  0.00     0.010 A 
ATOM     30  C   UNL A   1      36.879  31.472  29.093  1.00  0.00    -0.014 A 
BRANCH  30  31
ATOM     31  C   UNL A   1      38.085  31.023  29.842  1.00  0.00     0.031 A 
ATOM     32  C   UNL A   1      39.009  30.009  29.224  1.00  0.00     0.074 A 
ATOM     33  C   UNL A   1      38.272  31.420  31.118  1.00  0.00     0.049 A 
ATOM     34  N   UNL A   1      39.981  29.327  29.771  1.00  0.00    -0.248 NA
ATOM     35  C   UNL A   1      38.767  29.678  27.811  1.00  0.00     0.031 C 
ATOM     36  C   UNL A   1      37.416  32.357  31.852  1.00  0.00     0.029 A 
ATOM     37  N   UNL A   1      39.230  31.066  32.038  1.00  0.00    -0.354 N 
ATOM     38  C   UNL A   1      40.440  28.460  28.784  1.00  0.00     0.074 A 
ATOM     39  C   UNL A   1      39.593  28.660  27.627  1.00  0.00     0.031 C 
ATOM     40  C   UNL A   1      37.901  32.521  33.093  1.00  0.00     0.029 A 
ATOM     41  C   UNL A   1      39.064  31.658  33.270  1.00  0.00     0.049 A 
ATOM     42  H   UNL A   1      39.967  30.446  31.835  1.00  0.00     0.167 HD
ATOM     43  C   UNL A   1      41.485  27.599  28.828  1.00  0.00     0.034 A 
ATOM     44  C   UNL A   1      39.753  31.507  34.418  1.00  0.00     0.034 A 
ATOM     45  C   UNL A   1      42.345  27.448  29.975  1.00  0.00     0.049 A 
ATOM     46  C   UNL A   1      40.909  30.539  34.448  1.00  0.00     0.074 A 
ATOM     47  C   UNL A   1      43.489  26.680  30.101  1.00  0.00     0.029 A 
ATOM     48  N   UNL A   1      42.156  28.082  31.196  1.00  0.00    -0.354 N 
ATOM     49  N   UNL A   1      41.362  29.767  33.487  1.00  0.00    -0.248 NA
ATOM     50  C   UNL A   1      41.645  30.421  35.714  1.00  0.00     0.031 C 
ATOM     51  C   UNL A   1      43.955  26.802  31.415  1.00  0.00     0.029 A 
ATOM     52  C   UNL A   1      43.142  27.696  32.090  1.00  0.00     0.049 A 
ATOM     53  H   UNL A   1      41.428  28.715  31.397  1.00  0.00     0.167 HD
ATOM     54  C   UNL A   1      42.448  29.087  34.029  1.00  0.00     0.074 A 
ATOM     55  C   UNL A   1      42.592  29.551  35.394  1.00  0.00     0.031 C 
ATOM     56  C   UNL A   1      43.256  28.162  33.452  1.00  0.00     0.034 A 
BRANCH  43  57
ATOM     57  C   UNL A   1      41.739  26.750  27.605  1.00  0.00     0.023 A 
ATOM     58  C   UNL A   1      41.323  25.409  27.541  1.00  0.00     0.031 A 
ATOM     59  C   UNL A   1      42.439  27.274  26.505  1.00  0.00     0.131 A 
ATOM     60  C   UNL A   1      41.691  24.612  26.447  1.00  0.00     0.055 A 
ATOM     61  C   UNL A   1      42.725  26.500  25.378  1.00  0.00     0.041 A 
ATOM     62  F   UNL A   1      42.877  28.542  26.514  1.00  0.00    -0.206 F 
ATOM     63  C   UNL A   1      42.367  25.154  25.352  1.00  0.00     0.022 A 
BRANCH  60  64
ATOM     64  S   UNL A   1      41.411  22.823  26.551  1.00  0.00     0.124 S 
ATOM     65  O   UNL A   1      42.021  22.506  27.841  1.00  0.00    -0.237 OA
ATOM     66  O   UNL A   1      39.958  22.727  26.491  1.00  0.00    -0.237 OA
ATOM     67  O   UNL A   1      42.122  22.297  25.388  1.00  0.00    -0.744 OA
ENDBRANCH  60  64
ENDBRANCH  43  57
BRANCH  44  68
ATOM     68  C   UNL A   1      39.364  32.264  35.644  1.00  0.00     0.023 A 
ATOM     69  C   UNL A   1      38.589  31.660  36.647  1.00  0.00     0.031 A 
ATOM     70  C   UNL A   1      39.729  33.611  35.816  1.00  0.00     0.131 A 
ATOM     71  C   UNL A   1      38.167  32.410  37.755  1.00  0.00     0.055 A 
ATOM     72  C   UNL A   1      39.348  34.341  36.945  1.00  0.00     0.041 A 
ATOM     73  F   UNL A   1      40.476  34.236  34.892  1.00  0.00    -0.206 F 
ATOM     74  C   UNL A   1      38.552  33.743  37.917  1.00  0.00     0.022 A 
BRANCH  71  75
ATOM     75  S   UNL A   1      37.042  31.638  38.951  1.00  0.00     0.124 S 
ATOM     76  O   UNL A   1      36.872  30.307  38.381  1.00  0.00    -0.237 OA
ATOM     77  O   UNL A   1      37.815  31.715  40.185  1.00  0.00    -0.237 OA
ATOM     78  O   UNL A   1      35.859  32.495  38.905  1.00  0.00    -0.744 OA
ENDBRANCH  71  75
ENDBRANCH  44  68
BRANCH  56  79
ATOM     79  C   UNL A   1      44.381  27.618  34.292  1.00  0.00     0.023 A 
ATOM     80  C   UNL A   1      45.629  28.260  34.354  1.00  0.00     0.031 A 
ATOM     81  C   UNL A   1      44.196  26.449  35.052  1.00  0.00     0.131 A 
ATOM     82  C   UNL A   1      46.659  27.709  35.128  1.00  0.00     0.055 A 
ATOM     83  C   UNL A   1      45.208  25.934  35.862  1.00  0.00     0.041 A 
ATOM     84  F   UNL A   1      43.021  25.798  35.028  1.00  0.00    -0.206 F 
ATOM     85  C   UNL A   1      46.450  26.560  35.896  1.00  0.00     0.022 A 
BRANCH  82  86
ATOM     86  S   UNL A   1      48.298  28.484  35.078  1.00  0.00     0.124 S 
ATOM     87  O   UNL A   1      48.657  28.339  33.672  1.00  0.00    -0.237 OA
ATOM     88  O   UNL A   1      48.015  29.844  35.527  1.00  0.00    -0.237 OA
ATOM     89  O   UNL A   1      49.086  27.677  36.008  1.00  0.00    -0.744 OA
ENDBRANCH  82  86
ENDBRANCH  56  79
ENDBRANCH  30  31
ENDBRANCH  22  25
ENDBRANCH  20  21
ENDBRANCH  19  20
ENDBRANCH   1  19
TORSDOF 17
ENDMDL
MODEL 2
REMARK VINA RESULT:     -10.9      2.357      2.952
REMARK SMILES CSCCC(=O)N1[C@H](C)CCC[C@@H]1C(=O)NCCCNC(=O)c1ccc(-c2c3nc(c(-c4cc(S(=O)(=O)[O-])ccc4F)c4ccc([nH]4)c(-c4cc(S(=O)(=O)[O-])ccc4F)c4nc(c(-c5cc(S(=O)(=O)[O-])ccc5F)c5ccc2[nH]5)C=C4)C=C3)cc1
REMARK SMILES IDX 17 1 16 2 14 3 15 4 13 6 7 7 8 8 9 9 10 10 12 11 11 12 5 13
REMARK SMILES IDX 6 14 4 15 3 16 2 17 1 18 18 19 19 20 20 21 21 22 22 24 23 25
REMARK SMILES IDX 24 26 85 27 25 28 84 29 26 30 27 31 28 32 78 33 29 34 83 35
REMARK SMILES IDX 77 36 79 37 30 38 82 39 76 40 75 41 31 43 63 44 43 45 62 46
REMARK SMILES IDX 44 47 47 48 61 49 80 50 45 51 46 52 60 54 81 55 48 56 32 57
REMARK SMILES IDX 33 58 41 59 34 60 40 61 42 62 39 63 35 64 36 65 37 66 38 67
REMARK SMILES IDX 64 68 65 69 73 70 66 71 72 72 74 73 71 74 67 75 68 76 69 77
REMARK SMILES IDX 70 78 49 79 50 80 58 81 51 82 57 83 59 84 56 85 52 86 53 87
REMARK SMILES IDX 54 88 55 89
REMARK H PARENT 16 5 20 23 79 42 47 53
REMARK Flexibility Score: inf
ROOT
ATOM      1  C   UNL A   1      32.118  28.102  27.299  1.00  0.00     0.117 C 
ENDROOT
BRANCH   1   2
ATOM      2  N   UNL A   1      31.440  26.822  27.246  1.00  0.00    -0.354 N 
ATOM      3  C   UNL A   1      31.704  25.630  26.645  1.00  0.00     0.242 C 
ATOM      4  O   UNL A   1      31.256  24.646  27.254  1.00  0.00    -0.273 OA
ATOM      5  H   UNL A   1      30.601  26.813  27.760  1.00  0.00     0.163 HD
BRANCH   3   6
ATOM      6  C   UNL A   1      32.421  25.419  25.273  1.00  0.00     0.174 C 
ATOM      7  N   UNL A   1      32.138  24.227  24.430  1.00  0.00    -0.328 N 
ATOM      8  C   UNL A   1      32.914  23.019  24.679  1.00  0.00     0.082 C 
ATOM      9  C   UNL A   1      32.134  21.942  25.431  1.00  0.00     0.031 C 
ATOM     10  C   UNL A   1      34.338  23.302  25.181  1.00  0.00     0.025 C 
ATOM     11  C   UNL A   1      33.916  25.773  25.322  1.00  0.00     0.035 C 
ATOM     12  C   UNL A   1      34.815  24.682  24.750  1.00  0.00     0.005 C 
BRANCH   7  13
ATOM     13  C   UNL A   1      31.464  24.389  23.210  1.00  0.00     0.224 C 
ATOM     14  O   UNL A   1      30.778  23.495  22.710  1.00  0.00    -0.275 OA
BRANCH  13  15
ATOM     15  C   UNL A   1      31.594  25.723  22.467  1.00  0.00     0.111 C 
BRANCH  15  16
ATOM     16  C   UNL A   1      32.937  25.949  21.763  1.00  0.00     0.079 C 
BRANCH  16  17
ATOM     17  S   UNL A   1      33.711  27.585  22.134  1.00  0.00    -0.165 SA
ATOM     18  C   UNL A   1      32.316  28.482  22.891  1.00  0.00     0.085 C 
ENDBRANCH  16  17
ENDBRANCH  15  16
ENDBRANCH  13  15
ENDBRANCH   7  13
ENDBRANCH   3   6
ENDBRANCH   1   2
BRANCH   1  19
ATOM     19  C   UNL A   1      31.464  29.217  26.500  1.00  0.00     0.042 C 
BRANCH  19  20
ATOM     20  C   UNL A   1      32.426  30.359  26.176  1.00  0.00     0.118 C 
BRANCH  20  21
ATOM     21  N   UNL A   1      32.128  31.662  26.764  1.00  0.00    -0.352 N 
ATOM     22  C   UNL A   1      32.976  32.505  27.468  1.00  0.00     0.251 C 
ATOM     23  H   UNL A   1      31.204  31.983  26.647  1.00  0.00     0.163 HD
ATOM     24  O   UNL A   1      32.565  33.582  27.869  1.00  0.00    -0.269 OA
BRANCH  22  25
ATOM     25  C   UNL A   1      34.354  32.052  27.791  1.00  0.00     0.039 A 
ATOM     26  C   UNL A   1      35.373  33.004  27.897  1.00  0.00     0.014 A 
ATOM     27  C   UNL A   1      34.617  30.718  28.092  1.00  0.00     0.014 A 
ATOM     28  C   UNL A   1      36.606  32.639  28.448  1.00  0.00     0.010 A 
ATOM     29  C   UNL A   1      35.797  30.382  28.745  1.00  0.00     0.010 A 
ATOM     30  C   UNL A   1      36.798  31.344  28.955  1.00  0.00    -0.014 A 
BRANCH  30  31
ATOM     31  C   UNL A   1      38.009  30.957  29.731  1.00  0.00     0.031 A 
ATOM     32  C   UNL A   1      38.956  29.931  29.168  1.00  0.00     0.074 A 
ATOM     33  C   UNL A   1      38.181  31.421  30.986  1.00  0.00     0.049 A 
ATOM     34  N   UNL A   1      39.937  29.297  29.754  1.00  0.00    -0.248 NA
ATOM     35  C   UNL A   1      38.728  29.526  27.773  1.00  0.00     0.031 C 
ATOM     36  C   UNL A   1      37.303  32.377  31.668  1.00  0.00     0.029 A 
ATOM     37  N   UNL A   1      39.140  31.132  31.927  1.00  0.00    -0.354 N 
ATOM     38  C   UNL A   1      40.418  28.391  28.813  1.00  0.00     0.074 A 
ATOM     39  C   UNL A   1      39.574  28.516  27.644  1.00  0.00     0.031 C 
ATOM     40  C   UNL A   1      37.777  32.612  32.902  1.00  0.00     0.029 A 
ATOM     41  C   UNL A   1      38.956  31.782  33.127  1.00  0.00     0.049 A 
ATOM     42  H   UNL A   1      39.890  30.517  31.758  1.00  0.00     0.167 HD
ATOM     43  C   UNL A   1      41.480  27.553  28.906  1.00  0.00     0.034 A 
ATOM     44  C   UNL A   1      39.641  31.702  34.285  1.00  0.00     0.034 A 
ATOM     45  C   UNL A   1      42.336  27.478  30.062  1.00  0.00     0.049 A 
ATOM     46  C   UNL A   1      40.816  30.760  34.368  1.00  0.00     0.074 A 
ATOM     47  C   UNL A   1      43.493  26.739  30.232  1.00  0.00     0.029 A 
ATOM     48  N   UNL A   1      42.127  28.168  31.249  1.00  0.00    -0.354 N 
ATOM     49  N   UNL A   1      41.288  29.950  33.449  1.00  0.00    -0.248 NA
ATOM     50  C   UNL A   1      41.546  30.719  35.642  1.00  0.00     0.031 C 
ATOM     51  C   UNL A   1      43.950  26.935  31.540  1.00  0.00     0.029 A 
ATOM     52  C   UNL A   1      43.116  27.846  32.166  1.00  0.00     0.049 A 
ATOM     53  H   UNL A   1      41.386  28.795  31.415  1.00  0.00     0.167 HD
ATOM     54  C   UNL A   1      42.384  29.319  34.029  1.00  0.00     0.074 A 
ATOM     55  C   UNL A   1      42.511  29.853  35.370  1.00  0.00     0.031 C 
ATOM     56  C   UNL A   1      43.213  28.382  33.503  1.00  0.00     0.034 A 
BRANCH  43  57
ATOM     57  C   UNL A   1      41.757  26.650  27.728  1.00  0.00     0.023 A 
ATOM     58  C   UNL A   1      41.287  25.325  27.690  1.00  0.00     0.031 A 
ATOM     59  C   UNL A   1      42.532  27.103  26.646  1.00  0.00     0.131 A 
ATOM     60  C   UNL A   1      41.674  24.474  26.645  1.00  0.00     0.055 A 
ATOM     61  C   UNL A   1      42.839  26.276  25.563  1.00  0.00     0.041 A 
ATOM     62  F   UNL A   1      43.023  28.352  26.633  1.00  0.00    -0.206 F 
ATOM     63  C   UNL A   1      42.426  24.946  25.567  1.00  0.00     0.022 A 
BRANCH  60  64
ATOM     64  S   UNL A   1      41.313  22.703  26.798  1.00  0.00     0.124 S 
ATOM     65  O   UNL A   1      42.280  22.125  25.866  1.00  0.00    -0.237 OA
ATOM     66  O   UNL A   1      41.561  22.451  28.212  1.00  0.00    -0.237 OA
ATOM     67  O   UNL A   1      39.917  22.601  26.379  1.00  0.00    -0.744 OA
ENDBRANCH  60  64
ENDBRANCH  43  57
BRANCH  44  68
ATOM     68  C   UNL A   1      39.231  32.511  35.469  1.00  0.00     0.023 A 
ATOM     69  C   UNL A   1      39.712  33.818  35.649  1.00  0.00     0.031 A 
ATOM     70  C   UNL A   1      38.383  31.980  36.457  1.00  0.00     0.131 A 
ATOM     71  C   UNL A   1      39.377  34.535  36.808  1.00  0.00     0.055 A 
ATOM     72  C   UNL A   1      38.013  32.715  37.586  1.00  0.00     0.041 A 
ATOM     73  F   UNL A   1      37.889  30.738  36.333  1.00  0.00    -0.206 F 
ATOM     74  C   UNL A   1      38.521  33.998  37.772  1.00  0.00     0.022 A 
BRANCH  71  75
ATOM     75  S   UNL A   1      40.139  36.160  37.075  1.00  0.00     0.124 S 
ATOM     76  O   UNL A   1      39.876  36.824  35.804  1.00  0.00    -0.237 OA
ATOM     77  O   UNL A   1      39.393  36.657  38.226  1.00  0.00    -0.237 OA
ATOM     78  O   UNL A   1      41.541  35.839  37.335  1.00  0.00    -0.744 OA
ENDBRANCH  71  75
ENDBRANCH  44  68
BRANCH  56  79
ATOM     79  C   UNL A   1      44.344  27.902  34.375  1.00  0.00     0.023 A 
ATOM     80  C   UNL A   1      44.201  26.785  35.214  1.00  0.00     0.031 A 
ATOM     81  C   UNL A   1      45.584  28.565  34.354  1.00  0.00     0.131 A 
ATOM     82  C   UNL A   1      45.269  26.385  36.030  1.00  0.00     0.055 A 
ATOM     83  C   UNL A   1      46.660  28.131  35.128  1.00  0.00     0.041 A 
ATOM     84  F   UNL A   1      45.771  29.638  33.568  1.00  0.00    -0.206 F 
ATOM     85  C   UNL A   1      46.503  27.040  35.978  1.00  0.00     0.022 A 
BRANCH  82  86
ATOM     86  S   UNL A   1      45.010  25.025  37.201  1.00  0.00     0.124 S 
ATOM     87  O   UNL A   1      43.574  25.110  37.448  1.00  0.00    -0.237 OA
ATOM     88  O   UNL A   1      45.458  23.864  36.439  1.00  0.00    -0.237 OA
ATOM     89  O   UNL A   1      45.858  25.385  38.336  1.00  0.00    -0.744 OA
ENDBRANCH  82  86
ENDBRANCH  56  79
ENDBRANCH  30  31
ENDBRANCH  22  25
ENDBRANCH  20  21
ENDBRANCH  19  20
ENDBRANCH   1  19
TORSDOF 17
ENDMDL
MODEL 3
REMARK VINA RESULT:     -10.9      2.361      3.021
REMARK SMILES CSCCC(=O)N1[C@H](C)CCC[C@@H]1C(=O)NCCCNC(=O)c1ccc(-c2c3nc(c(-c4cc(S(=O)(=O)[O-])ccc4F)c4ccc([nH]4)c(-c4cc(S(=O)(=O)[O-])ccc4F)c4nc(c(-c5cc(S(=O)(=O)[O-])ccc5F)c5ccc2[nH]5)C=C4)C=C3)cc1
REMARK SMILES IDX 17 1 16 2 14 3 15 4 13 6 7 7 8 8 9 9 10 10 12 11 11 12 5 13
REMARK SMILES IDX 6 14 4 15 3 16 2 17 1 18 18 19 19 20 20 21 21 22 22 24 23 25
REMARK SMILES IDX 24 26 85 27 25 28 84 29 26 30 27 31 28 32 78 33 29 34 83 35
REMARK SMILES IDX 77 36 79 37 30 38 82 39 76 40 75 41 31 43 63 44 43 45 62 46
REMARK SMILES IDX 44 47 47 48 61 49 80 50 45 51 46 52 60 54 81 55 48 56 32 57
REMARK SMILES IDX 33 58 41 59 34 60 40 61 42 62 39 63 35 64 36 65 37 66 38 67
REMARK SMILES IDX 64 68 65 69 73 70 66 71 72 72 74 73 71 74 67 75 68 76 69 77
REMARK SMILES IDX 70 78 49 79 50 80 58 81 51 82 57 83 59 84 56 85 52 86 53 87
REMARK SMILES IDX 54 88 55 89
REMARK H PARENT 16 5 20 23 79 42 47 53
REMARK Flexibility Score: inf
ROOT
ATOM      1  C   UNL A   1      31.877  29.249  26.659  1.00  0.00     0.117 C 
ENDROOT
BRANCH   1   2
ATOM      2  N   UNL A   1      32.236  27.852  26.795  1.00  0.00    -0.354 N 
ATOM      3  C   UNL A   1      32.482  26.842  25.917  1.00  0.00     0.242 C 
ATOM      4  O   UNL A   1      33.288  25.994  26.332  1.00  0.00    -0.273 OA
ATOM      5  H   UNL A   1      32.321  27.570  27.734  1.00  0.00     0.163 HD
BRANCH   3   6
ATOM      6  C   UNL A   1      31.801  26.633  24.526  1.00  0.00     0.174 C 
ATOM      7  N   UNL A   1      32.557  26.830  23.260  1.00  0.00    -0.328 N 
ATOM      8  C   UNL A   1      32.603  28.174  22.698  1.00  0.00     0.082 C 
ATOM      9  C   UNL A   1      33.941  28.878  22.918  1.00  0.00     0.031 C 
ATOM     10  C   UNL A   1      31.344  29.002  22.994  1.00  0.00     0.025 C 
ATOM     11  C   UNL A   1      30.378  27.212  24.466  1.00  0.00     0.035 C 
ATOM     12  C   UNL A   1      30.139  28.108  23.256  1.00  0.00     0.005 C 
BRANCH   7  13
ATOM     13  C   UNL A   1      32.849  25.722  22.451  1.00  0.00     0.224 C 
ATOM     14  O   UNL A   1      33.600  25.794  21.476  1.00  0.00    -0.275 OA
BRANCH  13  15
ATOM     15  C   UNL A   1      32.204  24.373  22.787  1.00  0.00     0.111 C 
BRANCH  15  16
ATOM     16  C   UNL A   1      33.183  23.204  22.946  1.00  0.00     0.079 C 
BRANCH  16  17
ATOM     17  S   UNL A   1      32.365  21.556  23.095  1.00  0.00    -0.165 SA
ATOM     18  C   UNL A   1      32.071  21.458  24.892  1.00  0.00     0.085 C 
ENDBRANCH  16  17
ENDBRANCH  15  16
ENDBRANCH  13  15
ENDBRANCH   7  13
ENDBRANCH   3   6
ENDBRANCH   1   2
BRANCH   1  19
ATOM     19  C   UNL A   1      33.000  30.167  26.205  1.00  0.00     0.042 C 
BRANCH  19  20
ATOM     20  C   UNL A   1      33.466  31.123  27.303  1.00  0.00     0.118 C 
BRANCH  20  21
ATOM     21  N   UNL A   1      32.812  32.427  27.365  1.00  0.00    -0.352 N 
ATOM     22  C   UNL A   1      33.191  33.547  28.091  1.00  0.00     0.251 C 
ATOM     23  H   UNL A   1      31.997  32.524  26.821  1.00  0.00     0.163 HD
ATOM     24  O   UNL A   1      32.539  34.576  28.004  1.00  0.00    -0.269 OA
BRANCH  22  25
ATOM     25  C   UNL A   1      34.342  33.458  29.026  1.00  0.00     0.039 A 
ATOM     26  C   UNL A   1      34.175  32.794  30.245  1.00  0.00     0.014 A 
ATOM     27  C   UNL A   1      35.601  33.929  28.660  1.00  0.00     0.014 A 
ATOM     28  C   UNL A   1      35.297  32.474  31.018  1.00  0.00     0.010 A 
ATOM     29  C   UNL A   1      36.722  33.511  29.366  1.00  0.00     0.010 A 
ATOM     30  C   UNL A   1      36.587  32.756  30.542  1.00  0.00    -0.014 A 
BRANCH  30  31
ATOM     31  C   UNL A   1      37.818  32.262  31.218  1.00  0.00     0.031 A 
ATOM     32  C   UNL A   1      38.602  31.133  30.605  1.00  0.00     0.074 A 
ATOM     33  C   UNL A   1      38.150  32.732  32.439  1.00  0.00     0.049 A 
ATOM     34  N   UNL A   1      39.564  30.413  31.120  1.00  0.00    -0.248 NA
ATOM     35  C   UNL A   1      38.207  30.724  29.248  1.00  0.00     0.031 C 
ATOM     36  C   UNL A   1      37.440  33.788  33.167  1.00  0.00     0.029 A 
ATOM     37  N   UNL A   1      39.158  32.366  33.299  1.00  0.00    -0.354 N 
ATOM     38  C   UNL A   1      39.863  29.443  30.168  1.00  0.00     0.074 A 
ATOM     39  C   UNL A   1      38.932  29.630  29.075  1.00  0.00     0.031 C 
ATOM     40  C   UNL A   1      38.046  33.999  34.345  1.00  0.00     0.029 A 
ATOM     41  C   UNL A   1      39.151  33.057  34.491  1.00  0.00     0.049 A 
ATOM     42  H   UNL A   1      39.824  31.673  33.083  1.00  0.00     0.167 HD
ATOM     43  C   UNL A   1      40.839  28.502  30.191  1.00  0.00     0.034 A 
ATOM     44  C   UNL A   1      39.928  32.931  35.584  1.00  0.00     0.034 A 
ATOM     45  C   UNL A   1      41.785  28.363  31.269  1.00  0.00     0.049 A 
ATOM     46  C   UNL A   1      41.004  31.875  35.591  1.00  0.00     0.074 A 
ATOM     47  C   UNL A   1      42.873  27.513  31.358  1.00  0.00     0.029 A 
ATOM     48  N   UNL A   1      41.757  29.096  32.448  1.00  0.00    -0.354 N 
ATOM     49  N   UNL A   1      41.306  31.001  34.659  1.00  0.00    -0.248 NA
ATOM     50  C   UNL A   1      41.840  31.786  36.795  1.00  0.00     0.031 C 
ATOM     51  C   UNL A   1      43.465  27.688  32.613  1.00  0.00     0.029 A 
ATOM     52  C   UNL A   1      42.787  28.694  33.283  1.00  0.00     0.049 A 
ATOM     53  H   UNL A   1      41.101  29.800  32.660  1.00  0.00     0.167 HD
ATOM     54  C   UNL A   1      42.382  30.273  35.158  1.00  0.00     0.074 A 
ATOM     55  C   UNL A   1      42.684  30.819  36.465  1.00  0.00     0.031 C 
ATOM     56  C   UNL A   1      43.060  29.244  34.589  1.00  0.00     0.034 A 
BRANCH  43  57
ATOM     57  C   UNL A   1      40.914  27.551  29.021  1.00  0.00     0.023 A 
ATOM     58  C   UNL A   1      41.861  27.718  27.996  1.00  0.00     0.031 A 
ATOM     59  C   UNL A   1      40.004  26.485  28.907  1.00  0.00     0.131 A 
ATOM     60  C   UNL A   1      41.817  26.896  26.860  1.00  0.00     0.055 A 
ATOM     61  C   UNL A   1      40.023  25.615  27.815  1.00  0.00     0.041 A 
ATOM     62  F   UNL A   1      39.065  26.285  29.845  1.00  0.00    -0.206 F 
ATOM     63  C   UNL A   1      40.921  25.829  26.773  1.00  0.00     0.022 A 
BRANCH  60  64
ATOM     64  S   UNL A   1      42.841  27.345  25.432  1.00  0.00     0.124 S 
ATOM     65  O   UNL A   1      42.831  26.102  24.663  1.00  0.00    -0.237 OA
ATOM     66  O   UNL A   1      42.103  28.461  24.852  1.00  0.00    -0.237 OA
ATOM     67  O   UNL A   1      44.129  27.689  26.029  1.00  0.00    -0.744 OA
ENDBRANCH  60  64
ENDBRANCH  43  57
BRANCH  44  68
ATOM     68  C   UNL A   1      39.711  33.803  36.776  1.00  0.00     0.023 A 
ATOM     69  C   UNL A   1      39.111  33.296  37.939  1.00  0.00     0.031 A 
ATOM     70  C   UNL A   1      40.067  35.163  36.758  1.00  0.00     0.131 A 
ATOM     71  C   UNL A   1      38.845  34.150  39.020  1.00  0.00     0.055 A 
ATOM     72  C   UNL A   1      39.844  35.999  37.854  1.00  0.00     0.041 A 
ATOM     73  F   UNL A   1      40.649  35.699  35.673  1.00  0.00    -0.206 F 
ATOM     74  C   UNL A   1      39.218  35.495  38.991  1.00  0.00     0.022 A 
BRANCH  71  75
ATOM     75  S   UNL A   1      37.933  33.492  40.444  1.00  0.00     0.124 S 
ATOM     76  O   UNL A   1      37.750  34.688  41.257  1.00  0.00    -0.237 OA
ATOM     77  O   UNL A   1      36.733  32.955  39.811  1.00  0.00    -0.237 OA
ATOM     78  O   UNL A   1      38.844  32.492  40.998  1.00  0.00    -0.744 OA
ENDBRANCH  71  75
ENDBRANCH  44  68
BRANCH  56  79
ATOM     79  C   UNL A   1      44.212  28.669  35.371  1.00  0.00     0.023 A 
ATOM     80  C   UNL A   1      44.025  27.630  36.296  1.00  0.00     0.031 A 
ATOM     81  C   UNL A   1      45.515  29.160  35.175  1.00  0.00     0.131 A 
ATOM     82  C   UNL A   1      45.118  27.138  37.023  1.00  0.00     0.055 A 
ATOM     83  C   UNL A   1      46.608  28.632  35.863  1.00  0.00     0.041 A 
ATOM     84  F   UNL A   1      45.747  30.153  34.302  1.00  0.00    -0.206 F 
ATOM     85  C   UNL A   1      46.411  27.621  36.799  1.00  0.00     0.022 A 
BRANCH  82  86
ATOM     86  S   UNL A   1      44.823  25.893  38.308  1.00  0.00     0.124 S 
ATOM     87  O   UNL A   1      44.120  26.669  39.324  1.00  0.00    -0.237 OA
ATOM     88  O   UNL A   1      44.023  24.896  37.601  1.00  0.00    -0.237 OA
ATOM     89  O   UNL A   1      46.168  25.457  38.678  1.00  0.00    -0.744 OA
ENDBRANCH  82  86
ENDBRANCH  56  79
ENDBRANCH  30  31
ENDBRANCH  22  25
ENDBRANCH  20  21
ENDBRANCH  19  20
ENDBRANCH   1  19
TORSDOF 17
ENDMDL
