MODEL 1
REMARK VINA RESULT:     -13.3      0.000      0.000
REMARK SMILES C=CCn1nc(C(=O)NCCCNC(=O)c2ccc(-c3c4nc(c(-c5cc(S(=O)(=O)[O-])ccc5F)c5ccc([nH]5)c(-c5cc(S(=O)(=O)[O-])ccc5F)c5nc(c(-c6cc(S(=O)(=O)[O-])ccc6F)c6ccc3[nH]6)C=C5)C=C4)cc2)c2c1CC[C@@H]([NH2+]Cc1nc(C)cc(=O)[nH]1)C2
REMARK SMILES IDX 11 1 10 2 9 3 7 4 8 5 6 7 4 8 5 9 80 10 79 11 81 12 94 13
REMARK SMILES IDX 82 14 83 15 3 16 2 17 1 18 84 19 85 22 86 23 87 24 93 25
REMARK SMILES IDX 88 26 91 27 89 29 90 30 92 31 12 32 13 33 14 34 15 36 16 37
REMARK SMILES IDX 17 38 78 39 18 40 77 41 19 42 20 43 21 44 71 45 22 46 76 47
REMARK SMILES IDX 70 48 72 49 23 50 75 51 69 52 68 53 24 55 56 56 36 57 55 58
REMARK SMILES IDX 37 59 40 60 54 61 73 62 38 63 39 64 53 66 74 67 41 68 25 69
REMARK SMILES IDX 26 70 34 71 27 72 33 73 35 74 32 75 28 76 29 77 30 78 31 79
REMARK SMILES IDX 57 80 58 81 66 82 59 83 65 84 67 85 64 86 60 87 61 88 62 89
REMARK SMILES IDX 63 90 42 91 43 92 51 93 44 94 50 95 52 96 49 97 45 98 46 99
REMARK SMILES IDX 47 100 48 101
REMARK H PARENT 9 6 84 20 84 21 93 28 13 35 72 54 40 65
REMARK Flexibility Score: inf
ROOT
ATOM      1  C   UNL A   1      34.879  30.323  27.222  1.00  0.00     0.042 C 
ENDROOT
BRANCH   1   2
ATOM      2  C   UNL A   1      34.409  28.863  27.307  1.00  0.00     0.118 C 
BRANCH   2   3
ATOM      3  N   UNL A   1      32.998  28.738  27.635  1.00  0.00    -0.351 N 
ATOM      4  C   UNL A   1      32.000  27.826  27.357  1.00  0.00     0.272 C 
ATOM      5  O   UNL A   1      30.972  28.010  28.022  1.00  0.00    -0.267 OA
ATOM      6  H   UNL A   1      32.676  29.486  28.188  1.00  0.00     0.163 HD
BRANCH   4   7
ATOM      7  C   UNL A   1      32.077  26.717  26.358  1.00  0.00     0.153 A 
ATOM      8  N   UNL A   1      31.539  24.772  25.575  1.00  0.00    -0.265 N 
ATOM      9  N   UNL A   1      31.456  25.552  26.667  1.00  0.00    -0.167 NA
ATOM     10  C   UNL A   1      32.236  25.354  24.567  1.00  0.00     0.043 A 
ATOM     11  C   UNL A   1      32.607  26.595  25.035  1.00  0.00     0.012 A 
ATOM     12  C   UNL A   1      32.438  24.842  23.182  1.00  0.00     0.062 C 
ATOM     13  C   UNL A   1      33.299  27.541  24.150  1.00  0.00     0.105 C 
ATOM     14  C   UNL A   1      33.468  25.715  22.442  1.00  0.00     0.072 C 
ATOM     15  C   UNL A   1      33.237  27.224  22.645  1.00  0.00     0.187 C 
BRANCH   8  16
ATOM     16  C   UNL A   1      30.855  23.484  25.560  1.00  0.00     0.171 C 
BRANCH  16  17
ATOM     17  C   UNL A   1      31.819  22.334  25.634  1.00  0.00    -0.011 C 
ATOM     18  C   UNL A   1      32.720  22.171  26.613  1.00  0.00     0.006 C 
ENDBRANCH  16  17
ENDBRANCH   8  16
BRANCH  15  19
ATOM     19  N   UNL A   1      31.957  27.762  22.129  1.00  0.00    -0.337 N 
ATOM     20  H   UNL A   1      31.196  27.175  22.469  1.00  0.00     0.346 HD
ATOM     21  H   UNL A   1      32.012  27.758  21.110  1.00  0.00     0.346 HD
BRANCH  19  22
ATOM     22  C   UNL A   1      31.710  29.139  22.551  1.00  0.00     0.337 C 
BRANCH  22  23
ATOM     23  C   UNL A   1      30.251  29.512  22.336  1.00  0.00     0.164 A 
ATOM     24  N   UNL A   1      29.334  28.771  22.871  1.00  0.00    -0.234 NA
ATOM     25  N   UNL A   1      29.973  30.613  21.576  1.00  0.00    -0.306 N 
ATOM     26  C   UNL A   1      28.029  29.146  22.682  1.00  0.00     0.045 A 
ATOM     27  C   UNL A   1      28.698  31.009  21.306  1.00  0.00     0.251 A 
ATOM     28  H   UNL A   1      30.720  31.139  21.210  1.00  0.00     0.171 HD
ATOM     29  C   UNL A   1      27.019  28.312  23.412  1.00  0.00     0.067 C 
ATOM     30  C   UNL A   1      27.651  30.191  21.934  1.00  0.00     0.095 A 
ATOM     31  O   UNL A   1      28.423  31.980  20.612  1.00  0.00    -0.270 OA
ENDBRANCH  22  23
ENDBRANCH  19  22
ENDBRANCH  15  19
ENDBRANCH   4   7
ENDBRANCH   2   3
ENDBRANCH   1   2
BRANCH   1  32
ATOM     32  C   UNL A   1      36.224  30.627  27.811  1.00  0.00     0.118 C 
BRANCH  32  33
ATOM     33  N   UNL A   1      36.255  30.448  29.261  1.00  0.00    -0.352 N 
ATOM     34  C   UNL A   1      36.964  29.480  29.956  1.00  0.00     0.251 C 
ATOM     35  H   UNL A   1      35.719  31.077  29.797  1.00  0.00     0.163 HD
ATOM     36  O   UNL A   1      36.599  29.114  31.059  1.00  0.00    -0.269 OA
BRANCH  34  37
ATOM     37  C   UNL A   1      38.142  28.896  29.282  1.00  0.00     0.039 A 
ATOM     38  C   UNL A   1      38.790  29.546  28.238  1.00  0.00     0.014 A 
ATOM     39  C   UNL A   1      38.675  27.736  29.835  1.00  0.00     0.014 A 
ATOM     40  C   UNL A   1      40.037  29.063  27.849  1.00  0.00     0.010 A 
ATOM     41  C   UNL A   1      40.002  27.450  29.646  1.00  0.00     0.010 A 
ATOM     42  C   UNL A   1      40.675  28.048  28.601  1.00  0.00    -0.014 A 
BRANCH  42  43
ATOM     43  C   UNL A   1      42.081  27.703  28.385  1.00  0.00     0.031 A 
ATOM     44  C   UNL A   1      42.249  26.519  27.515  1.00  0.00     0.074 A 
ATOM     45  C   UNL A   1      43.162  28.388  28.829  1.00  0.00     0.049 A 
ATOM     46  N   UNL A   1      42.380  25.308  27.936  1.00  0.00    -0.248 NA
ATOM     47  C   UNL A   1      41.992  26.620  26.071  1.00  0.00     0.031 C 
ATOM     48  C   UNL A   1      43.228  29.685  29.512  1.00  0.00     0.029 A 
ATOM     49  N   UNL A   1      44.484  28.056  28.721  1.00  0.00    -0.354 N 
ATOM     50  C   UNL A   1      42.533  24.529  26.806  1.00  0.00     0.074 A 
ATOM     51  C   UNL A   1      42.048  25.333  25.713  1.00  0.00     0.031 C 
ATOM     52  C   UNL A   1      44.509  30.117  29.573  1.00  0.00     0.029 A 
ATOM     53  C   UNL A   1      45.382  29.057  29.099  1.00  0.00     0.049 A 
ATOM     54  H   UNL A   1      44.781  27.174  28.401  1.00  0.00     0.167 HD
ATOM     55  C   UNL A   1      43.317  23.419  26.861  1.00  0.00     0.034 A 
ATOM     56  C   UNL A   1      46.745  29.009  29.094  1.00  0.00     0.034 A 
ATOM     57  C   UNL A   1      43.568  23.035  28.241  1.00  0.00     0.049 A 
ATOM     58  C   UNL A   1      47.108  27.578  29.221  1.00  0.00     0.074 A 
ATOM     59  C   UNL A   1      42.755  22.750  29.326  1.00  0.00     0.029 A 
ATOM     60  N   UNL A   1      44.799  23.339  28.784  1.00  0.00    -0.354 N 
ATOM     61  N   UNL A   1      46.867  26.882  30.297  1.00  0.00    -0.248 NA
ATOM     62  C   UNL A   1      47.256  26.800  28.002  1.00  0.00     0.031 C 
ATOM     63  C   UNL A   1      43.379  23.400  30.435  1.00  0.00     0.029 A 
ATOM     64  C   UNL A   1      44.587  23.947  30.001  1.00  0.00     0.049 A 
ATOM     65  H   UNL A   1      45.674  23.152  28.375  1.00  0.00     0.167 HD
ATOM     66  C   UNL A   1      46.364  25.677  29.834  1.00  0.00     0.074 A 
ATOM     67  C   UNL A   1      46.718  25.646  28.414  1.00  0.00     0.031 C 
ATOM     68  C   UNL A   1      45.469  24.952  30.571  1.00  0.00     0.034 A 
BRANCH  55  69
ATOM     69  C   UNL A   1      44.190  22.949  25.722  1.00  0.00     0.023 A 
ATOM     70  C   UNL A   1      44.202  21.567  25.463  1.00  0.00     0.031 A 
ATOM     71  C   UNL A   1      45.210  23.702  25.096  1.00  0.00     0.131 A 
ATOM     72  C   UNL A   1      45.248  20.982  24.733  1.00  0.00     0.055 A 
ATOM     73  C   UNL A   1      46.210  23.123  24.312  1.00  0.00     0.041 A 
ATOM     74  F   UNL A   1      45.361  25.018  25.278  1.00  0.00    -0.206 F 
ATOM     75  C   UNL A   1      46.254  21.750  24.155  1.00  0.00     0.022 A 
BRANCH  72  76
ATOM     76  S   UNL A   1      45.363  19.177  24.716  1.00  0.00     0.124 S 
ATOM     77  O   UNL A   1      46.693  18.969  25.278  1.00  0.00    -0.237 OA
ATOM     78  O   UNL A   1      44.237  18.798  25.563  1.00  0.00    -0.237 OA
ATOM     79  O   UNL A   1      45.220  18.844  23.300  1.00  0.00    -0.744 OA
ENDBRANCH  72  76
ENDBRANCH  55  69
BRANCH  56  80
ATOM     80  C   UNL A   1      47.718  30.057  28.660  1.00  0.00     0.023 A 
ATOM     81  C   UNL A   1      47.397  31.078  27.730  1.00  0.00     0.031 A 
ATOM     82  C   UNL A   1      48.914  30.229  29.391  1.00  0.00     0.131 A 
ATOM     83  C   UNL A   1      48.242  32.209  27.583  1.00  0.00     0.055 A 
ATOM     84  C   UNL A   1      49.735  31.351  29.250  1.00  0.00     0.041 A 
ATOM     85  F   UNL A   1      49.277  29.352  30.341  1.00  0.00    -0.206 F 
ATOM     86  C   UNL A   1      49.396  32.353  28.355  1.00  0.00     0.022 A 
BRANCH  83  87
ATOM     87  S   UNL A   1      47.810  33.576  26.446  1.00  0.00     0.124 S 
ATOM     88  O   UNL A   1      48.906  33.540  25.485  1.00  0.00    -0.237 OA
ATOM     89  O   UNL A   1      46.498  33.177  25.951  1.00  0.00    -0.237 OA
ATOM     90  O   UNL A   1      47.798  34.754  27.316  1.00  0.00    -0.744 OA
ENDBRANCH  83  87
ENDBRANCH  56  80
BRANCH  68  91
ATOM     91  C   UNL A   1      45.267  25.332  32.033  1.00  0.00     0.023 A 
ATOM     92  C   UNL A   1      46.081  24.915  33.115  1.00  0.00     0.031 A 
ATOM     93  C   UNL A   1      44.217  26.221  32.326  1.00  0.00     0.131 A 
ATOM     94  C   UNL A   1      45.808  25.362  34.425  1.00  0.00     0.055 A 
ATOM     95  C   UNL A   1      43.966  26.682  33.618  1.00  0.00     0.041 A 
ATOM     96  F   UNL A   1      43.415  26.675  31.349  1.00  0.00    -0.206 F 
ATOM     97  C   UNL A   1      44.754  26.246  34.676  1.00  0.00     0.022 A 
BRANCH  94  98
ATOM     98  S   UNL A   1      46.788  24.767  35.845  1.00  0.00     0.124 S 
ATOM     99  O   UNL A   1      46.943  25.952  36.678  1.00  0.00    -0.237 OA
ATOM    100  O   UNL A   1      45.943  23.708  36.392  1.00  0.00    -0.237 OA
ATOM    101  O   UNL A   1      48.028  24.293  35.225  1.00  0.00    -0.744 OA
ENDBRANCH  94  98
ENDBRANCH  68  91
ENDBRANCH  42  43
ENDBRANCH  34  37
ENDBRANCH  32  33
ENDBRANCH   1  32
TORSDOF 18
ENDMDL
MODEL 2
REMARK VINA RESULT:     -13.0      2.075      4.230
REMARK SMILES C=CCn1nc(C(=O)NCCCNC(=O)c2ccc(-c3c4nc(c(-c5cc(S(=O)(=O)[O-])ccc5F)c5ccc([nH]5)c(-c5cc(S(=O)(=O)[O-])ccc5F)c5nc(c(-c6cc(S(=O)(=O)[O-])ccc6F)c6ccc3[nH]6)C=C5)C=C4)cc2)c2c1CC[C@@H]([NH2+]Cc1nc(C)cc(=O)[nH]1)C2
REMARK SMILES IDX 11 1 10 2 9 3 7 4 8 5 6 7 4 8 5 9 80 10 79 11 81 12 94 13
REMARK SMILES IDX 82 14 83 15 3 16 2 17 1 18 84 19 85 22 86 23 87 24 93 25
REMARK SMILES IDX 88 26 91 27 89 29 90 30 92 31 12 32 13 33 14 34 15 36 16 37
REMARK SMILES IDX 17 38 78 39 18 40 77 41 19 42 20 43 21 44 71 45 22 46 76 47
REMARK SMILES IDX 70 48 72 49 23 50 75 51 69 52 68 53 24 55 56 56 36 57 55 58
REMARK SMILES IDX 37 59 40 60 54 61 73 62 38 63 39 64 53 66 74 67 41 68 25 69
REMARK SMILES IDX 26 70 34 71 27 72 33 73 35 74 32 75 28 76 29 77 30 78 31 79
REMARK SMILES IDX 57 80 58 81 66 82 59 83 65 84 67 85 64 86 60 87 61 88 62 89
REMARK SMILES IDX 63 90 42 91 43 92 51 93 44 94 50 95 52 96 49 97 45 98 46 99
REMARK SMILES IDX 47 100 48 101
REMARK H PARENT 9 6 84 20 84 21 93 28 13 35 72 54 40 65
REMARK Flexibility Score: inf
ROOT
ATOM      1  C   UNL A   1      34.557  30.629  27.559  1.00  0.00     0.042 C 
ENDROOT
BRANCH   1   2
ATOM      2  C   UNL A   1      33.415  30.006  26.742  1.00  0.00     0.118 C 
BRANCH   2   3
ATOM      3  N   UNL A   1      33.794  29.707  25.372  1.00  0.00    -0.351 N 
ATOM      4  C   UNL A   1      33.148  29.211  24.257  1.00  0.00     0.272 C 
ATOM      5  O   UNL A   1      33.816  29.312  23.220  1.00  0.00    -0.267 OA
ATOM      6  H   UNL A   1      34.743  29.904  25.196  1.00  0.00     0.163 HD
BRANCH   4   7
ATOM      7  C   UNL A   1      31.790  28.587  24.235  1.00  0.00     0.153 A 
ATOM      8  N   UNL A   1      29.786  28.331  23.455  1.00  0.00    -0.265 N 
ATOM      9  N   UNL A   1      30.863  29.136  23.412  1.00  0.00    -0.167 NA
ATOM     10  C   UNL A   1      29.943  27.293  24.316  1.00  0.00     0.043 A 
ATOM     11  C   UNL A   1      31.208  27.431  24.843  1.00  0.00     0.012 A 
ATOM     12  C   UNL A   1      29.016  26.149  24.543  1.00  0.00     0.062 C 
ATOM     13  C   UNL A   1      31.746  26.406  25.747  1.00  0.00     0.105 C 
ATOM     14  C   UNL A   1      29.484  25.325  25.756  1.00  0.00     0.072 C 
ATOM     15  C   UNL A   1      31.001  25.059  25.756  1.00  0.00     0.187 C 
BRANCH   8  16
ATOM     16  C   UNL A   1      28.654  28.600  22.576  1.00  0.00     0.171 C 
BRANCH  16  17
ATOM     17  C   UNL A   1      27.594  29.417  23.258  1.00  0.00    -0.011 C 
ATOM     18  C   UNL A   1      27.604  30.755  23.323  1.00  0.00     0.006 C 
ENDBRANCH  16  17
ENDBRANCH   8  16
BRANCH  15  19
ATOM     19  N   UNL A   1      31.521  24.255  24.626  1.00  0.00    -0.337 N 
ATOM     20  H   UNL A   1      31.198  24.673  23.753  1.00  0.00     0.346 HD
ATOM     21  H   UNL A   1      31.173  23.302  24.740  1.00  0.00     0.346 HD
BRANCH  19  22
ATOM     22  C   UNL A   1      32.981  24.190  24.601  1.00  0.00     0.337 C 
BRANCH  22  23
ATOM     23  C   UNL A   1      33.455  22.748  24.714  1.00  0.00     0.164 A 
ATOM     24  N   UNL A   1      34.726  22.507  24.685  1.00  0.00    -0.234 NA
ATOM     25  N   UNL A   1      32.511  21.768  24.835  1.00  0.00    -0.306 N 
ATOM     26  C   UNL A   1      35.125  21.201  24.816  1.00  0.00     0.045 A 
ATOM     27  C   UNL A   1      32.836  20.449  24.915  1.00  0.00     0.251 A 
ATOM     28  H   UNL A   1      31.561  22.024  24.864  1.00  0.00     0.171 HD
ATOM     29  C   UNL A   1      36.608  20.996  24.881  1.00  0.00     0.067 C 
ATOM     30  C   UNL A   1      34.279  20.167  24.913  1.00  0.00     0.095 A 
ATOM     31  O   UNL A   1      32.008  19.550  25.004  1.00  0.00    -0.270 OA
ENDBRANCH  22  23
ENDBRANCH  19  22
ENDBRANCH  15  19
ENDBRANCH   4   7
ENDBRANCH   2   3
ENDBRANCH   1   2
BRANCH   1  32
ATOM     32  C   UNL A   1      35.608  29.686  28.064  1.00  0.00     0.118 C 
BRANCH  32  33
ATOM     33  N   UNL A   1      35.912  29.890  29.479  1.00  0.00    -0.352 N 
ATOM     34  C   UNL A   1      36.918  29.267  30.202  1.00  0.00     0.251 C 
ATOM     35  H   UNL A   1      35.348  30.534  29.965  1.00  0.00     0.163 HD
ATOM     36  O   UNL A   1      36.825  29.137  31.411  1.00  0.00    -0.269 OA
BRANCH  34  37
ATOM     37  C   UNL A   1      38.068  28.741  29.440  1.00  0.00     0.039 A 
ATOM     38  C   UNL A   1      38.580  29.402  28.329  1.00  0.00     0.014 A 
ATOM     39  C   UNL A   1      38.722  27.631  29.967  1.00  0.00     0.014 A 
ATOM     40  C   UNL A   1      39.817  28.989  27.842  1.00  0.00     0.010 A 
ATOM     41  C   UNL A   1      40.043  27.425  29.668  1.00  0.00     0.010 A 
ATOM     42  C   UNL A   1      40.582  28.036  28.556  1.00  0.00    -0.014 A 
BRANCH  42  43
ATOM     43  C   UNL A   1      41.984  27.775  28.224  1.00  0.00     0.031 A 
ATOM     44  C   UNL A   1      42.162  26.529  27.448  1.00  0.00     0.074 A 
ATOM     45  C   UNL A   1      43.044  28.576  28.490  1.00  0.00     0.049 A 
ATOM     46  N   UNL A   1      42.432  25.376  27.956  1.00  0.00    -0.248 NA
ATOM     47  C   UNL A   1      41.757  26.474  26.035  1.00  0.00     0.031 C 
ATOM     48  C   UNL A   1      43.070  29.933  29.046  1.00  0.00     0.029 A 
ATOM     49  N   UNL A   1      44.371  28.332  28.273  1.00  0.00    -0.354 N 
ATOM     50  C   UNL A   1      42.536  24.507  26.888  1.00  0.00     0.074 A 
ATOM     51  C   UNL A   1      41.882  25.165  25.787  1.00  0.00     0.031 C 
ATOM     52  C   UNL A   1      44.311  30.461  28.933  1.00  0.00     0.029 A 
ATOM     53  C   UNL A   1      45.217  29.427  28.464  1.00  0.00     0.049 A 
ATOM     54  H   UNL A   1      44.707  27.447  28.001  1.00  0.00     0.167 HD
ATOM     55  C   UNL A   1      43.410  23.466  26.957  1.00  0.00     0.034 A 
ATOM     56  C   UNL A   1      46.572  29.476  28.320  1.00  0.00     0.034 A 
ATOM     57  C   UNL A   1      43.826  23.235  28.331  1.00  0.00     0.049 A 
ATOM     58  C   UNL A   1      47.062  28.094  28.533  1.00  0.00     0.074 A 
ATOM     59  C   UNL A   1      43.150  22.996  29.516  1.00  0.00     0.029 A 
ATOM     60  N   UNL A   1      45.075  23.677  28.713  1.00  0.00    -0.354 N 
ATOM     61  N   UNL A   1      46.985  27.488  29.685  1.00  0.00    -0.248 NA
ATOM     62  C   UNL A   1      47.152  27.216  27.377  1.00  0.00     0.031 C 
ATOM     63  C   UNL A   1      43.824  23.792  30.493  1.00  0.00     0.029 A 
ATOM     64  C   UNL A   1      44.935  24.381  29.888  1.00  0.00     0.049 A 
ATOM     65  H   UNL A   1      45.919  23.516  28.232  1.00  0.00     0.167 HD
ATOM     66  C   UNL A   1      46.540  26.211  29.384  1.00  0.00     0.074 A 
ATOM     67  C   UNL A   1      46.754  26.072  27.943  1.00  0.00     0.031 C 
ATOM     68  C   UNL A   1      45.784  25.497  30.272  1.00  0.00     0.034 A 
BRANCH  55  69
ATOM     69  C   UNL A   1      44.202  22.954  25.778  1.00  0.00     0.023 A 
ATOM     70  C   UNL A   1      44.233  21.561  25.594  1.00  0.00     0.031 A 
ATOM     71  C   UNL A   1      45.147  23.696  25.032  1.00  0.00     0.131 A 
ATOM     72  C   UNL A   1      45.233  20.961  24.814  1.00  0.00     0.055 A 
ATOM     73  C   UNL A   1      46.097  23.098  24.202  1.00  0.00     0.041 A 
ATOM     74  F   UNL A   1      45.275  25.023  25.130  1.00  0.00    -0.206 F 
ATOM     75  C   UNL A   1      46.168  21.720  24.115  1.00  0.00     0.022 A 
BRANCH  72  76
ATOM     76  S   UNL A   1      45.398  19.162  24.884  1.00  0.00     0.124 S 
ATOM     77  O   UNL A   1      45.545  18.831  23.471  1.00  0.00    -0.237 OA
ATOM     78  O   UNL A   1      46.590  19.003  25.712  1.00  0.00    -0.237 OA
ATOM     79  O   UNL A   1      44.146  18.732  25.503  1.00  0.00    -0.744 OA
ENDBRANCH  72  76
ENDBRANCH  55  69
BRANCH  56  80
ATOM     80  C   UNL A   1      47.409  30.546  27.696  1.00  0.00     0.023 A 
ATOM     81  C   UNL A   1      46.862  31.671  27.028  1.00  0.00     0.031 A 
ATOM     82  C   UNL A   1      48.784  30.612  28.008  1.00  0.00     0.131 A 
ATOM     83  C   UNL A   1      47.675  32.794  26.724  1.00  0.00     0.055 A 
ATOM     84  C   UNL A   1      49.577  31.725  27.716  1.00  0.00     0.041 A 
ATOM     85  F   UNL A   1      49.387  29.628  28.695  1.00  0.00    -0.206 F 
ATOM     86  C   UNL A   1      49.023  32.827  27.085  1.00  0.00     0.022 A 
BRANCH  83  87
ATOM     87  S   UNL A   1      46.975  34.287  25.932  1.00  0.00     0.124 S 
ATOM     88  O   UNL A   1      45.739  33.779  25.347  1.00  0.00    -0.237 OA
ATOM     89  O   UNL A   1      46.833  35.207  27.055  1.00  0.00    -0.237 OA
ATOM     90  O   UNL A   1      47.999  34.671  24.959  1.00  0.00    -0.744 OA
ENDBRANCH  83  87
ENDBRANCH  56  80
BRANCH  68  91
ATOM     91  C   UNL A   1      45.696  25.999  31.708  1.00  0.00     0.023 A 
ATOM     92  C   UNL A   1      44.573  26.634  32.293  1.00  0.00     0.031 A 
ATOM     93  C   UNL A   1      46.803  25.759  32.541  1.00  0.00     0.131 A 
ATOM     94  C   UNL A   1      44.603  27.027  33.649  1.00  0.00     0.055 A 
ATOM     95  C   UNL A   1      46.820  26.125  33.887  1.00  0.00     0.041 A 
ATOM     96  F   UNL A   1      47.898  25.145  32.061  1.00  0.00    -0.206 F 
ATOM     97  C   UNL A   1      45.724  26.771  34.444  1.00  0.00     0.022 A 
BRANCH  94  98
ATOM     98  S   UNL A   1      43.203  27.926  34.398  1.00  0.00     0.124 S 
ATOM     99  O   UNL A   1      42.189  26.894  34.579  1.00  0.00    -0.237 OA
ATOM    100  O   UNL A   1      43.791  28.465  35.622  1.00  0.00    -0.237 OA
ATOM    101  O   UNL A   1      42.870  28.935  33.391  1.00  0.00    -0.744 OA
ENDBRANCH  94  98
ENDBRANCH  68  91
ENDBRANCH  42  43
ENDBRANCH  34  37
ENDBRANCH  32  33
ENDBRANCH   1  32
TORSDOF 18
ENDMDL
MODEL 3
REMARK VINA RESULT:     -12.8      4.756     10.411
REMARK SMILES C=CCn1nc(C(=O)NCCCNC(=O)c2ccc(-c3c4nc(c(-c5cc(S(=O)(=O)[O-])ccc5F)c5ccc([nH]5)c(-c5cc(S(=O)(=O)[O-])ccc5F)c5nc(c(-c6cc(S(=O)(=O)[O-])ccc6F)c6ccc3[nH]6)C=C5)C=C4)cc2)c2c1CC[C@@H]([NH2+]Cc1nc(C)cc(=O)[nH]1)C2
REMARK SMILES IDX 11 1 10 2 9 3 7 4 8 5 6 7 4 8 5 9 80 10 79 11 81 12 94 13
REMARK SMILES IDX 82 14 83 15 3 16 2 17 1 18 84 19 85 22 86 23 87 24 93 25
REMARK SMILES IDX 88 26 91 27 89 29 90 30 92 31 12 32 13 33 14 34 15 36 16 37
REMARK SMILES IDX 17 38 78 39 18 40 77 41 19 42 20 43 21 44 71 45 22 46 76 47
REMARK SMILES IDX 70 48 72 49 23 50 75 51 69 52 68 53 24 55 56 56 36 57 55 58
REMARK SMILES IDX 37 59 40 60 54 61 73 62 38 63 39 64 53 66 74 67 41 68 25 69
REMARK SMILES IDX 26 70 34 71 27 72 33 73 35 74 32 75 28 76 29 77 30 78 31 79
REMARK SMILES IDX 57 80 58 81 66 82 59 83 65 84 67 85 64 86 60 87 61 88 62 89
REMARK SMILES IDX 63 90 42 91 43 92 51 93 44 94 50 95 52 96 49 97 45 98 46 99
REMARK SMILES IDX 47 100 48 101
REMARK H PARENT 9 6 84 20 84 21 93 28 13 35 72 54 40 65
REMARK Flexibility Score: inf
ROOT
ATOM      1  C   UNL A   1      37.891  23.468  25.608  1.00  0.00     0.042 C 
ENDROOT
BRANCH   1   2
ATOM      2  C   UNL A   1      36.356  23.515  25.553  1.00  0.00     0.118 C 
BRANCH   2   3
ATOM      3  N   UNL A   1      35.828  23.294  24.217  1.00  0.00    -0.351 N 
ATOM      4  C   UNL A   1      34.652  23.598  23.561  1.00  0.00     0.272 C 
ATOM      5  O   UNL A   1      34.709  23.398  22.341  1.00  0.00    -0.267 OA
ATOM      6  H   UNL A   1      36.463  22.810  23.641  1.00  0.00     0.163 HD
BRANCH   4   7
ATOM      7  C   UNL A   1      33.398  24.103  24.196  1.00  0.00     0.153 A 
ATOM      8  N   UNL A   1      31.861  24.103  25.721  1.00  0.00    -0.265 N 
ATOM      9  N   UNL A   1      32.888  23.388  25.229  1.00  0.00    -0.167 NA
ATOM     10  C   UNL A   1      31.635  25.244  25.021  1.00  0.00     0.043 A 
ATOM     11  C   UNL A   1      32.590  25.271  24.030  1.00  0.00     0.012 A 
ATOM     12  C   UNL A   1      30.662  26.329  25.334  1.00  0.00     0.062 C 
ATOM     13  C   UNL A   1      32.698  26.436  23.140  1.00  0.00     0.105 C 
ATOM     14  C   UNL A   1      30.589  27.325  24.162  1.00  0.00     0.072 C 
ATOM     15  C   UNL A   1      31.974  27.710  23.610  1.00  0.00     0.187 C 
BRANCH   8  16
ATOM     16  C   UNL A   1      31.177  23.643  26.924  1.00  0.00     0.171 C 
BRANCH  16  17
ATOM     17  C   UNL A   1      29.990  22.782  26.602  1.00  0.00    -0.011 C 
ATOM     18  C   UNL A   1      28.997  22.518  27.463  1.00  0.00     0.006 C 
ENDBRANCH  16  17
ENDBRANCH   8  16
BRANCH  15  19
ATOM     19  N   UNL A   1      32.877  28.415  24.549  1.00  0.00    -0.337 N 
ATOM     20  H   UNL A   1      33.489  29.030  24.013  1.00  0.00     0.346 HD
ATOM     21  H   UNL A   1      33.405  27.706  25.058  1.00  0.00     0.346 HD
BRANCH  19  22
ATOM     22  C   UNL A   1      32.155  29.218  25.534  1.00  0.00     0.337 C 
BRANCH  22  23
ATOM     23  C   UNL A   1      33.128  29.989  26.414  1.00  0.00     0.164 A 
ATOM     24  N   UNL A   1      34.251  29.431  26.737  1.00  0.00    -0.234 NA
ATOM     25  N   UNL A   1      32.768  31.238  26.831  1.00  0.00    -0.306 N 
ATOM     26  C   UNL A   1      35.119  30.159  27.509  1.00  0.00     0.045 A 
ATOM     27  C   UNL A   1      33.560  31.993  27.642  1.00  0.00     0.251 A 
ATOM     28  H   UNL A   1      31.904  31.607  26.537  1.00  0.00     0.171 HD
ATOM     29  C   UNL A   1      36.443  29.503  27.762  1.00  0.00     0.067 C 
ATOM     30  C   UNL A   1      34.850  31.380  27.990  1.00  0.00     0.095 A 
ATOM     31  O   UNL A   1      33.251  33.107  28.045  1.00  0.00    -0.270 OA
ENDBRANCH  22  23
ENDBRANCH  19  22
ENDBRANCH  15  19
ENDBRANCH   4   7
ENDBRANCH   2   3
ENDBRANCH   1   2
BRANCH   1  32
ATOM     32  C   UNL A   1      38.556  24.444  26.533  1.00  0.00     0.118 C 
BRANCH  32  33
ATOM     33  N   UNL A   1      39.922  24.763  26.123  1.00  0.00    -0.352 N 
ATOM     34  C   UNL A   1      40.570  25.977  26.295  1.00  0.00     0.251 C 
ATOM     35  H   UNL A   1      40.432  24.046  25.682  1.00  0.00     0.163 HD
ATOM     36  O   UNL A   1      41.484  26.304  25.558  1.00  0.00    -0.269 OA
BRANCH  34  37
ATOM     37  C   UNL A   1      40.076  26.856  27.374  1.00  0.00     0.039 A 
ATOM     38  C   UNL A   1      39.828  26.380  28.656  1.00  0.00     0.014 A 
ATOM     39  C   UNL A   1      40.013  28.219  27.100  1.00  0.00     0.014 A 
ATOM     40  C   UNL A   1      39.630  27.316  29.669  1.00  0.00     0.010 A 
ATOM     41  C   UNL A   1      40.104  29.117  28.131  1.00  0.00     0.010 A 
ATOM     42  C   UNL A   1      39.834  28.693  29.416  1.00  0.00    -0.014 A 
BRANCH  42  43
ATOM     43  C   UNL A   1      39.895  29.672  30.503  1.00  0.00     0.031 A 
ATOM     44  C   UNL A   1      38.598  30.340  30.741  1.00  0.00     0.074 A 
ATOM     45  C   UNL A   1      40.959  29.932  31.301  1.00  0.00     0.049 A 
ATOM     46  N   UNL A   1      38.242  31.464  30.220  1.00  0.00    -0.248 NA
ATOM     47  C   UNL A   1      37.496  29.608  31.384  1.00  0.00     0.031 C 
ATOM     48  C   UNL A   1      42.253  29.246  31.382  1.00  0.00     0.029 A 
ATOM     49  N   UNL A   1      41.084  30.891  32.267  1.00  0.00    -0.354 N 
ATOM     50  C   UNL A   1      36.982  31.730  30.721  1.00  0.00     0.074 A 
ATOM     51  C   UNL A   1      36.488  30.471  31.216  1.00  0.00     0.031 C 
ATOM     52  C   UNL A   1      42.941  29.673  32.467  1.00  0.00     0.029 A 
ATOM     53  C   UNL A   1      42.227  30.789  33.063  1.00  0.00     0.049 A 
ATOM     54  H   UNL A   1      40.415  31.602  32.393  1.00  0.00     0.167 HD
ATOM     55  C   UNL A   1      36.609  33.020  30.937  1.00  0.00     0.034 A 
ATOM     56  C   UNL A   1      42.608  31.597  34.093  1.00  0.00     0.034 A 
ATOM     57  C   UNL A   1      37.495  33.936  30.236  1.00  0.00     0.049 A 
ATOM     58  C   UNL A   1      41.973  32.912  33.845  1.00  0.00     0.074 A 
ATOM     59  C   UNL A   1      37.894  34.070  28.916  1.00  0.00     0.029 A 
ATOM     60  N   UNL A   1      38.454  34.600  30.971  1.00  0.00    -0.354 N 
ATOM     61  N   UNL A   1      42.298  33.673  32.837  1.00  0.00    -0.248 NA
ATOM     62  C   UNL A   1      40.646  33.144  34.392  1.00  0.00     0.031 C 
ATOM     63  C   UNL A   1      39.298  34.332  28.980  1.00  0.00     0.029 A 
ATOM     64  C   UNL A   1      39.660  34.457  30.322  1.00  0.00     0.049 A 
ATOM     65  H   UNL A   1      38.303  35.091  31.810  1.00  0.00     0.167 HD
ATOM     66  C   UNL A   1      41.090  34.121  32.327  1.00  0.00     0.074 A 
ATOM     67  C   UNL A   1      40.114  33.842  33.382  1.00  0.00     0.031 C 
ATOM     68  C   UNL A   1      40.945  34.412  31.000  1.00  0.00     0.034 A 
BRANCH  55  69
ATOM     69  C   UNL A   1      35.743  33.463  32.092  1.00  0.00     0.023 A 
ATOM     70  C   UNL A   1      34.572  34.169  31.770  1.00  0.00     0.031 A 
ATOM     71  C   UNL A   1      36.134  33.504  33.450  1.00  0.00     0.131 A 
ATOM     72  C   UNL A   1      33.924  34.963  32.728  1.00  0.00     0.055 A 
ATOM     73  C   UNL A   1      35.446  34.241  34.416  1.00  0.00     0.041 A 
ATOM     74  F   UNL A   1      37.247  32.921  33.908  1.00  0.00    -0.206 F 
ATOM     75  C   UNL A   1      34.354  35.005  34.052  1.00  0.00     0.022 A 
BRANCH  72  76
ATOM     76  S   UNL A   1      32.623  36.085  32.163  1.00  0.00     0.124 S 
ATOM     77  O   UNL A   1      32.880  36.124  30.728  1.00  0.00    -0.237 OA
ATOM     78  O   UNL A   1      31.417  35.379  32.584  1.00  0.00    -0.237 OA
ATOM     79  O   UNL A   1      32.907  37.323  32.886  1.00  0.00    -0.744 OA
ENDBRANCH  72  76
ENDBRANCH  55  69
BRANCH  56  80
ATOM     80  C   UNL A   1      43.194  31.216  35.415  1.00  0.00     0.023 A 
ATOM     81  C   UNL A   1      43.331  29.872  35.846  1.00  0.00     0.031 A 
ATOM     82  C   UNL A   1      43.897  32.187  36.160  1.00  0.00     0.131 A 
ATOM     83  C   UNL A   1      44.155  29.553  36.956  1.00  0.00     0.055 A 
ATOM     84  C   UNL A   1      44.717  31.865  37.245  1.00  0.00     0.041 A 
ATOM     85  F   UNL A   1      43.886  33.480  35.798  1.00  0.00    -0.206 F 
ATOM     86  C   UNL A   1      44.861  30.545  37.640  1.00  0.00     0.022 A 
BRANCH  83  87
ATOM     87  S   UNL A   1      44.409  27.820  37.484  1.00  0.00     0.124 S 
ATOM     88  O   UNL A   1      44.909  27.978  38.845  1.00  0.00    -0.237 OA
ATOM     89  O   UNL A   1      43.077  27.245  37.343  1.00  0.00    -0.237 OA
ATOM     90  O   UNL A   1      45.394  27.311  36.527  1.00  0.00    -0.744 OA
ENDBRANCH  83  87
ENDBRANCH  56  80
BRANCH  68  91
ATOM     91  C   UNL A   1      42.204  34.531  30.149  1.00  0.00     0.023 A 
ATOM     92  C   UNL A   1      42.982  35.704  29.984  1.00  0.00     0.031 A 
ATOM     93  C   UNL A   1      42.667  33.362  29.519  1.00  0.00     0.131 A 
ATOM     94  C   UNL A   1      44.149  35.679  29.191  1.00  0.00     0.055 A 
ATOM     95  C   UNL A   1      43.835  33.334  28.758  1.00  0.00     0.041 A 
ATOM     96  F   UNL A   1      41.993  32.206  29.645  1.00  0.00    -0.206 F 
ATOM     97  C   UNL A   1      44.576  34.496  28.581  1.00  0.00     0.022 A 
BRANCH  94  98
ATOM     98  S   UNL A   1      45.115  37.199  28.893  1.00  0.00     0.124 S 
ATOM     99  O   UNL A   1      46.240  36.740  28.088  1.00  0.00    -0.237 OA
ATOM    100  O   UNL A   1      44.151  38.058  28.211  1.00  0.00    -0.237 OA
ATOM    101  O   UNL A   1      45.474  37.642  30.243  1.00  0.00    -0.744 OA
ENDBRANCH  94  98
ENDBRANCH  68  91
ENDBRANCH  42  43
ENDBRANCH  34  37
ENDBRANCH  32  33
ENDBRANCH   1  32
TORSDOF 18
ENDMDL
