MODEL 1
REMARK VINA RESULT:     -12.6      0.000      0.000
REMARK SMILES O=C(NCCCNC(=O)c1ccncc1-c1ccc(F)cc1F)c1ccc(-c2c3nc(c(-c4cc(S(=O)(=O)[O-])ccc4F)c4ccc([nH]4)c(-c4cc(S(=O)(=O)[O-])ccc4F)c4nc(c(-c5cc(S(=O)(=O)[O-])ccc5F)c5ccc2[nH]5)C=C4)C=C3)cc1
REMARK SMILES IDX 4 1 3 2 1 3 2 4 24 6 25 7 86 8 26 9 85 10 27 11 28 12 29 13
REMARK SMILES IDX 79 14 30 15 84 16 78 17 80 18 31 19 83 20 77 21 76 22 32 24
REMARK SMILES IDX 64 25 44 26 63 27 45 28 48 29 62 30 81 31 46 32 47 33 61 35
REMARK SMILES IDX 82 36 49 37 33 38 34 39 42 40 35 41 41 42 43 43 40 44 36 45
REMARK SMILES IDX 37 46 38 47 39 48 65 49 66 50 74 51 67 52 73 53 75 54 72 55
REMARK SMILES IDX 68 56 69 57 70 58 71 59 50 60 51 61 59 62 52 63 58 64 60 65
REMARK SMILES IDX 57 66 53 67 54 68 55 69 56 70 5 71 6 72 7 73 8 74 9 76 10 77
REMARK SMILES IDX 11 78 15 79 12 80 14 81 13 82 16 83 17 84 22 85 18 86 21 87
REMARK SMILES IDX 23 88 19 89 20 90
REMARK H PARENT 3 5 80 23 48 34 7 75
REMARK Flexibility Score: inf
ROOT
ATOM      1  C   UNL A   1      31.926  30.544  26.774  1.00  0.00     0.118 C 
ENDROOT
BRANCH   1   2
ATOM      2  N   UNL A   1      31.957  31.998  26.889  1.00  0.00    -0.352 N 
ATOM      3  O   UNL A   1      32.630  34.035  27.566  1.00  0.00    -0.269 OA
ATOM      4  C   UNL A   1      32.888  32.838  27.458  1.00  0.00     0.251 C 
ATOM      5  H   UNL A   1      31.181  32.456  26.493  1.00  0.00     0.163 HD
BRANCH   4   6
ATOM      6  C   UNL A   1      34.174  32.309  27.965  1.00  0.00     0.039 A 
ATOM      7  C   UNL A   1      34.284  30.987  28.392  1.00  0.00     0.014 A 
ATOM      8  C   UNL A   1      35.292  33.147  28.016  1.00  0.00     0.014 A 
ATOM      9  C   UNL A   1      35.421  30.574  29.072  1.00  0.00     0.010 A 
ATOM     10  C   UNL A   1      36.486  32.685  28.586  1.00  0.00     0.010 A 
ATOM     11  C   UNL A   1      36.544  31.412  29.173  1.00  0.00    -0.014 A 
BRANCH  11  12
ATOM     12  C   UNL A   1      37.755  30.913  29.882  1.00  0.00     0.031 A 
ATOM     13  C   UNL A   1      38.030  31.291  31.314  1.00  0.00     0.074 A 
ATOM     14  C   UNL A   1      38.580  30.059  29.240  1.00  0.00     0.049 A 
ATOM     15  N   UNL A   1      39.008  30.904  32.096  1.00  0.00    -0.248 NA
ATOM     16  C   UNL A   1      37.097  32.232  31.949  1.00  0.00     0.031 C 
ATOM     17  C   UNL A   1      38.419  29.621  27.851  1.00  0.00     0.029 A 
ATOM     18  N   UNL A   1      39.691  29.381  29.671  1.00  0.00    -0.354 N 
ATOM     19  C   UNL A   1      38.822  31.571  33.304  1.00  0.00     0.074 A 
ATOM     20  C   UNL A   1      37.658  32.416  33.135  1.00  0.00     0.031 C 
ATOM     21  C   UNL A   1      39.349  28.698  27.569  1.00  0.00     0.029 A 
ATOM     22  C   UNL A   1      40.224  28.539  28.723  1.00  0.00     0.049 A 
ATOM     23  H   UNL A   1      40.070  29.487  30.574  1.00  0.00     0.167 HD
ATOM     24  C   UNL A   1      39.549  31.481  34.448  1.00  0.00     0.034 A 
ATOM     25  C   UNL A   1      41.306  27.739  28.765  1.00  0.00     0.034 A 
ATOM     26  C   UNL A   1      40.703  30.624  34.600  1.00  0.00     0.049 A 
ATOM     27  C   UNL A   1      42.115  27.684  30.034  1.00  0.00     0.074 A 
ATOM     28  C   UNL A   1      41.489  30.430  35.724  1.00  0.00     0.029 A 
ATOM     29  N   UNL A   1      41.244  29.825  33.601  1.00  0.00    -0.354 N 
ATOM     30  N   UNL A   1      41.911  28.307  31.172  1.00  0.00    -0.248 NA
ATOM     31  C   UNL A   1      43.294  26.811  30.025  1.00  0.00     0.031 C 
ATOM     32  C   UNL A   1      42.546  29.580  35.382  1.00  0.00     0.029 A 
ATOM     33  C   UNL A   1      42.371  29.165  34.072  1.00  0.00     0.049 A 
ATOM     34  H   UNL A   1      40.880  29.739  32.690  1.00  0.00     0.167 HD
ATOM     35  C   UNL A   1      42.922  27.874  32.024  1.00  0.00     0.074 A 
ATOM     36  C   UNL A   1      43.718  26.924  31.274  1.00  0.00     0.031 C 
ATOM     37  C   UNL A   1      43.166  28.227  33.313  1.00  0.00     0.034 A 
BRANCH  24  38
ATOM     38  C   UNL A   1      39.147  32.368  35.605  1.00  0.00     0.023 A 
ATOM     39  C   UNL A   1      39.577  33.704  35.707  1.00  0.00     0.031 A 
ATOM     40  C   UNL A   1      38.335  31.862  36.637  1.00  0.00     0.131 A 
ATOM     41  C   UNL A   1      39.258  34.460  36.846  1.00  0.00     0.055 A 
ATOM     42  C   UNL A   1      37.951  32.646  37.727  1.00  0.00     0.041 A 
ATOM     43  F   UNL A   1      37.910  30.589  36.610  1.00  0.00    -0.206 F 
ATOM     44  C   UNL A   1      38.425  33.949  37.844  1.00  0.00     0.022 A 
BRANCH  41  45
ATOM     45  S   UNL A   1      40.073  36.063  37.079  1.00  0.00     0.124 S 
ATOM     46  O   UNL A   1      39.296  36.633  38.178  1.00  0.00    -0.237 OA
ATOM     47  O   UNL A   1      41.443  35.678  37.401  1.00  0.00    -0.237 OA
ATOM     48  O   UNL A   1      39.897  36.729  35.790  1.00  0.00    -0.744 OA
ENDBRANCH  41  45
ENDBRANCH  24  38
BRANCH  25  49
ATOM     49  C   UNL A   1      41.704  26.943  27.568  1.00  0.00     0.023 A 
ATOM     50  C   UNL A   1      41.467  25.562  27.504  1.00  0.00     0.031 A 
ATOM     51  C   UNL A   1      42.363  27.550  26.484  1.00  0.00     0.131 A 
ATOM     52  C   UNL A   1      41.928  24.825  26.402  1.00  0.00     0.055 A 
ATOM     53  C   UNL A   1      42.764  26.823  25.362  1.00  0.00     0.041 A 
ATOM     54  F   UNL A   1      42.613  28.870  26.492  1.00  0.00    -0.206 F 
ATOM     55  C   UNL A   1      42.560  25.449  25.325  1.00  0.00     0.022 A 
BRANCH  52  56
ATOM     56  S   UNL A   1      41.773  23.018  26.441  1.00  0.00     0.124 S 
ATOM     57  O   UNL A   1      42.485  22.687  27.671  1.00  0.00    -0.237 OA
ATOM     58  O   UNL A   1      40.325  22.841  26.471  1.00  0.00    -0.237 OA
ATOM     59  O   UNL A   1      42.427  22.594  25.206  1.00  0.00    -0.744 OA
ENDBRANCH  52  56
ENDBRANCH  25  49
BRANCH  37  60
ATOM     60  C   UNL A   1      44.315  27.529  34.005  1.00  0.00     0.023 A 
ATOM     61  C   UNL A   1      44.144  26.311  34.685  1.00  0.00     0.031 A 
ATOM     62  C   UNL A   1      45.593  28.116  34.014  1.00  0.00     0.131 A 
ATOM     63  C   UNL A   1      45.212  25.758  35.408  1.00  0.00     0.055 A 
ATOM     64  C   UNL A   1      46.670  27.523  34.673  1.00  0.00     0.041 A 
ATOM     65  F   UNL A   1      45.815  29.281  33.385  1.00  0.00    -0.206 F 
ATOM     66  C   UNL A   1      46.478  26.347  35.391  1.00  0.00     0.022 A 
BRANCH  63  67
ATOM     67  S   UNL A   1      44.892  24.324  36.474  1.00  0.00     0.124 S 
ATOM     68  O   UNL A   1      43.893  23.591  35.704  1.00  0.00    -0.237 OA
ATOM     69  O   UNL A   1      46.210  23.703  36.564  1.00  0.00    -0.237 OA
ATOM     70  O   UNL A   1      44.403  24.922  37.714  1.00  0.00    -0.744 OA
ENDBRANCH  63  67
ENDBRANCH  37  60
ENDBRANCH  11  12
ENDBRANCH   4   6
ENDBRANCH   1   2
BRANCH   1  71
ATOM     71  C   UNL A   1      32.522  30.027  25.474  1.00  0.00     0.042 C 
BRANCH  71  72
ATOM     72  C   UNL A   1      33.322  28.744  25.625  1.00  0.00     0.118 C 
BRANCH  72  73
ATOM     73  N   UNL A   1      32.608  27.711  26.368  1.00  0.00    -0.352 N 
ATOM     74  C   UNL A   1      32.271  26.429  26.008  1.00  0.00     0.252 C 
ATOM     75  H   UNL A   1      32.322  27.974  27.273  1.00  0.00     0.163 HD
ATOM     76  O   UNL A   1      31.614  25.730  26.779  1.00  0.00    -0.269 OA
BRANCH  74  77
ATOM     77  C   UNL A   1      32.716  25.887  24.707  1.00  0.00     0.050 A 
ATOM     78  C   UNL A   1      33.888  25.118  24.698  1.00  0.00     0.034 A 
ATOM     79  C   UNL A   1      31.974  26.071  23.530  1.00  0.00     0.016 A 
ATOM     80  C   UNL A   1      34.356  24.647  23.491  1.00  0.00     0.112 A 
ATOM     81  C   UNL A   1      32.553  25.540  22.375  1.00  0.00     0.120 A 
ATOM     82  N   UNL A   1      33.722  24.854  22.325  1.00  0.00    -0.264 NA
BRANCH  79  83
ATOM     83  C   UNL A   1      30.650  26.714  23.451  1.00  0.00     0.020 A 
ATOM     84  C   UNL A   1      29.482  26.099  23.931  1.00  0.00     0.015 A 
ATOM     85  C   UNL A   1      30.525  28.003  22.893  1.00  0.00     0.134 A 
ATOM     86  C   UNL A   1      28.246  26.752  23.846  1.00  0.00     0.040 A 
ATOM     87  C   UNL A   1      29.302  28.659  22.809  1.00  0.00     0.079 A 
ATOM     88  F   UNL A   1      31.611  28.639  22.427  1.00  0.00    -0.206 F 
ATOM     89  C   UNL A   1      28.169  28.023  23.287  1.00  0.00     0.126 A 
ATOM     90  F   UNL A   1      26.985  28.646  23.212  1.00  0.00    -0.207 F 
ENDBRANCH  79  83
ENDBRANCH  74  77
ENDBRANCH  72  73
ENDBRANCH  71  72
ENDBRANCH   1  71
TORSDOF 14
ENDMDL
MODEL 2
REMARK VINA RESULT:     -12.5      1.679      2.042
REMARK SMILES O=C(NCCCNC(=O)c1ccncc1-c1ccc(F)cc1F)c1ccc(-c2c3nc(c(-c4cc(S(=O)(=O)[O-])ccc4F)c4ccc([nH]4)c(-c4cc(S(=O)(=O)[O-])ccc4F)c4nc(c(-c5cc(S(=O)(=O)[O-])ccc5F)c5ccc2[nH]5)C=C4)C=C3)cc1
REMARK SMILES IDX 4 1 3 2 1 3 2 4 24 6 25 7 86 8 26 9 85 10 27 11 28 12 29 13
REMARK SMILES IDX 79 14 30 15 84 16 78 17 80 18 31 19 83 20 77 21 76 22 32 24
REMARK SMILES IDX 64 25 44 26 63 27 45 28 48 29 62 30 81 31 46 32 47 33 61 35
REMARK SMILES IDX 82 36 49 37 33 38 34 39 42 40 35 41 41 42 43 43 40 44 36 45
REMARK SMILES IDX 37 46 38 47 39 48 65 49 66 50 74 51 67 52 73 53 75 54 72 55
REMARK SMILES IDX 68 56 69 57 70 58 71 59 50 60 51 61 59 62 52 63 58 64 60 65
REMARK SMILES IDX 57 66 53 67 54 68 55 69 56 70 5 71 6 72 7 73 8 74 9 76 10 77
REMARK SMILES IDX 11 78 15 79 12 80 14 81 13 82 16 83 17 84 22 85 18 86 21 87
REMARK SMILES IDX 23 88 19 89 20 90
REMARK H PARENT 3 5 80 23 48 34 7 75
REMARK Flexibility Score: inf
ROOT
ATOM      1  C   UNL A   1      32.663  30.069  26.192  1.00  0.00     0.118 C 
ENDROOT
BRANCH   1   2
ATOM      2  N   UNL A   1      32.526  31.472  26.569  1.00  0.00    -0.352 N 
ATOM      3  O   UNL A   1      32.920  33.399  27.661  1.00  0.00    -0.269 OA
ATOM      4  C   UNL A   1      33.314  32.273  27.364  1.00  0.00     0.251 C 
ATOM      5  H   UNL A   1      31.736  31.922  26.192  1.00  0.00     0.163 HD
BRANCH   4   6
ATOM      6  C   UNL A   1      34.610  31.781  27.884  1.00  0.00     0.039 A 
ATOM      7  C   UNL A   1      34.771  30.448  28.256  1.00  0.00     0.014 A 
ATOM      8  C   UNL A   1      35.686  32.667  28.005  1.00  0.00     0.014 A 
ATOM      9  C   UNL A   1      35.908  30.057  28.950  1.00  0.00     0.010 A 
ATOM     10  C   UNL A   1      36.884  32.235  28.588  1.00  0.00     0.010 A 
ATOM     11  C   UNL A   1      36.986  30.940  29.120  1.00  0.00    -0.014 A 
BRANCH  11  12
ATOM     12  C   UNL A   1      38.200  30.466  29.841  1.00  0.00     0.031 A 
ATOM     13  C   UNL A   1      38.447  30.839  31.280  1.00  0.00     0.074 A 
ATOM     14  C   UNL A   1      39.054  29.638  29.204  1.00  0.00     0.049 A 
ATOM     15  N   UNL A   1      39.423  30.471  32.072  1.00  0.00    -0.248 NA
ATOM     16  C   UNL A   1      37.482  31.752  31.909  1.00  0.00     0.031 C 
ATOM     17  C   UNL A   1      38.922  29.207  27.809  1.00  0.00     0.029 A 
ATOM     18  N   UNL A   1      40.176  28.985  29.645  1.00  0.00    -0.354 N 
ATOM     19  C   UNL A   1      39.205  31.124  33.282  1.00  0.00     0.074 A 
ATOM     20  C   UNL A   1      38.023  31.941  33.104  1.00  0.00     0.031 C 
ATOM     21  C   UNL A   1      39.879  28.310  27.533  1.00  0.00     0.029 A 
ATOM     22  C   UNL A   1      40.742  28.164  28.697  1.00  0.00     0.049 A 
ATOM     23  H   UNL A   1      40.541  29.092  30.553  1.00  0.00     0.167 HD
ATOM     24  C   UNL A   1      39.919  31.042  34.435  1.00  0.00     0.034 A 
ATOM     25  C   UNL A   1      41.843  27.390  28.748  1.00  0.00     0.034 A 
ATOM     26  C   UNL A   1      41.092  30.213  34.596  1.00  0.00     0.049 A 
ATOM     27  C   UNL A   1      42.637  27.345  30.027  1.00  0.00     0.074 A 
ATOM     28  C   UNL A   1      41.868  30.030  35.728  1.00  0.00     0.029 A 
ATOM     29  N   UNL A   1      41.666  29.435  33.598  1.00  0.00    -0.354 N 
ATOM     30  N   UNL A   1      42.402  27.954  31.167  1.00  0.00    -0.248 NA
ATOM     31  C   UNL A   1      43.837  26.502  30.027  1.00  0.00     0.031 C 
ATOM     32  C   UNL A   1      42.950  29.209  35.395  1.00  0.00     0.029 A 
ATOM     33  C   UNL A   1      42.802  28.800  34.079  1.00  0.00     0.049 A 
ATOM     34  H   UNL A   1      41.316  29.348  32.681  1.00  0.00     0.167 HD
ATOM     35  C   UNL A   1      43.412  27.539  32.029  1.00  0.00     0.074 A 
ATOM     36  C   UNL A   1      44.241  26.615  31.282  1.00  0.00     0.031 C 
ATOM     37  C   UNL A   1      43.631  27.889  33.323  1.00  0.00     0.034 A 
BRANCH  24  38
ATOM     38  C   UNL A   1      39.480  31.910  35.593  1.00  0.00     0.023 A 
ATOM     39  C   UNL A   1      38.730  31.400  36.667  1.00  0.00     0.031 A 
ATOM     40  C   UNL A   1      39.800  33.281  35.611  1.00  0.00     0.131 A 
ATOM     41  C   UNL A   1      38.263  32.264  37.671  1.00  0.00     0.055 A 
ATOM     42  C   UNL A   1      39.406  34.118  36.657  1.00  0.00     0.041 A 
ATOM     43  F   UNL A   1      40.495  33.834  34.605  1.00  0.00    -0.206 F 
ATOM     44  C   UNL A   1      38.618  33.614  37.688  1.00  0.00     0.022 A 
BRANCH  41  45
ATOM     45  S   UNL A   1      37.058  31.629  38.870  1.00  0.00     0.124 S 
ATOM     46  O   UNL A   1      35.977  32.606  38.748  1.00  0.00    -0.237 OA
ATOM     47  O   UNL A   1      36.772  30.295  38.354  1.00  0.00    -0.237 OA
ATOM     48  O   UNL A   1      37.781  31.668  40.139  1.00  0.00    -0.744 OA
ENDBRANCH  41  45
ENDBRANCH  24  38
BRANCH  25  49
ATOM     49  C   UNL A   1      42.276  26.614  27.550  1.00  0.00     0.023 A 
ATOM     50  C   UNL A   1      41.949  25.257  27.408  1.00  0.00     0.031 A 
ATOM     51  C   UNL A   1      43.059  27.212  26.546  1.00  0.00     0.131 A 
ATOM     52  C   UNL A   1      42.442  24.531  26.313  1.00  0.00     0.055 A 
ATOM     53  C   UNL A   1      43.494  26.502  25.427  1.00  0.00     0.041 A 
ATOM     54  F   UNL A   1      43.399  28.509  26.631  1.00  0.00    -0.206 F 
ATOM     55  C   UNL A   1      43.198  25.148  25.314  1.00  0.00     0.022 A 
BRANCH  52  56
ATOM     56  S   UNL A   1      42.158  22.741  26.261  1.00  0.00     0.124 S 
ATOM     57  O   UNL A   1      40.709  22.666  26.414  1.00  0.00    -0.237 OA
ATOM     58  O   UNL A   1      42.683  22.390  24.946  1.00  0.00    -0.237 OA
ATOM     59  O   UNL A   1      42.933  22.241  27.394  1.00  0.00    -0.744 OA
ENDBRANCH  52  56
ENDBRANCH  25  49
BRANCH  37  60
ATOM     60  C   UNL A   1      44.787  27.214  34.026  1.00  0.00     0.023 A 
ATOM     61  C   UNL A   1      44.626  26.013  34.739  1.00  0.00     0.031 A 
ATOM     62  C   UNL A   1      46.063  27.806  34.010  1.00  0.00     0.131 A 
ATOM     63  C   UNL A   1      45.702  25.483  35.469  1.00  0.00     0.055 A 
ATOM     64  C   UNL A   1      47.147  27.235  34.677  1.00  0.00     0.041 A 
ATOM     65  F   UNL A   1      46.276  28.955  33.349  1.00  0.00    -0.206 F 
ATOM     66  C   UNL A   1      46.965  26.077  35.427  1.00  0.00     0.022 A 
BRANCH  63  67
ATOM     67  S   UNL A   1      45.396  24.077  36.574  1.00  0.00     0.124 S 
ATOM     68  O   UNL A   1      46.751  23.651  36.906  1.00  0.00    -0.237 OA
ATOM     69  O   UNL A   1      44.638  24.693  37.659  1.00  0.00    -0.237 OA
ATOM     70  O   UNL A   1      44.640  23.145  35.741  1.00  0.00    -0.744 OA
ENDBRANCH  63  67
ENDBRANCH  37  60
ENDBRANCH  11  12
ENDBRANCH   4   6
ENDBRANCH   1   2
BRANCH   1  71
ATOM     71  C   UNL A   1      31.788  29.134  27.011  1.00  0.00     0.042 C 
BRANCH  71  72
ATOM     72  C   UNL A   1      32.090  27.659  26.802  1.00  0.00     0.118 C 
BRANCH  72  73
ATOM     73  N   UNL A   1      30.908  26.812  26.924  1.00  0.00    -0.352 N 
ATOM     74  C   UNL A   1      30.374  25.900  26.047  1.00  0.00     0.252 C 
ATOM     75  H   UNL A   1      30.414  26.910  27.770  1.00  0.00     0.163 HD
ATOM     76  O   UNL A   1      29.326  25.320  26.331  1.00  0.00    -0.269 OA
BRANCH  74  77
ATOM     77  C   UNL A   1      31.070  25.602  24.778  1.00  0.00     0.050 A 
ATOM     78  C   UNL A   1      31.846  24.435  24.728  1.00  0.00     0.034 A 
ATOM     79  C   UNL A   1      30.920  26.409  23.639  1.00  0.00     0.016 A 
ATOM     80  C   UNL A   1      32.549  24.162  23.576  1.00  0.00     0.112 A 
ATOM     81  C   UNL A   1      31.682  26.021  22.534  1.00  0.00     0.120 A 
ATOM     82  N   UNL A   1      32.496  24.939  22.480  1.00  0.00    -0.264 NA
BRANCH  79  83
ATOM     83  C   UNL A   1      30.005  27.558  23.525  1.00  0.00     0.020 A 
ATOM     84  C   UNL A   1      30.464  28.884  23.456  1.00  0.00     0.015 A 
ATOM     85  C   UNL A   1      28.613  27.348  23.463  1.00  0.00     0.134 A 
ATOM     86  C   UNL A   1      29.558  29.947  23.335  1.00  0.00     0.040 A 
ATOM     87  C   UNL A   1      27.708  28.397  23.340  1.00  0.00     0.079 A 
ATOM     88  F   UNL A   1      28.122  26.099  23.517  1.00  0.00    -0.206 F 
ATOM     89  C   UNL A   1      28.192  29.692  23.279  1.00  0.00     0.126 A 
ATOM     90  F   UNL A   1      27.331  30.710  23.159  1.00  0.00    -0.207 F 
ENDBRANCH  79  83
ENDBRANCH  74  77
ENDBRANCH  72  73
ENDBRANCH  71  72
ENDBRANCH   1  71
TORSDOF 14
ENDMDL
MODEL 3
REMARK VINA RESULT:     -12.4      1.650      2.836
REMARK SMILES O=C(NCCCNC(=O)c1ccncc1-c1ccc(F)cc1F)c1ccc(-c2c3nc(c(-c4cc(S(=O)(=O)[O-])ccc4F)c4ccc([nH]4)c(-c4cc(S(=O)(=O)[O-])ccc4F)c4nc(c(-c5cc(S(=O)(=O)[O-])ccc5F)c5ccc2[nH]5)C=C4)C=C3)cc1
REMARK SMILES IDX 4 1 3 2 1 3 2 4 24 6 25 7 86 8 26 9 85 10 27 11 28 12 29 13
REMARK SMILES IDX 79 14 30 15 84 16 78 17 80 18 31 19 83 20 77 21 76 22 32 24
REMARK SMILES IDX 64 25 44 26 63 27 45 28 48 29 62 30 81 31 46 32 47 33 61 35
REMARK SMILES IDX 82 36 49 37 33 38 34 39 42 40 35 41 41 42 43 43 40 44 36 45
REMARK SMILES IDX 37 46 38 47 39 48 65 49 66 50 74 51 67 52 73 53 75 54 72 55
REMARK SMILES IDX 68 56 69 57 70 58 71 59 50 60 51 61 59 62 52 63 58 64 60 65
REMARK SMILES IDX 57 66 53 67 54 68 55 69 56 70 5 71 6 72 7 73 8 74 9 76 10 77
REMARK SMILES IDX 11 78 15 79 12 80 14 81 13 82 16 83 17 84 22 85 18 86 21 87
REMARK SMILES IDX 23 88 19 89 20 90
REMARK H PARENT 3 5 80 23 48 34 7 75
REMARK Flexibility Score: inf
ROOT
ATOM      1  C   UNL A   1      32.424  29.636  26.255  1.00  0.00     0.118 C 
ENDROOT
BRANCH   1   2
ATOM      2  N   UNL A   1      32.260  31.064  26.504  1.00  0.00    -0.352 N 
ATOM      3  O   UNL A   1      32.628  33.093  27.405  1.00  0.00    -0.269 OA
ATOM      4  C   UNL A   1      33.044  31.953  27.205  1.00  0.00     0.251 C 
ATOM      5  H   UNL A   1      31.452  31.459  26.103  1.00  0.00     0.163 HD
BRANCH   4   6
ATOM      6  C   UNL A   1      34.360  31.541  27.740  1.00  0.00     0.039 A 
ATOM      7  C   UNL A   1      34.624  30.206  28.039  1.00  0.00     0.014 A 
ATOM      8  C   UNL A   1      35.352  32.504  27.951  1.00  0.00     0.014 A 
ATOM      9  C   UNL A   1      35.769  29.869  28.748  1.00  0.00     0.010 A 
ATOM     10  C   UNL A   1      36.564  32.140  28.549  1.00  0.00     0.010 A 
ATOM     11  C   UNL A   1      36.762  30.828  29.008  1.00  0.00    -0.014 A 
BRANCH  11  12
ATOM     12  C   UNL A   1      37.989  30.414  29.742  1.00  0.00     0.031 A 
ATOM     13  C   UNL A   1      38.224  30.838  31.169  1.00  0.00     0.074 A 
ATOM     14  C   UNL A   1      38.869  29.594  29.130  1.00  0.00     0.049 A 
ATOM     15  N   UNL A   1      39.211  30.525  31.971  1.00  0.00    -0.248 NA
ATOM     16  C   UNL A   1      37.231  31.739  31.771  1.00  0.00     0.031 C 
ATOM     17  C   UNL A   1      38.751  29.116  27.750  1.00  0.00     0.029 A 
ATOM     18  N   UNL A   1      40.011  28.989  29.590  1.00  0.00    -0.354 N 
ATOM     19  C   UNL A   1      38.973  31.207  33.161  1.00  0.00     0.074 A 
ATOM     20  C   UNL A   1      37.766  31.981  32.959  1.00  0.00     0.031 C 
ATOM     21  C   UNL A   1      39.735  28.241  27.500  1.00  0.00     0.029 A 
ATOM     22  C   UNL A   1      40.602  28.158  28.667  1.00  0.00     0.049 A 
ATOM     23  H   UNL A   1      40.371  29.136  30.494  1.00  0.00     0.167 HD
ATOM     24  C   UNL A   1      39.688  31.183  34.315  1.00  0.00     0.034 A 
ATOM     25  C   UNL A   1      41.727  27.420  28.741  1.00  0.00     0.034 A 
ATOM     26  C   UNL A   1      40.886  30.396  34.501  1.00  0.00     0.049 A 
ATOM     27  C   UNL A   1      42.521  27.439  30.020  1.00  0.00     0.074 A 
ATOM     28  C   UNL A   1      41.667  30.272  35.638  1.00  0.00     0.029 A 
ATOM     29  N   UNL A   1      41.485  29.606  33.526  1.00  0.00    -0.354 N 
ATOM     30  N   UNL A   1      42.267  28.075  31.141  1.00  0.00    -0.248 NA
ATOM     31  C   UNL A   1      43.747  26.635  30.046  1.00  0.00     0.031 C 
ATOM     32  C   UNL A   1      42.775  29.475  35.329  1.00  0.00     0.029 A 
ATOM     33  C   UNL A   1      42.640  29.022  34.026  1.00  0.00     0.049 A 
ATOM     34  H   UNL A   1      41.138  29.480  32.613  1.00  0.00     0.167 HD
ATOM     35  C   UNL A   1      43.289  27.719  32.015  1.00  0.00     0.074 A 
ATOM     36  C   UNL A   1      44.147  26.798  31.296  1.00  0.00     0.031 C 
ATOM     37  C   UNL A   1      43.497  28.113  33.298  1.00  0.00     0.034 A 
BRANCH  24  38
ATOM     38  C   UNL A   1      39.222  32.072  35.447  1.00  0.00     0.023 A 
ATOM     39  C   UNL A   1      39.641  33.409  35.568  1.00  0.00     0.031 A 
ATOM     40  C   UNL A   1      38.359  31.565  36.436  1.00  0.00     0.131 A 
ATOM     41  C   UNL A   1      39.259  34.167  36.686  1.00  0.00     0.055 A 
ATOM     42  C   UNL A   1      37.914  32.350  37.501  1.00  0.00     0.041 A 
ATOM     43  F   UNL A   1      37.940  30.290  36.390  1.00  0.00    -0.206 F 
ATOM     44  C   UNL A   1      38.377  33.656  37.640  1.00  0.00     0.022 A 
BRANCH  41  45
ATOM     45  S   UNL A   1      40.055  35.774  36.958  1.00  0.00     0.124 S 
ATOM     46  O   UNL A   1      39.425  36.209  38.203  1.00  0.00    -0.237 OA
ATOM     47  O   UNL A   1      41.466  35.417  37.048  1.00  0.00    -0.237 OA
ATOM     48  O   UNL A   1      39.680  36.548  35.776  1.00  0.00    -0.744 OA
ENDBRANCH  41  45
ENDBRANCH  24  38
BRANCH  25  49
ATOM     49  C   UNL A   1      42.184  26.622  27.567  1.00  0.00     0.023 A 
ATOM     50  C   UNL A   1      41.843  25.268  27.434  1.00  0.00     0.031 A 
ATOM     51  C   UNL A   1      43.004  27.196  26.579  1.00  0.00     0.131 A 
ATOM     52  C   UNL A   1      42.357  24.520  26.364  1.00  0.00     0.055 A 
ATOM     53  C   UNL A   1      43.462  26.464  25.483  1.00  0.00     0.041 A 
ATOM     54  F   UNL A   1      43.359  28.489  26.656  1.00  0.00    -0.206 F 
ATOM     55  C   UNL A   1      43.151  25.113  25.379  1.00  0.00     0.022 A 
BRANCH  52  56
ATOM     56  S   UNL A   1      42.050  22.733  26.328  1.00  0.00     0.124 S 
ATOM     57  O   UNL A   1      40.594  22.681  26.401  1.00  0.00    -0.237 OA
ATOM     58  O   UNL A   1      42.642  22.351  25.050  1.00  0.00    -0.237 OA
ATOM     59  O   UNL A   1      42.754  22.244  27.511  1.00  0.00    -0.744 OA
ENDBRANCH  52  56
ENDBRANCH  25  49
BRANCH  37  60
ATOM     60  C   UNL A   1      44.673  27.496  34.020  1.00  0.00     0.023 A 
ATOM     61  C   UNL A   1      44.557  26.296  34.742  1.00  0.00     0.031 A 
ATOM     62  C   UNL A   1      45.921  28.145  34.014  1.00  0.00     0.131 A 
ATOM     63  C   UNL A   1      45.646  25.821  35.489  1.00  0.00     0.055 A 
ATOM     64  C   UNL A   1      47.022  27.629  34.699  1.00  0.00     0.041 A 
ATOM     65  F   UNL A   1      46.091  29.297  33.346  1.00  0.00    -0.206 F 
ATOM     66  C   UNL A   1      46.883  26.470  35.457  1.00  0.00     0.022 A 
BRANCH  63  67
ATOM     67  S   UNL A   1      45.390  24.411  36.602  1.00  0.00     0.124 S 
ATOM     68  O   UNL A   1      44.823  23.412  35.702  1.00  0.00    -0.237 OA
ATOM     69  O   UNL A   1      46.742  24.143  37.082  1.00  0.00    -0.237 OA
ATOM     70  O   UNL A   1      44.467  24.933  37.608  1.00  0.00    -0.744 OA
ENDBRANCH  63  67
ENDBRANCH  37  60
ENDBRANCH  11  12
ENDBRANCH   4   6
ENDBRANCH   1   2
BRANCH   1  71
ATOM     71  C   UNL A   1      32.786  29.311  24.814  1.00  0.00     0.042 C 
BRANCH  71  72
ATOM     72  C   UNL A   1      33.871  28.257  24.669  1.00  0.00     0.118 C 
BRANCH  72  73
ATOM     73  N   UNL A   1      34.048  27.807  23.291  1.00  0.00    -0.352 N 
ATOM     74  C   UNL A   1      33.467  26.761  22.617  1.00  0.00     0.252 C 
ATOM     75  H   UNL A   1      34.684  28.338  22.761  1.00  0.00     0.163 HD
ATOM     76  O   UNL A   1      33.800  26.523  21.456  1.00  0.00    -0.269 OA
BRANCH  74  77
ATOM     77  C   UNL A   1      32.432  25.939  23.278  1.00  0.00     0.050 A 
ATOM     78  C   UNL A   1      31.093  26.271  23.031  1.00  0.00     0.034 A 
ATOM     79  C   UNL A   1      32.759  24.830  24.074  1.00  0.00     0.016 A 
ATOM     80  C   UNL A   1      30.109  25.556  23.679  1.00  0.00     0.112 A 
ATOM     81  C   UNL A   1      31.670  24.187  24.669  1.00  0.00     0.120 A 
ATOM     82  N   UNL A   1      30.369  24.530  24.505  1.00  0.00    -0.264 NA
BRANCH  79  83
ATOM     83  C   UNL A   1      34.116  24.290  24.266  1.00  0.00     0.020 A 
ATOM     84  C   UNL A   1      34.888  24.579  25.404  1.00  0.00     0.015 A 
ATOM     85  C   UNL A   1      34.680  23.436  23.297  1.00  0.00     0.134 A 
ATOM     86  C   UNL A   1      36.171  24.034  25.552  1.00  0.00     0.040 A 
ATOM     87  C   UNL A   1      35.950  22.888  23.439  1.00  0.00     0.079 A 
ATOM     88  F   UNL A   1      33.981  23.121  22.195  1.00  0.00    -0.206 F 
ATOM     89  C   UNL A   1      36.687  23.196  24.570  1.00  0.00     0.126 A 
ATOM     90  F   UNL A   1      37.912  22.674  24.718  1.00  0.00    -0.207 F 
ENDBRANCH  79  83
ENDBRANCH  74  77
ENDBRANCH  72  73
ENDBRANCH  71  72
ENDBRANCH   1  71
TORSDOF 14
ENDMDL
