MODEL 1
REMARK VINA RESULT:     -10.4      0.000      0.000
REMARK SMILES COC(=O)[C@H]1CC[C@]2(C)[C@H](CC[C@]3(C)[C@H]2CC=C2[C@H]4CC(C)(C)CC[C@@]4(C(=O)NCCCNC(=O)c4ccc(-c5c6nc(c(-c7cc(S(=O)(=O)[O-])ccc7F)c7ccc([nH]7)c(-c7cc(S(=O)(=O)[O-])ccc7F)c7nc(c(-c8cc(S(=O)(=O)[O-])ccc8F)c8ccc5[nH]8)C=C7)C=C6)cc4)CC[C@@]23C)C1(C)C
REMARK SMILES IDX 31 1 30 2 29 3 27 4 28 5 26 7 5 8 6 9 103 10 7 11 10 12
REMARK SMILES IDX 104 13 105 14 8 15 11 16 15 17 9 18 12 19 16 20 13 21 17 22
REMARK SMILES IDX 101 23 14 24 18 25 100 26 102 27 19 28 99 29 20 30 21 31
REMARK SMILES IDX 25 32 24 33 22 34 23 35 3 36 4 37 2 38 1 39 32 40 33 41
REMARK SMILES IDX 34 42 35 44 36 45 37 46 98 47 38 48 97 49 39 50 40 51 41 52
REMARK SMILES IDX 91 53 42 54 96 55 90 56 92 57 43 58 95 59 89 60 88 61 44 63
REMARK SMILES IDX 76 64 56 65 75 66 57 67 60 68 74 69 93 70 58 71 59 72 73 74
REMARK SMILES IDX 94 75 61 76 45 77 46 78 54 79 47 80 53 81 55 82 52 83 48 84
REMARK SMILES IDX 49 85 50 86 51 87 77 88 78 89 86 90 79 91 85 92 87 93 84 94
REMARK SMILES IDX 80 95 81 96 82 97 83 98 62 99 63 100 71 101 64 102 70 103
REMARK SMILES IDX 72 104 69 105 65 106 66 107 67 108 68 109
REMARK H PARENT 29 6 33 43 92 62 60 73
REMARK Flexibility Score: inf
ROOT
ATOM      1  C   UNL A   1      46.405  37.049  26.362  1.00  0.00     0.042 C 
ENDROOT
BRANCH   1   2
ATOM      2  C   UNL A   1      45.205  38.221  26.495  1.00  0.00     0.117 C 
BRANCH   2   3
ATOM      3  N   UNL A   1      44.985  39.835  26.296  1.00  0.00    -0.356 N 
ATOM      4  C   UNL A   1      44.243  41.176  27.068  1.00  0.00     0.226 C 
ATOM      5  O   UNL A   1      43.409  41.567  27.951  1.00  0.00    -0.274 OA
ATOM      6  H   UNL A   1      45.420  40.129  25.464  1.00  0.00     0.163 HD
BRANCH   4   7
ATOM      7  C   UNL A   1      45.100  42.150  26.709  1.00  0.00     0.056 C 
ATOM      8  C   UNL A   1      45.012  41.796  35.171  1.00  0.00     0.105 C 
ATOM      9  C   UNL A   1      44.782  40.282  34.994  1.00  0.00     0.016 C 
ATOM     10  C   UNL A   1      45.186  42.649  33.852  1.00  0.00    -0.019 C 
ATOM     11  C   UNL A   1      43.911  39.902  33.808  1.00  0.00     0.008 C 
ATOM     12  C   UNL A   1      44.296  42.060  32.662  1.00  0.00     0.002 C 
ATOM     13  C   UNL A   1      44.786  44.137  34.093  1.00  0.00     0.012 C 
ATOM     14  C   UNL A   1      46.715  42.776  33.539  1.00  0.00     0.012 C 
ATOM     15  C   UNL A   1      44.389  40.525  32.477  1.00  0.00    -0.026 C 
ATOM     16  C   UNL A   1      44.587  42.724  31.329  1.00  0.00     0.005 C 
ATOM     17  C   UNL A   1      43.415  39.936  31.321  1.00  0.00     0.006 C 
ATOM     18  C   UNL A   1      45.881  40.103  32.272  1.00  0.00     0.012 C 
ATOM     19  C   UNL A   1      43.582  42.419  30.228  1.00  0.00     0.008 C 
ATOM     20  C   UNL A   1      44.063  38.603  30.796  1.00  0.00     0.032 C 
ATOM     21  C   UNL A   1      42.834  40.966  30.096  1.00  0.00    -0.020 C 
ATOM     22  C   UNL A   1      45.069  38.979  29.735  1.00  0.00    -0.027 C 
ATOM     23  C   UNL A   1      42.970  39.965  28.514  1.00  0.00    -0.006 C 
ATOM     24  C   UNL A   1      41.437  41.478  30.601  1.00  0.00     0.012 C 
ATOM     25  C   UNL A   1      44.652  39.945  28.904  1.00  0.00    -0.064 C 
ATOM     26  C   UNL A   1      42.568  40.170  26.583  1.00  0.00     0.013 C 
ATOM     27  C   UNL A   1      42.420  38.505  28.552  1.00  0.00     0.017 C 
ATOM     28  C   UNL A   1      45.617  41.255  28.252  1.00  0.00     0.031 C 
ATOM     29  C   UNL A   1      43.667  41.493  25.607  1.00  0.00     0.018 C 
ATOM     30  C   UNL A   1      47.117  41.011  28.368  1.00  0.00     0.015 C 
ATOM     31  C   UNL A   1      47.883  42.300  28.032  1.00  0.00    -0.035 C 
ATOM     32  C   UNL A   1      46.375  42.043  25.860  1.00  0.00     0.018 C 
ATOM     33  C   UNL A   1      47.653  42.636  26.534  1.00  0.00     0.007 C 
ATOM     34  C   UNL A   1      49.368  42.057  28.365  1.00  0.00     0.011 C 
ATOM     35  C   UNL A   1      47.452  43.506  28.911  1.00  0.00     0.011 C 
BRANCH   8  36
ATOM     36  C   UNL A   1      43.936  42.313  36.124  1.00  0.00     0.309 C 
ATOM     37  O   UNL A   1      42.810  42.656  35.800  1.00  0.00    -0.252 OA
BRANCH  36  38
ATOM     38  O   UNL A   1      44.393  42.404  37.405  1.00  0.00    -0.469 OA
ATOM     39  C   UNL A   1      43.402  42.078  38.382  1.00  0.00     0.282 C 
ENDBRANCH  36  38
ENDBRANCH   8  36
ENDBRANCH   4   7
ENDBRANCH   2   3
ENDBRANCH   1   2
BRANCH   1  40
ATOM     40  C   UNL A   1      46.644  35.599  25.729  1.00  0.00     0.118 C 
BRANCH  40  41
ATOM     41  N   UNL A   1      45.671  34.954  24.842  1.00  0.00    -0.352 N 
ATOM     42  C   UNL A   1      44.678  34.030  25.069  1.00  0.00     0.251 C 
ATOM     43  H   UNL A   1      45.744  35.236  23.902  1.00  0.00     0.163 HD
ATOM     44  O   UNL A   1      44.153  33.397  24.179  1.00  0.00    -0.269 OA
BRANCH  42  45
ATOM     45  C   UNL A   1      44.119  34.031  26.413  1.00  0.00     0.039 A 
ATOM     46  C   UNL A   1      44.400  33.005  27.307  1.00  0.00     0.014 A 
ATOM     47  C   UNL A   1      43.351  35.149  26.751  1.00  0.00     0.014 A 
ATOM     48  C   UNL A   1      43.974  33.157  28.619  1.00  0.00     0.010 A 
ATOM     49  C   UNL A   1      42.974  35.320  28.063  1.00  0.00     0.010 A 
ATOM     50  C   UNL A   1      43.300  34.331  28.999  1.00  0.00    -0.014 A 
BRANCH  50  51
ATOM     51  C   UNL A   1      42.924  34.564  30.399  1.00  0.00     0.031 A 
ATOM     52  C   UNL A   1      43.986  34.974  31.368  1.00  0.00     0.074 A 
ATOM     53  C   UNL A   1      41.660  34.299  30.769  1.00  0.00     0.049 A 
ATOM     54  N   UNL A   1      43.899  35.154  32.655  1.00  0.00    -0.248 NA
ATOM     55  C   UNL A   1      45.337  35.162  30.815  1.00  0.00     0.031 C 
ATOM     56  C   UNL A   1      40.600  33.820  29.873  1.00  0.00     0.029 A 
ATOM     57  N   UNL A   1      41.052  34.379  31.989  1.00  0.00    -0.354 N 
ATOM     58  C   UNL A   1      45.188  35.466  33.073  1.00  0.00     0.074 A 
ATOM     59  C   UNL A   1      46.045  35.382  31.911  1.00  0.00     0.031 C 
ATOM     60  C   UNL A   1      39.465  33.676  30.575  1.00  0.00     0.029 A 
ATOM     61  C   UNL A   1      39.726  34.019  31.966  1.00  0.00     0.049 A 
ATOM     62  H   UNL A   1      41.520  34.667  32.806  1.00  0.00     0.167 HD
ATOM     63  C   UNL A   1      45.599  35.815  34.315  1.00  0.00     0.034 A 
ATOM     64  C   UNL A   1      38.832  33.980  32.971  1.00  0.00     0.034 A 
ATOM     65  C   UNL A   1      44.696  35.886  35.436  1.00  0.00     0.049 A 
ATOM     66  C   UNL A   1      39.303  34.409  34.335  1.00  0.00     0.074 A 
ATOM     67  C   UNL A   1      44.959  36.259  36.740  1.00  0.00     0.029 A 
ATOM     68  N   UNL A   1      43.341  35.568  35.376  1.00  0.00    -0.354 N 
ATOM     69  N   UNL A   1      40.511  34.767  34.715  1.00  0.00    -0.248 NA
ATOM     70  C   UNL A   1      38.296  34.455  35.398  1.00  0.00     0.031 C 
ATOM     71  C   UNL A   1      43.775  36.124  37.477  1.00  0.00     0.029 A 
ATOM     72  C   UNL A   1      42.758  35.725  36.621  1.00  0.00     0.049 A 
ATOM     73  H   UNL A   1      42.867  35.274  34.565  1.00  0.00     0.167 HD
ATOM     74  C   UNL A   1      40.403  35.102  36.059  1.00  0.00     0.074 A 
ATOM     75  C   UNL A   1      39.007  34.921  36.414  1.00  0.00     0.031 C 
ATOM     76  C   UNL A   1      41.361  35.522  36.925  1.00  0.00     0.034 A 
BRANCH  63  77
ATOM     77  C   UNL A   1      47.068  36.104  34.496  1.00  0.00     0.023 A 
ATOM     78  C   UNL A   1      47.607  37.377  34.226  1.00  0.00     0.031 A 
ATOM     79  C   UNL A   1      47.958  35.082  34.868  1.00  0.00     0.131 A 
ATOM     80  C   UNL A   1      48.996  37.569  34.238  1.00  0.00     0.055 A 
ATOM     81  C   UNL A   1      49.334  35.303  34.962  1.00  0.00     0.041 A 
ATOM     82  F   UNL A   1      47.509  33.841  35.114  1.00  0.00    -0.206 F 
ATOM     83  C   UNL A   1      49.863  36.546  34.628  1.00  0.00     0.022 A 
BRANCH  80  84
ATOM     84  S   UNL A   1      49.661  39.124  33.585  1.00  0.00     0.124 S 
ATOM     85  O   UNL A   1      48.977  40.110  34.419  1.00  0.00    -0.237 OA
ATOM     86  O   UNL A   1      51.094  38.978  33.814  1.00  0.00    -0.237 OA
ATOM     87  O   UNL A   1      49.250  39.112  32.182  1.00  0.00    -0.744 OA
ENDBRANCH  80  84
ENDBRANCH  63  77
BRANCH  64  88
ATOM     88  C   UNL A   1      37.430  33.552  32.719  1.00  0.00     0.023 A 
ATOM     89  C   UNL A   1      36.423  34.493  32.454  1.00  0.00     0.031 A 
ATOM     90  C   UNL A   1      37.072  32.192  32.738  1.00  0.00     0.131 A 
ATOM     91  C   UNL A   1      35.100  34.068  32.257  1.00  0.00     0.055 A 
ATOM     92  C   UNL A   1      35.762  31.770  32.501  1.00  0.00     0.041 A 
ATOM     93  F   UNL A   1      38.000  31.248  32.966  1.00  0.00    -0.206 F 
ATOM     94  C   UNL A   1      34.764  32.712  32.270  1.00  0.00     0.022 A 
BRANCH  91  95
ATOM     95  S   UNL A   1      33.806  35.322  32.045  1.00  0.00     0.124 S 
ATOM     96  O   UNL A   1      33.770  35.472  30.595  1.00  0.00    -0.237 OA
ATOM     97  O   UNL A   1      32.652  34.668  32.652  1.00  0.00    -0.237 OA
ATOM     98  O   UNL A   1      34.325  36.474  32.779  1.00  0.00    -0.744 OA
ENDBRANCH  91  95
ENDBRANCH  64  88
BRANCH  76  99
ATOM     99  C   UNL A   1      40.901  35.840  38.322  1.00  0.00     0.023 A 
ATOM    100  C   UNL A   1      40.462  37.127  38.672  1.00  0.00     0.031 A 
ATOM    101  C   UNL A   1      40.911  34.843  39.311  1.00  0.00     0.131 A 
ATOM    102  C   UNL A   1      40.099  37.399  39.997  1.00  0.00     0.055 A 
ATOM    103  C   UNL A   1      40.495  35.104  40.615  1.00  0.00     0.041 A 
ATOM    104  F   UNL A   1      41.324  33.598  39.022  1.00  0.00    -0.206 F 
ATOM    105  C   UNL A   1      40.097  36.392  40.968  1.00  0.00     0.022 A 
BRANCH 102 106
ATOM    106  S   UNL A   1      39.706  39.108  40.455  1.00  0.00     0.124 S 
ATOM    107  O   UNL A   1      38.524  39.375  39.642  1.00  0.00    -0.237 OA
ATOM    108  O   UNL A   1      39.482  39.003  41.892  1.00  0.00    -0.237 OA
ATOM    109  O   UNL A   1      40.906  39.849  40.067  1.00  0.00    -0.744 OA
ENDBRANCH 102 106
ENDBRANCH  76  99
ENDBRANCH  50  51
ENDBRANCH  42  45
ENDBRANCH  40  41
ENDBRANCH   1  40
TORSDOF 15
ENDMDL
MODEL 2
REMARK VINA RESULT:      -9.7      5.180      9.353
REMARK SMILES COC(=O)[C@H]1CC[C@]2(C)[C@H](CC[C@]3(C)[C@H]2CC=C2[C@H]4CC(C)(C)CC[C@@]4(C(=O)NCCCNC(=O)c4ccc(-c5c6nc(c(-c7cc(S(=O)(=O)[O-])ccc7F)c7ccc([nH]7)c(-c7cc(S(=O)(=O)[O-])ccc7F)c7nc(c(-c8cc(S(=O)(=O)[O-])ccc8F)c8ccc5[nH]8)C=C7)C=C6)cc4)CC[C@@]23C)C1(C)C
REMARK SMILES IDX 31 1 30 2 29 3 27 4 28 5 26 7 5 8 6 9 103 10 7 11 10 12
REMARK SMILES IDX 104 13 105 14 8 15 11 16 15 17 9 18 12 19 16 20 13 21 17 22
REMARK SMILES IDX 101 23 14 24 18 25 100 26 102 27 19 28 99 29 20 30 21 31
REMARK SMILES IDX 25 32 24 33 22 34 23 35 3 36 4 37 2 38 1 39 32 40 33 41
REMARK SMILES IDX 34 42 35 44 36 45 37 46 98 47 38 48 97 49 39 50 40 51 41 52
REMARK SMILES IDX 91 53 42 54 96 55 90 56 92 57 43 58 95 59 89 60 88 61 44 63
REMARK SMILES IDX 76 64 56 65 75 66 57 67 60 68 74 69 93 70 58 71 59 72 73 74
REMARK SMILES IDX 94 75 61 76 45 77 46 78 54 79 47 80 53 81 55 82 52 83 48 84
REMARK SMILES IDX 49 85 50 86 51 87 77 88 78 89 86 90 79 91 85 92 87 93 84 94
REMARK SMILES IDX 80 95 81 96 82 97 83 98 62 99 63 100 71 101 64 102 70 103
REMARK SMILES IDX 72 104 69 105 65 106 66 107 67 108 68 109
REMARK H PARENT 29 6 33 43 92 62 60 73
REMARK Flexibility Score: inf
ROOT
ATOM      1  C   UNL A   1      47.059  31.630  26.465  1.00  0.00     0.042 C 
ENDROOT
BRANCH   1   2
ATOM      2  C   UNL A   1      46.918  30.001  26.860  1.00  0.00     0.117 C 
BRANCH   2   3
ATOM      3  N   UNL A   1      46.663  29.032  28.159  1.00  0.00    -0.356 N 
ATOM      4  C   UNL A   1      46.749  27.381  28.617  1.00  0.00     0.226 C 
ATOM      5  O   UNL A   1      46.829  26.169  28.222  1.00  0.00    -0.274 OA
ATOM      6  H   UNL A   1      46.363  29.574  28.924  1.00  0.00     0.163 HD
BRANCH   4   7
ATOM      7  C   UNL A   1      47.100  27.519  29.910  1.00  0.00     0.056 C 
ATOM      8  C   UNL A   1      38.770  28.950  29.343  1.00  0.00     0.105 C 
ATOM      9  C   UNL A   1      38.781  27.909  28.207  1.00  0.00     0.016 C 
ATOM     10  C   UNL A   1      40.148  29.234  30.064  1.00  0.00    -0.019 C 
ATOM     11  C   UNL A   1      40.025  27.930  27.332  1.00  0.00     0.008 C 
ATOM     12  C   UNL A   1      41.371  29.108  29.042  1.00  0.00     0.002 C 
ATOM     13  C   UNL A   1      40.165  30.659  30.696  1.00  0.00     0.012 C 
ATOM     14  C   UNL A   1      40.245  28.321  31.332  1.00  0.00     0.012 C 
ATOM     15  C   UNL A   1      41.340  27.848  28.140  1.00  0.00    -0.026 C 
ATOM     16  C   UNL A   1      42.721  29.172  29.732  1.00  0.00     0.005 C 
ATOM     17  C   UNL A   1      42.540  27.780  27.053  1.00  0.00     0.006 C 
ATOM     18  C   UNL A   1      41.264  26.561  29.028  1.00  0.00     0.012 C 
ATOM     19  C   UNL A   1      43.910  29.350  28.799  1.00  0.00     0.008 C 
ATOM     20  C   UNL A   1      42.787  26.263  26.719  1.00  0.00     0.032 C 
ATOM     21  C   UNL A   1      43.961  28.685  27.301  1.00  0.00    -0.020 C 
ATOM     22  C   UNL A   1      43.726  25.718  27.768  1.00  0.00    -0.027 C 
ATOM     23  C   UNL A   1      45.362  27.532  26.819  1.00  0.00    -0.006 C 
ATOM     24  C   UNL A   1      43.740  30.039  26.535  1.00  0.00     0.012 C 
ATOM     25  C   UNL A   1      44.728  26.549  28.089  1.00  0.00    -0.064 C 
ATOM     26  C   UNL A   1      47.342  27.562  26.703  1.00  0.00     0.013 C 
ATOM     27  C   UNL A   1      45.217  26.772  25.464  1.00  0.00     0.017 C 
ATOM     28  C   UNL A   1      45.394  26.818  29.688  1.00  0.00     0.031 C 
ATOM     29  C   UNL A   1      48.307  27.695  28.423  1.00  0.00     0.018 C 
ATOM     30  C   UNL A   1      45.026  25.725  30.684  1.00  0.00     0.015 C 
ATOM     31  C   UNL A   1      45.409  26.164  32.105  1.00  0.00    -0.035 C 
ATOM     32  C   UNL A   1      47.729  26.482  30.851  1.00  0.00     0.018 C 
ATOM     33  C   UNL A   1      46.955  26.270  32.191  1.00  0.00     0.007 C 
ATOM     34  C   UNL A   1      44.830  25.122  33.083  1.00  0.00     0.011 C 
ATOM     35  C   UNL A   1      44.767  27.518  32.514  1.00  0.00     0.011 C 
BRANCH   8  36
ATOM     36  C   UNL A   1      38.063  30.196  28.814  1.00  0.00     0.309 C 
ATOM     37  O   UNL A   1      38.375  31.349  29.068  1.00  0.00    -0.252 OA
BRANCH  36  38
ATOM     38  O   UNL A   1      36.983  29.879  28.045  1.00  0.00    -0.469 OA
ATOM     39  C   UNL A   1      35.745  30.329  28.598  1.00  0.00     0.282 C 
ENDBRANCH  36  38
ENDBRANCH   8  36
ENDBRANCH   4   7
ENDBRANCH   2   3
ENDBRANCH   1   2
BRANCH   1  40
ATOM     40  C   UNL A   1      46.629  33.071  27.012  1.00  0.00     0.118 C 
BRANCH  40  41
ATOM     41  N   UNL A   1      45.707  33.950  26.285  1.00  0.00    -0.352 N 
ATOM     42  C   UNL A   1      44.401  34.315  26.509  1.00  0.00     0.251 C 
ATOM     43  H   UNL A   1      46.101  34.358  25.479  1.00  0.00     0.163 HD
ATOM     44  O   UNL A   1      43.705  34.827  25.659  1.00  0.00    -0.269 OA
BRANCH  42  45
ATOM     45  C   UNL A   1      43.971  34.276  27.900  1.00  0.00     0.039 A 
ATOM     46  C   UNL A   1      43.771  35.447  28.622  1.00  0.00     0.014 A 
ATOM     47  C   UNL A   1      43.715  33.005  28.421  1.00  0.00     0.014 A 
ATOM     48  C   UNL A   1      43.200  35.339  29.882  1.00  0.00     0.010 A 
ATOM     49  C   UNL A   1      43.103  32.906  29.649  1.00  0.00     0.010 A 
ATOM     50  C   UNL A   1      42.832  34.074  30.372  1.00  0.00    -0.014 A 
BRANCH  50  51
ATOM     51  C   UNL A   1      42.137  33.937  31.658  1.00  0.00     0.031 A 
ATOM     52  C   UNL A   1      42.934  33.571  32.868  1.00  0.00     0.074 A 
ATOM     53  C   UNL A   1      40.798  34.044  31.669  1.00  0.00     0.049 A 
ATOM     54  N   UNL A   1      42.523  33.320  34.079  1.00  0.00    -0.248 NA
ATOM     55  C   UNL A   1      44.387  33.428  32.676  1.00  0.00     0.031 C 
ATOM     56  C   UNL A   1      39.962  34.323  30.495  1.00  0.00     0.029 A 
ATOM     57  N   UNL A   1      39.902  33.920  32.691  1.00  0.00    -0.354 N 
ATOM     58  C   UNL A   1      43.664  32.975  34.793  1.00  0.00     0.074 A 
ATOM     59  C   UNL A   1      44.770  32.985  33.862  1.00  0.00     0.031 C 
ATOM     60  C   UNL A   1      38.676  34.375  30.874  1.00  0.00     0.029 A 
ATOM     61  C   UNL A   1      38.597  34.102  32.303  1.00  0.00     0.049 A 
ATOM     62  H   UNL A   1      40.166  33.719  33.619  1.00  0.00     0.167 HD
ATOM     63  C   UNL A   1      43.767  32.703  36.116  1.00  0.00     0.034 A 
ATOM     64  C   UNL A   1      37.470  34.053  33.037  1.00  0.00     0.034 A 
ATOM     65  C   UNL A   1      42.628  32.713  36.998  1.00  0.00     0.049 A 
ATOM     66  C   UNL A   1      37.613  33.786  34.511  1.00  0.00     0.074 A 
ATOM     67  C   UNL A   1      42.583  32.495  38.362  1.00  0.00     0.029 A 
ATOM     68  N   UNL A   1      41.319  32.954  36.589  1.00  0.00    -0.354 N 
ATOM     69  N   UNL A   1      38.704  33.523  35.199  1.00  0.00    -0.248 NA
ATOM     70  C   UNL A   1      36.389  33.832  35.313  1.00  0.00     0.031 C 
ATOM     71  C   UNL A   1      41.245  32.560  38.769  1.00  0.00     0.029 A 
ATOM     72  C   UNL A   1      40.458  32.880  37.670  1.00  0.00     0.049 A 
ATOM     73  H   UNL A   1      41.045  33.151  35.664  1.00  0.00     0.167 HD
ATOM     74  C   UNL A   1      38.299  33.395  36.521  1.00  0.00     0.074 A 
ATOM     75  C   UNL A   1      36.866  33.629  36.533  1.00  0.00     0.031 C 
ATOM     76  C   UNL A   1      39.033  33.112  37.628  1.00  0.00     0.034 A 
BRANCH  63  77
ATOM     77  C   UNL A   1      45.138  32.354  36.640  1.00  0.00     0.023 A 
ATOM     78  C   UNL A   1      45.586  31.020  36.698  1.00  0.00     0.031 A 
ATOM     79  C   UNL A   1      45.979  33.351  37.162  1.00  0.00     0.131 A 
ATOM     80  C   UNL A   1      46.790  30.711  37.346  1.00  0.00     0.055 A 
ATOM     81  C   UNL A   1      47.218  33.044  37.731  1.00  0.00     0.041 A 
ATOM     82  F   UNL A   1      45.598  34.638  37.160  1.00  0.00    -0.206 F 
ATOM     83  C   UNL A   1      47.622  31.717  37.843  1.00  0.00     0.022 A 
BRANCH  80  84
ATOM     84  S   UNL A   1      47.177  28.969  37.673  1.00  0.00     0.124 S 
ATOM     85  O   UNL A   1      48.590  29.045  38.037  1.00  0.00    -0.237 OA
ATOM     86  O   UNL A   1      46.256  28.637  38.753  1.00  0.00    -0.237 OA
ATOM     87  O   UNL A   1      46.904  28.311  36.397  1.00  0.00    -0.744 OA
ENDBRANCH  80  84
ENDBRANCH  63  77
BRANCH  64  88
ATOM     88  C   UNL A   1      36.144  34.281  32.402  1.00  0.00     0.023 A 
ATOM     89  C   UNL A   1      35.468  35.502  32.558  1.00  0.00     0.031 A 
ATOM     90  C   UNL A   1      35.529  33.283  31.625  1.00  0.00     0.131 A 
ATOM     91  C   UNL A   1      34.201  35.681  31.982  1.00  0.00     0.055 A 
ATOM     92  C   UNL A   1      34.287  33.480  31.019  1.00  0.00     0.041 A 
ATOM     93  F   UNL A   1      36.141  32.104  31.426  1.00  0.00    -0.206 F 
ATOM     94  C   UNL A   1      33.610  34.681  31.207  1.00  0.00     0.022 A 
BRANCH  91  95
ATOM     95  S   UNL A   1      33.305  37.222  32.314  1.00  0.00     0.124 S 
ATOM     96  O   UNL A   1      33.104  37.747  30.968  1.00  0.00    -0.237 OA
ATOM     97  O   UNL A   1      32.113  36.736  32.999  1.00  0.00    -0.237 OA
ATOM     98  O   UNL A   1      34.234  37.984  33.147  1.00  0.00    -0.744 OA
ENDBRANCH  91  95
ENDBRANCH  64  88
BRANCH  76  99
ATOM     99  C   UNL A   1      38.285  33.080  38.932  1.00  0.00     0.023 A 
ATOM    100  C   UNL A   1      38.499  34.051  39.922  1.00  0.00     0.031 A 
ATOM    101  C   UNL A   1      37.353  32.059  39.184  1.00  0.00     0.131 A 
ATOM    102  C   UNL A   1      37.828  33.953  41.148  1.00  0.00     0.055 A 
ATOM    103  C   UNL A   1      36.646  31.998  40.383  1.00  0.00     0.041 A 
ATOM    104  F   UNL A   1      37.117  31.108  38.267  1.00  0.00    -0.206 F 
ATOM    105  C   UNL A   1      36.890  32.941  41.378  1.00  0.00     0.022 A 
BRANCH 102 106
ATOM    106  S   UNL A   1      38.257  35.118  42.468  1.00  0.00     0.124 S 
ATOM    107  O   UNL A   1      38.503  36.346  41.718  1.00  0.00    -0.237 OA
ATOM    108  O   UNL A   1      37.057  35.106  43.297  1.00  0.00    -0.237 OA
ATOM    109  O   UNL A   1      39.440  34.518  43.081  1.00  0.00    -0.744 OA
ENDBRANCH 102 106
ENDBRANCH  76  99
ENDBRANCH  50  51
ENDBRANCH  42  45
ENDBRANCH  40  41
ENDBRANCH   1  40
TORSDOF 15
ENDMDL
MODEL 3
REMARK VINA RESULT:      -9.7      4.806     11.220
REMARK SMILES COC(=O)[C@H]1CC[C@]2(C)[C@H](CC[C@]3(C)[C@H]2CC=C2[C@H]4CC(C)(C)CC[C@@]4(C(=O)NCCCNC(=O)c4ccc(-c5c6nc(c(-c7cc(S(=O)(=O)[O-])ccc7F)c7ccc([nH]7)c(-c7cc(S(=O)(=O)[O-])ccc7F)c7nc(c(-c8cc(S(=O)(=O)[O-])ccc8F)c8ccc5[nH]8)C=C7)C=C6)cc4)CC[C@@]23C)C1(C)C
REMARK SMILES IDX 31 1 30 2 29 3 27 4 28 5 26 7 5 8 6 9 103 10 7 11 10 12
REMARK SMILES IDX 104 13 105 14 8 15 11 16 15 17 9 18 12 19 16 20 13 21 17 22
REMARK SMILES IDX 101 23 14 24 18 25 100 26 102 27 19 28 99 29 20 30 21 31
REMARK SMILES IDX 25 32 24 33 22 34 23 35 3 36 4 37 2 38 1 39 32 40 33 41
REMARK SMILES IDX 34 42 35 44 36 45 37 46 98 47 38 48 97 49 39 50 40 51 41 52
REMARK SMILES IDX 91 53 42 54 96 55 90 56 92 57 43 58 95 59 89 60 88 61 44 63
REMARK SMILES IDX 76 64 56 65 75 66 57 67 60 68 74 69 93 70 58 71 59 72 73 74
REMARK SMILES IDX 94 75 61 76 45 77 46 78 54 79 47 80 53 81 55 82 52 83 48 84
REMARK SMILES IDX 49 85 50 86 51 87 77 88 78 89 86 90 79 91 85 92 87 93 84 94
REMARK SMILES IDX 80 95 81 96 82 97 83 98 62 99 63 100 71 101 64 102 70 103
REMARK SMILES IDX 72 104 69 105 65 106 66 107 67 108 68 109
REMARK H PARENT 29 6 33 43 92 62 60 73
REMARK Flexibility Score: inf
ROOT
ATOM      1  C   UNL A   1      46.725  31.734  26.487  1.00  0.00     0.042 C 
ENDROOT
BRANCH   1   2
ATOM      2  C   UNL A   1      46.692  30.070  26.734  1.00  0.00     0.117 C 
BRANCH   2   3
ATOM      3  N   UNL A   1      46.478  28.973  27.934  1.00  0.00    -0.356 N 
ATOM      4  C   UNL A   1      46.457  27.276  28.190  1.00  0.00     0.226 C 
ATOM      5  O   UNL A   1      46.388  26.120  27.653  1.00  0.00    -0.274 OA
ATOM      6  H   UNL A   1      46.304  29.439  28.783  1.00  0.00     0.163 HD
BRANCH   4   7
ATOM      7  C   UNL A   1      46.943  27.228  29.445  1.00  0.00     0.056 C 
ATOM      8  C   UNL A   1      38.728  29.231  29.949  1.00  0.00     0.105 C 
ATOM      9  C   UNL A   1      38.550  28.343  28.702  1.00  0.00     0.016 C 
ATOM     10  C   UNL A   1      40.188  29.336  30.547  1.00  0.00    -0.019 C 
ATOM     11  C   UNL A   1      39.699  28.398  27.708  1.00  0.00     0.008 C 
ATOM     12  C   UNL A   1      41.291  29.264  29.392  1.00  0.00     0.002 C 
ATOM     13  C   UNL A   1      40.373  30.665  31.340  1.00  0.00     0.012 C 
ATOM     14  C   UNL A   1      40.341  28.264  31.679  1.00  0.00     0.012 C 
ATOM     15  C   UNL A   1      41.077  28.133  28.355  1.00  0.00    -0.026 C 
ATOM     16  C   UNL A   1      42.704  29.157  29.936  1.00  0.00     0.005 C 
ATOM     17  C   UNL A   1      42.156  28.130  27.145  1.00  0.00     0.006 C 
ATOM     18  C   UNL A   1      40.994  26.752  29.084  1.00  0.00     0.012 C 
ATOM     19  C   UNL A   1      43.805  29.378  28.909  1.00  0.00     0.008 C 
ATOM     20  C   UNL A   1      42.255  26.655  26.607  1.00  0.00     0.032 C 
ATOM     21  C   UNL A   1      43.658  28.906  27.346  1.00  0.00    -0.020 C 
ATOM     22  C   UNL A   1      43.250  25.925  27.476  1.00  0.00    -0.027 C 
ATOM     23  C   UNL A   1      44.915  27.740  26.582  1.00  0.00    -0.006 C 
ATOM     24  C   UNL A   1      43.464  30.358  26.776  1.00  0.00     0.012 C 
ATOM     25  C   UNL A   1      44.337  26.645  27.785  1.00  0.00    -0.064 C 
ATOM     26  C   UNL A   1      46.870  27.662  26.258  1.00  0.00     0.013 C 
ATOM     27  C   UNL A   1      44.581  27.169  25.169  1.00  0.00     0.017 C 
ATOM     28  C   UNL A   1      45.177  26.667  29.324  1.00  0.00     0.031 C 
ATOM     29  C   UNL A   1      48.008  27.516  27.869  1.00  0.00     0.018 C 
ATOM     30  C   UNL A   1      44.828  25.481  30.216  1.00  0.00     0.015 C 
ATOM     31  C   UNL A   1      45.381  25.712  31.630  1.00  0.00    -0.035 C 
ATOM     32  C   UNL A   1      47.583  26.043  30.182  1.00  0.00     0.018 C 
ATOM     33  C   UNL A   1      46.932  25.710  31.562  1.00  0.00     0.007 C 
ATOM     34  C   UNL A   1      44.825  24.592  32.533  1.00  0.00     0.011 C 
ATOM     35  C   UNL A   1      44.886  27.040  32.265  1.00  0.00     0.011 C 
BRANCH   8  36
ATOM     36  C   UNL A   1      38.068  30.575  29.652  1.00  0.00     0.309 C 
ATOM     37  O   UNL A   1      38.193  31.212  28.618  1.00  0.00    -0.252 OA
BRANCH  36  38
ATOM     38  O   UNL A   1      37.341  31.030  30.712  1.00  0.00    -0.469 OA
ATOM     39  C   UNL A   1      36.483  30.037  31.277  1.00  0.00     0.282 C 
ENDBRANCH  36  38
ENDBRANCH   8  36
ENDBRANCH   4   7
ENDBRANCH   2   3
ENDBRANCH   1   2
BRANCH   1  40
ATOM     40  C   UNL A   1      46.299  33.094  27.215  1.00  0.00     0.118 C 
BRANCH  40  41
ATOM     41  N   UNL A   1      45.480  34.119  26.558  1.00  0.00    -0.352 N 
ATOM     42  C   UNL A   1      44.216  34.599  26.809  1.00  0.00     0.251 C 
ATOM     43  H   UNL A   1      45.921  34.546  25.788  1.00  0.00     0.163 HD
ATOM     44  O   UNL A   1      43.586  35.246  26.001  1.00  0.00    -0.269 OA
BRANCH  42  45
ATOM     45  C   UNL A   1      43.771  34.496  28.192  1.00  0.00     0.039 A 
ATOM     46  C   UNL A   1      43.544  35.632  28.958  1.00  0.00     0.014 A 
ATOM     47  C   UNL A   1      43.532  33.201  28.657  1.00  0.00     0.014 A 
ATOM     48  C   UNL A   1      42.960  35.464  30.206  1.00  0.00     0.010 A 
ATOM     49  C   UNL A   1      42.908  33.040  29.873  1.00  0.00     0.010 A 
ATOM     50  C   UNL A   1      42.608  34.173  30.640  1.00  0.00    -0.014 A 
BRANCH  50  51
ATOM     51  C   UNL A   1      41.901  33.971  31.910  1.00  0.00     0.031 A 
ATOM     52  C   UNL A   1      40.409  34.052  31.921  1.00  0.00     0.074 A 
ATOM     53  C   UNL A   1      42.634  33.826  33.027  1.00  0.00     0.049 A 
ATOM     54  N   UNL A   1      39.589  33.987  32.932  1.00  0.00    -0.248 NA
ATOM     55  C   UNL A   1      39.757  34.281  30.621  1.00  0.00     0.031 C 
ATOM     56  C   UNL A   1      44.100  33.818  33.081  1.00  0.00     0.029 A 
ATOM     57  N   UNL A   1      42.253  33.670  34.329  1.00  0.00    -0.354 N 
ATOM     58  C   UNL A   1      38.322  34.180  32.393  1.00  0.00     0.074 A 
ATOM     59  C   UNL A   1      38.492  34.430  30.980  1.00  0.00     0.031 C 
ATOM     60  C   UNL A   1      44.492  33.638  34.352  1.00  0.00     0.029 A 
ATOM     61  C   UNL A   1      43.310  33.551  35.199  1.00  0.00     0.049 A 
ATOM     62  H   UNL A   1      41.312  33.645  34.616  1.00  0.00     0.167 HD
ATOM     63  C   UNL A   1      37.129  34.123  33.032  1.00  0.00     0.034 A 
ATOM     64  C   UNL A   1      43.306  33.386  36.535  1.00  0.00     0.034 A 
ATOM     65  C   UNL A   1      37.020  33.864  34.445  1.00  0.00     0.049 A 
ATOM     66  C   UNL A   1      41.967  33.287  37.217  1.00  0.00     0.074 A 
ATOM     67  C   UNL A   1      35.884  33.740  35.221  1.00  0.00     0.029 A 
ATOM     68  N   UNL A   1      38.108  33.692  35.299  1.00  0.00    -0.354 N 
ATOM     69  N   UNL A   1      40.765  33.405  36.694  1.00  0.00    -0.248 NA
ATOM     70  C   UNL A   1      41.977  33.011  38.655  1.00  0.00     0.031 C 
ATOM     71  C   UNL A   1      36.283  33.539  36.548  1.00  0.00     0.029 A 
ATOM     72  C   UNL A   1      37.669  33.475  36.593  1.00  0.00     0.049 A 
ATOM     73  H   UNL A   1      39.052  33.721  35.021  1.00  0.00     0.167 HD
ATOM     74  C   UNL A   1      39.874  33.194  37.738  1.00  0.00     0.074 A 
ATOM     75  C   UNL A   1      40.680  32.923  38.915  1.00  0.00     0.031 C 
ATOM     76  C   UNL A   1      38.516  33.219  37.735  1.00  0.00     0.034 A 
BRANCH  63  77
ATOM     77  C   UNL A   1      35.894  34.373  32.203  1.00  0.00     0.023 A 
ATOM     78  C   UNL A   1      35.632  33.637  31.032  1.00  0.00     0.031 A 
ATOM     79  C   UNL A   1      35.006  35.409  32.538  1.00  0.00     0.131 A 
ATOM     80  C   UNL A   1      34.571  34.006  30.192  1.00  0.00     0.055 A 
ATOM     81  C   UNL A   1      33.900  35.717  31.741  1.00  0.00     0.041 A 
ATOM     82  F   UNL A   1      35.215  36.163  33.628  1.00  0.00    -0.206 F 
ATOM     83  C   UNL A   1      33.687  35.027  30.551  1.00  0.00     0.022 A 
BRANCH  80  84
ATOM     84  S   UNL A   1      34.456  33.241  28.552  1.00  0.00     0.124 S 
ATOM     85  O   UNL A   1      35.763  33.565  27.985  1.00  0.00    -0.237 OA
ATOM     86  O   UNL A   1      34.229  31.836  28.872  1.00  0.00    -0.237 OA
ATOM     87  O   UNL A   1      33.326  33.928  27.930  1.00  0.00    -0.744 OA
ENDBRANCH  80  84
ENDBRANCH  63  77
BRANCH  64  88
ATOM     88  C   UNL A   1      44.584  33.281  37.288  1.00  0.00     0.023 A 
ATOM     89  C   UNL A   1      45.218  34.424  37.798  1.00  0.00     0.031 A 
ATOM     90  C   UNL A   1      45.194  32.034  37.513  1.00  0.00     0.131 A 
ATOM     91  C   UNL A   1      46.444  34.306  38.472  1.00  0.00     0.055 A 
ATOM     92  C   UNL A   1      46.392  31.915  38.220  1.00  0.00     0.041 A 
ATOM     93  F   UNL A   1      44.620  30.906  37.065  1.00  0.00    -0.206 F 
ATOM     94  C   UNL A   1      47.031  33.058  38.694  1.00  0.00     0.022 A 
BRANCH  91  95
ATOM     95  S   UNL A   1      47.295  35.816  39.002  1.00  0.00     0.124 S 
ATOM     96  O   UNL A   1      48.381  35.279  39.814  1.00  0.00    -0.237 OA
ATOM     97  O   UNL A   1      47.680  36.409  37.726  1.00  0.00    -0.237 OA
ATOM     98  O   UNL A   1      46.266  36.545  39.741  1.00  0.00    -0.744 OA
ENDBRANCH  91  95
ENDBRANCH  64  88
BRANCH  76  99
ATOM     99  C   UNL A   1      37.842  32.909  39.044  1.00  0.00     0.023 A 
ATOM    100  C   UNL A   1      37.888  33.809  40.120  1.00  0.00     0.031 A 
ATOM    101  C   UNL A   1      37.153  31.696  39.211  1.00  0.00     0.131 A 
ATOM    102  C   UNL A   1      37.299  33.458  41.342  1.00  0.00     0.055 A 
ATOM    103  C   UNL A   1      36.521  31.377  40.411  1.00  0.00     0.041 A 
ATOM    104  F   UNL A   1      37.084  30.805  38.209  1.00  0.00    -0.206 F 
ATOM    105  C   UNL A   1      36.602  32.254  41.490  1.00  0.00     0.022 A 
BRANCH 102 106
ATOM    106  S   UNL A   1      37.527  34.561  42.762  1.00  0.00     0.124 S 
ATOM    107  O   UNL A   1      36.185  34.598  43.335  1.00  0.00    -0.237 OA
ATOM    108  O   UNL A   1      38.536  33.857  43.546  1.00  0.00    -0.237 OA
ATOM    109  O   UNL A   1      37.977  35.812  42.154  1.00  0.00    -0.744 OA
ENDBRANCH 102 106
ENDBRANCH  76  99
ENDBRANCH  50  51
ENDBRANCH  42  45
ENDBRANCH  40  41
ENDBRANCH   1  40
TORSDOF 15
ENDMDL
