MODEL 1
REMARK VINA RESULT:     -12.3      0.000      0.000
REMARK SMILES CCSc1ccc(-c2cc(Cl)cc3c2O[C@H](C(F)(F)F)C(C(=O)NCCCNC(=O)c2ccc(-c4c5nc(c(-c6cc(S(=O)(=O)[O-])ccc6F)c6ccc([nH]6)c(-c6cc(S(=O)(=O)[O-])ccc6F)c6nc(c(-c7cc(S(=O)(=O)[O-])ccc7F)c7ccc4[nH]7)C=C6)C=C5)cc2)=C3)cc1
REMARK SMILES IDX 26 1 25 2 24 3 22 4 23 5 21 7 8 8 9 9 14 10 10 11 13 12
REMARK SMILES IDX 15 13 11 14 12 15 94 16 16 17 7 18 4 19 5 20 96 21 6 22
REMARK SMILES IDX 95 23 3 24 2 25 1 26 17 27 18 28 19 29 20 30 27 31 28 32
REMARK SMILES IDX 29 33 30 35 31 36 32 37 93 38 33 39 92 40 34 41 35 42 36 43
REMARK SMILES IDX 86 44 37 45 91 46 85 47 87 48 38 49 90 50 84 51 83 52 39 54
REMARK SMILES IDX 71 55 51 56 70 57 52 58 55 59 69 60 88 61 53 62 54 63 68 65
REMARK SMILES IDX 89 66 56 67 40 68 41 69 49 70 42 71 48 72 50 73 47 74 43 75
REMARK SMILES IDX 44 76 45 77 46 78 72 79 73 80 81 81 74 82 80 83 82 84 79 85
REMARK SMILES IDX 75 86 76 87 77 88 78 89 57 90 58 91 66 92 59 93 65 94 67 95
REMARK SMILES IDX 64 96 60 97 61 98 62 99 63 100
REMARK H PARENT 24 6 28 34 87 53 55 64
REMARK Flexibility Score: inf
ROOT
ATOM      1  C   UNL A   1      31.775  31.243  26.846  1.00  0.00     0.042 C 
ENDROOT
BRANCH   1   2
ATOM      2  C   UNL A   1      31.920  30.209  25.726  1.00  0.00     0.118 C 
BRANCH   2   3
ATOM      3  N   UNL A   1      32.443  28.967  26.260  1.00  0.00    -0.352 N 
ATOM      4  C   UNL A   1      31.951  27.725  26.042  1.00  0.00     0.251 C 
ATOM      5  O   UNL A   1      31.913  26.912  26.965  1.00  0.00    -0.270 OA
ATOM      6  H   UNL A   1      33.237  29.033  26.839  1.00  0.00     0.163 HD
BRANCH   4   7
ATOM      7  C   UNL A   1      31.618  27.363  24.635  1.00  0.00     0.067 C 
ATOM      8  C   UNL A   1      32.746  23.468  24.709  1.00  0.00     0.026 A 
ATOM      9  C   UNL A   1      34.015  23.411  25.347  1.00  0.00     0.033 A 
ATOM     10  C   UNL A   1      32.304  24.739  24.313  1.00  0.00     0.135 A 
ATOM     11  C   UNL A   1      34.860  24.514  25.434  1.00  0.00     0.042 A 
ATOM     12  C   UNL A   1      33.222  25.819  24.304  1.00  0.00     0.019 A 
ATOM     13  O   UNL A   1      30.985  25.011  23.974  1.00  0.00    -0.475 OA
ATOM     14  Cl  UNL A   1      36.370  24.369  26.242  1.00  0.00    -0.084 Cl
ATOM     15  C   UNL A   1      34.499  25.709  24.846  1.00  0.00     0.032 A 
ATOM     16  C   UNL A   1      32.719  27.145  23.887  1.00  0.00     0.025 C 
ATOM     17  C   UNL A   1      30.507  26.334  24.478  1.00  0.00     0.314 C 
BRANCH   8  18
ATOM     18  C   UNL A   1      32.176  22.145  24.339  1.00  0.00    -0.015 A 
ATOM     19  C   UNL A   1      32.356  19.455  23.461  1.00  0.00     0.007 A 
ATOM     20  C   UNL A   1      32.343  19.751  24.823  1.00  0.00     0.015 A 
ATOM     21  C   UNL A   1      32.149  20.485  22.542  1.00  0.00     0.015 A 
ATOM     22  C   UNL A   1      32.213  21.077  25.259  1.00  0.00     0.010 A 
ATOM     23  C   UNL A   1      32.046  21.817  22.977  1.00  0.00     0.010 A 
BRANCH  19  24
ATOM     24  S   UNL A   1      32.861  17.835  22.901  1.00  0.00    -0.126 SA
BRANCH  24  25
ATOM     25  C   UNL A   1      34.141  17.420  24.124  1.00  0.00     0.071 C 
ATOM     26  C   UNL A   1      33.678  16.377  25.123  1.00  0.00     0.016 C 
ENDBRANCH  24  25
ENDBRANCH  19  24
ENDBRANCH   8  18
BRANCH  17  27
ATOM     27  C   UNL A   1      29.417  26.938  23.561  1.00  0.00     0.429 C 
ATOM     28  F   UNL A   1      29.813  27.034  22.272  1.00  0.00    -0.167 F 
ATOM     29  F   UNL A   1      28.285  26.195  23.588  1.00  0.00    -0.167 F 
ATOM     30  F   UNL A   1      29.054  28.192  23.942  1.00  0.00    -0.167 F 
ENDBRANCH  17  27
ENDBRANCH   4   7
ENDBRANCH   2   3
ENDBRANCH   1   2
BRANCH   1  31
ATOM     31  C   UNL A   1      33.038  32.052  27.143  1.00  0.00     0.118 C 
BRANCH  31  32
ATOM     32  N   UNL A   1      32.759  33.434  27.493  1.00  0.00    -0.352 N 
ATOM     33  C   UNL A   1      33.306  34.210  28.481  1.00  0.00     0.251 C 
ATOM     34  H   UNL A   1      32.078  33.879  26.938  1.00  0.00     0.163 HD
ATOM     35  O   UNL A   1      32.804  35.314  28.721  1.00  0.00    -0.269 OA
BRANCH  33  36
ATOM     36  C   UNL A   1      34.455  33.726  29.275  1.00  0.00     0.039 A 
ATOM     37  C   UNL A   1      34.209  32.888  30.364  1.00  0.00     0.014 A 
ATOM     38  C   UNL A   1      35.767  34.093  28.960  1.00  0.00     0.014 A 
ATOM     39  C   UNL A   1      35.280  32.367  31.093  1.00  0.00     0.010 A 
ATOM     40  C   UNL A   1      36.837  33.505  29.636  1.00  0.00     0.010 A 
ATOM     41  C   UNL A   1      36.606  32.634  30.711  1.00  0.00    -0.014 A 
BRANCH  41  42
ATOM     42  C   UNL A   1      37.742  31.988  31.424  1.00  0.00     0.031 A 
ATOM     43  C   UNL A   1      38.534  30.886  30.771  1.00  0.00     0.074 A 
ATOM     44  C   UNL A   1      38.049  32.392  32.674  1.00  0.00     0.049 A 
ATOM     45  N   UNL A   1      39.560  30.219  31.237  1.00  0.00    -0.248 NA
ATOM     46  C   UNL A   1      38.104  30.459  29.429  1.00  0.00     0.031 C 
ATOM     47  C   UNL A   1      37.321  33.412  33.433  1.00  0.00     0.029 A 
ATOM     48  N   UNL A   1      39.055  32.007  33.526  1.00  0.00    -0.354 N 
ATOM     49  C   UNL A   1      39.905  29.305  30.246  1.00  0.00     0.074 A 
ATOM     50  C   UNL A   1      38.930  29.451  29.186  1.00  0.00     0.031 C 
ATOM     51  C   UNL A   1      37.929  33.603  34.615  1.00  0.00     0.029 A 
ATOM     52  C   UNL A   1      39.060  32.688  34.724  1.00  0.00     0.049 A 
ATOM     53  H   UNL A   1      39.711  31.308  33.302  1.00  0.00     0.167 HD
ATOM     54  C   UNL A   1      40.954  28.446  30.208  1.00  0.00     0.034 A 
ATOM     55  C   UNL A   1      39.880  32.586  35.789  1.00  0.00     0.034 A 
ATOM     56  C   UNL A   1      41.922  28.311  31.271  1.00  0.00     0.049 A 
ATOM     57  C   UNL A   1      41.024  31.603  35.726  1.00  0.00     0.074 A 
ATOM     58  C   UNL A   1      43.036  27.491  31.322  1.00  0.00     0.029 A 
ATOM     59  N   UNL A   1      41.890  29.011  32.469  1.00  0.00    -0.354 N 
ATOM     60  N   UNL A   1      41.364  30.788  34.753  1.00  0.00    -0.248 NA
ATOM     61  C   UNL A   1      41.907  31.542  36.897  1.00  0.00     0.031 C 
ATOM     62  C   UNL A   1      43.640  27.647  32.574  1.00  0.00     0.029 A 
ATOM     63  C   UNL A   1      42.952  28.624  33.275  1.00  0.00     0.049 A 
ATOM     64  H   UNL A   1      41.214  29.684  32.712  1.00  0.00     0.167 HD
ATOM     65  C   UNL A   1      42.519  30.143  35.188  1.00  0.00     0.074 A 
ATOM     66  C   UNL A   1      42.836  30.695  36.488  1.00  0.00     0.031 C 
ATOM     67  C   UNL A   1      43.249  29.174  34.576  1.00  0.00     0.034 A 
BRANCH  54  68
ATOM     68  C   UNL A   1      41.108  27.584  28.977  1.00  0.00     0.023 A 
ATOM     69  C   UNL A   1      42.102  27.847  28.017  1.00  0.00     0.031 A 
ATOM     70  C   UNL A   1      40.268  26.478  28.765  1.00  0.00     0.131 A 
ATOM     71  C   UNL A   1      42.195  27.051  26.866  1.00  0.00     0.055 A 
ATOM     72  C   UNL A   1      40.413  25.644  27.656  1.00  0.00     0.041 A 
ATOM     73  F   UNL A   1      39.287  26.189  29.636  1.00  0.00    -0.206 F 
ATOM     74  C   UNL A   1      41.376  25.934  26.692  1.00  0.00     0.022 A 
BRANCH  71  75
ATOM     75  S   UNL A   1      43.327  27.562  25.546  1.00  0.00     0.124 S 
ATOM     76  O   UNL A   1      42.394  28.001  24.511  1.00  0.00    -0.237 OA
ATOM     77  O   UNL A   1      44.108  28.612  26.188  1.00  0.00    -0.237 OA
ATOM     78  O   UNL A   1      44.065  26.339  25.233  1.00  0.00    -0.744 OA
ENDBRANCH  71  75
ENDBRANCH  54  68
BRANCH  55  79
ATOM     79  C   UNL A   1      39.659  33.412  37.013  1.00  0.00     0.023 A 
ATOM     80  C   UNL A   1      38.964  32.898  38.121  1.00  0.00     0.031 A 
ATOM     81  C   UNL A   1      40.060  34.760  37.061  1.00  0.00     0.131 A 
ATOM     82  C   UNL A   1      38.620  33.744  39.187  1.00  0.00     0.055 A 
ATOM     83  C   UNL A   1      39.780  35.577  38.158  1.00  0.00     0.041 A 
ATOM     84  F   UNL A   1      40.729  35.307  36.033  1.00  0.00    -0.206 F 
ATOM     85  C   UNL A   1      39.036  35.076  39.220  1.00  0.00     0.022 A 
BRANCH  82  86
ATOM     86  S   UNL A   1      37.495  33.113  40.464  1.00  0.00     0.124 S 
ATOM     87  O   UNL A   1      37.216  34.320  41.234  1.00  0.00    -0.237 OA
ATOM     88  O   UNL A   1      36.392  32.593  39.664  1.00  0.00    -0.237 OA
ATOM     89  O   UNL A   1      38.295  32.103  41.153  1.00  0.00    -0.744 OA
ENDBRANCH  82  86
ENDBRANCH  55  79
BRANCH  67  90
ATOM     90  C   UNL A   1      44.480  28.689  35.305  1.00  0.00     0.023 A 
ATOM     91  C   UNL A   1      44.421  27.626  36.223  1.00  0.00     0.031 A 
ATOM     92  C   UNL A   1      45.716  29.334  35.123  1.00  0.00     0.131 A 
ATOM     93  C   UNL A   1      45.547  27.301  36.992  1.00  0.00     0.055 A 
ATOM     94  C   UNL A   1      46.856  28.952  35.833  1.00  0.00     0.041 A 
ATOM     95  F   UNL A   1      45.835  30.357  34.261  1.00  0.00    -0.206 F 
ATOM     96  C   UNL A   1      46.770  27.944  36.790  1.00  0.00     0.022 A 
BRANCH  93  97
ATOM     97  S   UNL A   1      45.352  26.127  38.361  1.00  0.00     0.124 S 
ATOM     98  O   UNL A   1      44.411  26.828  39.228  1.00  0.00    -0.237 OA
ATOM     99  O   UNL A   1      44.832  24.943  37.683  1.00  0.00    -0.237 OA
ATOM    100  O   UNL A   1      46.707  25.992  38.893  1.00  0.00    -0.744 OA
ENDBRANCH  93  97
ENDBRANCH  67  90
ENDBRANCH  41  42
ENDBRANCH  33  36
ENDBRANCH  31  32
ENDBRANCH   1  31
TORSDOF 17
ENDMDL
MODEL 2
REMARK VINA RESULT:     -12.2      1.724      7.431
REMARK SMILES CCSc1ccc(-c2cc(Cl)cc3c2O[C@H](C(F)(F)F)C(C(=O)NCCCNC(=O)c2ccc(-c4c5nc(c(-c6cc(S(=O)(=O)[O-])ccc6F)c6ccc([nH]6)c(-c6cc(S(=O)(=O)[O-])ccc6F)c6nc(c(-c7cc(S(=O)(=O)[O-])ccc7F)c7ccc4[nH]7)C=C6)C=C5)cc2)=C3)cc1
REMARK SMILES IDX 26 1 25 2 24 3 22 4 23 5 21 7 8 8 9 9 14 10 10 11 13 12
REMARK SMILES IDX 15 13 11 14 12 15 94 16 16 17 7 18 4 19 5 20 96 21 6 22
REMARK SMILES IDX 95 23 3 24 2 25 1 26 17 27 18 28 19 29 20 30 27 31 28 32
REMARK SMILES IDX 29 33 30 35 31 36 32 37 93 38 33 39 92 40 34 41 35 42 36 43
REMARK SMILES IDX 86 44 37 45 91 46 85 47 87 48 38 49 90 50 84 51 83 52 39 54
REMARK SMILES IDX 71 55 51 56 70 57 52 58 55 59 69 60 88 61 53 62 54 63 68 65
REMARK SMILES IDX 89 66 56 67 40 68 41 69 49 70 42 71 48 72 50 73 47 74 43 75
REMARK SMILES IDX 44 76 45 77 46 78 72 79 73 80 81 81 74 82 80 83 82 84 79 85
REMARK SMILES IDX 75 86 76 87 77 88 78 89 57 90 58 91 66 92 59 93 65 94 67 95
REMARK SMILES IDX 64 96 60 97 61 98 62 99 63 100
REMARK H PARENT 24 6 28 34 87 53 55 64
REMARK Flexibility Score: inf
ROOT
ATOM      1  C   UNL A   1      31.772  30.760  26.442  1.00  0.00     0.042 C 
ENDROOT
BRANCH   1   2
ATOM      2  C   UNL A   1      32.159  29.703  25.403  1.00  0.00     0.118 C 
BRANCH   2   3
ATOM      3  N   UNL A   1      32.540  28.471  26.064  1.00  0.00    -0.352 N 
ATOM      4  C   UNL A   1      31.879  27.292  26.014  1.00  0.00     0.251 C 
ATOM      5  O   UNL A   1      31.781  26.603  27.030  1.00  0.00    -0.270 OA
ATOM      6  H   UNL A   1      33.364  28.495  26.603  1.00  0.00     0.163 HD
BRANCH   4   7
ATOM      7  C   UNL A   1      31.430  26.820  24.673  1.00  0.00     0.067 C 
ATOM      8  C   UNL A   1      32.855  23.026  24.839  1.00  0.00     0.026 A 
ATOM      9  C   UNL A   1      34.184  23.099  25.338  1.00  0.00     0.033 A 
ATOM     10  C   UNL A   1      32.278  24.235  24.424  1.00  0.00     0.135 A 
ATOM     11  C   UNL A   1      34.947  24.262  25.272  1.00  0.00     0.042 A 
ATOM     12  C   UNL A   1      33.105  25.375  24.256  1.00  0.00     0.019 A 
ATOM     13  O   UNL A   1      30.914  24.392  24.216  1.00  0.00    -0.475 OA
ATOM     14  Cl  UNL A   1      36.539  24.275  25.919  1.00  0.00    -0.084 Cl
ATOM     15  C   UNL A   1      34.436  25.389  24.663  1.00  0.00     0.032 A 
ATOM     16  C   UNL A   1      32.460  26.633  23.824  1.00  0.00     0.025 C 
ATOM     17  C   UNL A   1      30.391  25.707  24.694  1.00  0.00     0.314 C 
BRANCH   8  18
ATOM     18  C   UNL A   1      32.353  21.646  24.606  1.00  0.00    -0.015 A 
ATOM     19  C   UNL A   1      32.665  18.902  23.961  1.00  0.00     0.007 A 
ATOM     20  C   UNL A   1      32.674  19.318  25.292  1.00  0.00     0.015 A 
ATOM     21  C   UNL A   1      32.371  19.832  22.964  1.00  0.00     0.015 A 
ATOM     22  C   UNL A   1      32.479  20.668  25.615  1.00  0.00     0.010 A 
ATOM     23  C   UNL A   1      32.203  21.191  23.283  1.00  0.00     0.010 A 
BRANCH  19  24
ATOM     24  S   UNL A   1      33.247  17.270  23.529  1.00  0.00    -0.126 SA
BRANCH  24  25
ATOM     25  C   UNL A   1      33.432  16.512  25.172  1.00  0.00     0.071 C 
ATOM     26  C   UNL A   1      34.779  15.840  25.357  1.00  0.00     0.016 C 
ENDBRANCH  24  25
ENDBRANCH  19  24
ENDBRANCH   8  18
BRANCH  17  27
ATOM     27  C   UNL A   1      29.169  26.174  23.870  1.00  0.00     0.429 C 
ATOM     28  F   UNL A   1      28.856  25.319  22.871  1.00  0.00    -0.167 F 
ATOM     29  F   UNL A   1      28.071  26.310  24.651  1.00  0.00    -0.167 F 
ATOM     30  F   UNL A   1      29.368  27.386  23.284  1.00  0.00    -0.167 F 
ENDBRANCH  17  27
ENDBRANCH   4   7
ENDBRANCH   2   3
ENDBRANCH   1   2
BRANCH   1  31
ATOM     31  C   UNL A   1      32.943  31.346  27.230  1.00  0.00     0.118 C 
BRANCH  31  32
ATOM     32  N   UNL A   1      32.811  32.774  27.468  1.00  0.00    -0.352 N 
ATOM     33  C   UNL A   1      33.565  33.598  28.261  1.00  0.00     0.251 C 
ATOM     34  H   UNL A   1      32.071  33.213  26.990  1.00  0.00     0.163 HD
ATOM     35  O   UNL A   1      33.179  34.756  28.459  1.00  0.00    -0.269 OA
BRANCH  33  36
ATOM     36  C   UNL A   1      34.804  33.108  28.901  1.00  0.00     0.039 A 
ATOM     37  C   UNL A   1      34.697  32.314  30.045  1.00  0.00     0.014 A 
ATOM     38  C   UNL A   1      36.066  33.425  28.389  1.00  0.00     0.014 A 
ATOM     39  C   UNL A   1      35.849  31.787  30.633  1.00  0.00     0.010 A 
ATOM     40  C   UNL A   1      37.207  32.829  28.926  1.00  0.00     0.010 A 
ATOM     41  C   UNL A   1      37.112  32.002  30.055  1.00  0.00    -0.014 A 
BRANCH  41  42
ATOM     42  C   UNL A   1      38.323  31.347  30.623  1.00  0.00     0.031 A 
ATOM     43  C   UNL A   1      38.865  31.763  31.965  1.00  0.00     0.074 A 
ATOM     44  C   UNL A   1      38.940  30.379  29.915  1.00  0.00     0.049 A 
ATOM     45  N   UNL A   1      39.899  31.296  32.619  1.00  0.00    -0.248 NA
ATOM     46  C   UNL A   1      38.172  32.864  32.653  1.00  0.00     0.031 C 
ATOM     47  C   UNL A   1      38.542  29.926  28.579  1.00  0.00     0.029 A 
ATOM     48  N   UNL A   1      40.025  29.593  30.215  1.00  0.00    -0.354 N 
ATOM     49  C   UNL A   1      39.974  32.034  33.795  1.00  0.00     0.074 A 
ATOM     50  C   UNL A   1      38.928  33.033  33.729  1.00  0.00     0.031 C 
ATOM     51  C   UNL A   1      39.339  28.916  28.197  1.00  0.00     0.029 A 
ATOM     52  C   UNL A   1      40.338  28.678  29.234  1.00  0.00     0.049 A 
ATOM     53  H   UNL A   1      40.533  29.676  31.054  1.00  0.00     0.167 HD
ATOM     54  C   UNL A   1      40.815  31.877  34.847  1.00  0.00     0.034 A 
ATOM     55  C   UNL A   1      41.318  27.754  29.173  1.00  0.00     0.034 A 
ATOM     56  C   UNL A   1      41.854  30.875  34.903  1.00  0.00     0.049 A 
ATOM     57  C   UNL A   1      42.254  27.619  30.350  1.00  0.00     0.074 A 
ATOM     58  C   UNL A   1      42.743  30.612  35.931  1.00  0.00     0.029 A 
ATOM     59  N   UNL A   1      42.145  29.973  33.889  1.00  0.00    -0.354 N 
ATOM     60  N   UNL A   1      42.271  28.293  31.478  1.00  0.00    -0.248 NA
ATOM     61  C   UNL A   1      43.291  26.584  30.253  1.00  0.00     0.031 C 
ATOM     62  C   UNL A   1      43.610  29.598  35.514  1.00  0.00     0.029 A 
ATOM     63  C   UNL A   1      43.214  29.169  34.259  1.00  0.00     0.049 A 
ATOM     64  H   UNL A   1      41.663  29.911  33.033  1.00  0.00     0.167 HD
ATOM     65  C   UNL A   1      43.300  27.738  32.234  1.00  0.00     0.074 A 
ATOM     66  C   UNL A   1      43.849  26.652  31.450  1.00  0.00     0.031 C 
ATOM     67  C   UNL A   1      43.760  28.097  33.461  1.00  0.00     0.034 A 
BRANCH  54  68
ATOM     68  C   UNL A   1      40.648  32.809  36.024  1.00  0.00     0.023 A 
ATOM     69  C   UNL A   1      39.763  32.512  37.075  1.00  0.00     0.031 A 
ATOM     70  C   UNL A   1      41.391  34.000  36.107  1.00  0.00     0.131 A 
ATOM     71  C   UNL A   1      39.602  33.417  38.135  1.00  0.00     0.055 A 
ATOM     72  C   UNL A   1      41.283  34.860  37.201  1.00  0.00     0.041 A 
ATOM     73  F   UNL A   1      42.236  34.348  35.123  1.00  0.00    -0.206 F 
ATOM     74  C   UNL A   1      40.377  34.576  38.219  1.00  0.00     0.022 A 
BRANCH  71  75
ATOM     75  S   UNL A   1      38.287  33.114  39.344  1.00  0.00     0.124 S 
ATOM     76  O   UNL A   1      38.809  31.953  40.063  1.00  0.00    -0.237 OA
ATOM     77  O   UNL A   1      38.250  34.364  40.093  1.00  0.00    -0.237 OA
ATOM     78  O   UNL A   1      37.113  32.847  38.516  1.00  0.00    -0.744 OA
ENDBRANCH  71  75
ENDBRANCH  54  68
BRANCH  55  79
ATOM     79  C   UNL A   1      41.490  26.891  27.967  1.00  0.00     0.023 A 
ATOM     80  C   UNL A   1      41.044  25.559  27.957  1.00  0.00     0.031 A 
ATOM     81  C   UNL A   1      42.185  27.357  26.835  1.00  0.00     0.131 A 
ATOM     82  C   UNL A   1      41.367  24.719  26.880  1.00  0.00     0.055 A 
ATOM     83  C   UNL A   1      42.439  26.537  25.734  1.00  0.00     0.041 A 
ATOM     84  F   UNL A   1      42.634  28.621  26.785  1.00  0.00    -0.206 F 
ATOM     85  C   UNL A   1      42.049  25.202  25.761  1.00  0.00     0.022 A 
BRANCH  82  86
ATOM     86  S   UNL A   1      41.010  22.945  27.027  1.00  0.00     0.124 S 
ATOM     87  O   UNL A   1      41.561  22.641  28.342  1.00  0.00    -0.237 OA
ATOM     88  O   UNL A   1      39.555  22.922  26.919  1.00  0.00    -0.237 OA
ATOM     89  O   UNL A   1      41.728  22.360  25.897  1.00  0.00    -0.744 OA
ENDBRANCH  82  86
ENDBRANCH  55  79
BRANCH  67  90
ATOM     90  C   UNL A   1      44.890  27.272  34.030  1.00  0.00     0.023 A 
ATOM     91  C   UNL A   1      44.646  26.124  34.805  1.00  0.00     0.031 A 
ATOM     92  C   UNL A   1      46.227  27.668  33.843  1.00  0.00     0.131 A 
ATOM     93  C   UNL A   1      45.710  25.470  35.441  1.00  0.00     0.055 A 
ATOM     94  C   UNL A   1      47.288  26.964  34.412  1.00  0.00     0.041 A 
ATOM     95  F   UNL A   1      46.523  28.756  33.114  1.00  0.00    -0.206 F 
ATOM     96  C   UNL A   1      47.032  25.870  35.235  1.00  0.00     0.022 A 
BRANCH  93  97
ATOM     97  S   UNL A   1      45.329  24.179  36.658  1.00  0.00     0.124 S 
ATOM     98  O   UNL A   1      44.554  24.918  37.650  1.00  0.00    -0.237 OA
ATOM     99  O   UNL A   1      44.582  23.210  35.860  1.00  0.00    -0.237 OA
ATOM    100  O   UNL A   1      46.646  23.730  37.105  1.00  0.00    -0.744 OA
ENDBRANCH  93  97
ENDBRANCH  67  90
ENDBRANCH  41  42
ENDBRANCH  33  36
ENDBRANCH  31  32
ENDBRANCH   1  31
TORSDOF 17
ENDMDL
MODEL 3
REMARK VINA RESULT:     -12.1      5.651      8.761
REMARK SMILES CCSc1ccc(-c2cc(Cl)cc3c2O[C@H](C(F)(F)F)C(C(=O)NCCCNC(=O)c2ccc(-c4c5nc(c(-c6cc(S(=O)(=O)[O-])ccc6F)c6ccc([nH]6)c(-c6cc(S(=O)(=O)[O-])ccc6F)c6nc(c(-c7cc(S(=O)(=O)[O-])ccc7F)c7ccc4[nH]7)C=C6)C=C5)cc2)=C3)cc1
REMARK SMILES IDX 26 1 25 2 24 3 22 4 23 5 21 7 8 8 9 9 14 10 10 11 13 12
REMARK SMILES IDX 15 13 11 14 12 15 94 16 16 17 7 18 4 19 5 20 96 21 6 22
REMARK SMILES IDX 95 23 3 24 2 25 1 26 17 27 18 28 19 29 20 30 27 31 28 32
REMARK SMILES IDX 29 33 30 35 31 36 32 37 93 38 33 39 92 40 34 41 35 42 36 43
REMARK SMILES IDX 86 44 37 45 91 46 85 47 87 48 38 49 90 50 84 51 83 52 39 54
REMARK SMILES IDX 71 55 51 56 70 57 52 58 55 59 69 60 88 61 53 62 54 63 68 65
REMARK SMILES IDX 89 66 56 67 40 68 41 69 49 70 42 71 48 72 50 73 47 74 43 75
REMARK SMILES IDX 44 76 45 77 46 78 72 79 73 80 81 81 74 82 80 83 82 84 79 85
REMARK SMILES IDX 75 86 76 87 77 88 78 89 57 90 58 91 66 92 59 93 65 94 67 95
REMARK SMILES IDX 64 96 60 97 61 98 62 99 63 100
REMARK H PARENT 24 6 28 34 87 53 55 64
REMARK Flexibility Score: inf
ROOT
ATOM      1  C   UNL A   1      36.514  21.271  24.584  1.00  0.00     0.042 C 
ENDROOT
BRANCH   1   2
ATOM      2  C   UNL A   1      35.455  20.291  25.098  1.00  0.00     0.118 C 
BRANCH   2   3
ATOM      3  N   UNL A   1      34.513  20.981  25.957  1.00  0.00    -0.352 N 
ATOM      4  C   UNL A   1      34.008  22.222  25.767  1.00  0.00     0.251 C 
ATOM      5  O   UNL A   1      33.863  22.977  26.728  1.00  0.00    -0.270 OA
ATOM      6  H   UNL A   1      34.209  20.497  26.759  1.00  0.00     0.163 HD
BRANCH   4   7
ATOM      7  C   UNL A   1      33.508  22.551  24.401  1.00  0.00     0.067 C 
ATOM      8  C   UNL A   1      30.480  25.046  25.429  1.00  0.00     0.026 A 
ATOM      9  C   UNL A   1      29.769  24.426  26.491  1.00  0.00     0.033 A 
ATOM     10  C   UNL A   1      31.382  24.234  24.724  1.00  0.00     0.135 A 
ATOM     11  C   UNL A   1      29.822  23.055  26.730  1.00  0.00     0.042 A 
ATOM     12  C   UNL A   1      31.332  22.829  24.905  1.00  0.00     0.019 A 
ATOM     13  O   UNL A   1      32.366  24.742  23.888  1.00  0.00    -0.475 OA
ATOM     14  Cl  UNL A   1      28.949  22.385  28.050  1.00  0.00    -0.084 Cl
ATOM     15  C   UNL A   1      30.548  22.236  25.890  1.00  0.00     0.032 A 
ATOM     16  C   UNL A   1      32.301  22.005  24.151  1.00  0.00     0.025 C 
ATOM     17  C   UNL A   1      33.664  24.008  23.990  1.00  0.00     0.314 C 
BRANCH   8  18
ATOM     18  C   UNL A   1      29.994  26.403  25.063  1.00  0.00    -0.015 A 
ATOM     19  C   UNL A   1      29.755  28.637  23.332  1.00  0.00     0.007 A 
ATOM     20  C   UNL A   1      28.787  27.633  23.324  1.00  0.00     0.015 A 
ATOM     21  C   UNL A   1      30.768  28.592  24.291  1.00  0.00     0.015 A 
ATOM     22  C   UNL A   1      28.882  26.549  24.207  1.00  0.00     0.010 A 
ATOM     23  C   UNL A   1      30.880  27.491  25.158  1.00  0.00     0.010 A 
BRANCH  19  24
ATOM     24  S   UNL A   1      29.827  29.822  21.998  1.00  0.00    -0.126 SA
BRANCH  24  25
ATOM     25  C   UNL A   1      28.142  30.505  22.038  1.00  0.00     0.071 C 
ATOM     26  C   UNL A   1      27.814  31.172  23.361  1.00  0.00     0.016 C 
ENDBRANCH  24  25
ENDBRANCH  19  24
ENDBRANCH   8  18
BRANCH  17  27
ATOM     27  C   UNL A   1      34.454  24.052  22.661  1.00  0.00     0.429 C 
ATOM     28  F   UNL A   1      35.771  23.795  22.828  1.00  0.00    -0.167 F 
ATOM     29  F   UNL A   1      33.971  23.153  21.771  1.00  0.00    -0.167 F 
ATOM     30  F   UNL A   1      34.379  25.265  22.051  1.00  0.00    -0.167 F 
ENDBRANCH  17  27
ENDBRANCH   4   7
ENDBRANCH   2   3
ENDBRANCH   1   2
BRANCH   1  31
ATOM     31  C   UNL A   1      37.474  21.798  25.652  1.00  0.00     0.118 C 
BRANCH  31  32
ATOM     32  N   UNL A   1      38.540  20.863  25.969  1.00  0.00    -0.352 N 
ATOM     33  C   UNL A   1      39.789  21.107  26.476  1.00  0.00     0.251 C 
ATOM     34  H   UNL A   1      38.334  19.916  25.795  1.00  0.00     0.163 HD
ATOM     35  O   UNL A   1      40.610  20.183  26.513  1.00  0.00    -0.269 OA
BRANCH  33  36
ATOM     36  C   UNL A   1      40.168  22.458  26.941  1.00  0.00     0.039 A 
ATOM     37  C   UNL A   1      41.189  22.577  27.886  1.00  0.00     0.014 A 
ATOM     38  C   UNL A   1      39.527  23.603  26.460  1.00  0.00     0.014 A 
ATOM     39  C   UNL A   1      41.609  23.844  28.295  1.00  0.00     0.010 A 
ATOM     40  C   UNL A   1      40.004  24.868  26.806  1.00  0.00     0.010 A 
ATOM     41  C   UNL A   1      41.052  25.004  27.728  1.00  0.00    -0.014 A 
BRANCH  41  42
ATOM     42  C   UNL A   1      41.580  26.349  28.087  1.00  0.00     0.031 A 
ATOM     43  C   UNL A   1      42.981  26.752  27.707  1.00  0.00     0.074 A 
ATOM     44  C   UNL A   1      40.792  27.203  28.771  1.00  0.00     0.049 A 
ATOM     45  N   UNL A   1      43.601  27.884  27.927  1.00  0.00    -0.248 NA
ATOM     46  C   UNL A   1      43.800  25.746  27.012  1.00  0.00     0.031 C 
ATOM     47  C   UNL A   1      39.437  26.907  29.243  1.00  0.00     0.029 A 
ATOM     48  N   UNL A   1      41.006  28.496  29.183  1.00  0.00    -0.354 N 
ATOM     49  C   UNL A   1      44.876  27.732  27.390  1.00  0.00     0.074 A 
ATOM     50  C   UNL A   1      44.964  26.371  26.904  1.00  0.00     0.031 C 
ATOM     51  C   UNL A   1      38.926  27.998  29.836  1.00  0.00     0.029 A 
ATOM     52  C   UNL A   1      39.929  29.057  29.835  1.00  0.00     0.049 A 
ATOM     53  H   UNL A   1      41.850  28.977  29.027  1.00  0.00     0.167 HD
ATOM     54  C   UNL A   1      45.870  28.648  27.282  1.00  0.00     0.034 A 
ATOM     55  C   UNL A   1      39.769  30.282  30.373  1.00  0.00     0.034 A 
ATOM     56  C   UNL A   1      45.769  30.004  27.769  1.00  0.00     0.049 A 
ATOM     57  C   UNL A   1      40.902  31.273  30.258  1.00  0.00     0.074 A 
ATOM     58  C   UNL A   1      46.705  31.021  27.688  1.00  0.00     0.029 A 
ATOM     59  N   UNL A   1      44.668  30.533  28.429  1.00  0.00    -0.354 N 
ATOM     60  N   UNL A   1      42.080  31.124  29.696  1.00  0.00    -0.248 NA
ATOM     61  C   UNL A   1      40.676  32.604  30.836  1.00  0.00     0.031 C 
ATOM     62  C   UNL A   1      46.198  32.140  28.354  1.00  0.00     0.029 A 
ATOM     63  C   UNL A   1      44.912  31.853  28.781  1.00  0.00     0.049 A 
ATOM     64  H   UNL A   1      43.835  30.043  28.620  1.00  0.00     0.167 HD
ATOM     65  C   UNL A   1      42.718  32.354  29.825  1.00  0.00     0.074 A 
ATOM     66  C   UNL A   1      41.780  33.240  30.481  1.00  0.00     0.031 C 
ATOM     67  C   UNL A   1      43.971  32.721  29.447  1.00  0.00     0.034 A 
BRANCH  54  68
ATOM     68  C   UNL A   1      47.153  28.215  26.614  1.00  0.00     0.023 A 
ATOM     69  C   UNL A   1      47.286  28.212  25.214  1.00  0.00     0.031 A 
ATOM     70  C   UNL A   1      48.262  27.817  27.380  1.00  0.00     0.131 A 
ATOM     71  C   UNL A   1      48.479  27.767  24.623  1.00  0.00     0.055 A 
ATOM     72  C   UNL A   1      49.471  27.447  26.789  1.00  0.00     0.041 A 
ATOM     73  F   UNL A   1      48.188  27.779  28.721  1.00  0.00    -0.206 F 
ATOM     74  C   UNL A   1      49.582  27.411  25.401  1.00  0.00     0.022 A 
BRANCH  71  75
ATOM     75  S   UNL A   1      48.529  27.555  22.824  1.00  0.00     0.124 S 
ATOM     76  O   UNL A   1      47.334  28.287  22.407  1.00  0.00    -0.237 OA
ATOM     77  O   UNL A   1      49.805  28.162  22.468  1.00  0.00    -0.237 OA
ATOM     78  O   UNL A   1      48.457  26.106  22.647  1.00  0.00    -0.744 OA
ENDBRANCH  71  75
ENDBRANCH  54  68
BRANCH  55  79
ATOM     79  C   UNL A   1      38.507  30.654  31.080  1.00  0.00     0.023 A 
ATOM     80  C   UNL A   1      37.446  31.273  30.397  1.00  0.00     0.031 A 
ATOM     81  C   UNL A   1      38.377  30.480  32.470  1.00  0.00     0.131 A 
ATOM     82  C   UNL A   1      36.345  31.766  31.113  1.00  0.00     0.055 A 
ATOM     83  C   UNL A   1      37.244  30.906  33.166  1.00  0.00     0.041 A 
ATOM     84  F   UNL A   1      39.356  29.893  33.177  1.00  0.00    -0.206 F 
ATOM     85  C   UNL A   1      36.228  31.574  32.491  1.00  0.00     0.022 A 
BRANCH  82  86
ATOM     86  S   UNL A   1      35.131  32.792  30.235  1.00  0.00     0.124 S 
ATOM     87  O   UNL A   1      34.131  33.018  31.272  1.00  0.00    -0.237 OA
ATOM     88  O   UNL A   1      35.934  33.949  29.855  1.00  0.00    -0.237 OA
ATOM     89  O   UNL A   1      34.703  31.940  29.128  1.00  0.00    -0.744 OA
ENDBRANCH  82  86
ENDBRANCH  55  79
BRANCH  67  90
ATOM     90  C   UNL A   1      44.366  34.156  29.709  1.00  0.00     0.023 A 
ATOM     91  C   UNL A   1      44.136  35.167  28.760  1.00  0.00     0.031 A 
ATOM     92  C   UNL A   1      45.031  34.507  30.897  1.00  0.00     0.131 A 
ATOM     93  C   UNL A   1      44.649  36.455  28.971  1.00  0.00     0.055 A 
ATOM     94  C   UNL A   1      45.468  35.810  31.138  1.00  0.00     0.041 A 
ATOM     95  F   UNL A   1      45.280  33.584  31.841  1.00  0.00    -0.206 F 
ATOM     96  C   UNL A   1      45.297  36.788  30.161  1.00  0.00     0.022 A 
BRANCH  93  97
ATOM     97  S   UNL A   1      44.586  37.646  27.604  1.00  0.00     0.124 S 
ATOM     98  O   UNL A   1      43.360  37.253  26.916  1.00  0.00    -0.237 OA
ATOM     99  O   UNL A   1      44.539  38.925  28.308  1.00  0.00    -0.237 OA
ATOM    100  O   UNL A   1      45.822  37.389  26.867  1.00  0.00    -0.744 OA
ENDBRANCH  93  97
ENDBRANCH  67  90
ENDBRANCH  41  42
ENDBRANCH  33  36
ENDBRANCH  31  32
ENDBRANCH   1  31
TORSDOF 17
ENDMDL
