MODEL 1
REMARK VINA RESULT:     -12.6      0.000      0.000
REMARK SMILES O=C(NCCCNC(=O)c1cn(C2C[NH+](CC[NH+]3CCCCC3)C2)nn1)c1ccc(-c2c3nc(c(-c4cc(S(=O)(=O)[O-])ccc4F)c4ccc([nH]4)c(-c4cc(S(=O)(=O)[O-])ccc4F)c4nc(c(-c5cc(S(=O)(=O)[O-])ccc5F)c5ccc2[nH]5)C=C4)C=C3)cc1
REMARK SMILES IDX 5 1 4 2 3 3 1 4 2 5 27 7 28 8 89 9 29 10 88 11 30 12 31 13
REMARK SMILES IDX 32 14 82 15 33 16 87 17 81 18 83 19 34 20 86 21 80 22 79 23
REMARK SMILES IDX 35 25 67 26 47 27 66 28 48 29 51 30 65 31 84 32 49 33 50 34
REMARK SMILES IDX 64 36 85 37 52 38 36 39 37 40 45 41 38 42 44 43 46 44 43 45
REMARK SMILES IDX 39 46 40 47 41 48 42 49 68 50 69 51 77 52 70 53 76 54 78 55
REMARK SMILES IDX 75 56 71 57 72 58 73 59 74 60 53 61 54 62 62 63 55 64 61 65
REMARK SMILES IDX 63 66 60 67 56 68 57 69 58 70 59 71 6 72 7 73 8 74 9 76
REMARK SMILES IDX 10 77 11 78 26 79 12 80 25 81 13 82 14 83 24 84 15 85 16 87
REMARK SMILES IDX 17 88 18 89 19 90 23 91 20 93 22 94 21 95
REMARK H PARENT 3 6 83 24 51 35 7 75 15 86 18 92
REMARK Flexibility Score: inf
ROOT
ATOM      1  C   UNL A   1      37.668  21.393  25.086  1.00  0.00     0.042 C 
ENDROOT
BRANCH   1   2
ATOM      2  C   UNL A   1      38.408  22.482  25.862  1.00  0.00     0.118 C 
BRANCH   2   3
ATOM      3  N   UNL A   1      39.554  22.026  26.621  1.00  0.00    -0.352 N 
ATOM      4  O   UNL A   1      41.234  21.854  28.042  1.00  0.00    -0.269 OA
ATOM      5  C   UNL A   1      40.417  22.611  27.509  1.00  0.00     0.251 C 
ATOM      6  H   UNL A   1      39.761  21.076  26.462  1.00  0.00     0.163 HD
BRANCH   5   7
ATOM      7  C   UNL A   1      40.461  24.064  27.837  1.00  0.00     0.039 A 
ATOM      8  C   UNL A   1      39.440  24.984  27.594  1.00  0.00     0.014 A 
ATOM      9  C   UNL A   1      41.633  24.521  28.470  1.00  0.00     0.014 A 
ATOM     10  C   UNL A   1      39.600  26.328  27.931  1.00  0.00     0.010 A 
ATOM     11  C   UNL A   1      41.791  25.860  28.826  1.00  0.00     0.010 A 
ATOM     12  C   UNL A   1      40.774  26.771  28.546  1.00  0.00    -0.014 A 
BRANCH  12  13
ATOM     13  C   UNL A   1      40.824  28.158  29.019  1.00  0.00     0.031 A 
ATOM     14  C   UNL A   1      41.920  29.004  28.464  1.00  0.00     0.074 A 
ATOM     15  C   UNL A   1      39.865  28.753  29.756  1.00  0.00     0.049 A 
ATOM     16  N   UNL A   1      42.831  29.665  29.102  1.00  0.00    -0.248 NA
ATOM     17  C   UNL A   1      42.042  29.086  27.001  1.00  0.00     0.031 C 
ATOM     18  C   UNL A   1      38.559  28.205  30.121  1.00  0.00     0.029 A 
ATOM     19  N   UNL A   1      39.817  30.035  30.232  1.00  0.00    -0.354 N 
ATOM     20  C   UNL A   1      43.519  30.408  28.143  1.00  0.00     0.074 A 
ATOM     21  C   UNL A   1      43.078  29.914  26.865  1.00  0.00     0.031 C 
ATOM     22  C   UNL A   1      37.771  29.209  30.563  1.00  0.00     0.029 A 
ATOM     23  C   UNL A   1      38.548  30.437  30.623  1.00  0.00     0.049 A 
ATOM     24  H   UNL A   1      40.609  30.617  30.291  1.00  0.00     0.167 HD
ATOM     25  C   UNL A   1      44.272  31.496  28.471  1.00  0.00     0.034 A 
ATOM     26  C   UNL A   1      38.131  31.698  30.910  1.00  0.00     0.034 A 
ATOM     27  C   UNL A   1      44.621  31.500  29.872  1.00  0.00     0.049 A 
ATOM     28  C   UNL A   1      39.320  32.509  31.260  1.00  0.00     0.074 A 
ATOM     29  C   UNL A   1      45.263  30.614  30.718  1.00  0.00     0.029 A 
ATOM     30  N   UNL A   1      44.039  32.431  30.700  1.00  0.00    -0.354 N 
ATOM     31  N   UNL A   1      40.039  32.324  32.331  1.00  0.00    -0.248 NA
ATOM     32  C   UNL A   1      39.948  33.317  30.226  1.00  0.00     0.031 C 
ATOM     33  C   UNL A   1      44.615  30.767  31.978  1.00  0.00     0.029 A 
ATOM     34  C   UNL A   1      43.646  31.760  31.830  1.00  0.00     0.049 A 
ATOM     35  H   UNL A   1      43.927  33.392  30.517  1.00  0.00     0.167 HD
ATOM     36  C   UNL A   1      41.336  32.627  31.950  1.00  0.00     0.074 A 
ATOM     37  C   UNL A   1      41.198  33.354  30.693  1.00  0.00     0.031 C 
ATOM     38  C   UNL A   1      42.407  32.017  32.537  1.00  0.00     0.034 A 
BRANCH  25  39
ATOM     39  C   UNL A   1      44.458  32.724  27.599  1.00  0.00     0.023 A 
ATOM     40  C   UNL A   1      43.815  33.913  28.003  1.00  0.00     0.031 A 
ATOM     41  C   UNL A   1      44.963  32.724  26.280  1.00  0.00     0.131 A 
ATOM     42  C   UNL A   1      43.598  34.967  27.099  1.00  0.00     0.055 A 
ATOM     43  C   UNL A   1      44.820  33.811  25.410  1.00  0.00     0.041 A 
ATOM     44  F   UNL A   1      45.534  31.648  25.727  1.00  0.00    -0.206 F 
ATOM     45  C   UNL A   1      44.103  34.928  25.804  1.00  0.00     0.022 A 
BRANCH  42  46
ATOM     46  S   UNL A   1      42.452  36.286  27.581  1.00  0.00     0.124 S 
ATOM     47  O   UNL A   1      43.111  36.826  28.766  1.00  0.00    -0.237 OA
ATOM     48  O   UNL A   1      42.458  37.137  26.395  1.00  0.00    -0.237 OA
ATOM     49  O   UNL A   1      41.201  35.575  27.833  1.00  0.00    -0.744 OA
ENDBRANCH  42  46
ENDBRANCH  25  39
BRANCH  26  50
ATOM     50  C   UNL A   1      36.783  32.276  30.673  1.00  0.00     0.023 A 
ATOM     51  C   UNL A   1      36.005  32.829  31.708  1.00  0.00     0.031 A 
ATOM     52  C   UNL A   1      36.327  32.488  29.352  1.00  0.00     0.131 A 
ATOM     53  C   UNL A   1      34.821  33.539  31.405  1.00  0.00     0.055 A 
ATOM     54  C   UNL A   1      35.145  33.171  29.059  1.00  0.00     0.041 A 
ATOM     55  F   UNL A   1      37.058  32.111  28.292  1.00  0.00    -0.206 F 
ATOM     56  C   UNL A   1      34.388  33.706  30.088  1.00  0.00     0.022 A 
BRANCH  53  57
ATOM     57  S   UNL A   1      33.883  34.366  32.729  1.00  0.00     0.124 S 
ATOM     58  O   UNL A   1      34.933  35.070  33.457  1.00  0.00    -0.237 OA
ATOM     59  O   UNL A   1      32.944  35.193  31.980  1.00  0.00    -0.237 OA
ATOM     60  O   UNL A   1      33.270  33.253  33.455  1.00  0.00    -0.744 OA
ENDBRANCH  53  57
ENDBRANCH  26  50
BRANCH  38  61
ATOM     61  C   UNL A   1      42.217  31.318  33.864  1.00  0.00     0.023 A 
ATOM     62  C   UNL A   1      42.024  29.929  34.016  1.00  0.00     0.031 A 
ATOM     63  C   UNL A   1      42.364  32.089  35.032  1.00  0.00     0.131 A 
ATOM     64  C   UNL A   1      41.968  29.361  35.303  1.00  0.00     0.055 A 
ATOM     65  C   UNL A   1      42.323  31.523  36.306  1.00  0.00     0.041 A 
ATOM     66  F   UNL A   1      42.588  33.412  34.954  1.00  0.00    -0.206 F 
ATOM     67  C   UNL A   1      42.117  30.155  36.446  1.00  0.00     0.022 A 
BRANCH  64  68
ATOM     68  S   UNL A   1      41.692  27.574  35.512  1.00  0.00     0.124 S 
ATOM     69  O   UNL A   1      40.849  27.221  34.376  1.00  0.00    -0.237 OA
ATOM     70  O   UNL A   1      43.052  27.039  35.489  1.00  0.00    -0.237 OA
ATOM     71  O   UNL A   1      41.030  27.481  36.814  1.00  0.00    -0.744 OA
ENDBRANCH  64  68
ENDBRANCH  38  61
ENDBRANCH  12  13
ENDBRANCH   5   7
ENDBRANCH   2   3
ENDBRANCH   1   2
BRANCH   1  72
ATOM     72  C   UNL A   1      36.259  21.066  25.587  1.00  0.00     0.118 C 
BRANCH  72  73
ATOM     73  N   UNL A   1      35.707  19.862  24.985  1.00  0.00    -0.351 N 
ATOM     74  C   UNL A   1      34.423  19.519  24.652  1.00  0.00     0.273 C 
ATOM     75  H   UNL A   1      36.376  19.170  24.779  1.00  0.00     0.163 HD
ATOM     76  O   UNL A   1      34.232  18.347  24.289  1.00  0.00    -0.267 OA
BRANCH  74  77
ATOM     77  C   UNL A   1      33.337  20.478  24.733  1.00  0.00     0.170 A 
ATOM     78  C   UNL A   1      33.266  21.786  24.282  1.00  0.00     0.145 A 
ATOM     79  N   UNL A   1      32.121  20.143  25.278  1.00  0.00    -0.125 NA
ATOM     80  N   UNL A   1      32.058  22.234  24.745  1.00  0.00    -0.237 N 
ATOM     81  N   UNL A   1      31.349  21.219  25.277  1.00  0.00    -0.066 NA
BRANCH  80  82
ATOM     82  C   UNL A   1      31.682  23.578  25.051  1.00  0.00     0.218 C 
ATOM     83  C   UNL A   1      30.709  23.748  26.254  1.00  0.00     0.296 C 
ATOM     84  C   UNL A   1      32.620  24.438  25.900  1.00  0.00     0.296 C 
ATOM     85  N   UNL A   1      31.422  24.988  26.593  1.00  0.00    -0.326 N 
ATOM     86  H   UNL A   1      31.506  25.335  27.548  1.00  0.00     0.348 HD
BRANCH  85  87
ATOM     87  C   UNL A   1      30.805  26.192  25.984  1.00  0.00     0.324 C 
BRANCH  87  88
ATOM     88  C   UNL A   1      31.536  27.504  25.499  1.00  0.00     0.324 C 
BRANCH  88  89
ATOM     89  N   UNL A   1      32.278  28.407  26.407  1.00  0.00    -0.330 N 
ATOM     90  C   UNL A   1      33.697  28.102  26.577  1.00  0.00     0.262 C 
ATOM     91  C   UNL A   1      31.926  29.824  26.272  1.00  0.00     0.262 C 
ATOM     92  H   UNL A   1      31.918  28.174  27.332  1.00  0.00     0.348 HD
ATOM     93  C   UNL A   1      34.480  29.053  27.478  1.00  0.00     0.062 C 
ATOM     94  C   UNL A   1      32.720  30.754  27.193  1.00  0.00     0.062 C 
ATOM     95  C   UNL A   1      34.214  30.494  27.076  1.00  0.00     0.012 C 
ENDBRANCH  88  89
ENDBRANCH  87  88
ENDBRANCH  85  87
ENDBRANCH  80  82
ENDBRANCH  74  77
ENDBRANCH  72  73
ENDBRANCH   1  72
TORSDOF 17
ENDMDL
MODEL 2
REMARK VINA RESULT:     -12.4      3.628      9.927
REMARK SMILES O=C(NCCCNC(=O)c1cn(C2C[NH+](CC[NH+]3CCCCC3)C2)nn1)c1ccc(-c2c3nc(c(-c4cc(S(=O)(=O)[O-])ccc4F)c4ccc([nH]4)c(-c4cc(S(=O)(=O)[O-])ccc4F)c4nc(c(-c5cc(S(=O)(=O)[O-])ccc5F)c5ccc2[nH]5)C=C4)C=C3)cc1
REMARK SMILES IDX 5 1 4 2 3 3 1 4 2 5 27 7 28 8 89 9 29 10 88 11 30 12 31 13
REMARK SMILES IDX 32 14 82 15 33 16 87 17 81 18 83 19 34 20 86 21 80 22 79 23
REMARK SMILES IDX 35 25 67 26 47 27 66 28 48 29 51 30 65 31 84 32 49 33 50 34
REMARK SMILES IDX 64 36 85 37 52 38 36 39 37 40 45 41 38 42 44 43 46 44 43 45
REMARK SMILES IDX 39 46 40 47 41 48 42 49 68 50 69 51 77 52 70 53 76 54 78 55
REMARK SMILES IDX 75 56 71 57 72 58 73 59 74 60 53 61 54 62 62 63 55 64 61 65
REMARK SMILES IDX 63 66 60 67 56 68 57 69 58 70 59 71 6 72 7 73 8 74 9 76
REMARK SMILES IDX 10 77 11 78 26 79 12 80 25 81 13 82 14 83 24 84 15 85 16 87
REMARK SMILES IDX 17 88 18 89 19 90 23 91 20 93 22 94 21 95
REMARK H PARENT 3 6 83 24 51 35 7 75 15 86 18 92
REMARK Flexibility Score: inf
ROOT
ATOM      1  C   UNL A   1      33.127  29.930  25.807  1.00  0.00     0.042 C 
ENDROOT
BRANCH   1   2
ATOM      2  C   UNL A   1      33.613  30.069  27.249  1.00  0.00     0.118 C 
BRANCH   2   3
ATOM      3  N   UNL A   1      34.132  31.375  27.601  1.00  0.00    -0.352 N 
ATOM      4  O   UNL A   1      35.436  33.075  28.130  1.00  0.00    -0.269 OA
ATOM      5  C   UNL A   1      35.345  31.848  28.024  1.00  0.00     0.251 C 
ATOM      6  H   UNL A   1      33.456  32.087  27.516  1.00  0.00     0.163 HD
BRANCH   5   7
ATOM      7  C   UNL A   1      36.517  31.005  28.394  1.00  0.00     0.039 A 
ATOM      8  C   UNL A   1      36.625  29.629  28.191  1.00  0.00     0.014 A 
ATOM      9  C   UNL A   1      37.609  31.681  28.972  1.00  0.00     0.014 A 
ATOM     10  C   UNL A   1      37.770  28.940  28.593  1.00  0.00     0.010 A 
ATOM     11  C   UNL A   1      38.762  31.000  29.358  1.00  0.00     0.010 A 
ATOM     12  C   UNL A   1      38.840  29.620  29.179  1.00  0.00    -0.014 A 
BRANCH  12  13
ATOM     13  C   UNL A   1      40.074  28.873  29.436  1.00  0.00     0.031 A 
ATOM     14  C   UNL A   1      40.451  28.698  30.869  1.00  0.00     0.074 A 
ATOM     15  C   UNL A   1      40.772  28.196  28.502  1.00  0.00     0.049 A 
ATOM     16  N   UNL A   1      41.553  29.030  31.460  1.00  0.00    -0.248 NA
ATOM     17  C   UNL A   1      39.446  28.114  31.770  1.00  0.00     0.031 C 
ATOM     18  C   UNL A   1      40.392  27.961  27.109  1.00  0.00     0.029 A 
ATOM     19  N   UNL A   1      41.920  27.465  28.647  1.00  0.00    -0.354 N 
ATOM     20  C   UNL A   1      41.470  28.522  32.757  1.00  0.00     0.074 A 
ATOM     21  C   UNL A   1      40.108  28.087  32.927  1.00  0.00     0.031 C 
ATOM     22  C   UNL A   1      41.167  26.978  26.604  1.00  0.00     0.029 A 
ATOM     23  C   UNL A   1      42.166  26.599  27.591  1.00  0.00     0.049 A 
ATOM     24  H   UNL A   1      42.514  27.547  29.427  1.00  0.00     0.167 HD
ATOM     25  C   UNL A   1      42.573  28.338  33.535  1.00  0.00     0.034 A 
ATOM     26  C   UNL A   1      43.074  25.591  27.544  1.00  0.00     0.034 A 
ATOM     27  C   UNL A   1      43.696  29.111  33.062  1.00  0.00     0.049 A 
ATOM     28  C   UNL A   1      44.121  25.864  28.555  1.00  0.00     0.074 A 
ATOM     29  C   UNL A   1      43.916  30.453  32.808  1.00  0.00     0.029 A 
ATOM     30  N   UNL A   1      44.760  28.457  32.486  1.00  0.00    -0.354 N 
ATOM     31  N   UNL A   1      44.967  26.852  28.480  1.00  0.00    -0.248 NA
ATOM     32  C   UNL A   1      44.010  25.244  29.866  1.00  0.00     0.031 C 
ATOM     33  C   UNL A   1      44.795  30.481  31.687  1.00  0.00     0.029 A 
ATOM     34  C   UNL A   1      45.084  29.158  31.352  1.00  0.00     0.049 A 
ATOM     35  H   UNL A   1      45.202  27.645  32.822  1.00  0.00     0.167 HD
ATOM     36  C   UNL A   1      45.179  27.245  29.791  1.00  0.00     0.074 A 
ATOM     37  C   UNL A   1      44.672  26.142  30.599  1.00  0.00     0.031 C 
ATOM     38  C   UNL A   1      45.480  28.540  30.102  1.00  0.00     0.034 A 
BRANCH  25  39
ATOM     39  C   UNL A   1      42.743  27.231  34.560  1.00  0.00     0.023 A 
ATOM     40  C   UNL A   1      43.505  26.106  34.185  1.00  0.00     0.031 A 
ATOM     41  C   UNL A   1      41.977  27.081  35.738  1.00  0.00     0.131 A 
ATOM     42  C   UNL A   1      43.402  24.890  34.882  1.00  0.00     0.055 A 
ATOM     43  C   UNL A   1      41.945  25.894  36.479  1.00  0.00     0.041 A 
ATOM     44  F   UNL A   1      41.148  28.032  36.185  1.00  0.00    -0.206 F 
ATOM     45  C   UNL A   1      42.631  24.777  36.033  1.00  0.00     0.022 A 
BRANCH  42  46
ATOM     46  S   UNL A   1      44.116  23.406  34.125  1.00  0.00     0.124 S 
ATOM     47  O   UNL A   1      44.369  22.574  35.298  1.00  0.00    -0.237 OA
ATOM     48  O   UNL A   1      43.038  22.969  33.245  1.00  0.00    -0.237 OA
ATOM     49  O   UNL A   1      45.309  23.910  33.450  1.00  0.00    -0.744 OA
ENDBRANCH  42  46
ENDBRANCH  25  39
BRANCH  26  50
ATOM     50  C   UNL A   1      42.947  24.298  26.820  1.00  0.00     0.023 A 
ATOM     51  C   UNL A   1      43.921  23.841  25.912  1.00  0.00     0.031 A 
ATOM     52  C   UNL A   1      41.942  23.377  27.190  1.00  0.00     0.131 A 
ATOM     53  C   UNL A   1      43.853  22.526  25.400  1.00  0.00     0.055 A 
ATOM     54  C   UNL A   1      41.866  22.086  26.665  1.00  0.00     0.041 A 
ATOM     55  F   UNL A   1      41.041  23.671  28.141  1.00  0.00    -0.206 F 
ATOM     56  C   UNL A   1      42.829  21.652  25.769  1.00  0.00     0.022 A 
BRANCH  53  57
ATOM     57  S   UNL A   1      45.181  21.890  24.329  1.00  0.00     0.124 S 
ATOM     58  O   UNL A   1      45.530  23.065  23.539  1.00  0.00    -0.237 OA
ATOM     59  O   UNL A   1      46.176  21.437  25.295  1.00  0.00    -0.237 OA
ATOM     60  O   UNL A   1      44.527  20.816  23.580  1.00  0.00    -0.744 OA
ENDBRANCH  53  57
ENDBRANCH  26  50
BRANCH  38  61
ATOM     61  C   UNL A   1      45.980  29.460  29.011  1.00  0.00     0.023 A 
ATOM     62  C   UNL A   1      45.179  30.397  28.325  1.00  0.00     0.031 A 
ATOM     63  C   UNL A   1      47.363  29.464  28.747  1.00  0.00     0.131 A 
ATOM     64  C   UNL A   1      45.765  31.284  27.403  1.00  0.00     0.055 A 
ATOM     65  C   UNL A   1      47.943  30.354  27.844  1.00  0.00     0.041 A 
ATOM     66  F   UNL A   1      48.184  28.621  29.395  1.00  0.00    -0.206 F 
ATOM     67  C   UNL A   1      47.144  31.264  27.161  1.00  0.00     0.022 A 
BRANCH  64  68
ATOM     68  S   UNL A   1      44.737  32.480  26.492  1.00  0.00     0.124 S 
ATOM     69  O   UNL A   1      45.693  33.177  25.640  1.00  0.00    -0.237 OA
ATOM     70  O   UNL A   1      43.780  31.615  25.805  1.00  0.00    -0.237 OA
ATOM     71  O   UNL A   1      44.154  33.303  27.553  1.00  0.00    -0.744 OA
ENDBRANCH  64  68
ENDBRANCH  38  61
ENDBRANCH  12  13
ENDBRANCH   5   7
ENDBRANCH   2   3
ENDBRANCH   1   2
BRANCH   1  72
ATOM     72  C   UNL A   1      31.610  30.004  25.612  1.00  0.00     0.118 C 
BRANCH  72  73
ATOM     73  N   UNL A   1      31.200  29.734  24.242  1.00  0.00    -0.351 N 
ATOM     74  C   UNL A   1      30.983  28.559  23.573  1.00  0.00     0.273 C 
ATOM     75  H   UNL A   1      31.052  30.542  23.698  1.00  0.00     0.163 HD
ATOM     76  O   UNL A   1      30.787  28.638  22.350  1.00  0.00    -0.267 OA
BRANCH  74  77
ATOM     77  C   UNL A   1      30.993  27.282  24.262  1.00  0.00     0.170 A 
ATOM     78  C   UNL A   1      32.054  26.456  24.596  1.00  0.00     0.145 A 
ATOM     79  N   UNL A   1      29.838  26.718  24.749  1.00  0.00    -0.125 NA
ATOM     80  N   UNL A   1      31.459  25.339  25.115  1.00  0.00    -0.237 N 
ATOM     81  N   UNL A   1      30.134  25.537  25.270  1.00  0.00    -0.066 NA
BRANCH  80  82
ATOM     82  C   UNL A   1      31.966  24.004  25.131  1.00  0.00     0.218 C 
ATOM     83  C   UNL A   1      31.570  23.118  23.914  1.00  0.00     0.296 C 
ATOM     84  C   UNL A   1      33.394  23.745  24.646  1.00  0.00     0.296 C 
ATOM     85  N   UNL A   1      32.903  22.499  23.992  1.00  0.00    -0.326 N 
ATOM     86  H   UNL A   1      33.391  22.131  23.177  1.00  0.00     0.348 HD
BRANCH  85  87
ATOM     87  C   UNL A   1      32.918  21.270  24.822  1.00  0.00     0.324 C 
BRANCH  87  88
ATOM     88  C   UNL A   1      34.006  20.125  24.821  1.00  0.00     0.324 C 
BRANCH  88  89
ATOM     89  N   UNL A   1      33.678  18.690  24.668  1.00  0.00    -0.330 N 
ATOM     90  C   UNL A   1      34.785  17.833  24.249  1.00  0.00     0.262 C 
ATOM     91  C   UNL A   1      32.797  18.156  25.711  1.00  0.00     0.262 C 
ATOM     92  H   UNL A   1      33.086  18.661  23.838  1.00  0.00     0.348 HD
ATOM     93  C   UNL A   1      34.467  16.345  24.129  1.00  0.00     0.062 C 
ATOM     94  C   UNL A   1      32.488  16.664  25.561  1.00  0.00     0.062 C 
ATOM     95  C   UNL A   1      33.765  15.857  25.385  1.00  0.00     0.012 C 
ENDBRANCH  88  89
ENDBRANCH  87  88
ENDBRANCH  85  87
ENDBRANCH  80  82
ENDBRANCH  74  77
ENDBRANCH  72  73
ENDBRANCH   1  72
TORSDOF 17
ENDMDL
MODEL 3
REMARK VINA RESULT:     -12.4      1.516      2.044
REMARK SMILES O=C(NCCCNC(=O)c1cn(C2C[NH+](CC[NH+]3CCCCC3)C2)nn1)c1ccc(-c2c3nc(c(-c4cc(S(=O)(=O)[O-])ccc4F)c4ccc([nH]4)c(-c4cc(S(=O)(=O)[O-])ccc4F)c4nc(c(-c5cc(S(=O)(=O)[O-])ccc5F)c5ccc2[nH]5)C=C4)C=C3)cc1
REMARK SMILES IDX 5 1 4 2 3 3 1 4 2 5 27 7 28 8 89 9 29 10 88 11 30 12 31 13
REMARK SMILES IDX 32 14 82 15 33 16 87 17 81 18 83 19 34 20 86 21 80 22 79 23
REMARK SMILES IDX 35 25 67 26 47 27 66 28 48 29 51 30 65 31 84 32 49 33 50 34
REMARK SMILES IDX 64 36 85 37 52 38 36 39 37 40 45 41 38 42 44 43 46 44 43 45
REMARK SMILES IDX 39 46 40 47 41 48 42 49 68 50 69 51 77 52 70 53 76 54 78 55
REMARK SMILES IDX 75 56 71 57 72 58 73 59 74 60 53 61 54 62 62 63 55 64 61 65
REMARK SMILES IDX 63 66 60 67 56 68 57 69 58 70 59 71 6 72 7 73 8 74 9 76
REMARK SMILES IDX 10 77 11 78 26 79 12 80 25 81 13 82 14 83 24 84 15 85 16 87
REMARK SMILES IDX 17 88 18 89 19 90 23 91 20 93 22 94 21 95
REMARK H PARENT 3 6 83 24 51 35 7 75 15 86 18 92
REMARK Flexibility Score: inf
ROOT
ATOM      1  C   UNL A   1      36.673  22.029  26.023  1.00  0.00     0.042 C 
ENDROOT
BRANCH   1   2
ATOM      2  C   UNL A   1      38.022  22.648  25.663  1.00  0.00     0.118 C 
BRANCH   2   3
ATOM      3  N   UNL A   1      39.152  22.142  26.416  1.00  0.00    -0.352 N 
ATOM      4  O   UNL A   1      40.824  21.891  27.833  1.00  0.00    -0.269 OA
ATOM      5  C   UNL A   1      40.034  22.683  27.312  1.00  0.00     0.251 C 
ATOM      6  H   UNL A   1      39.326  21.187  26.243  1.00  0.00     0.163 HD
BRANCH   5   7
ATOM      7  C   UNL A   1      40.128  24.129  27.661  1.00  0.00     0.039 A 
ATOM      8  C   UNL A   1      39.158  25.095  27.393  1.00  0.00     0.014 A 
ATOM      9  C   UNL A   1      41.294  24.527  28.344  1.00  0.00     0.014 A 
ATOM     10  C   UNL A   1      39.363  26.427  27.755  1.00  0.00     0.010 A 
ATOM     11  C   UNL A   1      41.495  25.853  28.725  1.00  0.00     0.010 A 
ATOM     12  C   UNL A   1      40.531  26.811  28.419  1.00  0.00    -0.014 A 
BRANCH  12  13
ATOM     13  C   UNL A   1      40.622  28.188  28.913  1.00  0.00     0.031 A 
ATOM     14  C   UNL A   1      41.754  29.003  28.384  1.00  0.00     0.074 A 
ATOM     15  C   UNL A   1      39.675  28.805  29.647  1.00  0.00     0.049 A 
ATOM     16  N   UNL A   1      42.678  29.624  29.043  1.00  0.00    -0.248 NA
ATOM     17  C   UNL A   1      41.897  29.103  26.924  1.00  0.00     0.031 C 
ATOM     18  C   UNL A   1      38.346  28.298  29.988  1.00  0.00     0.029 A 
ATOM     19  N   UNL A   1      39.665  30.082  30.142  1.00  0.00    -0.354 N 
ATOM     20  C   UNL A   1      43.404  30.356  28.103  1.00  0.00     0.074 A 
ATOM     21  C   UNL A   1      42.962  29.896  26.813  1.00  0.00     0.031 C 
ATOM     22  C   UNL A   1      37.587  29.322  30.434  1.00  0.00     0.029 A 
ATOM     23  C   UNL A   1      38.405  30.522  30.522  1.00  0.00     0.049 A 
ATOM     24  H   UNL A   1      40.476  30.635  30.218  1.00  0.00     0.167 HD
ATOM     25  C   UNL A   1      44.190  31.412  28.457  1.00  0.00     0.034 A 
ATOM     26  C   UNL A   1      38.029  31.792  30.822  1.00  0.00     0.034 A 
ATOM     27  C   UNL A   1      44.521  31.385  29.861  1.00  0.00     0.049 A 
ATOM     28  C   UNL A   1      39.240  32.556  31.199  1.00  0.00     0.074 A 
ATOM     29  C   UNL A   1      45.120  30.465  30.702  1.00  0.00     0.029 A 
ATOM     30  N   UNL A   1      43.961  32.323  30.696  1.00  0.00    -0.354 N 
ATOM     31  N   UNL A   1      39.939  32.331  32.276  1.00  0.00    -0.248 NA
ATOM     32  C   UNL A   1      39.909  33.357  30.184  1.00  0.00     0.031 C 
ATOM     33  C   UNL A   1      44.462  30.622  31.957  1.00  0.00     0.029 A 
ATOM     34  C   UNL A   1      43.530  31.651  31.812  1.00  0.00     0.049 A 
ATOM     35  H   UNL A   1      43.884  33.290  30.526  1.00  0.00     0.167 HD
ATOM     36  C   UNL A   1      41.250  32.595  31.915  1.00  0.00     0.074 A 
ATOM     37  C   UNL A   1      41.153  33.344  30.667  1.00  0.00     0.031 C 
ATOM     38  C   UNL A   1      42.292  31.940  32.506  1.00  0.00     0.034 A 
BRANCH  25  39
ATOM     39  C   UNL A   1      44.429  32.646  27.605  1.00  0.00     0.023 A 
ATOM     40  C   UNL A   1      43.793  33.842  27.998  1.00  0.00     0.031 A 
ATOM     41  C   UNL A   1      44.982  32.649  26.305  1.00  0.00     0.131 A 
ATOM     42  C   UNL A   1      43.628  34.908  27.098  1.00  0.00     0.055 A 
ATOM     43  C   UNL A   1      44.890  33.748  25.442  1.00  0.00     0.041 A 
ATOM     44  F   UNL A   1      45.554  31.569  25.762  1.00  0.00    -0.206 F 
ATOM     45  C   UNL A   1      44.179  34.873  25.822  1.00  0.00     0.022 A 
BRANCH  42  46
ATOM     46  S   UNL A   1      42.489  36.243  27.552  1.00  0.00     0.124 S 
ATOM     47  O   UNL A   1      43.011  36.642  28.856  1.00  0.00    -0.237 OA
ATOM     48  O   UNL A   1      42.687  37.191  26.461  1.00  0.00    -0.237 OA
ATOM     49  O   UNL A   1      41.185  35.584  27.578  1.00  0.00    -0.744 OA
ENDBRANCH  42  46
ENDBRANCH  25  39
BRANCH  26  50
ATOM     50  C   UNL A   1      36.704  32.420  30.577  1.00  0.00     0.023 A 
ATOM     51  C   UNL A   1      35.913  32.946  31.616  1.00  0.00     0.031 A 
ATOM     52  C   UNL A   1      36.291  32.707  29.257  1.00  0.00     0.131 A 
ATOM     53  C   UNL A   1      34.759  33.704  31.316  1.00  0.00     0.055 A 
ATOM     54  C   UNL A   1      35.138  33.437  28.965  1.00  0.00     0.041 A 
ATOM     55  F   UNL A   1      37.042  32.359  28.200  1.00  0.00    -0.206 F 
ATOM     56  C   UNL A   1      34.368  33.945  29.997  1.00  0.00     0.022 A 
BRANCH  53  57
ATOM     57  S   UNL A   1      33.808  34.495  32.652  1.00  0.00     0.124 S 
ATOM     58  O   UNL A   1      33.314  33.346  33.402  1.00  0.00    -0.237 OA
ATOM     59  O   UNL A   1      34.816  35.317  33.312  1.00  0.00    -0.237 OA
ATOM     60  O   UNL A   1      32.780  35.251  31.935  1.00  0.00    -0.744 OA
ENDBRANCH  53  57
ENDBRANCH  26  50
BRANCH  38  61
ATOM     61  C   UNL A   1      42.061  31.229  33.821  1.00  0.00     0.023 A 
ATOM     62  C   UNL A   1      41.969  29.829  33.968  1.00  0.00     0.031 A 
ATOM     63  C   UNL A   1      42.059  32.011  34.991  1.00  0.00     0.131 A 
ATOM     64  C   UNL A   1      41.864  29.260  35.251  1.00  0.00     0.055 A 
ATOM     65  C   UNL A   1      41.970  31.444  36.262  1.00  0.00     0.041 A 
ATOM     66  F   UNL A   1      42.181  33.347  34.920  1.00  0.00    -0.206 F 
ATOM     67  C   UNL A   1      41.864  30.064  36.397  1.00  0.00     0.022 A 
BRANCH  64  68
ATOM     68  S   UNL A   1      41.717  27.456  35.451  1.00  0.00     0.124 S 
ATOM     69  O   UNL A   1      40.798  27.065  34.389  1.00  0.00    -0.237 OA
ATOM     70  O   UNL A   1      43.100  27.007  35.297  1.00  0.00    -0.237 OA
ATOM     71  O   UNL A   1      41.182  27.306  36.805  1.00  0.00    -0.744 OA
ENDBRANCH  64  68
ENDBRANCH  38  61
ENDBRANCH  12  13
ENDBRANCH   5   7
ENDBRANCH   2   3
ENDBRANCH   1   2
BRANCH   1  72
ATOM     72  C   UNL A   1      35.631  22.019  24.901  1.00  0.00     0.118 C 
BRANCH  72  73
ATOM     73  N   UNL A   1      34.688  20.915  25.011  1.00  0.00    -0.351 N 
ATOM     74  C   UNL A   1      33.405  20.861  25.487  1.00  0.00     0.273 C 
ATOM     75  H   UNL A   1      35.035  20.053  24.685  1.00  0.00     0.163 HD
ATOM     76  O   UNL A   1      32.896  19.734  25.599  1.00  0.00    -0.267 OA
BRANCH  74  77
ATOM     77  C   UNL A   1      32.680  22.064  25.852  1.00  0.00     0.170 A 
ATOM     78  C   UNL A   1      31.969  22.953  25.063  1.00  0.00     0.145 A 
ATOM     79  N   UNL A   1      32.570  22.468  27.162  1.00  0.00    -0.125 NA
ATOM     80  N   UNL A   1      31.613  23.955  25.924  1.00  0.00    -0.237 N 
ATOM     81  N   UNL A   1      31.916  23.618  27.193  1.00  0.00    -0.066 NA
BRANCH  80  82
ATOM     82  C   UNL A   1      31.355  25.325  25.613  1.00  0.00     0.218 C 
ATOM     83  C   UNL A   1      32.546  26.110  24.989  1.00  0.00     0.296 C 
ATOM     84  C   UNL A   1      30.652  25.671  24.299  1.00  0.00     0.296 C 
ATOM     85  N   UNL A   1      31.570  26.836  24.161  1.00  0.00    -0.326 N 
ATOM     86  H   UNL A   1      31.791  27.198  23.234  1.00  0.00     0.348 HD
BRANCH  85  87
ATOM     87  C   UNL A   1      31.120  28.106  24.783  1.00  0.00     0.324 C 
BRANCH  87  88
ATOM     88  C   UNL A   1      31.016  29.525  24.099  1.00  0.00     0.324 C 
BRANCH  88  89
ATOM     89  N   UNL A   1      29.777  30.040  23.475  1.00  0.00    -0.330 N 
ATOM     90  C   UNL A   1      29.294  31.317  23.994  1.00  0.00     0.262 C 
ATOM     91  C   UNL A   1      29.712  29.859  22.021  1.00  0.00     0.262 C 
ATOM     92  H   UNL A   1      29.051  29.407  23.812  1.00  0.00     0.348 HD
ATOM     93  C   UNL A   1      28.040  31.876  23.327  1.00  0.00     0.062 C 
ATOM     94  C   UNL A   1      28.440  30.421  21.380  1.00  0.00     0.062 C 
ATOM     95  C   UNL A   1      28.198  31.858  21.816  1.00  0.00     0.012 C 
ENDBRANCH  88  89
ENDBRANCH  87  88
ENDBRANCH  85  87
ENDBRANCH  80  82
ENDBRANCH  74  77
ENDBRANCH  72  73
ENDBRANCH   1  72
TORSDOF 17
ENDMDL
