MODEL 1
REMARK VINA RESULT:     -12.1      0.000      0.000
REMARK SMILES COc1ccc(NC(=O)NCc2ccc(C(=O)NCCCNC(=O)c3ccc(-c4c5nc(c(-c6cc(S(=O)(=O)[O-])ccc6F)c6ccc([nH]6)c(-c6cc(S(=O)(=O)[O-])ccc6F)c6nc(c(-c7cc(S(=O)(=O)[O-])ccc7F)c7ccc4[nH]7)C=C6)C=C5)cc3)cc2)c(OC)c1
REMARK SMILES IDX 19 1 18 2 16 3 17 4 15 6 12 7 13 8 89 9 14 10 88 11 11 12
REMARK SMILES IDX 10 13 7 14 8 15 9 17 6 19 3 20 4 21 93 22 5 23 90 24 2 25
REMARK SMILES IDX 1 26 91 27 92 28 20 29 21 30 22 31 23 32 24 34 25 35 26 36
REMARK SMILES IDX 87 37 27 38 86 39 28 40 29 41 30 42 80 43 31 44 85 45 79 46
REMARK SMILES IDX 81 47 32 48 84 49 78 50 77 51 33 53 65 54 45 55 64 56 46 57
REMARK SMILES IDX 49 58 63 59 82 60 47 61 48 62 62 64 83 65 50 66 34 67 35 68
REMARK SMILES IDX 43 69 36 70 42 71 44 72 41 73 37 74 38 75 39 76 40 77 66 78
REMARK SMILES IDX 67 79 75 80 68 81 74 82 76 83 73 84 69 85 70 86 71 87 72 88
REMARK SMILES IDX 51 89 52 90 60 91 53 92 59 93 61 94 58 95 54 96 55 97 56 98
REMARK SMILES IDX 57 99
REMARK H PARENT 18 5 7 16 10 18 22 33 81 52 49 63
REMARK Flexibility Score: inf
ROOT
ATOM      1  C   UNL A   1      31.716  29.023  24.298  1.00  0.00     0.118 C 
ENDROOT
BRANCH   1   2
ATOM      2  N   UNL A   1      30.365  28.781  23.818  1.00  0.00    -0.352 N 
ATOM      3  C   UNL A   1      29.562  27.666  23.826  1.00  0.00     0.251 C 
ATOM      4  O   UNL A   1      28.393  27.803  23.462  1.00  0.00    -0.269 OA
ATOM      5  H   UNL A   1      29.944  29.569  23.406  1.00  0.00     0.163 HD
BRANCH   3   6
ATOM      6  C   UNL A   1      30.018  26.322  24.284  1.00  0.00     0.039 A 
ATOM      7  C   UNL A   1      30.821  23.704  25.019  1.00  0.00    -0.029 A 
ATOM      8  C   UNL A   1      30.723  24.058  23.671  1.00  0.00     0.006 A 
ATOM      9  C   UNL A   1      30.565  24.691  25.985  1.00  0.00     0.006 A 
ATOM     10  C   UNL A   1      30.322  25.355  23.311  1.00  0.00     0.014 A 
ATOM     11  C   UNL A   1      30.197  25.986  25.622  1.00  0.00     0.014 A 
BRANCH   7  12
ATOM     12  C   UNL A   1      31.036  22.295  25.498  1.00  0.00     0.153 C 
BRANCH  12  13
ATOM     13  N   UNL A   1      31.665  22.114  26.782  1.00  0.00    -0.334 N 
ATOM     14  N   UNL A   1      33.775  23.254  26.841  1.00  0.00    -0.305 N 
ATOM     15  C   UNL A   1      32.763  22.568  27.398  1.00  0.00     0.319 C 
ATOM     16  H   UNL A   1      34.533  23.350  27.463  1.00  0.00     0.172 HD
ATOM     17  O   UNL A   1      32.896  22.228  28.581  1.00  0.00    -0.248 OA
ATOM     18  H   UNL A   1      31.153  21.498  27.356  1.00  0.00     0.165 HD
BRANCH  14  19
ATOM     19  C   UNL A   1      34.038  23.867  25.609  1.00  0.00     0.085 A 
ATOM     20  C   UNL A   1      34.125  24.876  22.999  1.00  0.00     0.122 A 
ATOM     21  C   UNL A   1      34.028  25.741  24.089  1.00  0.00     0.049 A 
ATOM     22  C   UNL A   1      34.383  23.528  23.228  1.00  0.00     0.095 A 
ATOM     23  C   UNL A   1      34.020  25.238  25.393  1.00  0.00     0.034 A 
ATOM     24  C   UNL A   1      34.402  23.038  24.537  1.00  0.00     0.146 A 
BRANCH  20  25
ATOM     25  O   UNL A   1      33.982  25.460  21.772  1.00  0.00    -0.497 OA
ATOM     26  C   UNL A   1      33.189  26.646  21.735  1.00  0.00     0.278 C 
ENDBRANCH  20  25
BRANCH  24  27
ATOM     27  O   UNL A   1      34.707  21.726  24.820  1.00  0.00    -0.494 OA
ATOM     28  C   UNL A   1      36.099  21.444  24.654  1.00  0.00     0.278 C 
ENDBRANCH  24  27
ENDBRANCH  14  19
ENDBRANCH  12  13
ENDBRANCH   7  12
ENDBRANCH   3   6
ENDBRANCH   1   2
BRANCH   1  29
ATOM     29  C   UNL A   1      31.755  29.228  25.814  1.00  0.00     0.042 C 
BRANCH  29  30
ATOM     30  C   UNL A   1      33.082  29.785  26.326  1.00  0.00     0.118 C 
BRANCH  30  31
ATOM     31  N   UNL A   1      33.004  31.216  26.577  1.00  0.00    -0.352 N 
ATOM     32  C   UNL A   1      33.748  32.014  27.402  1.00  0.00     0.251 C 
ATOM     33  H   UNL A   1      32.303  31.686  26.069  1.00  0.00     0.163 HD
ATOM     34  O   UNL A   1      33.342  33.158  27.628  1.00  0.00    -0.269 OA
BRANCH  32  35
ATOM     35  C   UNL A   1      35.002  31.538  28.025  1.00  0.00     0.039 A 
ATOM     36  C   UNL A   1      35.010  30.269  28.613  1.00  0.00     0.014 A 
ATOM     37  C   UNL A   1      36.142  32.346  28.106  1.00  0.00     0.014 A 
ATOM     38  C   UNL A   1      36.160  29.802  29.250  1.00  0.00     0.010 A 
ATOM     39  C   UNL A   1      37.311  31.851  28.684  1.00  0.00     0.010 A 
ATOM     40  C   UNL A   1      37.328  30.580  29.275  1.00  0.00    -0.014 A 
BRANCH  40  41
ATOM     41  C   UNL A   1      38.560  30.063  29.925  1.00  0.00     0.031 A 
ATOM     42  C   UNL A   1      38.959  30.533  31.296  1.00  0.00     0.074 A 
ATOM     43  C   UNL A   1      39.326  29.174  29.262  1.00  0.00     0.049 A 
ATOM     44  N   UNL A   1      39.983  30.174  32.030  1.00  0.00    -0.248 NA
ATOM     45  C   UNL A   1      38.112  31.564  31.912  1.00  0.00     0.031 C 
ATOM     46  C   UNL A   1      39.063  28.684  27.906  1.00  0.00     0.029 A 
ATOM     47  N   UNL A   1      40.470  28.519  29.636  1.00  0.00    -0.354 N 
ATOM     48  C   UNL A   1      39.903  30.934  33.193  1.00  0.00     0.074 A 
ATOM     49  C   UNL A   1      38.772  31.824  33.030  1.00  0.00     0.031 C 
ATOM     50  C   UNL A   1      39.996  27.775  27.581  1.00  0.00     0.029 A 
ATOM     51  C   UNL A   1      40.940  27.643  28.685  1.00  0.00     0.049 A 
ATOM     52  H   UNL A   1      40.914  28.662  30.503  1.00  0.00     0.167 HD
ATOM     53  C   UNL A   1      40.685  30.878  34.302  1.00  0.00     0.034 A 
ATOM     54  C   UNL A   1      42.006  26.821  28.705  1.00  0.00     0.034 A 
ATOM     55  C   UNL A   1      41.811  29.984  34.441  1.00  0.00     0.049 A 
ATOM     56  C   UNL A   1      42.860  26.775  29.944  1.00  0.00     0.074 A 
ATOM     57  C   UNL A   1      42.651  29.812  35.529  1.00  0.00     0.029 A 
ATOM     58  N   UNL A   1      42.262  29.112  33.456  1.00  0.00    -0.354 N 
ATOM     59  N   UNL A   1      42.741  27.461  31.059  1.00  0.00    -0.248 NA
ATOM     60  C   UNL A   1      43.977  25.825  29.935  1.00  0.00     0.031 C 
ATOM     61  C   UNL A   1      43.644  28.888  35.178  1.00  0.00     0.029 A 
ATOM     62  C   UNL A   1      43.382  28.422  33.901  1.00  0.00     0.049 A 
ATOM     63  H   UNL A   1      41.847  29.000  32.571  1.00  0.00     0.167 HD
ATOM     64  C   UNL A   1      43.758  27.006  31.893  1.00  0.00     0.074 A 
ATOM     65  C   UNL A   1      44.456  25.968  31.161  1.00  0.00     0.031 C 
ATOM     66  C   UNL A   1      44.087  27.408  33.148  1.00  0.00     0.034 A 
BRANCH  53  67
ATOM     67  C   UNL A   1      40.356  31.832  35.429  1.00  0.00     0.023 A 
ATOM     68  C   UNL A   1      39.314  31.570  36.337  1.00  0.00     0.031 A 
ATOM     69  C   UNL A   1      41.061  33.040  35.575  1.00  0.00     0.131 A 
ATOM     70  C   UNL A   1      38.948  32.536  37.288  1.00  0.00     0.055 A 
ATOM     71  C   UNL A   1      40.749  33.959  36.581  1.00  0.00     0.041 A 
ATOM     72  F   UNL A   1      42.053  33.359  34.730  1.00  0.00    -0.206 F 
ATOM     73  C   UNL A   1      39.675  33.719  37.433  1.00  0.00     0.022 A 
BRANCH  70  74
ATOM     74  S   UNL A   1      37.408  32.297  38.218  1.00  0.00     0.124 S 
ATOM     75  O   UNL A   1      36.460  33.073  37.423  1.00  0.00    -0.237 OA
ATOM     76  O   UNL A   1      37.239  30.848  38.178  1.00  0.00    -0.237 OA
ATOM     77  O   UNL A   1      37.711  32.854  39.533  1.00  0.00    -0.744 OA
ENDBRANCH  70  74
ENDBRANCH  53  67
BRANCH  54  78
ATOM     78  C   UNL A   1      42.317  25.963  27.526  1.00  0.00     0.023 A 
ATOM     79  C   UNL A   1      41.899  24.624  27.477  1.00  0.00     0.031 A 
ATOM     80  C   UNL A   1      43.061  26.464  26.444  1.00  0.00     0.131 A 
ATOM     81  C   UNL A   1      42.264  23.818  26.388  1.00  0.00     0.055 A 
ATOM     82  C   UNL A   1      43.380  25.672  25.340  1.00  0.00     0.041 A 
ATOM     83  F   UNL A   1      43.475  27.741  26.436  1.00  0.00    -0.206 F 
ATOM     84  C   UNL A   1      42.992  24.336  25.313  1.00  0.00     0.022 A 
BRANCH  81  85
ATOM     85  S   UNL A   1      41.835  22.056  26.428  1.00  0.00     0.124 S 
ATOM     86  O   UNL A   1      42.678  21.519  25.367  1.00  0.00    -0.237 OA
ATOM     87  O   UNL A   1      42.205  21.687  27.791  1.00  0.00    -0.237 OA
ATOM     88  O   UNL A   1      40.400  22.050  26.151  1.00  0.00    -0.744 OA
ENDBRANCH  81  85
ENDBRANCH  54  78
BRANCH  66  89
ATOM     89  C   UNL A   1      45.242  26.690  33.805  1.00  0.00     0.023 A 
ATOM     90  C   UNL A   1      45.039  25.570  34.631  1.00  0.00     0.031 A 
ATOM     91  C   UNL A   1      46.555  27.167  33.652  1.00  0.00     0.131 A 
ATOM     92  C   UNL A   1      46.116  25.019  35.340  1.00  0.00     0.055 A 
ATOM     93  C   UNL A   1      47.635  26.567  34.303  1.00  0.00     0.041 A 
ATOM     94  F   UNL A   1      46.811  28.234  32.877  1.00  0.00    -0.206 F 
ATOM     95  C   UNL A   1      47.417  25.500  35.169  1.00  0.00     0.022 A 
BRANCH  92  96
ATOM     96  S   UNL A   1      45.772  23.757  36.598  1.00  0.00     0.124 S 
ATOM     97  O   UNL A   1      44.953  24.498  37.554  1.00  0.00    -0.237 OA
ATOM     98  O   UNL A   1      45.080  22.731  35.828  1.00  0.00    -0.237 OA
ATOM     99  O   UNL A   1      47.100  23.383  37.081  1.00  0.00    -0.744 OA
ENDBRANCH  92  96
ENDBRANCH  66  89
ENDBRANCH  40  41
ENDBRANCH  32  35
ENDBRANCH  30  31
ENDBRANCH  29  30
ENDBRANCH   1  29
TORSDOF 18
ENDMDL
MODEL 2
REMARK VINA RESULT:     -12.0      4.754      9.721
REMARK SMILES COc1ccc(NC(=O)NCc2ccc(C(=O)NCCCNC(=O)c3ccc(-c4c5nc(c(-c6cc(S(=O)(=O)[O-])ccc6F)c6ccc([nH]6)c(-c6cc(S(=O)(=O)[O-])ccc6F)c6nc(c(-c7cc(S(=O)(=O)[O-])ccc7F)c7ccc4[nH]7)C=C6)C=C5)cc3)cc2)c(OC)c1
REMARK SMILES IDX 19 1 18 2 16 3 17 4 15 6 12 7 13 8 89 9 14 10 88 11 11 12
REMARK SMILES IDX 10 13 7 14 8 15 9 17 6 19 3 20 4 21 93 22 5 23 90 24 2 25
REMARK SMILES IDX 1 26 91 27 92 28 20 29 21 30 22 31 23 32 24 34 25 35 26 36
REMARK SMILES IDX 87 37 27 38 86 39 28 40 29 41 30 42 80 43 31 44 85 45 79 46
REMARK SMILES IDX 81 47 32 48 84 49 78 50 77 51 33 53 65 54 45 55 64 56 46 57
REMARK SMILES IDX 49 58 63 59 82 60 47 61 48 62 62 64 83 65 50 66 34 67 35 68
REMARK SMILES IDX 43 69 36 70 42 71 44 72 41 73 37 74 38 75 39 76 40 77 66 78
REMARK SMILES IDX 67 79 75 80 68 81 74 82 76 83 73 84 69 85 70 86 71 87 72 88
REMARK SMILES IDX 51 89 52 90 60 91 53 92 59 93 61 94 58 95 54 96 55 97 56 98
REMARK SMILES IDX 57 99
REMARK H PARENT 18 5 7 16 10 18 22 33 81 52 49 63
REMARK Flexibility Score: inf
ROOT
ATOM      1  C   UNL A   1      35.412  21.622  24.491  1.00  0.00     0.118 C 
ENDROOT
BRANCH   1   2
ATOM      2  N   UNL A   1      34.208  20.810  24.414  1.00  0.00    -0.352 N 
ATOM      3  C   UNL A   1      32.958  21.047  23.895  1.00  0.00     0.251 C 
ATOM      4  O   UNL A   1      32.170  20.102  23.853  1.00  0.00    -0.269 OA
ATOM      5  H   UNL A   1      34.309  19.915  24.811  1.00  0.00     0.163 HD
BRANCH   3   6
ATOM      6  C   UNL A   1      32.527  22.367  23.350  1.00  0.00     0.039 A 
ATOM      7  C   UNL A   1      31.866  24.916  22.299  1.00  0.00    -0.029 A 
ATOM      8  C   UNL A   1      33.050  24.281  21.913  1.00  0.00     0.006 A 
ATOM      9  C   UNL A   1      31.000  24.235  23.170  1.00  0.00     0.006 A 
ATOM     10  C   UNL A   1      33.375  23.019  22.439  1.00  0.00     0.014 A 
ATOM     11  C   UNL A   1      31.313  22.970  23.664  1.00  0.00     0.014 A 
BRANCH   7  12
ATOM     12  C   UNL A   1      31.536  26.343  21.956  1.00  0.00     0.153 C 
BRANCH  12  13
ATOM     13  N   UNL A   1      32.635  27.244  21.719  1.00  0.00    -0.334 N 
ATOM     14  N   UNL A   1      33.936  27.512  23.718  1.00  0.00    -0.305 N 
ATOM     15  C   UNL A   1      33.696  27.685  22.407  1.00  0.00     0.319 C 
ATOM     16  H   UNL A   1      34.704  28.049  24.018  1.00  0.00     0.172 HD
ATOM     17  O   UNL A   1      34.479  28.411  21.781  1.00  0.00    -0.248 OA
ATOM     18  H   UNL A   1      32.597  27.637  20.816  1.00  0.00     0.165 HD
BRANCH  14  19
ATOM     19  C   UNL A   1      33.381  26.770  24.769  1.00  0.00     0.085 A 
ATOM     20  C   UNL A   1      31.897  25.187  26.538  1.00  0.00     0.122 A 
ATOM     21  C   UNL A   1      33.174  24.793  26.136  1.00  0.00     0.049 A 
ATOM     22  C   UNL A   1      31.453  26.466  26.216  1.00  0.00     0.095 A 
ATOM     23  C   UNL A   1      33.927  25.602  25.281  1.00  0.00     0.034 A 
ATOM     24  C   UNL A   1      32.226  27.280  25.382  1.00  0.00     0.146 A 
BRANCH  20  25
ATOM     25  O   UNL A   1      31.196  24.261  27.258  1.00  0.00    -0.497 OA
ATOM     26  C   UNL A   1      31.783  22.963  27.341  1.00  0.00     0.278 C 
ENDBRANCH  20  25
BRANCH  24  27
ATOM     27  O   UNL A   1      31.859  28.570  25.079  1.00  0.00    -0.494 OA
ATOM     28  C   UNL A   1      31.782  29.401  26.241  1.00  0.00     0.278 C 
ENDBRANCH  24  27
ENDBRANCH  14  19
ENDBRANCH  12  13
ENDBRANCH   7  12
ENDBRANCH   3   6
ENDBRANCH   1   2
BRANCH   1  29
ATOM     29  C   UNL A   1      35.474  22.429  25.790  1.00  0.00     0.042 C 
BRANCH  29  30
ATOM     30  C   UNL A   1      36.765  23.226  25.959  1.00  0.00     0.118 C 
BRANCH  30  31
ATOM     31  N   UNL A   1      37.930  22.356  26.026  1.00  0.00    -0.352 N 
ATOM     32  C   UNL A   1      39.238  22.644  26.303  1.00  0.00     0.251 C 
ATOM     33  H   UNL A   1      37.746  21.406  25.842  1.00  0.00     0.163 HD
ATOM     34  O   UNL A   1      40.089  21.780  26.066  1.00  0.00    -0.269 OA
BRANCH  32  35
ATOM     35  C   UNL A   1      39.648  23.951  26.862  1.00  0.00     0.039 A 
ATOM     36  C   UNL A   1      40.085  24.942  25.977  1.00  0.00     0.014 A 
ATOM     37  C   UNL A   1      39.679  24.190  28.240  1.00  0.00     0.014 A 
ATOM     38  C   UNL A   1      40.522  26.172  26.468  1.00  0.00     0.010 A 
ATOM     39  C   UNL A   1      40.053  25.443  28.725  1.00  0.00     0.010 A 
ATOM     40  C   UNL A   1      40.492  26.442  27.846  1.00  0.00    -0.014 A 
BRANCH  40  41
ATOM     41  C   UNL A   1      40.926  27.768  28.360  1.00  0.00     0.031 A 
ATOM     42  C   UNL A   1      42.384  28.133  28.403  1.00  0.00     0.074 A 
ATOM     43  C   UNL A   1      39.994  28.635  28.801  1.00  0.00     0.049 A 
ATOM     44  N   UNL A   1      42.947  29.250  28.792  1.00  0.00    -0.248 NA
ATOM     45  C   UNL A   1      43.336  27.097  27.981  1.00  0.00     0.031 C 
ATOM     46  C   UNL A   1      38.554  28.370  28.852  1.00  0.00     0.029 A 
ATOM     47  N   UNL A   1      40.113  29.914  29.279  1.00  0.00    -0.354 N 
ATOM     48  C   UNL A   1      44.317  29.051  28.663  1.00  0.00     0.074 A 
ATOM     49  C   UNL A   1      44.499  27.681  28.229  1.00  0.00     0.031 C 
ATOM     50  C   UNL A   1      37.921  29.468  29.294  1.00  0.00     0.029 A 
ATOM     51  C   UNL A   1      38.908  30.500  29.592  1.00  0.00     0.049 A 
ATOM     52  H   UNL A   1      40.978  30.371  29.388  1.00  0.00     0.167 HD
ATOM     53  C   UNL A   1      45.329  29.935  28.863  1.00  0.00     0.034 A 
ATOM     54  C   UNL A   1      38.631  31.732  30.058  1.00  0.00     0.034 A 
ATOM     55  C   UNL A   1      45.125  31.297  29.301  1.00  0.00     0.049 A 
ATOM     56  C   UNL A   1      39.767  32.696  30.273  1.00  0.00     0.074 A 
ATOM     57  C   UNL A   1      46.067  32.291  29.502  1.00  0.00     0.029 A 
ATOM     58  N   UNL A   1      43.891  31.856  29.612  1.00  0.00    -0.354 N 
ATOM     59  N   UNL A   1      41.056  32.512  30.095  1.00  0.00    -0.248 NA
ATOM     60  C   UNL A   1      39.406  34.042  30.732  1.00  0.00     0.031 C 
ATOM     61  C   UNL A   1      45.411  33.426  29.995  1.00  0.00     0.029 A 
ATOM     62  C   UNL A   1      44.051  33.171  30.029  1.00  0.00     0.049 A 
ATOM     63  H   UNL A   1      43.028  31.387  29.547  1.00  0.00     0.167 HD
ATOM     64  C   UNL A   1      41.657  33.729  30.398  1.00  0.00     0.074 A 
ATOM     65  C   UNL A   1      40.586  34.644  30.739  1.00  0.00     0.031 C 
ATOM     66  C   UNL A   1      42.974  34.064  30.395  1.00  0.00     0.034 A 
BRANCH  53  67
ATOM     67  C   UNL A   1      46.739  29.436  28.636  1.00  0.00     0.023 A 
ATOM     68  C   UNL A   1      47.228  29.168  27.344  1.00  0.00     0.031 A 
ATOM     69  C   UNL A   1      47.594  29.180  29.724  1.00  0.00     0.131 A 
ATOM     70  C   UNL A   1      48.492  28.581  27.177  1.00  0.00     0.055 A 
ATOM     71  C   UNL A   1      48.885  28.678  29.545  1.00  0.00     0.041 A 
ATOM     72  F   UNL A   1      47.181  29.396  30.982  1.00  0.00    -0.206 F 
ATOM     73  C   UNL A   1      49.335  28.357  28.267  1.00  0.00     0.022 A 
BRANCH  70  74
ATOM     74  S   UNL A   1      48.949  27.961  25.534  1.00  0.00     0.124 S 
ATOM     75  O   UNL A   1      49.109  26.532  25.791  1.00  0.00    -0.237 OA
ATOM     76  O   UNL A   1      47.796  28.339  24.723  1.00  0.00    -0.237 OA
ATOM     77  O   UNL A   1      50.186  28.674  25.229  1.00  0.00    -0.744 OA
ENDBRANCH  70  74
ENDBRANCH  53  67
BRANCH  54  78
ATOM     78  C   UNL A   1      37.221  32.132  30.334  1.00  0.00     0.023 A 
ATOM     79  C   UNL A   1      36.403  32.646  29.316  1.00  0.00     0.031 A 
ATOM     80  C   UNL A   1      36.682  32.032  31.629  1.00  0.00     0.131 A 
ATOM     81  C   UNL A   1      35.103  33.081  29.617  1.00  0.00     0.055 A 
ATOM     82  C   UNL A   1      35.371  32.419  31.913  1.00  0.00     0.041 A 
ATOM     83  F   UNL A   1      37.418  31.536  32.635  1.00  0.00    -0.206 F 
ATOM     84  C   UNL A   1      34.578  32.960  30.906  1.00  0.00     0.022 A 
BRANCH  81  85
ATOM     85  S   UNL A   1      34.129  33.876  28.310  1.00  0.00     0.124 S 
ATOM     86  O   UNL A   1      35.169  34.315  27.387  1.00  0.00    -0.237 OA
ATOM     87  O   UNL A   1      33.286  32.776  27.851  1.00  0.00    -0.237 OA
ATOM     88  O   UNL A   1      33.424  34.945  29.015  1.00  0.00    -0.744 OA
ENDBRANCH  81  85
ENDBRANCH  54  78
BRANCH  66  89
ATOM     89  C   UNL A   1      43.307  35.494  30.750  1.00  0.00     0.023 A 
ATOM     90  C   UNL A   1      43.409  36.493  29.765  1.00  0.00     0.031 A 
ATOM     91  C   UNL A   1      43.584  35.850  32.081  1.00  0.00     0.131 A 
ATOM     92  C   UNL A   1      43.862  37.774  30.112  1.00  0.00     0.055 A 
ATOM     93  C   UNL A   1      43.964  37.147  32.431  1.00  0.00     0.041 A 
ATOM     94  F   UNL A   1      43.505  34.939  33.065  1.00  0.00    -0.206 F 
ATOM     95  C   UNL A   1      44.126  38.112  31.442  1.00  0.00     0.022 A 
BRANCH  92  96
ATOM     96  S   UNL A   1      44.242  38.948  28.782  1.00  0.00     0.124 S 
ATOM     97  O   UNL A   1      43.193  39.950  28.953  1.00  0.00    -0.237 OA
ATOM     98  O   UNL A   1      45.594  39.377  29.124  1.00  0.00    -0.237 OA
ATOM     99  O   UNL A   1      44.134  38.139  27.569  1.00  0.00    -0.744 OA
ENDBRANCH  92  96
ENDBRANCH  66  89
ENDBRANCH  40  41
ENDBRANCH  32  35
ENDBRANCH  30  31
ENDBRANCH  29  30
ENDBRANCH   1  29
TORSDOF 18
ENDMDL
MODEL 3
REMARK VINA RESULT:     -12.0      2.067      2.461
REMARK SMILES COc1ccc(NC(=O)NCc2ccc(C(=O)NCCCNC(=O)c3ccc(-c4c5nc(c(-c6cc(S(=O)(=O)[O-])ccc6F)c6ccc([nH]6)c(-c6cc(S(=O)(=O)[O-])ccc6F)c6nc(c(-c7cc(S(=O)(=O)[O-])ccc7F)c7ccc4[nH]7)C=C6)C=C5)cc3)cc2)c(OC)c1
REMARK SMILES IDX 19 1 18 2 16 3 17 4 15 6 12 7 13 8 89 9 14 10 88 11 11 12
REMARK SMILES IDX 10 13 7 14 8 15 9 17 6 19 3 20 4 21 93 22 5 23 90 24 2 25
REMARK SMILES IDX 1 26 91 27 92 28 20 29 21 30 22 31 23 32 24 34 25 35 26 36
REMARK SMILES IDX 87 37 27 38 86 39 28 40 29 41 30 42 80 43 31 44 85 45 79 46
REMARK SMILES IDX 81 47 32 48 84 49 78 50 77 51 33 53 65 54 45 55 64 56 46 57
REMARK SMILES IDX 49 58 63 59 82 60 47 61 48 62 62 64 83 65 50 66 34 67 35 68
REMARK SMILES IDX 43 69 36 70 42 71 44 72 41 73 37 74 38 75 39 76 40 77 66 78
REMARK SMILES IDX 67 79 75 80 68 81 74 82 76 83 73 84 69 85 70 86 71 87 72 88
REMARK SMILES IDX 51 89 52 90 60 91 53 92 59 93 61 94 58 95 54 96 55 97 56 98
REMARK SMILES IDX 57 99
REMARK H PARENT 18 5 7 16 10 18 22 33 81 52 49 63
REMARK Flexibility Score: inf
ROOT
ATOM      1  C   UNL A   1      32.059  28.588  24.872  1.00  0.00     0.118 C 
ENDROOT
BRANCH   1   2
ATOM      2  N   UNL A   1      30.750  28.508  24.245  1.00  0.00    -0.352 N 
ATOM      3  C   UNL A   1      29.872  27.468  24.056  1.00  0.00     0.251 C 
ATOM      4  O   UNL A   1      28.759  27.737  23.603  1.00  0.00    -0.269 OA
ATOM      5  H   UNL A   1      30.430  29.366  23.885  1.00  0.00     0.163 HD
BRANCH   3   6
ATOM      6  C   UNL A   1      30.183  26.051  24.404  1.00  0.00     0.039 A 
ATOM      7  C   UNL A   1      30.826  23.411  25.214  1.00  0.00    -0.029 A 
ATOM      8  C   UNL A   1      30.438  24.362  26.160  1.00  0.00     0.006 A 
ATOM      9  C   UNL A   1      30.834  23.785  23.860  1.00  0.00     0.006 A 
ATOM     10  C   UNL A   1      30.123  25.670  25.756  1.00  0.00     0.014 A 
ATOM     11  C   UNL A   1      30.491  25.076  23.461  1.00  0.00     0.014 A 
BRANCH   7  12
ATOM     12  C   UNL A   1      31.379  22.058  25.569  1.00  0.00     0.153 C 
BRANCH  12  13
ATOM     13  N   UNL A   1      32.029  21.917  26.848  1.00  0.00    -0.334 N 
ATOM     14  N   UNL A   1      34.007  23.273  26.928  1.00  0.00    -0.305 N 
ATOM     15  C   UNL A   1      33.075  22.471  27.472  1.00  0.00     0.319 C 
ATOM     16  H   UNL A   1      34.752  23.435  27.551  1.00  0.00     0.172 HD
ATOM     17  O   UNL A   1      33.249  22.121  28.647  1.00  0.00    -0.248 OA
ATOM     18  H   UNL A   1      31.587  21.237  27.409  1.00  0.00     0.165 HD
BRANCH  14  19
ATOM     19  C   UNL A   1      34.197  23.938  25.709  1.00  0.00     0.085 A 
ATOM     20  C   UNL A   1      34.176  24.994  23.117  1.00  0.00     0.122 A 
ATOM     21  C   UNL A   1      33.950  25.819  24.220  1.00  0.00     0.049 A 
ATOM     22  C   UNL A   1      34.613  23.691  23.328  1.00  0.00     0.095 A 
ATOM     23  C   UNL A   1      33.995  25.297  25.515  1.00  0.00     0.034 A 
ATOM     24  C   UNL A   1      34.683  23.184  24.630  1.00  0.00     0.146 A 
BRANCH  20  25
ATOM     25  O   UNL A   1      33.968  25.575  21.898  1.00  0.00    -0.497 OA
ATOM     26  C   UNL A   1      33.359  26.865  21.917  1.00  0.00     0.278 C 
ENDBRANCH  20  25
BRANCH  24  27
ATOM     27  O   UNL A   1      35.160  21.922  24.896  1.00  0.00    -0.494 OA
ATOM     28  C   UNL A   1      36.482  21.722  24.387  1.00  0.00     0.278 C 
ENDBRANCH  24  27
ENDBRANCH  14  19
ENDBRANCH  12  13
ENDBRANCH   7  12
ENDBRANCH   3   6
ENDBRANCH   1   2
BRANCH   1  29
ATOM     29  C   UNL A   1      31.980  28.395  26.388  1.00  0.00     0.042 C 
BRANCH  29  30
ATOM     30  C   UNL A   1      33.235  28.843  27.133  1.00  0.00     0.118 C 
BRANCH  30  31
ATOM     31  N   UNL A   1      33.352  30.293  27.168  1.00  0.00    -0.352 N 
ATOM     32  C   UNL A   1      34.281  31.094  27.772  1.00  0.00     0.251 C 
ATOM     33  H   UNL A   1      32.647  30.775  26.676  1.00  0.00     0.163 HD
ATOM     34  O   UNL A   1      34.038  32.302  27.864  1.00  0.00    -0.269 OA
BRANCH  32  35
ATOM     35  C   UNL A   1      35.544  30.550  28.316  1.00  0.00     0.039 A 
ATOM     36  C   UNL A   1      36.721  30.755  27.590  1.00  0.00     0.014 A 
ATOM     37  C   UNL A   1      35.576  29.782  29.486  1.00  0.00     0.014 A 
ATOM     38  C   UNL A   1      37.926  30.220  28.047  1.00  0.00     0.010 A 
ATOM     39  C   UNL A   1      36.792  29.305  29.977  1.00  0.00     0.010 A 
ATOM     40  C   UNL A   1      37.976  29.506  29.255  1.00  0.00    -0.014 A 
BRANCH  40  41
ATOM     41  C   UNL A   1      39.269  28.969  29.756  1.00  0.00     0.031 A 
ATOM     42  C   UNL A   1      39.918  29.553  30.980  1.00  0.00     0.074 A 
ATOM     43  C   UNL A   1      39.860  27.959  29.089  1.00  0.00     0.049 A 
ATOM     44  N   UNL A   1      41.028  29.197  31.578  1.00  0.00    -0.248 NA
ATOM     45  C   UNL A   1      39.247  30.705  31.597  1.00  0.00     0.031 C 
ATOM     46  C   UNL A   1      39.346  27.347  27.861  1.00  0.00     0.029 A 
ATOM     47  N   UNL A   1      41.011  27.262  29.350  1.00  0.00    -0.354 N 
ATOM     48  C   UNL A   1      41.189  30.082  32.640  1.00  0.00     0.074 A 
ATOM     49  C   UNL A   1      40.100  31.033  32.556  1.00  0.00     0.031 C 
ATOM     50  C   UNL A   1      40.157  26.339  27.501  1.00  0.00     0.029 A 
ATOM     51  C   UNL A   1      41.264  26.255  28.447  1.00  0.00     0.049 A 
ATOM     52  H   UNL A   1      41.602  27.463  30.112  1.00  0.00     0.167 HD
ATOM     53  C   UNL A   1      42.141  30.086  33.608  1.00  0.00     0.034 A 
ATOM     54  C   UNL A   1      42.269  25.362  28.394  1.00  0.00     0.034 A 
ATOM     55  C   UNL A   1      43.221  29.129  33.670  1.00  0.00     0.049 A 
ATOM     56  C   UNL A   1      43.314  25.384  29.477  1.00  0.00     0.074 A 
ATOM     57  C   UNL A   1      44.221  29.012  34.622  1.00  0.00     0.029 A 
ATOM     58  N   UNL A   1      43.449  28.124  32.736  1.00  0.00    -0.354 N 
ATOM     59  N   UNL A   1      43.424  26.193  30.507  1.00  0.00    -0.248 NA
ATOM     60  C   UNL A   1      44.358  24.356  29.401  1.00  0.00     0.031 C 
ATOM     61  C   UNL A   1      45.085  27.983  34.229  1.00  0.00     0.029 A 
ATOM     62  C   UNL A   1      44.586  27.403  33.075  1.00  0.00     0.049 A 
ATOM     63  H   UNL A   1      42.886  27.950  31.949  1.00  0.00     0.167 HD
ATOM     64  C   UNL A   1      44.538  25.755  31.215  1.00  0.00     0.074 A 
ATOM     65  C   UNL A   1      45.043  24.594  30.510  1.00  0.00     0.031 C 
ATOM     66  C   UNL A   1      45.096  26.263  32.345  1.00  0.00     0.034 A 
BRANCH  53  67
ATOM     67  C   UNL A   1      42.061  31.178  34.652  1.00  0.00     0.023 A 
ATOM     68  C   UNL A   1      42.777  32.382  34.517  1.00  0.00     0.031 A 
ATOM     69  C   UNL A   1      41.298  31.000  35.820  1.00  0.00     0.131 A 
ATOM     70  C   UNL A   1      42.788  33.317  35.565  1.00  0.00     0.055 A 
ATOM     71  C   UNL A   1      41.241  31.974  36.821  1.00  0.00     0.041 A 
ATOM     72  F   UNL A   1      40.607  29.866  36.019  1.00  0.00    -0.206 F 
ATOM     73  C   UNL A   1      42.004  33.132  36.705  1.00  0.00     0.022 A 
BRANCH  70  74
ATOM     74  S   UNL A   1      43.967  34.693  35.486  1.00  0.00     0.124 S 
ATOM     75  O   UNL A   1      44.553  34.504  34.161  1.00  0.00    -0.237 OA
ATOM     76  O   UNL A   1      43.103  35.858  35.643  1.00  0.00    -0.237 OA
ATOM     77  O   UNL A   1      44.873  34.433  36.602  1.00  0.00    -0.744 OA
ENDBRANCH  70  74
ENDBRANCH  53  67
BRANCH  54  78
ATOM     78  C   UNL A   1      42.328  24.361  27.290  1.00  0.00     0.023 A 
ATOM     79  C   UNL A   1      41.575  23.178  27.347  1.00  0.00     0.031 A 
ATOM     80  C   UNL A   1      43.161  24.562  26.176  1.00  0.00     0.131 A 
ATOM     81  C   UNL A   1      41.701  22.219  26.330  1.00  0.00     0.055 A 
ATOM     82  C   UNL A   1      43.245  23.628  25.142  1.00  0.00     0.041 A 
ATOM     83  F   UNL A   1      43.892  25.682  26.067  1.00  0.00    -0.206 F 
ATOM     84  C   UNL A   1      42.522  22.442  25.222  1.00  0.00     0.022 A 
BRANCH  81  85
ATOM     85  S   UNL A   1      40.828  20.640  26.511  1.00  0.00     0.124 S 
ATOM     86  O   UNL A   1      40.944  20.397  27.944  1.00  0.00    -0.237 OA
ATOM     87  O   UNL A   1      39.494  20.976  26.022  1.00  0.00    -0.237 OA
ATOM     88  O   UNL A   1      41.591  19.731  25.658  1.00  0.00    -0.744 OA
ENDBRANCH  81  85
ENDBRANCH  54  78
BRANCH  66  89
ATOM     89  C   UNL A   1      46.302  25.534  32.889  1.00  0.00     0.023 A 
ATOM     90  C   UNL A   1      46.170  24.475  33.805  1.00  0.00     0.031 A 
ATOM     91  C   UNL A   1      47.599  25.941  32.533  1.00  0.00     0.131 A 
ATOM     92  C   UNL A   1      47.312  23.919  34.400  1.00  0.00     0.055 A 
ATOM     93  C   UNL A   1      48.734  25.333  33.074  1.00  0.00     0.041 A 
ATOM     94  F   UNL A   1      47.787  26.947  31.664  1.00  0.00    -0.206 F 
ATOM     95  C   UNL A   1      48.595  24.330  34.028  1.00  0.00     0.022 A 
BRANCH  92  96
ATOM     96  S   UNL A   1      47.094  22.752  35.772  1.00  0.00     0.124 S 
ATOM     97  O   UNL A   1      48.232  23.074  36.629  1.00  0.00    -0.237 OA
ATOM     98  O   UNL A   1      45.781  23.122  36.289  1.00  0.00    -0.237 OA
ATOM     99  O   UNL A   1      47.159  21.443  35.123  1.00  0.00    -0.744 OA
ENDBRANCH  92  96
ENDBRANCH  66  89
ENDBRANCH  40  41
ENDBRANCH  32  35
ENDBRANCH  30  31
ENDBRANCH  29  30
ENDBRANCH   1  29
TORSDOF 18
ENDMDL
