MODEL 1
REMARK VINA RESULT:     -12.4      0.000      0.000
REMARK SMILES O=C(NCCCNC(=O)[C@H](CCc1ccccn1)c1ccccc1Br)c1ccc(-c2c3nc(c(-c4cc(S(=O)(=O)[O-])ccc4F)c4ccc([nH]4)c(-c4cc(S(=O)(=O)[O-])ccc4F)c4nc(c(-c5cc(S(=O)(=O)[O-])ccc5F)c5ccc2[nH]5)C=C4)C=C3)cc1
REMARK SMILES IDX 5 1 4 2 3 3 1 4 2 5 26 7 27 8 88 9 28 10 87 11 29 12 30 13
REMARK SMILES IDX 31 14 81 15 32 16 86 17 80 18 82 19 33 20 85 21 79 22 78 23
REMARK SMILES IDX 34 25 66 26 46 27 65 28 47 29 50 30 64 31 83 32 48 33 49 34
REMARK SMILES IDX 63 36 84 37 51 38 35 39 36 40 44 41 37 42 43 43 45 44 42 45
REMARK SMILES IDX 38 46 39 47 40 48 41 49 67 50 68 51 76 52 69 53 75 54 77 55
REMARK SMILES IDX 74 56 70 57 71 58 72 59 73 60 52 61 53 62 61 63 54 64 60 65
REMARK SMILES IDX 62 66 59 67 55 68 56 69 57 70 58 71 6 72 7 73 8 74 9 76
REMARK SMILES IDX 10 77 19 78 20 79 24 80 21 81 23 82 25 83 22 84 11 85 12 86
REMARK SMILES IDX 13 87 14 88 18 89 15 90 17 91 16 92
REMARK H PARENT 3 6 82 24 50 35 7 75
REMARK Flexibility Score: inf
ROOT
ATOM      1  C   UNL A   1      36.909  22.166  24.002  1.00  0.00     0.042 C 
ENDROOT
BRANCH   1   2
ATOM      2  C   UNL A   1      37.153  21.753  25.445  1.00  0.00     0.118 C 
BRANCH   2   3
ATOM      3  N   UNL A   1      38.202  20.748  25.616  1.00  0.00    -0.352 N 
ATOM      4  O   UNL A   1      40.224  19.919  26.210  1.00  0.00    -0.269 OA
ATOM      5  C   UNL A   1      39.449  20.862  26.200  1.00  0.00     0.251 C 
ATOM      6  H   UNL A   1      37.986  19.856  25.263  1.00  0.00     0.163 HD
BRANCH   5   7
ATOM      7  C   UNL A   1      39.845  22.165  26.773  1.00  0.00     0.039 A 
ATOM      8  C   UNL A   1      39.295  23.336  26.263  1.00  0.00     0.014 A 
ATOM      9  C   UNL A   1      40.850  22.223  27.741  1.00  0.00     0.014 A 
ATOM     10  C   UNL A   1      39.937  24.538  26.496  1.00  0.00     0.010 A 
ATOM     11  C   UNL A   1      41.377  23.466  28.112  1.00  0.00     0.010 A 
ATOM     12  C   UNL A   1      40.966  24.631  27.447  1.00  0.00    -0.014 A 
BRANCH  12  13
ATOM     13  C   UNL A   1      41.542  25.970  27.744  1.00  0.00     0.031 A 
ATOM     14  C   UNL A   1      40.791  26.989  28.560  1.00  0.00     0.074 A 
ATOM     15  C   UNL A   1      42.795  26.231  27.315  1.00  0.00     0.049 A 
ATOM     16  N   UNL A   1      41.146  28.207  28.884  1.00  0.00    -0.248 NA
ATOM     17  C   UNL A   1      39.467  26.600  29.068  1.00  0.00     0.031 C 
ATOM     18  C   UNL A   1      43.619  25.310  26.522  1.00  0.00     0.029 A 
ATOM     19  N   UNL A   1      43.613  27.312  27.510  1.00  0.00    -0.354 N 
ATOM     20  C   UNL A   1      40.077  28.745  29.596  1.00  0.00     0.074 A 
ATOM     21  C   UNL A   1      39.054  27.722  29.643  1.00  0.00     0.031 C 
ATOM     22  C   UNL A   1      44.846  25.822  26.380  1.00  0.00     0.029 A 
ATOM     23  C   UNL A   1      44.862  27.159  26.954  1.00  0.00     0.049 A 
ATOM     24  H   UNL A   1      43.335  28.119  27.999  1.00  0.00     0.167 HD
ATOM     25  C   UNL A   1      39.968  29.978  30.152  1.00  0.00     0.034 A 
ATOM     26  C   UNL A   1      45.899  28.013  26.870  1.00  0.00     0.034 A 
ATOM     27  C   UNL A   1      41.018  30.970  30.106  1.00  0.00     0.049 A 
ATOM     28  C   UNL A   1      45.738  29.381  27.464  1.00  0.00     0.074 A 
ATOM     29  C   UNL A   1      41.028  32.244  30.652  1.00  0.00     0.029 A 
ATOM     30  N   UNL A   1      42.247  30.804  29.478  1.00  0.00    -0.354 N 
ATOM     31  N   UNL A   1      44.708  29.882  28.107  1.00  0.00    -0.248 NA
ATOM     32  C   UNL A   1      46.867  30.302  27.311  1.00  0.00     0.031 C 
ATOM     33  C   UNL A   1      42.231  32.866  30.297  1.00  0.00     0.029 A 
ATOM     34  C   UNL A   1      43.007  31.958  29.595  1.00  0.00     0.049 A 
ATOM     35  H   UNL A   1      42.537  29.983  29.017  1.00  0.00     0.167 HD
ATOM     36  C   UNL A   1      45.067  31.182  28.436  1.00  0.00     0.074 A 
ATOM     37  C   UNL A   1      46.420  31.373  27.950  1.00  0.00     0.031 C 
ATOM     38  C   UNL A   1      44.343  32.135  29.076  1.00  0.00     0.034 A 
BRANCH  25  39
ATOM     39  C   UNL A   1      38.651  30.343  30.800  1.00  0.00     0.023 A 
ATOM     40  C   UNL A   1      37.620  30.986  30.093  1.00  0.00     0.031 A 
ATOM     41  C   UNL A   1      38.429  30.050  32.159  1.00  0.00     0.131 A 
ATOM     42  C   UNL A   1      36.445  31.373  30.761  1.00  0.00     0.055 A 
ATOM     43  C   UNL A   1      37.230  30.370  32.799  1.00  0.00     0.041 A 
ATOM     44  F   UNL A   1      39.382  29.454  32.893  1.00  0.00    -0.206 F 
ATOM     45  C   UNL A   1      36.233  31.047  32.103  1.00  0.00     0.022 A 
BRANCH  42  46
ATOM     46  S   UNL A   1      35.253  32.424  29.887  1.00  0.00     0.124 S 
ATOM     47  O   UNL A   1      36.098  33.533  29.448  1.00  0.00    -0.237 OA
ATOM     48  O   UNL A   1      34.764  31.539  28.835  1.00  0.00    -0.237 OA
ATOM     49  O   UNL A   1      34.275  32.767  30.918  1.00  0.00    -0.744 OA
ENDBRANCH  42  46
ENDBRANCH  25  39
BRANCH  26  50
ATOM     50  C   UNL A   1      47.134  27.615  26.138  1.00  0.00     0.023 A 
ATOM     51  C   UNL A   1      47.271  27.847  24.762  1.00  0.00     0.031 A 
ATOM     52  C   UNL A   1      48.204  26.997  26.813  1.00  0.00     0.131 A 
ATOM     53  C   UNL A   1      48.442  27.444  24.101  1.00  0.00     0.055 A 
ATOM     54  C   UNL A   1      49.389  26.652  26.163  1.00  0.00     0.041 A 
ATOM     55  F   UNL A   1      48.126  26.754  28.131  1.00  0.00    -0.206 F 
ATOM     56  C   UNL A   1      49.508  26.866  24.795  1.00  0.00     0.022 A 
BRANCH  53  57
ATOM     57  S   UNL A   1      48.528  27.624  22.299  1.00  0.00     0.124 S 
ATOM     58  O   UNL A   1      49.757  28.392  22.134  1.00  0.00    -0.237 OA
ATOM     59  O   UNL A   1      48.576  26.233  21.858  1.00  0.00    -0.237 OA
ATOM     60  O   UNL A   1      47.297  28.338  21.969  1.00  0.00    -0.744 OA
ENDBRANCH  53  57
ENDBRANCH  26  50
BRANCH  38  61
ATOM     61  C   UNL A   1      45.030  33.457  29.297  1.00  0.00     0.023 A 
ATOM     62  C   UNL A   1      44.935  34.497  28.356  1.00  0.00     0.031 A 
ATOM     63  C   UNL A   1      45.820  33.663  30.441  1.00  0.00     0.131 A 
ATOM     64  C   UNL A   1      45.669  35.677  28.547  1.00  0.00     0.055 A 
ATOM     65  C   UNL A   1      46.499  34.863  30.654  1.00  0.00     0.041 A 
ATOM     66  F   UNL A   1      45.946  32.699  31.367  1.00  0.00    -0.206 F 
ATOM     67  C   UNL A   1      46.438  35.872  29.698  1.00  0.00     0.022 A 
BRANCH  64  68
ATOM     68  S   UNL A   1      45.679  36.917  27.224  1.00  0.00     0.124 S 
ATOM     69  O   UNL A   1      44.255  37.175  27.040  1.00  0.00    -0.237 OA
ATOM     70  O   UNL A   1      46.453  38.002  27.817  1.00  0.00    -0.237 OA
ATOM     71  O   UNL A   1      46.333  36.226  26.113  1.00  0.00    -0.744 OA
ENDBRANCH  64  68
ENDBRANCH  38  61
ENDBRANCH  12  13
ENDBRANCH   5   7
ENDBRANCH   2   3
ENDBRANCH   1   2
BRANCH   1  72
ATOM     72  C   UNL A   1      36.014  23.379  23.894  1.00  0.00     0.117 C 
BRANCH  72  73
ATOM     73  N   UNL A   1      35.137  23.346  22.740  1.00  0.00    -0.356 N 
ATOM     74  C   UNL A   1      33.810  23.097  22.635  1.00  0.00     0.227 C 
ATOM     75  H   UNL A   1      35.583  23.540  21.884  1.00  0.00     0.163 HD
ATOM     76  O   UNL A   1      33.265  23.454  21.583  1.00  0.00    -0.274 OA
BRANCH  74  77
ATOM     77  C   UNL A   1      33.002  22.398  23.729  1.00  0.00     0.110 C 
BRANCH  77  78
ATOM     78  C   UNL A   1      32.065  23.418  24.393  1.00  0.00    -0.021 A 
ATOM     79  C   UNL A   1      31.047  24.060  23.671  1.00  0.00     0.006 A 
ATOM     80  C   UNL A   1      32.292  23.857  25.725  1.00  0.00     0.021 A 
ATOM     81  C   UNL A   1      30.360  25.156  24.211  1.00  0.00     0.000 A 
ATOM     82  C   UNL A   1      31.598  24.948  26.260  1.00  0.00     0.016 A 
ATOM     83  Br  UNL A   1      33.531  23.028  26.915  1.00  0.00    -0.051 Br
ATOM     84  C   UNL A   1      30.648  25.612  25.494  1.00  0.00     0.001 A 
ENDBRANCH  77  78
BRANCH  77  85
ATOM     85  C   UNL A   1      32.559  20.926  23.492  1.00  0.00     0.025 C 
BRANCH  85  86
ATOM     86  C   UNL A   1      32.223  19.923  24.608  1.00  0.00     0.057 C 
BRANCH  86  87
ATOM     87  C   UNL A   1      32.771  18.507  24.627  1.00  0.00     0.040 A 
ATOM     88  C   UNL A   1      33.562  17.942  23.633  1.00  0.00     0.024 A 
ATOM     89  N   UNL A   1      32.347  17.754  25.676  1.00  0.00    -0.261 NA
ATOM     90  C   UNL A   1      33.849  16.575  23.661  1.00  0.00     0.003 A 
ATOM     91  C   UNL A   1      32.680  16.441  25.710  1.00  0.00     0.111 A 
ATOM     92  C   UNL A   1      33.401  15.804  24.721  1.00  0.00     0.020 A 
ENDBRANCH  86  87
ENDBRANCH  85  86
ENDBRANCH  77  85
ENDBRANCH  74  77
ENDBRANCH  72  73
ENDBRANCH   1  72
TORSDOF 17
ENDMDL
MODEL 2
REMARK VINA RESULT:     -12.3      6.067     11.317
REMARK SMILES O=C(NCCCNC(=O)[C@H](CCc1ccccn1)c1ccccc1Br)c1ccc(-c2c3nc(c(-c4cc(S(=O)(=O)[O-])ccc4F)c4ccc([nH]4)c(-c4cc(S(=O)(=O)[O-])ccc4F)c4nc(c(-c5cc(S(=O)(=O)[O-])ccc5F)c5ccc2[nH]5)C=C4)C=C3)cc1
REMARK SMILES IDX 5 1 4 2 3 3 1 4 2 5 26 7 27 8 88 9 28 10 87 11 29 12 30 13
REMARK SMILES IDX 31 14 81 15 32 16 86 17 80 18 82 19 33 20 85 21 79 22 78 23
REMARK SMILES IDX 34 25 66 26 46 27 65 28 47 29 50 30 64 31 83 32 48 33 49 34
REMARK SMILES IDX 63 36 84 37 51 38 35 39 36 40 44 41 37 42 43 43 45 44 42 45
REMARK SMILES IDX 38 46 39 47 40 48 41 49 67 50 68 51 76 52 69 53 75 54 77 55
REMARK SMILES IDX 74 56 70 57 71 58 72 59 73 60 52 61 53 62 61 63 54 64 60 65
REMARK SMILES IDX 62 66 59 67 55 68 56 69 57 70 58 71 6 72 7 73 8 74 9 76
REMARK SMILES IDX 10 77 19 78 20 79 24 80 21 81 23 82 25 83 22 84 11 85 12 86
REMARK SMILES IDX 13 87 14 88 18 89 15 90 17 91 16 92
REMARK H PARENT 3 6 82 24 50 35 7 75
REMARK Flexibility Score: inf
ROOT
ATOM      1  C   UNL A   1      32.057  31.099  26.705  1.00  0.00     0.042 C 
ENDROOT
BRANCH   1   2
ATOM      2  C   UNL A   1      33.157  31.985  27.268  1.00  0.00     0.118 C 
BRANCH   2   3
ATOM      3  N   UNL A   1      32.753  33.368  27.515  1.00  0.00    -0.352 N 
ATOM      4  O   UNL A   1      32.735  35.390  28.535  1.00  0.00    -0.269 OA
ATOM      5  C   UNL A   1      33.233  34.280  28.435  1.00  0.00     0.251 C 
ATOM      6  H   UNL A   1      32.029  33.701  26.937  1.00  0.00     0.163 HD
BRANCH   5   7
ATOM      7  C   UNL A   1      34.333  33.867  29.331  1.00  0.00     0.039 A 
ATOM      8  C   UNL A   1      35.642  34.221  29.019  1.00  0.00     0.014 A 
ATOM      9  C   UNL A   1      34.070  33.033  30.418  1.00  0.00     0.014 A 
ATOM     10  C   UNL A   1      36.684  33.520  29.599  1.00  0.00     0.010 A 
ATOM     11  C   UNL A   1      35.136  32.465  31.125  1.00  0.00     0.010 A 
ATOM     12  C   UNL A   1      36.454  32.656  30.683  1.00  0.00    -0.014 A 
BRANCH  12  13
ATOM     13  C   UNL A   1      37.624  32.019  31.344  1.00  0.00     0.031 A 
ATOM     14  C   UNL A   1      38.432  30.949  30.659  1.00  0.00     0.074 A 
ATOM     15  C   UNL A   1      37.990  32.474  32.561  1.00  0.00     0.049 A 
ATOM     16  N   UNL A   1      39.463  30.281  31.111  1.00  0.00    -0.248 NA
ATOM     17  C   UNL A   1      38.026  30.567  29.298  1.00  0.00     0.031 C 
ATOM     18  C   UNL A   1      37.282  33.517  33.314  1.00  0.00     0.029 A 
ATOM     19  N   UNL A   1      39.055  32.162  33.363  1.00  0.00    -0.354 N 
ATOM     20  C   UNL A   1      39.804  29.373  30.113  1.00  0.00     0.074 A 
ATOM     21  C   UNL A   1      38.858  29.568  29.035  1.00  0.00     0.031 C 
ATOM     22  C   UNL A   1      37.979  33.821  34.414  1.00  0.00     0.029 A 
ATOM     23  C   UNL A   1      39.109  32.909  34.517  1.00  0.00     0.049 A 
ATOM     24  H   UNL A   1      39.717  31.470  33.137  1.00  0.00     0.167 HD
ATOM     25  C   UNL A   1      40.812  28.464  30.105  1.00  0.00     0.034 A 
ATOM     26  C   UNL A   1      39.945  32.846  35.569  1.00  0.00     0.034 A 
ATOM     27  C   UNL A   1      41.755  28.309  31.190  1.00  0.00     0.049 A 
ATOM     28  C   UNL A   1      41.030  31.810  35.549  1.00  0.00     0.074 A 
ATOM     29  C   UNL A   1      42.828  27.438  31.284  1.00  0.00     0.029 A 
ATOM     30  N   UNL A   1      41.739  29.040  32.372  1.00  0.00    -0.354 N 
ATOM     31  N   UNL A   1      41.317  30.939  34.608  1.00  0.00    -0.248 NA
ATOM     32  C   UNL A   1      41.891  31.735  36.732  1.00  0.00     0.031 C 
ATOM     33  C   UNL A   1      43.417  27.597  32.544  1.00  0.00     0.029 A 
ATOM     34  C   UNL A   1      42.761  28.620  33.211  1.00  0.00     0.049 A 
ATOM     35  H   UNL A   1      41.096  29.756  32.583  1.00  0.00     0.167 HD
ATOM     36  C   UNL A   1      42.397  30.211  35.088  1.00  0.00     0.074 A 
ATOM     37  C   UNL A   1      42.728  30.768  36.386  1.00  0.00     0.031 C 
ATOM     38  C   UNL A   1      43.053  29.172  34.513  1.00  0.00     0.034 A 
BRANCH  25  39
ATOM     39  C   UNL A   1      40.908  27.530  28.919  1.00  0.00     0.023 A 
ATOM     40  C   UNL A   1      41.877  27.690  27.914  1.00  0.00     0.031 A 
ATOM     41  C   UNL A   1      39.998  26.463  28.788  1.00  0.00     0.131 A 
ATOM     42  C   UNL A   1      41.874  26.840  26.794  1.00  0.00     0.055 A 
ATOM     43  C   UNL A   1      40.047  25.577  27.711  1.00  0.00     0.041 A 
ATOM     44  F   UNL A   1      39.037  26.270  29.705  1.00  0.00    -0.206 F 
ATOM     45  C   UNL A   1      40.981  25.770  26.698  1.00  0.00     0.022 A 
BRANCH  42  46
ATOM     46  S   UNL A   1      42.967  27.233  25.401  1.00  0.00     0.124 S 
ATOM     47  O   UNL A   1      42.215  28.284  24.718  1.00  0.00    -0.237 OA
ATOM     48  O   UNL A   1      44.192  27.658  26.070  1.00  0.00    -0.237 OA
ATOM     49  O   UNL A   1      43.061  25.971  24.670  1.00  0.00    -0.744 OA
ENDBRANCH  42  46
ENDBRANCH  25  39
BRANCH  26  50
ATOM     50  C   UNL A   1      39.735  33.740  36.743  1.00  0.00     0.023 A 
ATOM     51  C   UNL A   1      39.123  33.272  37.914  1.00  0.00     0.031 A 
ATOM     52  C   UNL A   1      40.152  35.084  36.708  1.00  0.00     0.131 A 
ATOM     53  C   UNL A   1      38.926  34.146  38.994  1.00  0.00     0.055 A 
ATOM     54  C   UNL A   1      40.007  35.933  37.805  1.00  0.00     0.041 A 
ATOM     55  F   UNL A   1      40.746  35.583  35.612  1.00  0.00    -0.206 F 
ATOM     56  C   UNL A   1      39.380  35.467  38.955  1.00  0.00     0.022 A 
BRANCH  53  57
ATOM     57  S   UNL A   1      38.000  33.551  40.435  1.00  0.00     0.124 S 
ATOM     58  O   UNL A   1      36.834  32.938  39.808  1.00  0.00    -0.237 OA
ATOM     59  O   UNL A   1      38.954  32.634  41.050  1.00  0.00    -0.237 OA
ATOM     60  O   UNL A   1      37.732  34.770  41.194  1.00  0.00    -0.744 OA
ENDBRANCH  53  57
ENDBRANCH  26  50
BRANCH  38  61
ATOM     61  C   UNL A   1      44.207  28.599  35.293  1.00  0.00     0.023 A 
ATOM     62  C   UNL A   1      44.022  27.550  36.212  1.00  0.00     0.031 A 
ATOM     63  C   UNL A   1      45.498  29.134  35.145  1.00  0.00     0.131 A 
ATOM     64  C   UNL A   1      45.100  27.110  36.993  1.00  0.00     0.055 A 
ATOM     65  C   UNL A   1      46.580  28.650  35.882  1.00  0.00     0.041 A 
ATOM     66  F   UNL A   1      45.727  30.138  34.284  1.00  0.00    -0.206 F 
ATOM     67  C   UNL A   1      46.381  27.643  36.822  1.00  0.00     0.022 A 
BRANCH  64  68
ATOM     68  S   UNL A   1      44.785  25.896  38.302  1.00  0.00     0.124 S 
ATOM     69  O   UNL A   1      44.273  24.760  37.544  1.00  0.00    -0.237 OA
ATOM     70  O   UNL A   1      46.108  25.724  38.894  1.00  0.00    -0.237 OA
ATOM     71  O   UNL A   1      43.806  26.563  39.159  1.00  0.00    -0.744 OA
ENDBRANCH  64  68
ENDBRANCH  38  61
ENDBRANCH  12  13
ENDBRANCH   5   7
ENDBRANCH   2   3
ENDBRANCH   1   2
BRANCH   1  72
ATOM     72  C   UNL A   1      32.549  29.708  26.379  1.00  0.00     0.117 C 
BRANCH  72  73
ATOM     73  N   UNL A   1      33.390  29.657  25.199  1.00  0.00    -0.356 N 
ATOM     74  C   UNL A   1      33.239  29.002  24.024  1.00  0.00     0.227 C 
ATOM     75  H   UNL A   1      34.213  30.193  25.263  1.00  0.00     0.163 HD
ATOM     76  O   UNL A   1      33.938  29.395  23.082  1.00  0.00    -0.274 OA
BRANCH  74  77
ATOM     77  C   UNL A   1      32.279  27.826  23.840  1.00  0.00     0.110 C 
BRANCH  77  78
ATOM     78  C   UNL A   1      33.017  26.517  24.160  1.00  0.00    -0.021 A 
ATOM     79  C   UNL A   1      33.513  26.249  25.446  1.00  0.00     0.006 A 
ATOM     80  C   UNL A   1      33.353  25.599  23.130  1.00  0.00     0.021 A 
ATOM     81  C   UNL A   1      34.387  25.178  25.672  1.00  0.00     0.000 A 
ATOM     82  C   UNL A   1      34.221  24.528  23.365  1.00  0.00     0.016 A 
ATOM     83  Br  UNL A   1      32.670  25.708  21.351  1.00  0.00    -0.051 Br
ATOM     84  C   UNL A   1      34.757  24.331  24.632  1.00  0.00     0.001 A 
ENDBRANCH  77  78
BRANCH  77  85
ATOM     85  C   UNL A   1      30.784  28.028  24.221  1.00  0.00     0.025 C 
BRANCH  85  86
ATOM     86  C   UNL A   1      29.651  28.285  23.214  1.00  0.00     0.057 C 
BRANCH  86  87
ATOM     87  C   UNL A   1      29.223  29.683  22.804  1.00  0.00     0.040 A 
ATOM     88  C   UNL A   1      29.263  30.805  23.625  1.00  0.00     0.024 A 
ATOM     89  N   UNL A   1      28.685  29.763  21.559  1.00  0.00    -0.261 NA
ATOM     90  C   UNL A   1      28.667  31.997  23.207  1.00  0.00     0.003 A 
ATOM     91  C   UNL A   1      28.159  30.944  21.153  1.00  0.00     0.111 A 
ATOM     92  C   UNL A   1      28.102  32.073  21.945  1.00  0.00     0.020 A 
ENDBRANCH  86  87
ENDBRANCH  85  86
ENDBRANCH  77  85
ENDBRANCH  74  77
ENDBRANCH  72  73
ENDBRANCH   1  72
TORSDOF 17
ENDMDL
MODEL 3
REMARK VINA RESULT:     -12.2      2.177      2.781
REMARK SMILES O=C(NCCCNC(=O)[C@H](CCc1ccccn1)c1ccccc1Br)c1ccc(-c2c3nc(c(-c4cc(S(=O)(=O)[O-])ccc4F)c4ccc([nH]4)c(-c4cc(S(=O)(=O)[O-])ccc4F)c4nc(c(-c5cc(S(=O)(=O)[O-])ccc5F)c5ccc2[nH]5)C=C4)C=C3)cc1
REMARK SMILES IDX 5 1 4 2 3 3 1 4 2 5 26 7 27 8 88 9 28 10 87 11 29 12 30 13
REMARK SMILES IDX 31 14 81 15 32 16 86 17 80 18 82 19 33 20 85 21 79 22 78 23
REMARK SMILES IDX 34 25 66 26 46 27 65 28 47 29 50 30 64 31 83 32 48 33 49 34
REMARK SMILES IDX 63 36 84 37 51 38 35 39 36 40 44 41 37 42 43 43 45 44 42 45
REMARK SMILES IDX 38 46 39 47 40 48 41 49 67 50 68 51 76 52 69 53 75 54 77 55
REMARK SMILES IDX 74 56 70 57 71 58 72 59 73 60 52 61 53 62 61 63 54 64 60 65
REMARK SMILES IDX 62 66 59 67 55 68 56 69 57 70 58 71 6 72 7 73 8 74 9 76
REMARK SMILES IDX 10 77 19 78 20 79 24 80 21 81 23 82 25 83 22 84 11 85 12 86
REMARK SMILES IDX 13 87 14 88 18 89 15 90 17 91 16 92
REMARK H PARENT 3 6 82 24 50 35 7 75
REMARK Flexibility Score: inf
ROOT
ATOM      1  C   UNL A   1      37.658  20.750  25.098  1.00  0.00     0.042 C 
ENDROOT
BRANCH   1   2
ATOM      2  C   UNL A   1      38.994  20.971  25.790  1.00  0.00     0.118 C 
BRANCH   2   3
ATOM      3  N   UNL A   1      39.839  19.780  25.866  1.00  0.00    -0.352 N 
ATOM      4  O   UNL A   1      41.752  18.585  26.073  1.00  0.00    -0.269 OA
ATOM      5  C   UNL A   1      41.198  19.673  26.094  1.00  0.00     0.251 C 
ATOM      6  H   UNL A   1      39.369  18.926  25.737  1.00  0.00     0.163 HD
BRANCH   5   7
ATOM      7  C   UNL A   1      41.977  20.909  26.317  1.00  0.00     0.039 A 
ATOM      8  C   UNL A   1      42.195  21.359  27.615  1.00  0.00     0.014 A 
ATOM      9  C   UNL A   1      42.392  21.676  25.227  1.00  0.00     0.014 A 
ATOM     10  C   UNL A   1      42.551  22.680  27.818  1.00  0.00     0.010 A 
ATOM     11  C   UNL A   1      42.927  22.951  25.446  1.00  0.00     0.010 A 
ATOM     12  C   UNL A   1      42.955  23.488  26.742  1.00  0.00    -0.014 A 
BRANCH  12  13
ATOM     13  C   UNL A   1      43.442  24.864  27.031  1.00  0.00     0.031 A 
ATOM     14  C   UNL A   1      42.539  25.909  27.633  1.00  0.00     0.074 A 
ATOM     15  C   UNL A   1      44.743  25.138  26.802  1.00  0.00     0.049 A 
ATOM     16  N   UNL A   1      42.807  27.158  27.921  1.00  0.00    -0.248 NA
ATOM     17  C   UNL A   1      41.158  25.510  27.938  1.00  0.00     0.031 C 
ATOM     18  C   UNL A   1      45.710  24.194  26.228  1.00  0.00     0.029 A 
ATOM     19  N   UNL A   1      45.491  26.258  27.050  1.00  0.00    -0.354 N 
ATOM     20  C   UNL A   1      41.621  27.707  28.401  1.00  0.00     0.074 A 
ATOM     21  C   UNL A   1      40.628  26.654  28.351  1.00  0.00     0.031 C 
ATOM     22  C   UNL A   1      46.932  24.738  26.257  1.00  0.00     0.029 A 
ATOM     23  C   UNL A   1      46.820  26.111  26.725  1.00  0.00     0.049 A 
ATOM     24  H   UNL A   1      45.116  27.087  27.425  1.00  0.00     0.167 HD
ATOM     25  C   UNL A   1      41.390  28.971  28.839  1.00  0.00     0.034 A 
ATOM     26  C   UNL A   1      47.836  26.993  26.753  1.00  0.00     0.034 A 
ATOM     27  C   UNL A   1      42.410  29.994  28.897  1.00  0.00     0.049 A 
ATOM     28  C   UNL A   1      47.545  28.392  27.210  1.00  0.00     0.074 A 
ATOM     29  C   UNL A   1      42.298  31.301  29.340  1.00  0.00     0.029 A 
ATOM     30  N   UNL A   1      43.731  29.827  28.497  1.00  0.00    -0.354 N 
ATOM     31  N   UNL A   1      46.409  28.900  27.631  1.00  0.00    -0.248 NA
ATOM     32  C   UNL A   1      48.663  29.340  27.181  1.00  0.00     0.031 C 
ATOM     33  C   UNL A   1      43.529  31.940  29.148  1.00  0.00     0.029 A 
ATOM     34  C   UNL A   1      44.433  31.012  28.655  1.00  0.00     0.049 A 
ATOM     35  H   UNL A   1      44.114  28.988  28.153  1.00  0.00     0.167 HD
ATOM     36  C   UNL A   1      46.678  30.231  27.919  1.00  0.00     0.074 A 
ATOM     37  C   UNL A   1      48.089  30.435  27.655  1.00  0.00     0.031 C 
ATOM     38  C   UNL A   1      45.834  31.200  28.357  1.00  0.00     0.034 A 
BRANCH  25  39
ATOM     39  C   UNL A   1      39.974  29.333  29.227  1.00  0.00     0.023 A 
ATOM     40  C   UNL A   1      39.558  29.403  30.568  1.00  0.00     0.031 A 
ATOM     41  C   UNL A   1      39.017  29.601  28.230  1.00  0.00     0.131 A 
ATOM     42  C   UNL A   1      38.212  29.669  30.873  1.00  0.00     0.055 A 
ATOM     43  C   UNL A   1      37.698  29.937  28.541  1.00  0.00     0.041 A 
ATOM     44  F   UNL A   1      39.347  29.530  26.930  1.00  0.00    -0.206 F 
ATOM     45  C   UNL A   1      37.285  29.960  29.869  1.00  0.00     0.022 A 
BRANCH  42  46
ATOM     46  S   UNL A   1      37.659  29.499  32.592  1.00  0.00     0.124 S 
ATOM     47  O   UNL A   1      37.700  28.049  32.777  1.00  0.00    -0.237 OA
ATOM     48  O   UNL A   1      38.663  30.263  33.324  1.00  0.00    -0.237 OA
ATOM     49  O   UNL A   1      36.318  30.079  32.582  1.00  0.00    -0.744 OA
ENDBRANCH  42  46
ENDBRANCH  25  39
BRANCH  26  50
ATOM     50  C   UNL A   1      49.187  26.589  26.271  1.00  0.00     0.023 A 
ATOM     51  C   UNL A   1      49.711  27.090  25.071  1.00  0.00     0.031 A 
ATOM     52  C   UNL A   1      49.978  25.692  27.013  1.00  0.00     0.131 A 
ATOM     53  C   UNL A   1      50.980  26.676  24.638  1.00  0.00     0.055 A 
ATOM     54  C   UNL A   1      51.262  25.328  26.608  1.00  0.00     0.041 A 
ATOM     55  F   UNL A   1      49.525  25.183  28.170  1.00  0.00    -0.206 F 
ATOM     56  C   UNL A   1      51.766  25.813  25.407  1.00  0.00     0.022 A 
BRANCH  53  57
ATOM     57  S   UNL A   1      51.566  27.226  23.013  1.00  0.00     0.124 S 
ATOM     58  O   UNL A   1      51.797  28.648  23.246  1.00  0.00    -0.237 OA
ATOM     59  O   UNL A   1      52.757  26.404  22.826  1.00  0.00    -0.237 OA
ATOM     60  O   UNL A   1      50.449  26.913  22.124  1.00  0.00    -0.744 OA
ENDBRANCH  53  57
ENDBRANCH  26  50
BRANCH  38  61
ATOM     61  C   UNL A   1      46.443  32.558  28.591  1.00  0.00     0.023 A 
ATOM     62  C   UNL A   1      46.618  33.473  27.539  1.00  0.00     0.031 A 
ATOM     63  C   UNL A   1      46.889  32.922  29.873  1.00  0.00     0.131 A 
ATOM     64  C   UNL A   1      47.280  34.687  27.775  1.00  0.00     0.055 A 
ATOM     65  C   UNL A   1      47.492  34.157  30.114  1.00  0.00     0.041 A 
ATOM     66  F   UNL A   1      46.749  32.081  30.910  1.00  0.00    -0.206 F 
ATOM     67  C   UNL A   1      47.703  35.041  29.060  1.00  0.00     0.022 A 
BRANCH  64  68
ATOM     68  S   UNL A   1      47.662  35.757  26.362  1.00  0.00     0.124 S 
ATOM     69  O   UNL A   1      47.619  34.815  25.249  1.00  0.00    -0.237 OA
ATOM     70  O   UNL A   1      46.583  36.738  26.411  1.00  0.00    -0.237 OA
ATOM     71  O   UNL A   1      48.990  36.281  26.680  1.00  0.00    -0.744 OA
ENDBRANCH  64  68
ENDBRANCH  38  61
ENDBRANCH  12  13
ENDBRANCH   5   7
ENDBRANCH   2   3
ENDBRANCH   1   2
BRANCH   1  72
ATOM     72  C   UNL A   1      36.730  21.934  25.247  1.00  0.00     0.117 C 
BRANCH  72  73
ATOM     73  N   UNL A   1      35.934  21.891  26.458  1.00  0.00    -0.356 N 
ATOM     74  C   UNL A   1      34.595  21.796  26.642  1.00  0.00     0.227 C 
ATOM     75  H   UNL A   1      36.457  21.938  27.291  1.00  0.00     0.163 HD
ATOM     76  O   UNL A   1      34.219  21.453  27.769  1.00  0.00    -0.274 OA
BRANCH  74  77
ATOM     77  C   UNL A   1      33.577  22.105  25.545  1.00  0.00     0.110 C 
BRANCH  77  78
ATOM     78  C   UNL A   1      33.325  23.620  25.501  1.00  0.00    -0.021 A 
ATOM     79  C   UNL A   1      34.294  24.512  25.016  1.00  0.00     0.006 A 
ATOM     80  C   UNL A   1      32.161  24.183  26.090  1.00  0.00     0.021 A 
ATOM     81  C   UNL A   1      34.159  25.894  25.202  1.00  0.00     0.000 A 
ATOM     82  C   UNL A   1      32.031  25.564  26.266  1.00  0.00     0.016 A 
ATOM     83  Br  UNL A   1      30.671  23.149  26.685  1.00  0.00    -0.051 Br
ATOM     84  C   UNL A   1      33.041  26.418  25.843  1.00  0.00     0.001 A 
ENDBRANCH  77  78
BRANCH  77  85
ATOM     85  C   UNL A   1      33.613  21.252  24.244  1.00  0.00     0.025 C 
BRANCH  85  86
ATOM     86  C   UNL A   1      32.732  20.020  23.980  1.00  0.00     0.057 C 
BRANCH  86  87
ATOM     87  C   UNL A   1      33.118  18.625  24.440  1.00  0.00     0.040 A 
ATOM     88  C   UNL A   1      34.223  17.911  23.987  1.00  0.00     0.024 A 
ATOM     89  N   UNL A   1      32.229  18.047  25.290  1.00  0.00    -0.261 NA
ATOM     90  C   UNL A   1      34.373  16.566  24.333  1.00  0.00     0.003 A 
ATOM     91  C   UNL A   1      32.423  16.757  25.653  1.00  0.00     0.111 A 
ATOM     92  C   UNL A   1      33.458  15.972  25.184  1.00  0.00     0.020 A 
ENDBRANCH  86  87
ENDBRANCH  85  86
ENDBRANCH  77  85
ENDBRANCH  74  77
ENDBRANCH  72  73
ENDBRANCH   1  72
TORSDOF 17
ENDMDL
