MODEL 1
REMARK VINA RESULT:     -10.9      0.000      0.000
REMARK SMILES CC(=O)N[C@H](CC(=O)NCC(=O)NCCCNC(=O)c1ccc(-c2c3nc(c(-c4cc(S(=O)(=O)[O-])ccc4F)c4ccc([nH]4)c(-c4cc(S(=O)(=O)[O-])ccc4F)c4nc(c(-c5cc(S(=O)(=O)[O-])ccc5F)c5ccc2[nH]5)C=C4)C=C3)cc1)c1cccs1
REMARK SMILES IDX 14 1 13 2 11 3 12 4 10 6 9 7 7 8 8 9 6 11 5 12 4 13 1 14
REMARK SMILES IDX 2 15 3 16 83 18 84 19 87 20 85 21 86 22 15 23 16 24 17 25
REMARK SMILES IDX 18 26 19 28 20 29 21 30 82 31 22 32 81 33 23 34 24 35 25 36
REMARK SMILES IDX 75 37 26 38 80 39 74 40 76 41 27 42 79 43 73 44 72 45 28 47
REMARK SMILES IDX 60 48 40 49 59 50 41 51 44 52 58 53 77 54 42 55 43 56 57 58
REMARK SMILES IDX 78 59 45 60 29 61 30 62 38 63 31 64 37 65 39 66 36 67 32 68
REMARK SMILES IDX 33 69 34 70 35 71 61 72 62 73 70 74 63 75 69 76 71 77 68 78
REMARK SMILES IDX 64 79 65 80 66 81 67 82 46 83 47 84 55 85 48 86 54 87 56 88
REMARK SMILES IDX 53 89 49 90 50 91 51 92 52 93
REMARK H PARENT 13 5 9 10 4 17 17 27 76 46 44 57
REMARK Flexibility Score: inf
ROOT
ATOM      1  C   UNL A   1      31.313  29.821  24.725  1.00  0.00     0.117 C 
ENDROOT
BRANCH   1   2
ATOM      2  N   UNL A   1      30.603  30.064  23.488  1.00  0.00    -0.355 N 
ATOM      3  C   UNL A   1      30.192  29.152  22.555  1.00  0.00     0.239 C 
ATOM      4  O   UNL A   1      29.361  29.513  21.718  1.00  0.00    -0.273 OA
ATOM      5  H   UNL A   1      30.390  31.005  23.292  1.00  0.00     0.163 HD
BRANCH   3   6
ATOM      6  C   UNL A   1      30.616  27.677  22.659  1.00  0.00     0.216 C 
BRANCH   6   7
ATOM      7  N   UNL A   1      31.823  27.364  21.909  1.00  0.00    -0.347 N 
ATOM      8  C   UNL A   1      32.514  26.200  21.775  1.00  0.00     0.222 C 
ATOM      9  O   UNL A   1      33.482  26.203  21.014  1.00  0.00    -0.275 OA
ATOM     10  H   UNL A   1      32.206  28.124  21.415  1.00  0.00     0.164 HD
BRANCH   8  11
ATOM     11  C   UNL A   1      32.081  24.937  22.494  1.00  0.00     0.130 C 
BRANCH  11  12
ATOM     12  C   UNL A   1      32.871  24.602  23.768  1.00  0.00     0.131 C 
BRANCH  12  13
ATOM     13  N   UNL A   1      34.270  24.295  23.485  1.00  0.00    -0.348 N 
ATOM     14  C   UNL A   1      34.181  21.912  24.132  1.00  0.00     0.114 C 
ATOM     15  C   UNL A   1      34.942  23.124  23.665  1.00  0.00     0.217 C 
ATOM     16  O   UNL A   1      36.149  23.070  23.434  1.00  0.00    -0.275 OA
ATOM     17  H   UNL A   1      34.800  25.037  23.113  1.00  0.00     0.164 HD
ENDBRANCH  12  13
BRANCH  12  18
ATOM     18  C   UNL A   1      32.872  25.649  24.867  1.00  0.00     0.027 A 
ATOM     19  C   UNL A   1      33.870  26.576  25.129  1.00  0.00     0.017 A 
ATOM     20  S   UNL A   1      31.555  25.867  25.946  1.00  0.00    -0.147 S 
ATOM     21  C   UNL A   1      33.598  27.377  26.274  1.00  0.00     0.012 A 
ATOM     22  C   UNL A   1      32.380  27.070  26.835  1.00  0.00     0.065 A 
ENDBRANCH  12  18
ENDBRANCH  11  12
ENDBRANCH   8  11
ENDBRANCH   6   7
ENDBRANCH   3   6
ENDBRANCH   1   2
BRANCH   1  23
ATOM     23  C   UNL A   1      31.016  30.834  25.815  1.00  0.00     0.042 C 
BRANCH  23  24
ATOM     24  C   UNL A   1      32.269  31.342  26.513  1.00  0.00     0.118 C 
BRANCH  24  25
ATOM     25  N   UNL A   1      32.189  32.760  26.854  1.00  0.00    -0.352 N 
ATOM     26  C   UNL A   1      32.915  33.530  27.731  1.00  0.00     0.251 C 
ATOM     27  H   UNL A   1      31.489  33.253  26.367  1.00  0.00     0.163 HD
ATOM     28  O   UNL A   1      32.503  34.653  28.005  1.00  0.00    -0.269 OA
BRANCH  26  29
ATOM     29  C   UNL A   1      34.156  33.020  28.360  1.00  0.00     0.039 A 
ATOM     30  C   UNL A   1      35.323  33.789  28.290  1.00  0.00     0.014 A 
ATOM     31  C   UNL A   1      34.194  31.772  28.983  1.00  0.00     0.014 A 
ATOM     32  C   UNL A   1      36.495  33.342  28.910  1.00  0.00     0.010 A 
ATOM     33  C   UNL A   1      35.324  31.381  29.692  1.00  0.00     0.010 A 
ATOM     34  C   UNL A   1      36.493  32.153  29.654  1.00  0.00    -0.014 A 
BRANCH  34  35
ATOM     35  C   UNL A   1      37.700  31.655  30.366  1.00  0.00     0.031 A 
ATOM     36  C   UNL A   1      38.579  30.626  29.704  1.00  0.00     0.074 A 
ATOM     37  C   UNL A   1      37.949  32.043  31.633  1.00  0.00     0.049 A 
ATOM     38  N   UNL A   1      39.555  29.914  30.207  1.00  0.00    -0.248 NA
ATOM     39  C   UNL A   1      38.282  30.322  28.295  1.00  0.00     0.031 C 
ATOM     40  C   UNL A   1      37.153  33.006  32.397  1.00  0.00     0.029 A 
ATOM     41  N   UNL A   1      38.932  31.657  32.509  1.00  0.00    -0.354 N 
ATOM     42  C   UNL A   1      39.959  29.054  29.191  1.00  0.00     0.074 A 
ATOM     43  C   UNL A   1      39.079  29.292  28.067  1.00  0.00     0.031 C 
ATOM     44  C   UNL A   1      37.690  33.148  33.620  1.00  0.00     0.029 A 
ATOM     45  C   UNL A   1      38.833  32.249  33.747  1.00  0.00     0.049 A 
ATOM     46  H   UNL A   1      39.643  31.017  32.274  1.00  0.00     0.167 HD
ATOM     47  C   UNL A   1      40.983  28.164  29.189  1.00  0.00     0.034 A 
ATOM     48  C   UNL A   1      39.566  32.071  34.864  1.00  0.00     0.034 A 
ATOM     49  C   UNL A   1      41.875  27.972  30.305  1.00  0.00     0.049 A 
ATOM     50  C   UNL A   1      40.704  31.083  34.837  1.00  0.00     0.074 A 
ATOM     51  C   UNL A   1      42.984  27.147  30.393  1.00  0.00     0.029 A 
ATOM     52  N   UNL A   1      41.763  28.618  31.531  1.00  0.00    -0.354 N 
ATOM     53  N   UNL A   1      41.094  30.296  33.861  1.00  0.00    -0.248 NA
ATOM     54  C   UNL A   1      41.507  30.966  36.062  1.00  0.00     0.031 C 
ATOM     55  C   UNL A   1      43.508  27.252  31.687  1.00  0.00     0.029 A 
ATOM     56  C   UNL A   1      42.770  28.195  32.386  1.00  0.00     0.049 A 
ATOM     57  H   UNL A   1      41.071  29.278  31.759  1.00  0.00     0.167 HD
ATOM     58  C   UNL A   1      42.207  29.614  34.344  1.00  0.00     0.074 A 
ATOM     59  C   UNL A   1      42.432  30.093  35.693  1.00  0.00     0.031 C 
ATOM     60  C   UNL A   1      42.977  28.680  33.730  1.00  0.00     0.034 A 
BRANCH  47  61
ATOM     61  C   UNL A   1      41.171  27.325  27.946  1.00  0.00     0.023 A 
ATOM     62  C   UNL A   1      40.793  25.972  27.903  1.00  0.00     0.031 A 
ATOM     63  C   UNL A   1      41.777  27.873  26.801  1.00  0.00     0.131 A 
ATOM     64  C   UNL A   1      41.107  25.191  26.780  1.00  0.00     0.055 A 
ATOM     65  C   UNL A   1      42.003  27.112  25.652  1.00  0.00     0.041 A 
ATOM     66  F   UNL A   1      42.178  29.154  26.786  1.00  0.00    -0.206 F 
ATOM     67  C   UNL A   1      41.685  25.757  25.643  1.00  0.00     0.022 A 
BRANCH  64  68
ATOM     68  S   UNL A   1      40.894  23.393  26.894  1.00  0.00     0.124 S 
ATOM     69  O   UNL A   1      41.291  23.137  28.277  1.00  0.00    -0.237 OA
ATOM     70  O   UNL A   1      39.477  23.222  26.595  1.00  0.00    -0.237 OA
ATOM     71  O   UNL A   1      41.813  22.874  25.884  1.00  0.00    -0.744 OA
ENDBRANCH  64  68
ENDBRANCH  47  61
BRANCH  48  72
ATOM     72  C   UNL A   1      39.250  32.833  36.106  1.00  0.00     0.023 A 
ATOM     73  C   UNL A   1      39.762  34.124  36.307  1.00  0.00     0.031 A 
ATOM     74  C   UNL A   1      38.466  32.267  37.127  1.00  0.00     0.131 A 
ATOM     75  C   UNL A   1      39.525  34.790  37.520  1.00  0.00     0.055 A 
ATOM     76  C   UNL A   1      38.190  32.954  38.311  1.00  0.00     0.041 A 
ATOM     77  F   UNL A   1      37.946  31.038  36.982  1.00  0.00    -0.206 F 
ATOM     78  C   UNL A   1      38.733  34.219  38.518  1.00  0.00     0.022 A 
BRANCH  75  79
ATOM     79  S   UNL A   1      40.340  36.385  37.805  1.00  0.00     0.124 S 
ATOM     80  O   UNL A   1      41.492  35.992  38.607  1.00  0.00    -0.237 OA
ATOM     81  O   UNL A   1      40.626  36.826  36.444  1.00  0.00    -0.237 OA
ATOM     82  O   UNL A   1      39.324  37.165  38.509  1.00  0.00    -0.744 OA
ENDBRANCH  75  79
ENDBRANCH  48  72
BRANCH  60  83
ATOM     83  C   UNL A   1      44.164  28.159  34.499  1.00  0.00     0.023 A 
ATOM     84  C   UNL A   1      44.068  27.037  35.339  1.00  0.00     0.031 A 
ATOM     85  C   UNL A   1      45.409  28.807  34.397  1.00  0.00     0.131 A 
ATOM     86  C   UNL A   1      45.182  26.626  36.087  1.00  0.00     0.055 A 
ATOM     87  C   UNL A   1      46.528  28.360  35.098  1.00  0.00     0.041 A 
ATOM     88  F   UNL A   1      45.555  29.885  33.610  1.00  0.00    -0.206 F 
ATOM     89  C   UNL A   1      46.416  27.272  35.960  1.00  0.00     0.022 A 
BRANCH  86  90
ATOM     90  S   UNL A   1      44.978  25.292  37.297  1.00  0.00     0.124 S 
ATOM     91  O   UNL A   1      43.943  25.832  38.173  1.00  0.00    -0.237 OA
ATOM     92  O   UNL A   1      44.577  24.167  36.456  1.00  0.00    -0.237 OA
ATOM     93  O   UNL A   1      46.302  25.170  37.902  1.00  0.00    -0.744 OA
ENDBRANCH  86  90
ENDBRANCH  60  83
ENDBRANCH  34  35
ENDBRANCH  26  29
ENDBRANCH  24  25
ENDBRANCH  23  24
ENDBRANCH   1  23
TORSDOF 18
ENDMDL
MODEL 2
REMARK VINA RESULT:     -10.8      2.299      3.033
REMARK SMILES CC(=O)N[C@H](CC(=O)NCC(=O)NCCCNC(=O)c1ccc(-c2c3nc(c(-c4cc(S(=O)(=O)[O-])ccc4F)c4ccc([nH]4)c(-c4cc(S(=O)(=O)[O-])ccc4F)c4nc(c(-c5cc(S(=O)(=O)[O-])ccc5F)c5ccc2[nH]5)C=C4)C=C3)cc1)c1cccs1
REMARK SMILES IDX 14 1 13 2 11 3 12 4 10 6 9 7 7 8 8 9 6 11 5 12 4 13 1 14
REMARK SMILES IDX 2 15 3 16 83 18 84 19 87 20 85 21 86 22 15 23 16 24 17 25
REMARK SMILES IDX 18 26 19 28 20 29 21 30 82 31 22 32 81 33 23 34 24 35 25 36
REMARK SMILES IDX 75 37 26 38 80 39 74 40 76 41 27 42 79 43 73 44 72 45 28 47
REMARK SMILES IDX 60 48 40 49 59 50 41 51 44 52 58 53 77 54 42 55 43 56 57 58
REMARK SMILES IDX 78 59 45 60 29 61 30 62 38 63 31 64 37 65 39 66 36 67 32 68
REMARK SMILES IDX 33 69 34 70 35 71 61 72 62 73 70 74 63 75 69 76 71 77 68 78
REMARK SMILES IDX 64 79 65 80 66 81 67 82 46 83 47 84 55 85 48 86 54 87 56 88
REMARK SMILES IDX 53 89 49 90 50 91 51 92 52 93
REMARK H PARENT 13 5 9 10 4 17 17 27 76 46 44 57
REMARK Flexibility Score: inf
ROOT
ATOM      1  C   UNL A   1      33.268  26.804  25.083  1.00  0.00     0.117 C 
ENDROOT
BRANCH   1   2
ATOM      2  N   UNL A   1      33.756  26.507  23.753  1.00  0.00    -0.355 N 
ATOM      3  C   UNL A   1      33.289  25.573  22.869  1.00  0.00     0.239 C 
ATOM      4  O   UNL A   1      33.644  25.661  21.691  1.00  0.00    -0.273 OA
ATOM      5  H   UNL A   1      34.522  27.044  23.446  1.00  0.00     0.163 HD
BRANCH   3   6
ATOM      6  C   UNL A   1      32.215  24.557  23.295  1.00  0.00     0.216 C 
BRANCH   6   7
ATOM      7  N   UNL A   1      32.234  23.329  22.516  1.00  0.00    -0.347 N 
ATOM      8  C   UNL A   1      32.176  22.026  22.902  1.00  0.00     0.222 C 
ATOM      9  O   UNL A   1      32.146  21.174  22.014  1.00  0.00    -0.275 OA
ATOM     10  H   UNL A   1      32.303  23.463  21.543  1.00  0.00     0.164 HD
BRANCH   8  11
ATOM     11  C   UNL A   1      32.101  21.639  24.367  1.00  0.00     0.130 C 
BRANCH  11  12
ATOM     12  C   UNL A   1      33.398  21.075  24.966  1.00  0.00     0.131 C 
BRANCH  12  13
ATOM     13  N   UNL A   1      33.873  19.898  24.244  1.00  0.00    -0.348 N 
ATOM     14  C   UNL A   1      32.878  18.212  25.750  1.00  0.00     0.114 C 
ATOM     15  C   UNL A   1      33.719  18.582  24.558  1.00  0.00     0.217 C 
ATOM     16  O   UNL A   1      34.254  17.721  23.862  1.00  0.00    -0.275 OA
ATOM     17  H   UNL A   1      34.374  20.082  23.416  1.00  0.00     0.164 HD
ENDBRANCH  12  13
BRANCH  12  18
ATOM     18  C   UNL A   1      34.576  22.027  25.063  1.00  0.00     0.027 A 
ATOM     19  C   UNL A   1      35.617  22.155  24.155  1.00  0.00     0.017 A 
ATOM     20  S   UNL A   1      34.756  23.158  26.342  1.00  0.00    -0.147 S 
ATOM     21  C   UNL A   1      36.604  23.094  24.571  1.00  0.00     0.012 A 
ATOM     22  C   UNL A   1      36.273  23.689  25.765  1.00  0.00     0.065 A 
ENDBRANCH  12  18
ENDBRANCH  11  12
ENDBRANCH   8  11
ENDBRANCH   6   7
ENDBRANCH   3   6
ENDBRANCH   1   2
BRANCH   1  23
ATOM     23  C   UNL A   1      32.457  28.084  25.169  1.00  0.00     0.042 C 
BRANCH  23  24
ATOM     24  C   UNL A   1      33.307  29.337  25.022  1.00  0.00     0.118 C 
BRANCH  24  25
ATOM     25  N   UNL A   1      32.662  30.524  25.576  1.00  0.00    -0.352 N 
ATOM     26  C   UNL A   1      32.885  31.227  26.737  1.00  0.00     0.251 C 
ATOM     27  H   UNL A   1      31.936  30.887  25.017  1.00  0.00     0.163 HD
ATOM     28  O   UNL A   1      32.054  32.059  27.086  1.00  0.00    -0.269 OA
BRANCH  26  29
ATOM     29  C   UNL A   1      34.084  30.978  27.571  1.00  0.00     0.039 A 
ATOM     30  C   UNL A   1      34.314  29.690  28.068  1.00  0.00     0.014 A 
ATOM     31  C   UNL A   1      34.962  32.008  27.905  1.00  0.00     0.014 A 
ATOM     32  C   UNL A   1      35.460  29.426  28.825  1.00  0.00     0.010 A 
ATOM     33  C   UNL A   1      36.154  31.724  28.561  1.00  0.00     0.010 A 
ATOM     34  C   UNL A   1      36.413  30.433  29.042  1.00  0.00    -0.014 A 
BRANCH  34  35
ATOM     35  C   UNL A   1      37.666  30.193  29.805  1.00  0.00     0.031 A 
ATOM     36  C   UNL A   1      38.734  29.308  29.216  1.00  0.00     0.074 A 
ATOM     37  C   UNL A   1      37.803  30.677  31.056  1.00  0.00     0.049 A 
ATOM     38  N   UNL A   1      39.805  28.807  29.777  1.00  0.00    -0.248 NA
ATOM     39  C   UNL A   1      38.540  28.892  27.819  1.00  0.00     0.031 C 
ATOM     40  C   UNL A   1      36.825  31.516  31.752  1.00  0.00     0.029 A 
ATOM     41  N   UNL A   1      38.811  30.514  31.972  1.00  0.00    -0.354 N 
ATOM     42  C   UNL A   1      40.387  27.987  28.816  1.00  0.00     0.074 A 
ATOM     43  C   UNL A   1      39.515  28.011  27.661  1.00  0.00     0.031 C 
ATOM     44  C   UNL A   1      37.290  31.808  32.978  1.00  0.00     0.029 A 
ATOM     45  C   UNL A   1      38.571  31.136  33.176  1.00  0.00     0.049 A 
ATOM     46  H   UNL A   1      39.631  30.002  31.787  1.00  0.00     0.167 HD
ATOM     47  C   UNL A   1      41.553  27.296  28.881  1.00  0.00     0.034 A 
ATOM     48  C   UNL A   1      39.289  31.144  34.317  1.00  0.00     0.034 A 
ATOM     49  C   UNL A   1      42.430  27.319  30.026  1.00  0.00     0.049 A 
ATOM     50  C   UNL A   1      40.584  30.375  34.366  1.00  0.00     0.074 A 
ATOM     51  C   UNL A   1      43.664  26.710  30.181  1.00  0.00     0.029 A 
ATOM     52  N   UNL A   1      42.167  27.989  31.214  1.00  0.00    -0.354 N 
ATOM     53  N   UNL A   1      41.138  29.627  33.440  1.00  0.00    -0.248 NA
ATOM     54  C   UNL A   1      41.357  30.461  35.612  1.00  0.00     0.031 C 
ATOM     55  C   UNL A   1      44.121  26.967  31.479  1.00  0.00     0.029 A 
ATOM     56  C   UNL A   1      43.206  27.794  32.111  1.00  0.00     0.049 A 
ATOM     57  H   UNL A   1      41.361  28.525  31.393  1.00  0.00     0.167 HD
ATOM     58  C   UNL A   1      42.338  29.178  33.982  1.00  0.00     0.074 A 
ATOM     59  C   UNL A   1      42.434  29.751  35.309  1.00  0.00     0.031 C 
ATOM     60  C   UNL A   1      43.281  28.370  33.434  1.00  0.00     0.034 A 
BRANCH  47  61
ATOM     61  C   UNL A   1      41.925  26.447  27.687  1.00  0.00     0.023 A 
ATOM     62  C   UNL A   1      41.548  25.097  27.593  1.00  0.00     0.031 A 
ATOM     63  C   UNL A   1      42.706  26.984  26.648  1.00  0.00     0.131 A 
ATOM     64  C   UNL A   1      42.027  24.306  26.537  1.00  0.00     0.055 A 
ATOM     65  C   UNL A   1      43.103  26.214  25.552  1.00  0.00     0.041 A 
ATOM     66  F   UNL A   1      43.115  28.262  26.689  1.00  0.00    -0.206 F 
ATOM     67  C   UNL A   1      42.779  24.861  25.501  1.00  0.00     0.022 A 
BRANCH  64  68
ATOM     68  S   UNL A   1      41.785  22.510  26.626  1.00  0.00     0.124 S 
ATOM     69  O   UNL A   1      42.352  22.202  27.937  1.00  0.00    -0.237 OA
ATOM     70  O   UNL A   1      40.337  22.380  26.510  1.00  0.00    -0.237 OA
ATOM     71  O   UNL A   1      42.552  22.004  25.490  1.00  0.00    -0.744 OA
ENDBRANCH  64  68
ENDBRANCH  47  61
BRANCH  48  72
ATOM     72  C   UNL A   1      38.803  31.893  35.511  1.00  0.00     0.023 A 
ATOM     73  C   UNL A   1      38.254  31.215  36.610  1.00  0.00     0.031 A 
ATOM     74  C   UNL A   1      38.841  33.298  35.554  1.00  0.00     0.131 A 
ATOM     75  C   UNL A   1      37.723  31.942  37.687  1.00  0.00     0.055 A 
ATOM     76  C   UNL A   1      38.358  34.015  36.650  1.00  0.00     0.041 A 
ATOM     77  F   UNL A   1      39.362  33.995  34.531  1.00  0.00    -0.206 F 
ATOM     78  C   UNL A   1      37.781  33.336  37.720  1.00  0.00     0.022 A 
BRANCH  75  79
ATOM     79  S   UNL A   1      36.877  31.034  39.010  1.00  0.00     0.124 S 
ATOM     80  O   UNL A   1      36.805  29.690  38.450  1.00  0.00    -0.237 OA
ATOM     81  O   UNL A   1      37.792  31.215  40.132  1.00  0.00    -0.237 OA
ATOM     82  O   UNL A   1      35.597  31.730  39.134  1.00  0.00    -0.744 OA
ENDBRANCH  75  79
ENDBRANCH  48  72
BRANCH  60  83
ATOM     83  C   UNL A   1      44.518  28.106  34.254  1.00  0.00     0.023 A 
ATOM     84  C   UNL A   1      44.585  27.044  35.172  1.00  0.00     0.031 A 
ATOM     85  C   UNL A   1      45.642  28.941  34.123  1.00  0.00     0.131 A 
ATOM     86  C   UNL A   1      45.732  26.876  35.963  1.00  0.00     0.055 A 
ATOM     87  C   UNL A   1      46.801  28.734  34.870  1.00  0.00     0.041 A 
ATOM     88  F   UNL A   1      45.630  29.972  33.262  1.00  0.00    -0.206 F 
ATOM     89  C   UNL A   1      46.846  27.705  35.806  1.00  0.00     0.022 A 
BRANCH  86  90
ATOM     90  S   UNL A   1      45.718  25.612  37.263  1.00  0.00     0.124 S 
ATOM     91  O   UNL A   1      44.325  25.178  37.249  1.00  0.00    -0.237 OA
ATOM     92  O   UNL A   1      46.692  24.644  36.768  1.00  0.00    -0.237 OA
ATOM     93  O   UNL A   1      46.127  26.345  38.459  1.00  0.00    -0.744 OA
ENDBRANCH  86  90
ENDBRANCH  60  83
ENDBRANCH  34  35
ENDBRANCH  26  29
ENDBRANCH  24  25
ENDBRANCH  23  24
ENDBRANCH   1  23
TORSDOF 18
ENDMDL
MODEL 3
REMARK VINA RESULT:     -10.7      2.296      2.923
REMARK SMILES CC(=O)N[C@H](CC(=O)NCC(=O)NCCCNC(=O)c1ccc(-c2c3nc(c(-c4cc(S(=O)(=O)[O-])ccc4F)c4ccc([nH]4)c(-c4cc(S(=O)(=O)[O-])ccc4F)c4nc(c(-c5cc(S(=O)(=O)[O-])ccc5F)c5ccc2[nH]5)C=C4)C=C3)cc1)c1cccs1
REMARK SMILES IDX 14 1 13 2 11 3 12 4 10 6 9 7 7 8 8 9 6 11 5 12 4 13 1 14
REMARK SMILES IDX 2 15 3 16 83 18 84 19 87 20 85 21 86 22 15 23 16 24 17 25
REMARK SMILES IDX 18 26 19 28 20 29 21 30 82 31 22 32 81 33 23 34 24 35 25 36
REMARK SMILES IDX 75 37 26 38 80 39 74 40 76 41 27 42 79 43 73 44 72 45 28 47
REMARK SMILES IDX 60 48 40 49 59 50 41 51 44 52 58 53 77 54 42 55 43 56 57 58
REMARK SMILES IDX 78 59 45 60 29 61 30 62 38 63 31 64 37 65 39 66 36 67 32 68
REMARK SMILES IDX 33 69 34 70 35 71 61 72 62 73 70 74 63 75 69 76 71 77 68 78
REMARK SMILES IDX 64 79 65 80 66 81 67 82 46 83 47 84 55 85 48 86 54 87 56 88
REMARK SMILES IDX 53 89 49 90 50 91 51 92 52 93
REMARK H PARENT 13 5 9 10 4 17 17 27 76 46 44 57
REMARK Flexibility Score: inf
ROOT
ATOM      1  C   UNL A   1      31.733  30.439  25.999  1.00  0.00     0.117 C 
ENDROOT
BRANCH   1   2
ATOM      2  N   UNL A   1      31.061  30.228  24.735  1.00  0.00    -0.355 N 
ATOM      3  C   UNL A   1      30.997  29.080  23.992  1.00  0.00     0.239 C 
ATOM      4  O   UNL A   1      30.151  29.015  23.098  1.00  0.00    -0.273 OA
ATOM      5  H   UNL A   1      30.591  31.008  24.362  1.00  0.00     0.163 HD
BRANCH   3   6
ATOM      6  C   UNL A   1      31.833  27.848  24.378  1.00  0.00     0.216 C 
BRANCH   6   7
ATOM      7  N   UNL A   1      31.144  26.934  25.276  1.00  0.00    -0.347 N 
ATOM      8  C   UNL A   1      31.596  25.858  25.974  1.00  0.00     0.222 C 
ATOM      9  O   UNL A   1      30.797  25.293  26.720  1.00  0.00    -0.275 OA
ATOM     10  H   UNL A   1      30.187  27.128  25.399  1.00  0.00     0.164 HD
BRANCH   8  11
ATOM     11  C   UNL A   1      33.038  25.400  25.873  1.00  0.00     0.130 C 
BRANCH  11  12
ATOM     12  C   UNL A   1      33.287  24.207  24.940  1.00  0.00     0.131 C 
BRANCH  12  13
ATOM     13  N   UNL A   1      33.433  24.617  23.546  1.00  0.00    -0.348 N 
ATOM     14  C   UNL A   1      32.312  22.655  22.547  1.00  0.00     0.114 C 
ATOM     15  C   UNL A   1      33.062  23.954  22.416  1.00  0.00     0.217 C 
ATOM     16  O   UNL A   1      33.331  24.427  21.314  1.00  0.00    -0.275 OA
ATOM     17  H   UNL A   1      33.859  25.494  23.404  1.00  0.00     0.164 HD
ENDBRANCH  12  13
BRANCH  12  18
ATOM     18  C   UNL A   1      34.483  23.327  25.259  1.00  0.00     0.027 A 
ATOM     19  C   UNL A   1      34.472  22.144  25.983  1.00  0.00     0.017 A 
ATOM     20  S   UNL A   1      36.067  23.670  24.696  1.00  0.00    -0.147 S 
ATOM     21  C   UNL A   1      35.773  21.592  26.164  1.00  0.00     0.012 A 
ATOM     22  C   UNL A   1      36.739  22.345  25.539  1.00  0.00     0.065 A 
ENDBRANCH  12  18
ENDBRANCH  11  12
ENDBRANCH   8  11
ENDBRANCH   6   7
ENDBRANCH   3   6
ENDBRANCH   1   2
BRANCH   1  23
ATOM     23  C   UNL A   1      31.499  31.813  26.598  1.00  0.00     0.042 C 
BRANCH  23  24
ATOM     24  C   UNL A   1      32.747  32.404  27.237  1.00  0.00     0.118 C 
BRANCH  24  25
ATOM     25  N   UNL A   1      32.585  33.811  27.596  1.00  0.00    -0.352 N 
ATOM     26  C   UNL A   1      33.182  34.580  28.567  1.00  0.00     0.251 C 
ATOM     27  H   UNL A   1      31.930  34.295  27.043  1.00  0.00     0.163 HD
ATOM     28  O   UNL A   1      32.707  35.683  28.815  1.00  0.00    -0.269 OA
BRANCH  26  29
ATOM     29  C   UNL A   1      34.359  34.089  29.323  1.00  0.00     0.039 A 
ATOM     30  C   UNL A   1      34.159  33.272  30.441  1.00  0.00     0.014 A 
ATOM     31  C   UNL A   1      35.655  34.462  28.969  1.00  0.00     0.014 A 
ATOM     32  C   UNL A   1      35.257  32.768  31.146  1.00  0.00     0.010 A 
ATOM     33  C   UNL A   1      36.746  33.874  29.599  1.00  0.00     0.010 A 
ATOM     34  C   UNL A   1      36.563  33.030  30.703  1.00  0.00    -0.014 A 
BRANCH  34  35
ATOM     35  C   UNL A   1      37.763  32.485  31.392  1.00  0.00     0.031 A 
ATOM     36  C   UNL A   1      38.532  31.356  30.757  1.00  0.00     0.074 A 
ATOM     37  C   UNL A   1      38.098  32.926  32.621  1.00  0.00     0.049 A 
ATOM     38  N   UNL A   1      39.477  30.604  31.262  1.00  0.00    -0.248 NA
ATOM     39  C   UNL A   1      38.149  30.995  29.383  1.00  0.00     0.031 C 
ATOM     40  C   UNL A   1      37.411  33.988  33.359  1.00  0.00     0.029 A 
ATOM     41  N   UNL A   1      39.090  32.518  33.477  1.00  0.00    -0.354 N 
ATOM     42  C   UNL A   1      39.769  29.658  30.284  1.00  0.00     0.074 A 
ATOM     43  C   UNL A   1      38.858  29.896  29.185  1.00  0.00     0.031 C 
ATOM     44  C   UNL A   1      38.013  34.159  34.547  1.00  0.00     0.029 A 
ATOM     45  C   UNL A   1      39.093  33.185  34.680  1.00  0.00     0.049 A 
ATOM     46  H   UNL A   1      39.741  31.814  33.252  1.00  0.00     0.167 HD
ATOM     47  C   UNL A   1      40.725  28.695  30.292  1.00  0.00     0.034 A 
ATOM     48  C   UNL A   1      39.863  33.018  35.774  1.00  0.00     0.034 A 
ATOM     49  C   UNL A   1      41.652  28.501  31.379  1.00  0.00     0.049 A 
ATOM     50  C   UNL A   1      40.923  31.947  35.759  1.00  0.00     0.074 A 
ATOM     51  C   UNL A   1      42.701  27.601  31.470  1.00  0.00     0.029 A 
ATOM     52  N   UNL A   1      41.645  29.223  32.567  1.00  0.00    -0.354 N 
ATOM     53  N   UNL A   1      41.209  31.078  34.816  1.00  0.00    -0.248 NA
ATOM     54  C   UNL A   1      41.772  31.841  36.953  1.00  0.00     0.031 C 
ATOM     55  C   UNL A   1      43.291  27.741  32.732  1.00  0.00     0.029 A 
ATOM     56  C   UNL A   1      42.657  28.775  33.402  1.00  0.00     0.049 A 
ATOM     57  H   UNL A   1      41.013  29.945  32.783  1.00  0.00     0.167 HD
ATOM     58  C   UNL A   1      42.291  30.343  35.293  1.00  0.00     0.074 A 
ATOM     59  C   UNL A   1      42.613  30.880  36.599  1.00  0.00     0.031 C 
ATOM     60  C   UNL A   1      42.961  29.320  34.704  1.00  0.00     0.034 A 
BRANCH  47  61
ATOM     61  C   UNL A   1      40.793  27.774  29.095  1.00  0.00     0.023 A 
ATOM     62  C   UNL A   1      41.743  27.955  28.076  1.00  0.00     0.031 A 
ATOM     63  C   UNL A   1      39.867  26.725  28.949  1.00  0.00     0.131 A 
ATOM     64  C   UNL A   1      41.690  27.166  26.917  1.00  0.00     0.055 A 
ATOM     65  C   UNL A   1      39.877  25.884  27.834  1.00  0.00     0.041 A 
ATOM     66  F   UNL A   1      38.922  26.513  29.878  1.00  0.00    -0.206 F 
ATOM     67  C   UNL A   1      40.780  26.113  26.801  1.00  0.00     0.022 A 
BRANCH  64  68
ATOM     68  S   UNL A   1      42.720  27.641  25.501  1.00  0.00     0.124 S 
ATOM     69  O   UNL A   1      44.001  27.912  26.148  1.00  0.00    -0.237 OA
ATOM     70  O   UNL A   1      42.668  26.451  24.659  1.00  0.00    -0.237 OA
ATOM     71  O   UNL A   1      42.040  28.818  24.963  1.00  0.00    -0.744 OA
ENDBRANCH  64  68
ENDBRANCH  47  61
BRANCH  48  72
ATOM     72  C   UNL A   1      39.661  33.871  36.979  1.00  0.00     0.023 A 
ATOM     73  C   UNL A   1      39.038  33.357  38.127  1.00  0.00     0.031 A 
ATOM     74  C   UNL A   1      40.047  35.223  36.987  1.00  0.00     0.131 A 
ATOM     75  C   UNL A   1      38.778  34.200  39.219  1.00  0.00     0.055 A 
ATOM     76  C   UNL A   1      39.832  36.044  38.095  1.00  0.00     0.041 A 
ATOM     77  F   UNL A   1      40.652  35.763  35.917  1.00  0.00    -0.206 F 
ATOM     78  C   UNL A   1      39.181  35.536  39.216  1.00  0.00     0.022 A 
BRANCH  75  79
ATOM     79  S   UNL A   1      37.828  33.538  40.616  1.00  0.00     0.124 S 
ATOM     80  O   UNL A   1      36.588  33.132  39.966  1.00  0.00    -0.237 OA
ATOM     81  O   UNL A   1      38.691  32.459  41.084  1.00  0.00    -0.237 OA
ATOM     82  O   UNL A   1      37.715  34.680  41.521  1.00  0.00    -0.744 OA
ENDBRANCH  75  79
ENDBRANCH  48  72
BRANCH  60  83
ATOM     83  C   UNL A   1      44.142  28.756  35.453  1.00  0.00     0.023 A 
ATOM     84  C   UNL A   1      44.008  27.681  36.348  1.00  0.00     0.031 A 
ATOM     85  C   UNL A   1      45.421  29.315  35.274  1.00  0.00     0.131 A 
ATOM     86  C   UNL A   1      45.122  27.232  37.072  1.00  0.00     0.055 A 
ATOM     87  C   UNL A   1      46.536  28.826  35.954  1.00  0.00     0.041 A 
ATOM     88  F   UNL A   1      45.605  30.345  34.432  1.00  0.00    -0.206 F 
ATOM     89  C   UNL A   1      46.389  27.787  36.869  1.00  0.00     0.022 A 
BRANCH  86  90
ATOM     90  S   UNL A   1      44.881  25.969  38.351  1.00  0.00     0.124 S 
ATOM     91  O   UNL A   1      46.199  25.910  38.972  1.00  0.00    -0.237 OA
ATOM     92  O   UNL A   1      43.818  26.549  39.166  1.00  0.00    -0.237 OA
ATOM     93  O   UNL A   1      44.499  24.780  37.591  1.00  0.00    -0.744 OA
ENDBRANCH  86  90
ENDBRANCH  60  83
ENDBRANCH  34  35
ENDBRANCH  26  29
ENDBRANCH  24  25
ENDBRANCH  23  24
ENDBRANCH   1  23
TORSDOF 18
ENDMDL
