MODEL 1
REMARK VINA RESULT:     -12.7      0.000      0.000
REMARK SMILES O=C(NCCCNC(=O)c1ccc(F)cc1NC(=O)[C@H]1CCS(=O)(=O)C1)c1ccc(-c2c3nc(c(-c4cc(S(=O)(=O)[O-])ccc4F)c4ccc([nH]4)c(-c4cc(S(=O)(=O)[O-])ccc4F)c4nc(c(-c5cc(S(=O)(=O)[O-])ccc5F)c5ccc2[nH]5)C=C4)C=C3)cc1
REMARK SMILES IDX 4 1 3 2 1 3 2 4 27 6 28 7 89 8 29 9 88 10 30 11 31 12 32 13
REMARK SMILES IDX 82 14 33 15 87 16 81 17 83 18 34 19 86 20 80 21 79 22 35 24
REMARK SMILES IDX 67 25 47 26 66 27 48 28 51 29 65 30 84 31 49 32 50 33 64 35
REMARK SMILES IDX 85 36 52 37 36 38 37 39 45 40 38 41 44 42 46 43 43 44 39 45
REMARK SMILES IDX 40 46 41 47 42 48 68 49 69 50 77 51 70 52 76 53 78 54 75 55
REMARK SMILES IDX 71 56 72 57 73 58 74 59 53 60 54 61 62 62 55 63 61 64 63 65
REMARK SMILES IDX 60 66 56 67 57 68 58 69 59 70 5 71 6 72 7 73 8 74 9 76 10 77
REMARK SMILES IDX 11 78 16 79 12 80 15 81 13 82 14 83 17 84 18 85 19 87 20 88
REMARK SMILES IDX 21 89 26 90 22 91 23 92 24 93 25 94
REMARK H PARENT 3 5 83 23 51 34 7 75 17 86
REMARK Flexibility Score: inf
ROOT
ATOM      1  C   UNL A   1      35.815  22.562  26.078  1.00  0.00     0.118 C 
ENDROOT
BRANCH   1   2
ATOM      2  N   UNL A   1      36.725  21.449  25.828  1.00  0.00    -0.352 N 
ATOM      3  O   UNL A   1      38.691  20.409  25.457  1.00  0.00    -0.269 OA
ATOM      4  C   UNL A   1      38.101  21.410  25.854  1.00  0.00     0.251 C 
ATOM      5  H   UNL A   1      36.289  20.595  25.607  1.00  0.00     0.163 HD
BRANCH   4   6
ATOM      6  C   UNL A   1      38.860  22.584  26.336  1.00  0.00     0.039 A 
ATOM      7  C   UNL A   1      38.488  23.865  25.933  1.00  0.00     0.014 A 
ATOM      8  C   UNL A   1      39.962  22.410  27.178  1.00  0.00     0.014 A 
ATOM      9  C   UNL A   1      39.333  24.933  26.178  1.00  0.00     0.010 A 
ATOM     10  C   UNL A   1      40.729  23.519  27.554  1.00  0.00     0.010 A 
ATOM     11  C   UNL A   1      40.441  24.786  27.028  1.00  0.00    -0.014 A 
BRANCH  11  12
ATOM     12  C   UNL A   1      41.192  26.008  27.414  1.00  0.00     0.031 A 
ATOM     13  C   UNL A   1      42.558  26.306  26.865  1.00  0.00     0.074 A 
ATOM     14  C   UNL A   1      40.578  26.892  28.226  1.00  0.00     0.049 A 
ATOM     15  N   UNL A   1      43.302  27.364  27.059  1.00  0.00    -0.248 NA
ATOM     16  C   UNL A   1      43.174  25.292  25.998  1.00  0.00     0.031 C 
ATOM     17  C   UNL A   1      39.248  26.699  28.816  1.00  0.00     0.029 A 
ATOM     18  N   UNL A   1      40.951  28.137  28.658  1.00  0.00    -0.354 N 
ATOM     19  C   UNL A   1      44.480  27.141  26.357  1.00  0.00     0.074 A 
ATOM     20  C   UNL A   1      44.362  25.831  25.753  1.00  0.00     0.031 C 
ATOM     21  C   UNL A   1      38.879  27.820  29.448  1.00  0.00     0.029 A 
ATOM     22  C   UNL A   1      39.984  28.770  29.403  1.00  0.00     0.049 A 
ATOM     23  H   UNL A   1      41.827  28.539  28.456  1.00  0.00     0.167 HD
ATOM     24  C   UNL A   1      45.553  27.960  26.230  1.00  0.00     0.034 A 
ATOM     25  C   UNL A   1      39.980  29.971  30.009  1.00  0.00     0.034 A 
ATOM     26  C   UNL A   1      45.643  29.267  26.838  1.00  0.00     0.049 A 
ATOM     27  C   UNL A   1      41.199  30.835  29.899  1.00  0.00     0.074 A 
ATOM     28  C   UNL A   1      46.671  30.189  26.741  1.00  0.00     0.029 A 
ATOM     29  N   UNL A   1      44.680  29.833  27.663  1.00  0.00    -0.354 N 
ATOM     30  N   UNL A   1      42.310  30.601  29.241  1.00  0.00    -0.248 NA
ATOM     31  C   UNL A   1      41.177  32.114  30.618  1.00  0.00     0.031 C 
ATOM     32  C   UNL A   1      46.370  31.272  27.571  1.00  0.00     0.029 A 
ATOM     33  C   UNL A   1      45.110  31.072  28.116  1.00  0.00     0.049 A 
ATOM     34  H   UNL A   1      43.818  29.417  27.893  1.00  0.00     0.167 HD
ATOM     35  C   UNL A   1      43.117  31.711  29.455  1.00  0.00     0.074 A 
ATOM     36  C   UNL A   1      42.364  32.616  30.303  1.00  0.00     0.031 C 
ATOM     37  C   UNL A   1      44.362  31.958  28.978  1.00  0.00     0.034 A 
BRANCH  24  38
ATOM     38  C   UNL A   1      46.738  27.455  25.443  1.00  0.00     0.023 A 
ATOM     39  C   UNL A   1      46.994  27.877  24.127  1.00  0.00     0.031 A 
ATOM     40  C   UNL A   1      47.643  26.552  26.031  1.00  0.00     0.131 A 
ATOM     41  C   UNL A   1      48.095  27.361  23.427  1.00  0.00     0.055 A 
ATOM     42  C   UNL A   1      48.776  26.096  25.355  1.00  0.00     0.041 A 
ATOM     43  F   UNL A   1      47.440  26.099  27.279  1.00  0.00    -0.206 F 
ATOM     44  C   UNL A   1      49.002  26.492  24.041  1.00  0.00     0.022 A 
BRANCH  41  45
ATOM     45  S   UNL A   1      48.271  27.758  21.667  1.00  0.00     0.124 S 
ATOM     46  O   UNL A   1      48.569  26.446  21.097  1.00  0.00    -0.237 OA
ATOM     47  O   UNL A   1      46.964  28.315  21.338  1.00  0.00    -0.237 OA
ATOM     48  O   UNL A   1      49.381  28.709  21.639  1.00  0.00    -0.744 OA
ENDBRANCH  41  45
ENDBRANCH  24  38
BRANCH  25  49
ATOM     49  C   UNL A   1      38.784  30.380  30.791  1.00  0.00     0.023 A 
ATOM     50  C   UNL A   1      37.764  31.148  30.211  1.00  0.00     0.031 A 
ATOM     51  C   UNL A   1      38.603  29.922  32.111  1.00  0.00     0.131 A 
ATOM     52  C   UNL A   1      36.603  31.430  30.947  1.00  0.00     0.055 A 
ATOM     53  C   UNL A   1      37.432  30.171  32.823  1.00  0.00     0.041 A 
ATOM     54  F   UNL A   1      39.544  29.166  32.699  1.00  0.00    -0.206 F 
ATOM     55  C   UNL A   1      36.422  30.930  32.241  1.00  0.00     0.022 A 
BRANCH  52  56
ATOM     56  S   UNL A   1      35.314  32.455  30.188  1.00  0.00     0.124 S 
ATOM     57  O   UNL A   1      34.381  32.625  31.295  1.00  0.00    -0.237 OA
ATOM     58  O   UNL A   1      36.064  33.643  29.790  1.00  0.00    -0.237 OA
ATOM     59  O   UNL A   1      34.831  31.630  29.083  1.00  0.00    -0.744 OA
ENDBRANCH  52  56
ENDBRANCH  25  49
BRANCH  37  60
ATOM     60  C   UNL A   1      44.993  33.278  29.330  1.00  0.00     0.023 A 
ATOM     61  C   UNL A   1      44.795  34.424  28.542  1.00  0.00     0.031 A 
ATOM     62  C   UNL A   1      45.742  33.402  30.513  1.00  0.00     0.131 A 
ATOM     63  C   UNL A   1      45.354  35.647  28.945  1.00  0.00     0.055 A 
ATOM     64  C   UNL A   1      46.255  34.629  30.932  1.00  0.00     0.041 A 
ATOM     65  F   UNL A   1      45.959  32.334  31.298  1.00  0.00    -0.206 F 
ATOM     66  C   UNL A   1      46.063  35.761  30.144  1.00  0.00     0.022 A 
BRANCH  63  67
ATOM     67  S   UNL A   1      45.157  37.095  27.870  1.00  0.00     0.124 S 
ATOM     68  O   UNL A   1      44.853  38.146  28.835  1.00  0.00    -0.237 OA
ATOM     69  O   UNL A   1      46.460  37.184  27.217  1.00  0.00    -0.237 OA
ATOM     70  O   UNL A   1      44.051  36.722  26.991  1.00  0.00    -0.744 OA
ENDBRANCH  63  67
ENDBRANCH  37  60
ENDBRANCH  11  12
ENDBRANCH   4   6
ENDBRANCH   1   2
BRANCH   1  71
ATOM     71  C   UNL A   1      35.110  22.469  27.419  1.00  0.00     0.042 C 
BRANCH  71  72
ATOM     72  C   UNL A   1      33.905  21.547  27.408  1.00  0.00     0.118 C 
BRANCH  72  73
ATOM     73  N   UNL A   1      32.654  22.271  27.596  1.00  0.00    -0.352 N 
ATOM     74  C   UNL A   1      31.949  23.058  26.723  1.00  0.00     0.253 C 
ATOM     75  H   UNL A   1      32.251  22.179  28.490  1.00  0.00     0.163 HD
ATOM     76  O   UNL A   1      31.035  23.767  27.139  1.00  0.00    -0.269 OA
BRANCH  74  77
ATOM     77  C   UNL A   1      32.272  23.073  25.278  1.00  0.00     0.063 A 
ATOM     78  C   UNL A   1      32.055  21.905  24.523  1.00  0.00     0.019 A 
ATOM     79  C   UNL A   1      32.760  24.248  24.660  1.00  0.00     0.056 A 
ATOM     80  C   UNL A   1      32.404  21.863  23.178  1.00  0.00     0.040 A 
ATOM     81  C   UNL A   1      32.983  24.210  23.280  1.00  0.00     0.066 A 
ATOM     82  C   UNL A   1      32.853  23.020  22.568  1.00  0.00     0.125 A 
ATOM     83  F   UNL A   1      33.143  23.006  21.261  1.00  0.00    -0.207 F 
BRANCH  79  84
ATOM     84  N   UNL A   1      32.963  25.416  25.437  1.00  0.00    -0.325 N 
ATOM     85  C   UNL A   1      32.337  26.633  25.468  1.00  0.00     0.228 C 
ATOM     86  H   UNL A   1      33.702  25.336  26.082  1.00  0.00     0.169 HD
ATOM     87  O   UNL A   1      32.621  27.433  26.362  1.00  0.00    -0.274 OA
BRANCH  85  88
ATOM     88  C   UNL A   1      31.354  27.023  24.389  1.00  0.00     0.095 C 
ATOM     89  C   UNL A   1      29.929  26.565  24.727  1.00  0.00     0.030 C 
ATOM     90  C   UNL A   1      31.239  28.534  24.207  1.00  0.00     0.150 C 
ATOM     91  C   UNL A   1      29.030  27.151  23.643  1.00  0.00     0.138 C 
ATOM     92  S   UNL A   1      29.816  28.674  23.131  1.00  0.00     0.151 S 
ATOM     93  O   UNL A   1      30.262  28.488  21.763  1.00  0.00    -0.229 OA
ATOM     94  O   UNL A   1      28.997  29.789  23.541  1.00  0.00    -0.229 OA
ENDBRANCH  85  88
ENDBRANCH  79  84
ENDBRANCH  74  77
ENDBRANCH  72  73
ENDBRANCH  71  72
ENDBRANCH   1  71
TORSDOF 15
ENDMDL
MODEL 2
REMARK VINA RESULT:     -12.4      5.221      9.935
REMARK SMILES O=C(NCCCNC(=O)c1ccc(F)cc1NC(=O)[C@H]1CCS(=O)(=O)C1)c1ccc(-c2c3nc(c(-c4cc(S(=O)(=O)[O-])ccc4F)c4ccc([nH]4)c(-c4cc(S(=O)(=O)[O-])ccc4F)c4nc(c(-c5cc(S(=O)(=O)[O-])ccc5F)c5ccc2[nH]5)C=C4)C=C3)cc1
REMARK SMILES IDX 4 1 3 2 1 3 2 4 27 6 28 7 89 8 29 9 88 10 30 11 31 12 32 13
REMARK SMILES IDX 82 14 33 15 87 16 81 17 83 18 34 19 86 20 80 21 79 22 35 24
REMARK SMILES IDX 67 25 47 26 66 27 48 28 51 29 65 30 84 31 49 32 50 33 64 35
REMARK SMILES IDX 85 36 52 37 36 38 37 39 45 40 38 41 44 42 46 43 43 44 39 45
REMARK SMILES IDX 40 46 41 47 42 48 68 49 69 50 77 51 70 52 76 53 78 54 75 55
REMARK SMILES IDX 71 56 72 57 73 58 74 59 53 60 54 61 62 62 55 63 61 64 63 65
REMARK SMILES IDX 60 66 56 67 57 68 58 69 59 70 5 71 6 72 7 73 8 74 9 76 10 77
REMARK SMILES IDX 11 78 16 79 12 80 15 81 13 82 14 83 17 84 18 85 19 87 20 88
REMARK SMILES IDX 21 89 26 90 22 91 23 92 24 93 25 94
REMARK H PARENT 3 5 83 23 51 34 7 75 17 86
REMARK Flexibility Score: inf
ROOT
ATOM      1  C   UNL A   1      33.383  28.855  25.368  1.00  0.00     0.118 C 
ENDROOT
BRANCH   1   2
ATOM      2  N   UNL A   1      32.811  30.128  25.795  1.00  0.00    -0.352 N 
ATOM      3  O   UNL A   1      32.515  31.947  27.094  1.00  0.00    -0.269 OA
ATOM      4  C   UNL A   1      33.228  30.999  26.777  1.00  0.00     0.251 C 
ATOM      5  H   UNL A   1      32.003  30.406  25.307  1.00  0.00     0.163 HD
BRANCH   4   6
ATOM      6  C   UNL A   1      34.519  30.771  27.460  1.00  0.00     0.039 A 
ATOM      7  C   UNL A   1      34.816  29.514  27.983  1.00  0.00     0.014 A 
ATOM      8  C   UNL A   1      35.433  31.819  27.601  1.00  0.00     0.014 A 
ATOM      9  C   UNL A   1      35.902  29.362  28.828  1.00  0.00     0.010 A 
ATOM     10  C   UNL A   1      36.610  31.619  28.330  1.00  0.00     0.010 A 
ATOM     11  C   UNL A   1      36.838  30.397  28.980  1.00  0.00    -0.014 A 
BRANCH  11  12
ATOM     12  C   UNL A   1      38.083  30.108  29.738  1.00  0.00     0.031 A 
ATOM     13  C   UNL A   1      38.304  30.628  31.129  1.00  0.00     0.074 A 
ATOM     14  C   UNL A   1      38.992  29.293  29.163  1.00  0.00     0.049 A 
ATOM     15  N   UNL A   1      39.309  30.401  31.935  1.00  0.00    -0.248 NA
ATOM     16  C   UNL A   1      37.280  31.522  31.687  1.00  0.00     0.031 C 
ATOM     17  C   UNL A   1      38.874  28.731  27.813  1.00  0.00     0.029 A 
ATOM     18  N   UNL A   1      40.157  28.756  29.642  1.00  0.00    -0.354 N 
ATOM     19  C   UNL A   1      39.052  31.133  33.087  1.00  0.00     0.074 A 
ATOM     20  C   UNL A   1      37.806  31.837  32.864  1.00  0.00     0.031 C 
ATOM     21  C   UNL A   1      39.867  27.858  27.611  1.00  0.00     0.029 A 
ATOM     22  C   UNL A   1      40.752  27.876  28.769  1.00  0.00     0.049 A 
ATOM     23  H   UNL A   1      40.532  28.978  30.525  1.00  0.00     0.167 HD
ATOM     24  C   UNL A   1      39.789  31.203  34.223  1.00  0.00     0.034 A 
ATOM     25  C   UNL A   1      41.896  27.173  28.865  1.00  0.00     0.034 A 
ATOM     26  C   UNL A   1      41.026  30.486  34.423  1.00  0.00     0.049 A 
ATOM     27  C   UNL A   1      42.721  27.310  30.108  1.00  0.00     0.074 A 
ATOM     28  C   UNL A   1      41.831  30.461  35.549  1.00  0.00     0.029 A 
ATOM     29  N   UNL A   1      41.645  29.678  33.477  1.00  0.00    -0.354 N 
ATOM     30  N   UNL A   1      42.468  28.019  31.182  1.00  0.00    -0.248 NA
ATOM     31  C   UNL A   1      43.987  26.569  30.152  1.00  0.00     0.031 C 
ATOM     32  C   UNL A   1      42.973  29.711  35.257  1.00  0.00     0.029 A 
ATOM     33  C   UNL A   1      42.841  29.187  33.980  1.00  0.00     0.049 A 
ATOM     34  H   UNL A   1      41.287  29.482  32.581  1.00  0.00     0.167 HD
ATOM     35  C   UNL A   1      43.539  27.800  32.040  1.00  0.00     0.074 A 
ATOM     36  C   UNL A   1      44.440  26.891  31.357  1.00  0.00     0.031 C 
ATOM     37  C   UNL A   1      43.744  28.299  33.284  1.00  0.00     0.034 A 
BRANCH  24  38
ATOM     38  C   UNL A   1      39.309  32.120  35.321  1.00  0.00     0.023 A 
ATOM     39  C   UNL A   1      39.746  33.452  35.425  1.00  0.00     0.031 A 
ATOM     40  C   UNL A   1      38.377  31.658  36.269  1.00  0.00     0.131 A 
ATOM     41  C   UNL A   1      39.289  34.259  36.479  1.00  0.00     0.055 A 
ATOM     42  C   UNL A   1      37.873  32.486  37.274  1.00  0.00     0.041 A 
ATOM     43  F   UNL A   1      37.938  30.390  36.232  1.00  0.00    -0.206 F 
ATOM     44  C   UNL A   1      38.337  33.792  37.389  1.00  0.00     0.022 A 
BRANCH  41  45
ATOM     45  S   UNL A   1      40.036  35.895  36.708  1.00  0.00     0.124 S 
ATOM     46  O   UNL A   1      41.452  35.558  36.833  1.00  0.00    -0.237 OA
ATOM     47  O   UNL A   1      39.650  36.590  35.485  1.00  0.00    -0.237 OA
ATOM     48  O   UNL A   1      39.409  36.390  37.932  1.00  0.00    -0.744 OA
ENDBRANCH  41  45
ENDBRANCH  24  38
BRANCH  25  49
ATOM     49  C   UNL A   1      42.313  26.317  27.724  1.00  0.00     0.023 A 
ATOM     50  C   UNL A   1      41.939  24.967  27.654  1.00  0.00     0.031 A 
ATOM     51  C   UNL A   1      43.016  26.871  26.636  1.00  0.00     0.131 A 
ATOM     52  C   UNL A   1      42.264  24.216  26.514  1.00  0.00     0.055 A 
ATOM     53  C   UNL A   1      43.302  26.130  25.490  1.00  0.00     0.041 A 
ATOM     54  F   UNL A   1      43.376  28.163  26.650  1.00  0.00    -0.206 F 
ATOM     55  C   UNL A   1      42.925  24.793  25.425  1.00  0.00     0.022 A 
BRANCH  52  56
ATOM     56  S   UNL A   1      41.801  22.463  26.462  1.00  0.00     0.124 S 
ATOM     57  O   UNL A   1      40.348  22.543  26.379  1.00  0.00    -0.237 OA
ATOM     58  O   UNL A   1      42.491  21.999  25.261  1.00  0.00    -0.237 OA
ATOM     59  O   UNL A   1      42.328  21.935  27.720  1.00  0.00    -0.744 OA
ENDBRANCH  52  56
ENDBRANCH  25  49
BRANCH  37  60
ATOM     60  C   UNL A   1      44.979  27.852  34.019  1.00  0.00     0.023 A 
ATOM     61  C   UNL A   1      44.971  26.728  34.861  1.00  0.00     0.031 A 
ATOM     62  C   UNL A   1      46.197  28.522  33.810  1.00  0.00     0.131 A 
ATOM     63  C   UNL A   1      46.163  26.314  35.476  1.00  0.00     0.055 A 
ATOM     64  C   UNL A   1      47.387  28.078  34.385  1.00  0.00     0.041 A 
ATOM     65  F   UNL A   1      46.254  29.602  33.013  1.00  0.00    -0.206 F 
ATOM     66  C   UNL A   1      47.373  26.968  35.226  1.00  0.00     0.022 A 
BRANCH  63  67
ATOM     67  S   UNL A   1      46.113  24.913  36.625  1.00  0.00     0.124 S 
ATOM     68  O   UNL A   1      46.451  23.794  35.751  1.00  0.00    -0.237 OA
ATOM     69  O   UNL A   1      47.123  25.278  37.615  1.00  0.00    -0.237 OA
ATOM     70  O   UNL A   1      44.737  24.920  37.117  1.00  0.00    -0.744 OA
ENDBRANCH  63  67
ENDBRANCH  37  60
ENDBRANCH  11  12
ENDBRANCH   4   6
ENDBRANCH   1   2
BRANCH   1  71
ATOM     71  C   UNL A   1      34.168  28.957  24.073  1.00  0.00     0.042 C 
BRANCH  71  72
ATOM     72  C   UNL A   1      33.292  29.073  22.841  1.00  0.00     0.118 C 
BRANCH  72  73
ATOM     73  N   UNL A   1      33.397  27.903  21.976  1.00  0.00    -0.352 N 
ATOM     74  C   UNL A   1      32.921  26.630  22.152  1.00  0.00     0.253 C 
ATOM     75  H   UNL A   1      33.885  28.051  21.134  1.00  0.00     0.163 HD
ATOM     76  O   UNL A   1      33.307  25.724  21.416  1.00  0.00    -0.269 OA
BRANCH  74  77
ATOM     77  C   UNL A   1      31.944  26.321  23.222  1.00  0.00     0.063 A 
ATOM     78  C   UNL A   1      30.623  26.789  23.089  1.00  0.00     0.019 A 
ATOM     79  C   UNL A   1      32.322  25.545  24.341  1.00  0.00     0.056 A 
ATOM     80  C   UNL A   1      29.695  26.572  24.101  1.00  0.00     0.040 A 
ATOM     81  C   UNL A   1      31.333  25.237  25.281  1.00  0.00     0.066 A 
ATOM     82  C   UNL A   1      30.058  25.787  25.181  1.00  0.00     0.125 A 
ATOM     83  F   UNL A   1      29.158  25.527  26.137  1.00  0.00    -0.207 F 
BRANCH  79  84
ATOM     84  N   UNL A   1      33.656  25.075  24.451  1.00  0.00    -0.325 N 
ATOM     85  C   UNL A   1      34.217  23.832  24.336  1.00  0.00     0.228 C 
ATOM     86  H   UNL A   1      34.307  25.785  24.651  1.00  0.00     0.169 HD
ATOM     87  O   UNL A   1      35.445  23.725  24.329  1.00  0.00    -0.274 OA
BRANCH  85  88
ATOM     88  C   UNL A   1      33.351  22.596  24.280  1.00  0.00     0.095 C 
ATOM     89  C   UNL A   1      32.972  22.233  22.839  1.00  0.00     0.030 C 
ATOM     90  C   UNL A   1      34.053  21.353  24.819  1.00  0.00     0.150 C 
ATOM     91  C   UNL A   1      32.237  20.899  22.919  1.00  0.00     0.138 C 
ATOM     92  S   UNL A   1      32.928  20.048  24.333  1.00  0.00     0.151 S 
ATOM     93  O   UNL A   1      31.881  19.957  25.334  1.00  0.00    -0.229 OA
ATOM     94  O   UNL A   1      33.674  18.901  23.875  1.00  0.00    -0.229 OA
ENDBRANCH  85  88
ENDBRANCH  79  84
ENDBRANCH  74  77
ENDBRANCH  72  73
ENDBRANCH  71  72
ENDBRANCH   1  71
TORSDOF 15
ENDMDL
MODEL 3
REMARK VINA RESULT:     -12.4      1.526      1.802
REMARK SMILES O=C(NCCCNC(=O)c1ccc(F)cc1NC(=O)[C@H]1CCS(=O)(=O)C1)c1ccc(-c2c3nc(c(-c4cc(S(=O)(=O)[O-])ccc4F)c4ccc([nH]4)c(-c4cc(S(=O)(=O)[O-])ccc4F)c4nc(c(-c5cc(S(=O)(=O)[O-])ccc5F)c5ccc2[nH]5)C=C4)C=C3)cc1
REMARK SMILES IDX 4 1 3 2 1 3 2 4 27 6 28 7 89 8 29 9 88 10 30 11 31 12 32 13
REMARK SMILES IDX 82 14 33 15 87 16 81 17 83 18 34 19 86 20 80 21 79 22 35 24
REMARK SMILES IDX 67 25 47 26 66 27 48 28 51 29 65 30 84 31 49 32 50 33 64 35
REMARK SMILES IDX 85 36 52 37 36 38 37 39 45 40 38 41 44 42 46 43 43 44 39 45
REMARK SMILES IDX 40 46 41 47 42 48 68 49 69 50 77 51 70 52 76 53 78 54 75 55
REMARK SMILES IDX 71 56 72 57 73 58 74 59 53 60 54 61 62 62 55 63 61 64 63 65
REMARK SMILES IDX 60 66 56 67 57 68 58 69 59 70 5 71 6 72 7 73 8 74 9 76 10 77
REMARK SMILES IDX 11 78 16 79 12 80 15 81 13 82 14 83 17 84 18 85 19 87 20 88
REMARK SMILES IDX 21 89 26 90 22 91 23 92 24 93 25 94
REMARK H PARENT 3 5 83 23 51 34 7 75 17 86
REMARK Flexibility Score: inf
ROOT
ATOM      1  C   UNL A   1      35.891  22.682  26.018  1.00  0.00     0.118 C 
ENDROOT
BRANCH   1   2
ATOM      2  N   UNL A   1      36.787  21.553  25.788  1.00  0.00    -0.352 N 
ATOM      3  O   UNL A   1      38.745  20.477  25.484  1.00  0.00    -0.269 OA
ATOM      4  C   UNL A   1      38.160  21.483  25.874  1.00  0.00     0.251 C 
ATOM      5  H   UNL A   1      36.343  20.713  25.532  1.00  0.00     0.163 HD
BRANCH   4   6
ATOM      6  C   UNL A   1      38.921  22.632  26.412  1.00  0.00     0.039 A 
ATOM      7  C   UNL A   1      38.610  23.925  25.999  1.00  0.00     0.014 A 
ATOM      8  C   UNL A   1      39.965  22.419  27.317  1.00  0.00     0.014 A 
ATOM      9  C   UNL A   1      39.469  24.967  26.305  1.00  0.00     0.010 A 
ATOM     10  C   UNL A   1      40.739  23.502  27.748  1.00  0.00     0.010 A 
ATOM     11  C   UNL A   1      40.519  24.781  27.218  1.00  0.00    -0.014 A 
BRANCH  11  12
ATOM     12  C   UNL A   1      41.281  25.978  27.659  1.00  0.00     0.031 A 
ATOM     13  C   UNL A   1      42.697  26.223  27.224  1.00  0.00     0.074 A 
ATOM     14  C   UNL A   1      40.634  26.889  28.415  1.00  0.00     0.049 A 
ATOM     15  N   UNL A   1      43.461  27.255  27.475  1.00  0.00    -0.248 NA
ATOM     16  C   UNL A   1      43.345  25.181  26.415  1.00  0.00     0.031 C 
ATOM     17  C   UNL A   1      39.253  26.749  28.893  1.00  0.00     0.029 A 
ATOM     18  N   UNL A   1      41.015  28.123  28.871  1.00  0.00    -0.354 N 
ATOM     19  C   UNL A   1      44.683  26.984  26.873  1.00  0.00     0.074 A 
ATOM     20  C   UNL A   1      44.568  25.675  26.266  1.00  0.00     0.031 C 
ATOM     21  C   UNL A   1      38.876  27.886  29.488  1.00  0.00     0.029 A 
ATOM     22  C   UNL A   1      40.014  28.795  29.531  1.00  0.00     0.049 A 
ATOM     23  H   UNL A   1      41.919  28.492  28.740  1.00  0.00     0.167 HD
ATOM     24  C   UNL A   1      45.792  27.763  26.832  1.00  0.00     0.034 A 
ATOM     25  C   UNL A   1      40.004  30.001  30.130  1.00  0.00     0.034 A 
ATOM     26  C   UNL A   1      45.880  29.070  27.440  1.00  0.00     0.049 A 
ATOM     27  C   UNL A   1      41.259  30.819  30.117  1.00  0.00     0.074 A 
ATOM     28  C   UNL A   1      46.945  29.953  27.424  1.00  0.00     0.029 A 
ATOM     29  N   UNL A   1      44.874  29.677  28.181  1.00  0.00    -0.354 N 
ATOM     30  N   UNL A   1      42.411  30.540  29.554  1.00  0.00    -0.248 NA
ATOM     31  C   UNL A   1      41.224  32.103  30.827  1.00  0.00     0.031 C 
ATOM     32  C   UNL A   1      46.616  31.052  28.223  1.00  0.00     0.029 A 
ATOM     33  C   UNL A   1      45.309  30.902  28.662  1.00  0.00     0.049 A 
ATOM     34  H   UNL A   1      43.980  29.293  28.340  1.00  0.00     0.167 HD
ATOM     35  C   UNL A   1      43.238  31.622  29.829  1.00  0.00     0.074 A 
ATOM     36  C   UNL A   1      42.451  32.559  30.609  1.00  0.00     0.031 C 
ATOM     37  C   UNL A   1      44.526  31.820  29.456  1.00  0.00     0.034 A 
BRANCH  24  38
ATOM     38  C   UNL A   1      47.019  27.210  26.147  1.00  0.00     0.023 A 
ATOM     39  C   UNL A   1      48.019  26.521  26.853  1.00  0.00     0.031 A 
ATOM     40  C   UNL A   1      47.176  27.355  24.756  1.00  0.00     0.131 A 
ATOM     41  C   UNL A   1      49.154  26.047  26.176  1.00  0.00     0.055 A 
ATOM     42  C   UNL A   1      48.272  26.820  24.078  1.00  0.00     0.041 A 
ATOM     43  F   UNL A   1      46.262  28.020  24.032  1.00  0.00    -0.206 F 
ATOM     44  C   UNL A   1      49.275  26.169  24.790  1.00  0.00     0.022 A 
BRANCH  41  45
ATOM     45  S   UNL A   1      50.521  25.358  27.148  1.00  0.00     0.124 S 
ATOM     46  O   UNL A   1      51.464  24.976  26.100  1.00  0.00    -0.237 OA
ATOM     47  O   UNL A   1      50.916  26.488  27.981  1.00  0.00    -0.237 OA
ATOM     48  O   UNL A   1      49.906  24.240  27.861  1.00  0.00    -0.744 OA
ENDBRANCH  41  45
ENDBRANCH  24  38
BRANCH  25  49
ATOM     49  C   UNL A   1      38.763  30.458  30.809  1.00  0.00     0.023 A 
ATOM     50  C   UNL A   1      37.776  31.172  30.114  1.00  0.00     0.031 A 
ATOM     51  C   UNL A   1      38.508  30.098  32.146  1.00  0.00     0.131 A 
ATOM     52  C   UNL A   1      36.574  31.499  30.760  1.00  0.00     0.055 A 
ATOM     53  C   UNL A   1      37.297  30.391  32.770  1.00  0.00     0.041 A 
ATOM     54  F   UNL A   1      39.415  29.396  32.843  1.00  0.00    -0.206 F 
ATOM     55  C   UNL A   1      36.320  31.097  32.075  1.00  0.00     0.022 A 
BRANCH  52  56
ATOM     56  S   UNL A   1      35.328  32.456  29.853  1.00  0.00     0.124 S 
ATOM     57  O   UNL A   1      34.930  31.512  28.814  1.00  0.00    -0.237 OA
ATOM     58  O   UNL A   1      34.336  32.728  30.889  1.00  0.00    -0.237 OA
ATOM     59  O   UNL A   1      36.071  33.625  29.385  1.00  0.00    -0.744 OA
ENDBRANCH  52  56
ENDBRANCH  25  49
BRANCH  37  60
ATOM     60  C   UNL A   1      45.174  33.119  29.853  1.00  0.00     0.023 A 
ATOM     61  C   UNL A   1      45.087  34.265  29.046  1.00  0.00     0.031 A 
ATOM     62  C   UNL A   1      45.823  33.226  31.096  1.00  0.00     0.131 A 
ATOM     63  C   UNL A   1      45.655  35.470  29.488  1.00  0.00     0.055 A 
ATOM     64  C   UNL A   1      46.343  34.437  31.551  1.00  0.00     0.041 A 
ATOM     65  F   UNL A   1      45.931  32.157  31.902  1.00  0.00    -0.206 F 
ATOM     66  C   UNL A   1      46.263  35.568  30.743  1.00  0.00     0.022 A 
BRANCH  63  67
ATOM     67  S   UNL A   1      45.605  36.915  28.393  1.00  0.00     0.124 S 
ATOM     68  O   UNL A   1      44.568  36.534  27.440  1.00  0.00    -0.237 OA
ATOM     69  O   UNL A   1      45.264  37.997  29.310  1.00  0.00    -0.237 OA
ATOM     70  O   UNL A   1      46.959  36.976  27.844  1.00  0.00    -0.744 OA
ENDBRANCH  63  67
ENDBRANCH  37  60
ENDBRANCH  11  12
ENDBRANCH   4   6
ENDBRANCH   1   2
BRANCH   1  71
ATOM     71  C   UNL A   1      35.200  22.630  27.369  1.00  0.00     0.042 C 
BRANCH  71  72
ATOM     72  C   UNL A   1      34.081  21.608  27.439  1.00  0.00     0.118 C 
BRANCH  72  73
ATOM     73  N   UNL A   1      32.777  22.229  27.641  1.00  0.00    -0.352 N 
ATOM     74  C   UNL A   1      31.998  22.948  26.774  1.00  0.00     0.253 C 
ATOM     75  H   UNL A   1      32.397  22.112  28.542  1.00  0.00     0.163 HD
ATOM     76  O   UNL A   1      31.035  23.583  27.198  1.00  0.00    -0.269 OA
BRANCH  74  77
ATOM     77  C   UNL A   1      32.297  22.976  25.323  1.00  0.00     0.063 A 
ATOM     78  C   UNL A   1      32.100  21.805  24.568  1.00  0.00     0.019 A 
ATOM     79  C   UNL A   1      32.742  24.166  24.702  1.00  0.00     0.056 A 
ATOM     80  C   UNL A   1      32.428  21.777  23.217  1.00  0.00     0.040 A 
ATOM     81  C   UNL A   1      32.943  24.140  23.319  1.00  0.00     0.066 A 
ATOM     82  C   UNL A   1      32.835  22.948  22.604  1.00  0.00     0.125 A 
ATOM     83  F   UNL A   1      33.104  22.947  21.294  1.00  0.00    -0.207 F 
BRANCH  79  84
ATOM     84  N   UNL A   1      32.924  25.338  25.480  1.00  0.00    -0.325 N 
ATOM     85  C   UNL A   1      32.286  26.548  25.503  1.00  0.00     0.228 C 
ATOM     86  H   UNL A   1      33.657  25.265  26.134  1.00  0.00     0.169 HD
ATOM     87  O   UNL A   1      32.553  27.352  26.399  1.00  0.00    -0.274 OA
BRANCH  85  88
ATOM     88  C   UNL A   1      31.311  26.928  24.413  1.00  0.00     0.095 C 
ATOM     89  C   UNL A   1      29.884  26.474  24.745  1.00  0.00     0.030 C 
ATOM     90  C   UNL A   1      31.199  28.436  24.214  1.00  0.00     0.150 C 
ATOM     91  C   UNL A   1      28.993  27.049  23.649  1.00  0.00     0.138 C 
ATOM     92  S   UNL A   1      29.784  28.566  23.126  1.00  0.00     0.151 S 
ATOM     93  O   UNL A   1      30.240  28.365  21.763  1.00  0.00    -0.229 OA
ATOM     94  O   UNL A   1      28.963  29.686  23.519  1.00  0.00    -0.229 OA
ENDBRANCH  85  88
ENDBRANCH  79  84
ENDBRANCH  74  77
ENDBRANCH  72  73
ENDBRANCH  71  72
ENDBRANCH   1  71
TORSDOF 15
ENDMDL
