MODEL 1
REMARK VINA RESULT:     -11.6      0.000      0.000
REMARK SMILES C[C@@]([NH2+]CC(=O)NC1CCOCC1)(C(=O)NCCCNC(=O)c1ccc(-c2c3nc(c(-c4cc(S(=O)(=O)[O-])ccc4F)c4ccc([nH]4)c(-c4cc(S(=O)(=O)[O-])ccc4F)c4nc(c(-c5cc(S(=O)(=O)[O-])ccc5F)c5ccc2[nH]5)C=C4)C=C3)cc1)C(F)(F)F
REMARK SMILES IDX 17 1 16 2 14 3 15 4 2 6 1 7 3 8 4 11 5 12 6 13 7 14 8 16
REMARK SMILES IDX 9 17 13 18 10 19 12 20 11 21 86 22 87 23 88 24 89 25 18 26
REMARK SMILES IDX 19 27 20 28 21 29 22 31 23 32 24 33 85 34 25 35 84 36 26 37
REMARK SMILES IDX 27 38 28 39 78 40 29 41 83 42 77 43 79 44 30 45 82 46 76 47
REMARK SMILES IDX 75 48 31 50 63 51 43 52 62 53 44 54 47 55 61 56 80 57 45 58
REMARK SMILES IDX 46 59 60 61 81 62 48 63 32 64 33 65 41 66 34 67 40 68 42 69
REMARK SMILES IDX 39 70 35 71 36 72 37 73 38 74 64 75 65 76 73 77 66 78 72 79
REMARK SMILES IDX 74 80 71 81 67 82 68 83 69 84 70 85 49 86 50 87 58 88 51 89
REMARK SMILES IDX 57 90 59 91 56 92 52 93 53 94 54 95 55 96
REMARK H PARENT 16 5 3 9 3 10 7 15 20 30 79 49 47 60
REMARK Flexibility Score: inf
ROOT
ATOM      1  C   UNL A   1      35.569  22.574  23.639  1.00  0.00     0.118 C 
ENDROOT
BRANCH   1   2
ATOM      2  N   UNL A   1      34.353  23.035  23.009  1.00  0.00    -0.350 N 
ATOM      3  C   UNL A   1      33.240  23.726  23.273  1.00  0.00     0.290 C 
ATOM      4  O   UNL A   1      32.705  23.967  22.180  1.00  0.00    -0.267 OA
ATOM      5  H   UNL A   1      34.340  22.744  22.067  1.00  0.00     0.163 HD
BRANCH   3   6
ATOM      6  C   UNL A   1      32.655  24.260  24.640  1.00  0.00     0.268 C 
ATOM      7  C   UNL A   1      31.122  24.334  24.519  1.00  0.00     0.101 C 
BRANCH   6   8
ATOM      8  N   UNL A   1      33.033  23.272  25.731  1.00  0.00    -0.318 N 
ATOM      9  H   UNL A   1      32.744  23.677  26.622  1.00  0.00     0.347 HD
ATOM     10  H   UNL A   1      34.037  23.133  25.615  1.00  0.00     0.347 HD
BRANCH   8  11
ATOM     11  C   UNL A   1      32.453  21.888  25.661  1.00  0.00     0.362 C 
BRANCH  11  12
ATOM     12  C   UNL A   1      33.362  20.691  26.027  1.00  0.00     0.275 C 
ATOM     13  O   UNL A   1      34.492  20.902  26.483  1.00  0.00    -0.268 OA
ATOM     14  N   UNL A   1      32.872  19.395  26.094  1.00  0.00    -0.348 N 
ATOM     15  H   UNL A   1      32.572  19.085  26.977  1.00  0.00     0.163 HD
BRANCH  14  16
ATOM     16  C   UNL A   1      32.752  18.418  24.969  1.00  0.00     0.086 C 
ATOM     17  C   UNL A   1      33.975  17.555  24.743  1.00  0.00     0.053 C 
ATOM     18  C   UNL A   1      32.446  19.091  23.621  1.00  0.00     0.053 C 
ATOM     19  C   UNL A   1      33.813  16.564  23.611  1.00  0.00     0.162 C 
ATOM     20  C   UNL A   1      32.369  18.047  22.498  1.00  0.00     0.162 C 
ATOM     21  O   UNL A   1      33.559  17.266  22.407  1.00  0.00    -0.381 OA
ENDBRANCH  14  16
ENDBRANCH  11  12
ENDBRANCH   8  11
ENDBRANCH   6   8
BRANCH   6  22
ATOM     22  C   UNL A   1      33.035  25.733  25.015  1.00  0.00     0.453 C 
ATOM     23  F   UNL A   1      33.839  25.819  26.095  1.00  0.00    -0.164 F 
ATOM     24  F   UNL A   1      33.688  26.352  23.991  1.00  0.00    -0.164 F 
ATOM     25  F   UNL A   1      31.967  26.523  25.234  1.00  0.00    -0.164 F 
ENDBRANCH   6  22
ENDBRANCH   3   6
ENDBRANCH   1   2
BRANCH   1  26
ATOM     26  C   UNL A   1      36.255  23.701  24.396  1.00  0.00     0.042 C 
BRANCH  26  27
ATOM     27  C   UNL A   1      36.446  23.427  25.891  1.00  0.00     0.118 C 
BRANCH  27  28
ATOM     28  N   UNL A   1      37.493  22.450  26.161  1.00  0.00    -0.352 N 
ATOM     29  C   UNL A   1      38.820  22.633  26.468  1.00  0.00     0.251 C 
ATOM     30  H   UNL A   1      37.205  21.510  26.116  1.00  0.00     0.163 HD
ATOM     31  O   UNL A   1      39.598  21.691  26.363  1.00  0.00    -0.269 OA
BRANCH  29  32
ATOM     32  C   UNL A   1      39.300  23.958  26.905  1.00  0.00     0.039 A 
ATOM     33  C   UNL A   1      39.882  24.816  25.970  1.00  0.00     0.014 A 
ATOM     34  C   UNL A   1      39.214  24.338  28.246  1.00  0.00     0.014 A 
ATOM     35  C   UNL A   1      40.326  26.076  26.374  1.00  0.00     0.010 A 
ATOM     36  C   UNL A   1      39.560  25.628  28.626  1.00  0.00     0.010 A 
ATOM     37  C   UNL A   1      40.142  26.503  27.700  1.00  0.00    -0.014 A 
BRANCH  37  38
ATOM     38  C   UNL A   1      40.597  27.845  28.144  1.00  0.00     0.031 A 
ATOM     39  C   UNL A   1      42.057  28.207  28.059  1.00  0.00     0.074 A 
ATOM     40  C   UNL A   1      39.705  28.712  28.660  1.00  0.00     0.049 A 
ATOM     41  N   UNL A   1      42.659  29.310  28.423  1.00  0.00    -0.248 NA
ATOM     42  C   UNL A   1      42.965  27.179  27.528  1.00  0.00     0.031 C 
ATOM     43  C   UNL A   1      38.276  28.446  28.843  1.00  0.00     0.029 A 
ATOM     44  N   UNL A   1      39.865  29.993  29.124  1.00  0.00    -0.354 N 
ATOM     45  C   UNL A   1      44.013  29.101  28.177  1.00  0.00     0.074 A 
ATOM     46  C   UNL A   1      44.149  27.740  27.710  1.00  0.00     0.031 C 
ATOM     47  C   UNL A   1      37.684  29.544  29.340  1.00  0.00     0.029 A 
ATOM     48  C   UNL A   1      38.694  30.576  29.551  1.00  0.00     0.049 A 
ATOM     49  H   UNL A   1      40.735  30.453  29.148  1.00  0.00     0.167 HD
ATOM     50  C   UNL A   1      45.043  29.976  28.299  1.00  0.00     0.034 A 
ATOM     51  C   UNL A   1      38.463  31.805  30.052  1.00  0.00     0.034 A 
ATOM     52  C   UNL A   1      44.882  31.335  28.753  1.00  0.00     0.049 A 
ATOM     53  C   UNL A   1      39.622  32.762  30.171  1.00  0.00     0.074 A 
ATOM     54  C   UNL A   1      45.841  32.325  28.877  1.00  0.00     0.029 A 
ATOM     55  N   UNL A   1      43.678  31.898  29.160  1.00  0.00    -0.354 N 
ATOM     56  N   UNL A   1      40.890  32.569  29.883  1.00  0.00    -0.248 NA
ATOM     57  C   UNL A   1      39.313  34.111  30.658  1.00  0.00     0.031 C 
ATOM     58  C   UNL A   1      45.230  33.462  29.420  1.00  0.00     0.029 A 
ATOM     59  C   UNL A   1      43.874  33.213  29.555  1.00  0.00     0.049 A 
ATOM     60  H   UNL A   1      42.811  31.432  29.166  1.00  0.00     0.167 HD
ATOM     61  C   UNL A   1      41.522  33.786  30.120  1.00  0.00     0.074 A 
ATOM     62  C   UNL A   1      40.491  34.707  30.552  1.00  0.00     0.031 C 
ATOM     63  C   UNL A   1      42.835  34.115  29.993  1.00  0.00     0.034 A 
BRANCH  50  64
ATOM     64  C   UNL A   1      46.427  29.470  27.954  1.00  0.00     0.023 A 
ATOM     65  C   UNL A   1      46.764  29.067  26.648  1.00  0.00     0.031 A 
ATOM     66  C   UNL A   1      47.413  29.351  28.949  1.00  0.00     0.131 A 
ATOM     67  C   UNL A   1      48.014  28.486  26.392  1.00  0.00     0.055 A 
ATOM     68  C   UNL A   1      48.688  28.856  28.669  1.00  0.00     0.041 A 
ATOM     69  F   UNL A   1      47.149  29.697  30.219  1.00  0.00    -0.206 F 
ATOM     70  C   UNL A   1      48.990  28.403  27.387  1.00  0.00     0.022 A 
BRANCH  67  71
ATOM     71  S   UNL A   1      48.289  27.697  24.782  1.00  0.00     0.124 S 
ATOM     72  O   UNL A   1      47.252  28.325  23.966  1.00  0.00    -0.237 OA
ATOM     73  O   UNL A   1      49.661  28.079  24.473  1.00  0.00    -0.237 OA
ATOM     74  O   UNL A   1      48.082  26.277  25.055  1.00  0.00    -0.744 OA
ENDBRANCH  67  71
ENDBRANCH  50  64
BRANCH  51  75
ATOM     75  C   UNL A   1      37.088  32.211  30.463  1.00  0.00     0.023 A 
ATOM     76  C   UNL A   1      36.198  32.789  29.543  1.00  0.00     0.031 A 
ATOM     77  C   UNL A   1      36.656  32.065  31.793  1.00  0.00     0.131 A 
ATOM     78  C   UNL A   1      34.945  33.250  29.976  1.00  0.00     0.055 A 
ATOM     79  C   UNL A   1      35.387  32.474  32.207  1.00  0.00     0.041 A 
ATOM     80  F   UNL A   1      37.462  31.509  32.712  1.00  0.00    -0.206 F 
ATOM     81  C   UNL A   1      34.529  33.085  31.298  1.00  0.00     0.022 A 
BRANCH  78  82
ATOM     82  S   UNL A   1      33.900  34.155  28.801  1.00  0.00     0.124 S 
ATOM     83  O   UNL A   1      34.814  35.187  28.323  1.00  0.00    -0.237 OA
ATOM     84  O   UNL A   1      33.550  33.113  27.843  1.00  0.00    -0.237 OA
ATOM     85  O   UNL A   1      32.795  34.634  29.629  1.00  0.00    -0.744 OA
ENDBRANCH  78  82
ENDBRANCH  51  75
BRANCH  63  86
ATOM     86  C   UNL A   1      43.205  35.552  30.277  1.00  0.00     0.023 A 
ATOM     87  C   UNL A   1      43.192  36.534  29.272  1.00  0.00     0.031 A 
ATOM     88  C   UNL A   1      43.618  35.933  31.567  1.00  0.00     0.131 A 
ATOM     89  C   UNL A   1      43.663  37.825  29.550  1.00  0.00     0.055 A 
ATOM     90  C   UNL A   1      44.012  37.240  31.857  1.00  0.00     0.041 A 
ATOM     91  F   UNL A   1      43.652  35.038  32.567  1.00  0.00    -0.206 F 
ATOM     92  C   UNL A   1      44.056  38.190  30.840  1.00  0.00     0.022 A 
BRANCH  89  93
ATOM     93  S   UNL A   1      43.886  38.982  28.171  1.00  0.00     0.124 S 
ATOM     94  O   UNL A   1      43.986  40.263  28.864  1.00  0.00    -0.237 OA
ATOM     95  O   UNL A   1      45.114  38.495  27.551  1.00  0.00    -0.237 OA
ATOM     96  O   UNL A   1      42.675  38.802  27.373  1.00  0.00    -0.744 OA
ENDBRANCH  89  93
ENDBRANCH  63  86
ENDBRANCH  37  38
ENDBRANCH  29  32
ENDBRANCH  27  28
ENDBRANCH  26  27
ENDBRANCH   1  26
TORSDOF 18
ENDMDL
MODEL 2
REMARK VINA RESULT:     -11.3      2.038      2.345
REMARK SMILES C[C@@]([NH2+]CC(=O)NC1CCOCC1)(C(=O)NCCCNC(=O)c1ccc(-c2c3nc(c(-c4cc(S(=O)(=O)[O-])ccc4F)c4ccc([nH]4)c(-c4cc(S(=O)(=O)[O-])ccc4F)c4nc(c(-c5cc(S(=O)(=O)[O-])ccc5F)c5ccc2[nH]5)C=C4)C=C3)cc1)C(F)(F)F
REMARK SMILES IDX 17 1 16 2 14 3 15 4 2 6 1 7 3 8 4 11 5 12 6 13 7 14 8 16
REMARK SMILES IDX 9 17 13 18 10 19 12 20 11 21 86 22 87 23 88 24 89 25 18 26
REMARK SMILES IDX 19 27 20 28 21 29 22 31 23 32 24 33 85 34 25 35 84 36 26 37
REMARK SMILES IDX 27 38 28 39 78 40 29 41 83 42 77 43 79 44 30 45 82 46 76 47
REMARK SMILES IDX 75 48 31 50 63 51 43 52 62 53 44 54 47 55 61 56 80 57 45 58
REMARK SMILES IDX 46 59 60 61 81 62 48 63 32 64 33 65 41 66 34 67 40 68 42 69
REMARK SMILES IDX 39 70 35 71 36 72 37 73 38 74 64 75 65 76 73 77 66 78 72 79
REMARK SMILES IDX 74 80 71 81 67 82 68 83 69 84 70 85 49 86 50 87 58 88 51 89
REMARK SMILES IDX 57 90 59 91 56 92 52 93 53 94 54 95 55 96
REMARK H PARENT 16 5 3 9 3 10 7 15 20 30 79 49 47 60
REMARK Flexibility Score: inf
ROOT
ATOM      1  C   UNL A   1      35.803  22.553  23.666  1.00  0.00     0.118 C 
ENDROOT
BRANCH   1   2
ATOM      2  N   UNL A   1      34.729  22.945  22.783  1.00  0.00    -0.350 N 
ATOM      3  C   UNL A   1      33.540  23.554  22.796  1.00  0.00     0.290 C 
ATOM      4  O   UNL A   1      33.246  23.781  21.612  1.00  0.00    -0.267 OA
ATOM      5  H   UNL A   1      34.946  22.672  21.862  1.00  0.00     0.163 HD
BRANCH   3   6
ATOM      6  C   UNL A   1      32.630  24.021  24.000  1.00  0.00     0.268 C 
ATOM      7  C   UNL A   1      31.156  23.822  23.604  1.00  0.00     0.101 C 
BRANCH   6   8
ATOM      8  N   UNL A   1      32.957  23.149  25.202  1.00  0.00    -0.318 N 
ATOM      9  H   UNL A   1      32.554  23.600  26.023  1.00  0.00     0.347 HD
ATOM     10  H   UNL A   1      33.975  23.073  25.194  1.00  0.00     0.347 HD
BRANCH   8  11
ATOM     11  C   UNL A   1      32.475  21.726  25.192  1.00  0.00     0.362 C 
BRANCH  11  12
ATOM     12  C   UNL A   1      33.356  20.648  25.866  1.00  0.00     0.275 C 
ATOM     13  O   UNL A   1      34.428  20.976  26.388  1.00  0.00    -0.268 OA
ATOM     14  N   UNL A   1      32.880  19.371  26.123  1.00  0.00    -0.348 N 
ATOM     15  H   UNL A   1      32.491  19.219  27.014  1.00  0.00     0.163 HD
BRANCH  14  16
ATOM     16  C   UNL A   1      32.893  18.200  25.194  1.00  0.00     0.086 C 
ATOM     17  C   UNL A   1      32.840  16.849  25.874  1.00  0.00     0.053 C 
ATOM     18  C   UNL A   1      34.128  18.173  24.280  1.00  0.00     0.053 C 
ATOM     19  C   UNL A   1      32.834  15.686  24.906  1.00  0.00     0.162 C 
ATOM     20  C   UNL A   1      34.108  16.934  23.375  1.00  0.00     0.162 C 
ATOM     21  O   UNL A   1      34.015  15.723  24.122  1.00  0.00    -0.381 OA
ENDBRANCH  14  16
ENDBRANCH  11  12
ENDBRANCH   8  11
ENDBRANCH   6   8
BRANCH   6  22
ATOM     22  C   UNL A   1      32.684  25.548  24.343  1.00  0.00     0.453 C 
ATOM     23  F   UNL A   1      33.818  26.150  23.927  1.00  0.00    -0.164 F 
ATOM     24  F   UNL A   1      31.649  26.223  23.768  1.00  0.00    -0.164 F 
ATOM     25  F   UNL A   1      32.540  25.808  25.657  1.00  0.00    -0.164 F 
ENDBRANCH   6  22
ENDBRANCH   3   6
ENDBRANCH   1   2
BRANCH   1  26
ATOM     26  C   UNL A   1      36.390  23.759  24.385  1.00  0.00     0.042 C 
BRANCH  26  27
ATOM     27  C   UNL A   1      36.678  23.525  25.871  1.00  0.00     0.118 C 
BRANCH  27  28
ATOM     28  N   UNL A   1      37.745  22.559  26.099  1.00  0.00    -0.352 N 
ATOM     29  C   UNL A   1      39.071  22.755  26.398  1.00  0.00     0.251 C 
ATOM     30  H   UNL A   1      37.473  21.616  26.026  1.00  0.00     0.163 HD
ATOM     31  O   UNL A   1      39.864  21.831  26.255  1.00  0.00    -0.269 OA
BRANCH  29  32
ATOM     32  C   UNL A   1      39.533  24.074  26.873  1.00  0.00     0.039 A 
ATOM     33  C   UNL A   1      40.063  24.983  25.956  1.00  0.00     0.014 A 
ATOM     34  C   UNL A   1      39.481  24.397  28.231  1.00  0.00     0.014 A 
ATOM     35  C   UNL A   1      40.489  26.236  26.398  1.00  0.00     0.010 A 
ATOM     36  C   UNL A   1      39.807  25.680  28.652  1.00  0.00     0.010 A 
ATOM     37  C   UNL A   1      40.337  26.606  27.745  1.00  0.00    -0.014 A 
BRANCH  37  38
ATOM     38  C   UNL A   1      40.774  27.940  28.229  1.00  0.00     0.031 A 
ATOM     39  C   UNL A   1      42.240  28.284  28.257  1.00  0.00     0.074 A 
ATOM     40  C   UNL A   1      39.856  28.817  28.678  1.00  0.00     0.049 A 
ATOM     41  N   UNL A   1      42.827  29.378  28.672  1.00  0.00    -0.248 NA
ATOM     42  C   UNL A   1      43.174  27.245  27.793  1.00  0.00     0.031 C 
ATOM     43  C   UNL A   1      38.414  28.569  28.750  1.00  0.00     0.029 A 
ATOM     44  N   UNL A   1      39.995  30.094  29.159  1.00  0.00    -0.354 N 
ATOM     45  C   UNL A   1      44.193  29.152  28.529  1.00  0.00     0.074 A 
ATOM     46  C   UNL A   1      44.347  27.791  28.068  1.00  0.00     0.031 C 
ATOM     47  C   UNL A   1      37.799  29.672  29.205  1.00  0.00     0.029 A 
ATOM     48  C   UNL A   1      38.803  30.690  29.497  1.00  0.00     0.049 A 
ATOM     49  H   UNL A   1      40.867  30.542  29.252  1.00  0.00     0.167 HD
ATOM     50  C   UNL A   1      45.221  30.013  28.734  1.00  0.00     0.034 A 
ATOM     51  C   UNL A   1      38.549  31.921  29.985  1.00  0.00     0.034 A 
ATOM     52  C   UNL A   1      45.043  31.373  29.180  1.00  0.00     0.049 A 
ATOM     53  C   UNL A   1      39.708  32.862  30.196  1.00  0.00     0.074 A 
ATOM     54  C   UNL A   1      46.002  32.350  29.381  1.00  0.00     0.029 A 
ATOM     55  N   UNL A   1      43.818  31.950  29.496  1.00  0.00    -0.354 N 
ATOM     56  N   UNL A   1      40.991  32.653  30.006  1.00  0.00    -0.248 NA
ATOM     57  C   UNL A   1      39.379  34.213  30.665  1.00  0.00     0.031 C 
ATOM     58  C   UNL A   1      45.366  33.492  29.881  1.00  0.00     0.029 A 
ATOM     59  C   UNL A   1      43.999  33.260  29.911  1.00  0.00     0.049 A 
ATOM     60  H   UNL A   1      42.948  31.494  29.434  1.00  0.00     0.167 HD
ATOM     61  C   UNL A   1      41.619  33.862  30.297  1.00  0.00     0.074 A 
ATOM     62  C   UNL A   1      40.569  34.795  30.652  1.00  0.00     0.031 C 
ATOM     63  C   UNL A   1      42.941  34.174  30.272  1.00  0.00     0.034 A 
BRANCH  50  64
ATOM     64  C   UNL A   1      46.621  29.491  28.493  1.00  0.00     0.023 A 
ATOM     65  C   UNL A   1      47.376  28.897  29.521  1.00  0.00     0.031 A 
ATOM     66  C   UNL A   1      47.226  29.624  27.231  1.00  0.00     0.131 A 
ATOM     67  C   UNL A   1      48.714  28.541  29.295  1.00  0.00     0.055 A 
ATOM     68  C   UNL A   1      48.529  29.184  26.987  1.00  0.00     0.041 A 
ATOM     69  F   UNL A   1      46.568  30.203  26.214  1.00  0.00    -0.206 F 
ATOM     70  C   UNL A   1      49.287  28.654  28.027  1.00  0.00     0.022 A 
BRANCH  67  71
ATOM     71  S   UNL A   1      49.739  28.076  30.718  1.00  0.00     0.124 S 
ATOM     72  O   UNL A   1      48.736  27.557  31.645  1.00  0.00    -0.237 OA
ATOM     73  O   UNL A   1      50.648  27.092  30.144  1.00  0.00    -0.237 OA
ATOM     74  O   UNL A   1      50.357  29.337  31.122  1.00  0.00    -0.744 OA
ENDBRANCH  67  71
ENDBRANCH  50  64
BRANCH  51  75
ATOM     75  C   UNL A   1      37.152  32.343  30.291  1.00  0.00     0.023 A 
ATOM     76  C   UNL A   1      36.327  32.892  29.297  1.00  0.00     0.031 A 
ATOM     77  C   UNL A   1      36.633  32.240  31.594  1.00  0.00     0.131 A 
ATOM     78  C   UNL A   1      35.051  33.370  29.631  1.00  0.00     0.055 A 
ATOM     79  C   UNL A   1      35.341  32.665  31.909  1.00  0.00     0.041 A 
ATOM     80  F   UNL A   1      37.374  31.713  32.581  1.00  0.00    -0.206 F 
ATOM     81  C   UNL A   1      34.547  33.248  30.927  1.00  0.00     0.022 A 
BRANCH  78  82
ATOM     82  S   UNL A   1      34.089  34.239  28.361  1.00  0.00     0.124 S 
ATOM     83  O   UNL A   1      33.577  35.383  29.107  1.00  0.00    -0.237 OA
ATOM     84  O   UNL A   1      35.107  34.530  27.357  1.00  0.00    -0.237 OA
ATOM     85  O   UNL A   1      33.087  33.253  27.961  1.00  0.00    -0.744 OA
ENDBRANCH  78  82
ENDBRANCH  51  75
BRANCH  63  86
ATOM     86  C   UNL A   1      43.307  35.605  30.590  1.00  0.00     0.023 A 
ATOM     87  C   UNL A   1      43.427  36.064  31.913  1.00  0.00     0.031 A 
ATOM     88  C   UNL A   1      43.497  36.533  29.550  1.00  0.00     0.131 A 
ATOM     89  C   UNL A   1      43.643  37.426  32.163  1.00  0.00     0.055 A 
ATOM     90  C   UNL A   1      43.789  37.874  29.804  1.00  0.00     0.041 A 
ATOM     91  F   UNL A   1      43.393  36.153  28.266  1.00  0.00    -0.206 F 
ATOM     92  C   UNL A   1      43.843  38.331  31.118  1.00  0.00     0.022 A 
BRANCH  89  93
ATOM     93  S   UNL A   1      43.522  38.024  33.871  1.00  0.00     0.124 S 
ATOM     94  O   UNL A   1      42.937  39.349  33.687  1.00  0.00    -0.237 OA
ATOM     95  O   UNL A   1      42.658  37.025  34.490  1.00  0.00    -0.237 OA
ATOM     96  O   UNL A   1      44.908  38.019  34.336  1.00  0.00    -0.744 OA
ENDBRANCH  89  93
ENDBRANCH  63  86
ENDBRANCH  37  38
ENDBRANCH  29  32
ENDBRANCH  27  28
ENDBRANCH  26  27
ENDBRANCH   1  26
TORSDOF 18
ENDMDL
MODEL 3
REMARK VINA RESULT:     -11.3      2.254      4.201
REMARK SMILES C[C@@]([NH2+]CC(=O)NC1CCOCC1)(C(=O)NCCCNC(=O)c1ccc(-c2c3nc(c(-c4cc(S(=O)(=O)[O-])ccc4F)c4ccc([nH]4)c(-c4cc(S(=O)(=O)[O-])ccc4F)c4nc(c(-c5cc(S(=O)(=O)[O-])ccc5F)c5ccc2[nH]5)C=C4)C=C3)cc1)C(F)(F)F
REMARK SMILES IDX 17 1 16 2 14 3 15 4 2 6 1 7 3 8 4 11 5 12 6 13 7 14 8 16
REMARK SMILES IDX 9 17 13 18 10 19 12 20 11 21 86 22 87 23 88 24 89 25 18 26
REMARK SMILES IDX 19 27 20 28 21 29 22 31 23 32 24 33 85 34 25 35 84 36 26 37
REMARK SMILES IDX 27 38 28 39 78 40 29 41 83 42 77 43 79 44 30 45 82 46 76 47
REMARK SMILES IDX 75 48 31 50 63 51 43 52 62 53 44 54 47 55 61 56 80 57 45 58
REMARK SMILES IDX 46 59 60 61 81 62 48 63 32 64 33 65 41 66 34 67 40 68 42 69
REMARK SMILES IDX 39 70 35 71 36 72 37 73 38 74 64 75 65 76 73 77 66 78 72 79
REMARK SMILES IDX 74 80 71 81 67 82 68 83 69 84 70 85 49 86 50 87 58 88 51 89
REMARK SMILES IDX 57 90 59 91 56 92 52 93 53 94 54 95 55 96
REMARK H PARENT 16 5 3 9 3 10 7 15 20 30 79 49 47 60
REMARK Flexibility Score: inf
ROOT
ATOM      1  C   UNL A   1      33.688  23.050  26.262  1.00  0.00     0.118 C 
ENDROOT
BRANCH   1   2
ATOM      2  N   UNL A   1      32.617  23.243  25.311  1.00  0.00    -0.350 N 
ATOM      3  C   UNL A   1      32.047  24.192  24.563  1.00  0.00     0.290 C 
ATOM      4  O   UNL A   1      31.296  23.610  23.765  1.00  0.00    -0.267 OA
ATOM      5  H   UNL A   1      32.151  22.388  25.165  1.00  0.00     0.163 HD
BRANCH   3   6
ATOM      6  C   UNL A   1      32.259  25.758  24.540  1.00  0.00     0.268 C 
ATOM      7  C   UNL A   1      33.714  26.048  24.131  1.00  0.00     0.101 C 
BRANCH   6   8
ATOM      8  N   UNL A   1      31.312  26.345  23.505  1.00  0.00    -0.318 N 
ATOM      9  H   UNL A   1      30.582  26.846  24.013  1.00  0.00     0.347 HD
ATOM     10  H   UNL A   1      30.998  25.541  22.961  1.00  0.00     0.347 HD
BRANCH   8  11
ATOM     11  C   UNL A   1      31.880  27.290  22.486  1.00  0.00     0.362 C 
BRANCH  11  12
ATOM     12  C   UNL A   1      31.782  28.810  22.761  1.00  0.00     0.275 C 
ATOM     13  O   UNL A   1      32.558  29.334  23.568  1.00  0.00    -0.268 OA
ATOM     14  N   UNL A   1      31.022  29.649  21.960  1.00  0.00    -0.348 N 
ATOM     15  H   UNL A   1      31.493  30.091  21.218  1.00  0.00     0.163 HD
BRANCH  14  16
ATOM     16  C   UNL A   1      29.566  29.955  22.101  1.00  0.00     0.086 C 
ATOM     17  C   UNL A   1      29.255  31.217  22.878  1.00  0.00     0.053 C 
ATOM     18  C   UNL A   1      28.779  28.826  22.784  1.00  0.00     0.053 C 
ATOM     19  C   UNL A   1      27.774  31.509  22.986  1.00  0.00     0.162 C 
ATOM     20  C   UNL A   1      27.300  29.208  22.935  1.00  0.00     0.162 C 
ATOM     21  O   UNL A   1      27.131  30.432  23.647  1.00  0.00    -0.381 OA
ENDBRANCH  14  16
ENDBRANCH  11  12
ENDBRANCH   8  11
ENDBRANCH   6   8
BRANCH   6  22
ATOM     22  C   UNL A   1      32.147  26.481  25.925  1.00  0.00     0.453 C 
ATOM     23  F   UNL A   1      31.462  27.642  25.869  1.00  0.00    -0.164 F 
ATOM     24  F   UNL A   1      31.514  25.697  26.843  1.00  0.00    -0.164 F 
ATOM     25  F   UNL A   1      33.341  26.735  26.495  1.00  0.00    -0.164 F 
ENDBRANCH   6  22
ENDBRANCH   3   6
ENDBRANCH   1   2
BRANCH   1  26
ATOM     26  C   UNL A   1      34.928  22.484  25.584  1.00  0.00     0.042 C 
BRANCH  26  27
ATOM     27  C   UNL A   1      36.233  23.181  25.979  1.00  0.00     0.118 C 
BRANCH  27  28
ATOM     28  N   UNL A   1      37.340  22.251  26.164  1.00  0.00    -0.352 N 
ATOM     29  C   UNL A   1      38.676  22.493  26.376  1.00  0.00     0.251 C 
ATOM     30  H   UNL A   1      37.092  21.300  26.131  1.00  0.00     0.163 HD
ATOM     31  O   UNL A   1      39.486  21.588  26.207  1.00  0.00    -0.269 OA
BRANCH  29  32
ATOM     32  C   UNL A   1      39.126  23.836  26.789  1.00  0.00     0.039 A 
ATOM     33  C   UNL A   1      38.997  24.219  28.126  1.00  0.00     0.014 A 
ATOM     34  C   UNL A   1      39.637  24.733  25.849  1.00  0.00     0.014 A 
ATOM     35  C   UNL A   1      39.433  25.483  28.524  1.00  0.00     0.010 A 
ATOM     36  C   UNL A   1      40.166  25.949  26.265  1.00  0.00     0.010 A 
ATOM     37  C   UNL A   1      40.048  26.348  27.603  1.00  0.00    -0.014 A 
BRANCH  37  38
ATOM     38  C   UNL A   1      40.528  27.692  28.013  1.00  0.00     0.031 A 
ATOM     39  C   UNL A   1      41.985  28.044  27.867  1.00  0.00     0.074 A 
ATOM     40  C   UNL A   1      39.662  28.570  28.554  1.00  0.00     0.049 A 
ATOM     41  N   UNL A   1      42.608  29.147  28.195  1.00  0.00    -0.248 NA
ATOM     42  C   UNL A   1      42.866  27.003  27.312  1.00  0.00     0.031 C 
ATOM     43  C   UNL A   1      38.239  28.315  28.796  1.00  0.00     0.029 A 
ATOM     44  N   UNL A   1      39.847  29.855  28.997  1.00  0.00    -0.354 N 
ATOM     45  C   UNL A   1      43.950  28.927  27.898  1.00  0.00     0.074 A 
ATOM     46  C   UNL A   1      44.059  27.560  27.442  1.00  0.00     0.031 C 
ATOM     47  C   UNL A   1      37.674  29.422  29.303  1.00  0.00     0.029 A 
ATOM     48  C   UNL A   1      38.697  30.450  29.462  1.00  0.00     0.049 A 
ATOM     49  H   UNL A   1      40.720  30.309  28.982  1.00  0.00     0.167 HD
ATOM     50  C   UNL A   1      44.989  29.796  27.969  1.00  0.00     0.034 A 
ATOM     51  C   UNL A   1      38.493  31.686  29.959  1.00  0.00     0.034 A 
ATOM     52  C   UNL A   1      44.853  31.162  28.414  1.00  0.00     0.049 A 
ATOM     53  C   UNL A   1      39.661  32.637  30.021  1.00  0.00     0.074 A 
ATOM     54  C   UNL A   1      45.822  32.147  28.489  1.00  0.00     0.029 A 
ATOM     55  N   UNL A   1      43.670  31.736  28.861  1.00  0.00    -0.354 N 
ATOM     56  N   UNL A   1      40.915  32.432  29.685  1.00  0.00    -0.248 NA
ATOM     57  C   UNL A   1      39.380  33.993  30.504  1.00  0.00     0.031 C 
ATOM     58  C   UNL A   1      45.240  33.293  29.042  1.00  0.00     0.029 A 
ATOM     59  C   UNL A   1      43.888  33.054  29.233  1.00  0.00     0.049 A 
ATOM     60  H   UNL A   1      42.801  31.275  28.907  1.00  0.00     0.167 HD
ATOM     61  C   UNL A   1      41.564  33.648  29.884  1.00  0.00     0.074 A 
ATOM     62  C   UNL A   1      40.556  34.581  30.346  1.00  0.00     0.031 C 
ATOM     63  C   UNL A   1      42.872  33.968  29.702  1.00  0.00     0.034 A 
BRANCH  50  64
ATOM     64  C   UNL A   1      46.355  29.278  27.576  1.00  0.00     0.023 A 
ATOM     65  C   UNL A   1      46.600  28.730  26.304  1.00  0.00     0.031 A 
ATOM     66  C   UNL A   1      47.418  29.296  28.496  1.00  0.00     0.131 A 
ATOM     67  C   UNL A   1      47.843  28.145  26.018  1.00  0.00     0.055 A 
ATOM     68  C   UNL A   1      48.681  28.794  28.175  1.00  0.00     0.041 A 
ATOM     69  F   UNL A   1      47.243  29.785  29.734  1.00  0.00    -0.206 F 
ATOM     70  C   UNL A   1      48.894  28.198  26.935  1.00  0.00     0.022 A 
BRANCH  67  71
ATOM     71  S   UNL A   1      48.014  27.176  24.493  1.00  0.00     0.124 S 
ATOM     72  O   UNL A   1      47.969  28.223  23.474  1.00  0.00    -0.237 OA
ATOM     73  O   UNL A   1      49.302  26.520  24.678  1.00  0.00    -0.237 OA
ATOM     74  O   UNL A   1      46.852  26.290  24.517  1.00  0.00    -0.744 OA
ENDBRANCH  67  71
ENDBRANCH  50  64
BRANCH  51  75
ATOM     75  C   UNL A   1      37.138  32.105  30.418  1.00  0.00     0.023 A 
ATOM     76  C   UNL A   1      36.223  32.696  29.533  1.00  0.00     0.031 A 
ATOM     77  C   UNL A   1      36.751  31.956  31.762  1.00  0.00     0.131 A 
ATOM     78  C   UNL A   1      34.991  33.170  30.010  1.00  0.00     0.055 A 
ATOM     79  C   UNL A   1      35.501  32.377  32.221  1.00  0.00     0.041 A 
ATOM     80  F   UNL A   1      37.581  31.388  32.650  1.00  0.00    -0.206 F 
ATOM     81  C   UNL A   1      34.618  33.002  31.345  1.00  0.00     0.022 A 
BRANCH  78  82
ATOM     82  S   UNL A   1      33.916  34.092  28.876  1.00  0.00     0.124 S 
ATOM     83  O   UNL A   1      34.831  35.098  28.351  1.00  0.00    -0.237 OA
ATOM     84  O   UNL A   1      33.500  33.052  27.942  1.00  0.00    -0.237 OA
ATOM     85  O   UNL A   1      32.860  34.601  29.749  1.00  0.00    -0.744 OA
ENDBRANCH  78  82
ENDBRANCH  51  75
BRANCH  63  86
ATOM     86  C   UNL A   1      43.262  35.405  29.955  1.00  0.00     0.023 A 
ATOM     87  C   UNL A   1      43.229  36.373  28.936  1.00  0.00     0.031 A 
ATOM     88  C   UNL A   1      43.712  35.802  31.227  1.00  0.00     0.131 A 
ATOM     89  C   UNL A   1      43.718  37.663  29.182  1.00  0.00     0.055 A 
ATOM     90  C   UNL A   1      44.125  37.109  31.487  1.00  0.00     0.041 A 
ATOM     91  F   UNL A   1      43.766  34.920  32.239  1.00  0.00    -0.206 F 
ATOM     92  C   UNL A   1      44.149  38.043  30.456  1.00  0.00     0.022 A 
BRANCH  89  93
ATOM     93  S   UNL A   1      43.913  38.799  27.782  1.00  0.00     0.124 S 
ATOM     94  O   UNL A   1      42.707  38.531  27.004  1.00  0.00    -0.237 OA
ATOM     95  O   UNL A   1      43.971  40.099  28.441  1.00  0.00    -0.237 OA
ATOM     96  O   UNL A   1      45.162  38.363  27.158  1.00  0.00    -0.744 OA
ENDBRANCH  89  93
ENDBRANCH  63  86
ENDBRANCH  37  38
ENDBRANCH  29  32
ENDBRANCH  27  28
ENDBRANCH  26  27
ENDBRANCH   1  26
TORSDOF 18
ENDMDL
