MODEL 1
REMARK VINA RESULT:     -13.6      0.000      0.000
REMARK SMILES O=C(NCCCNC(=O)c1cc(-c2cccc(F)c2)nc2c(F)cccc12)c1ccc(-c2c3nc(c(-c4cc(S(=O)(=O)[O-])ccc4F)c4ccc([nH]4)c(-c4cc(S(=O)(=O)[O-])ccc4F)c4nc(c(-c5cc(S(=O)(=O)[O-])ccc5F)c5ccc2[nH]5)C=C4)C=C3)cc1
REMARK SMILES IDX 4 1 3 2 1 3 2 4 28 6 29 7 90 8 30 9 89 10 31 11 32 12 33 13
REMARK SMILES IDX 83 14 34 15 88 16 82 17 84 18 35 19 87 20 81 21 80 22 36 24
REMARK SMILES IDX 68 25 48 26 67 27 49 28 52 29 66 30 85 31 50 32 51 33 65 35
REMARK SMILES IDX 86 36 53 37 37 38 38 39 46 40 39 41 45 42 47 43 44 44 40 45
REMARK SMILES IDX 41 46 42 47 43 48 69 49 70 50 78 51 71 52 77 53 79 54 76 55
REMARK SMILES IDX 72 56 73 57 74 58 75 59 54 60 55 61 63 62 56 63 62 64 64 65
REMARK SMILES IDX 61 66 57 67 58 68 59 69 60 70 5 71 6 72 7 73 8 74 9 76 10 77
REMARK SMILES IDX 11 78 27 79 12 80 21 81 26 82 20 83 22 84 25 85 23 86 24 87
REMARK SMILES IDX 13 88 14 89 19 90 15 91 17 92 16 93 18 94
REMARK H PARENT 3 5 84 23 52 34 7 75
REMARK Flexibility Score: inf
ROOT
ATOM      1  C   UNL A   1      35.827  22.371  26.245  1.00  0.00     0.118 C 
ENDROOT
BRANCH   1   2
ATOM      2  N   UNL A   1      36.803  21.379  25.806  1.00  0.00    -0.352 N 
ATOM      3  O   UNL A   1      38.807  20.526  25.228  1.00  0.00    -0.269 OA
ATOM      4  C   UNL A   1      38.180  21.433  25.769  1.00  0.00     0.251 C 
ATOM      5  H   UNL A   1      36.416  20.533  25.484  1.00  0.00     0.163 HD
BRANCH   4   6
ATOM      6  C   UNL A   1      38.896  22.590  26.348  1.00  0.00     0.039 A 
ATOM      7  C   UNL A   1      38.496  23.889  26.046  1.00  0.00     0.014 A 
ATOM      8  C   UNL A   1      39.992  22.382  27.194  1.00  0.00     0.014 A 
ATOM      9  C   UNL A   1      39.314  24.955  26.383  1.00  0.00     0.010 A 
ATOM     10  C   UNL A   1      40.735  23.474  27.657  1.00  0.00     0.010 A 
ATOM     11  C   UNL A   1      40.432  24.770  27.214  1.00  0.00    -0.014 A 
BRANCH  11  12
ATOM     12  C   UNL A   1      41.206  25.973  27.624  1.00  0.00     0.031 A 
ATOM     13  C   UNL A   1      42.550  26.290  27.029  1.00  0.00     0.074 A 
ATOM     14  C   UNL A   1      40.619  26.842  28.473  1.00  0.00     0.049 A 
ATOM     15  N   UNL A   1      43.290  27.356  27.201  1.00  0.00    -0.248 NA
ATOM     16  C   UNL A   1      43.150  25.284  26.140  1.00  0.00     0.031 C 
ATOM     17  C   UNL A   1      39.320  26.631  29.122  1.00  0.00     0.029 A 
ATOM     18  N   UNL A   1      40.991  28.096  28.884  1.00  0.00    -0.354 N 
ATOM     19  C   UNL A   1      44.454  27.138  26.472  1.00  0.00     0.074 A 
ATOM     20  C   UNL A   1      44.329  25.828  25.868  1.00  0.00     0.031 C 
ATOM     21  C   UNL A   1      38.950  27.758  29.743  1.00  0.00     0.029 A 
ATOM     22  C   UNL A   1      40.020  28.739  29.618  1.00  0.00     0.049 A 
ATOM     23  H   UNL A   1      41.865  28.496  28.675  1.00  0.00     0.167 HD
ATOM     24  C   UNL A   1      45.523  27.958  26.321  1.00  0.00     0.034 A 
ATOM     25  C   UNL A   1      39.987  29.979  30.140  1.00  0.00     0.034 A 
ATOM     26  C   UNL A   1      45.617  29.275  26.904  1.00  0.00     0.049 A 
ATOM     27  C   UNL A   1      41.180  30.869  29.958  1.00  0.00     0.074 A 
ATOM     28  C   UNL A   1      46.638  30.201  26.779  1.00  0.00     0.029 A 
ATOM     29  N   UNL A   1      44.654  29.854  27.720  1.00  0.00    -0.354 N 
ATOM     30  N   UNL A   1      42.282  30.632  29.289  1.00  0.00    -0.248 NA
ATOM     31  C   UNL A   1      41.137  32.178  30.620  1.00  0.00     0.031 C 
ATOM     32  C   UNL A   1      46.321  31.314  27.565  1.00  0.00     0.029 A 
ATOM     33  C   UNL A   1      45.072  31.111  28.130  1.00  0.00     0.049 A 
ATOM     34  H   UNL A   1      43.800  29.434  27.971  1.00  0.00     0.167 HD
ATOM     35  C   UNL A   1      43.074  31.760  29.457  1.00  0.00     0.074 A 
ATOM     36  C   UNL A   1      42.316  32.685  30.277  1.00  0.00     0.031 C 
ATOM     37  C   UNL A   1      44.318  32.005  28.975  1.00  0.00     0.034 A 
BRANCH  24  38
ATOM     38  C   UNL A   1      46.701  27.439  25.535  1.00  0.00     0.023 A 
ATOM     39  C   UNL A   1      46.968  27.864  24.223  1.00  0.00     0.031 A 
ATOM     40  C   UNL A   1      47.577  26.505  26.118  1.00  0.00     0.131 A 
ATOM     41  C   UNL A   1      48.054  27.320  23.520  1.00  0.00     0.055 A 
ATOM     42  C   UNL A   1      48.692  26.015  25.437  1.00  0.00     0.041 A 
ATOM     43  F   UNL A   1      47.360  26.051  27.363  1.00  0.00    -0.206 F 
ATOM     44  C   UNL A   1      48.932  26.416  24.126  1.00  0.00     0.022 A 
BRANCH  41  45
ATOM     45  S   UNL A   1      48.254  27.738  21.767  1.00  0.00     0.124 S 
ATOM     46  O   UNL A   1      48.553  26.432  21.185  1.00  0.00    -0.237 OA
ATOM     47  O   UNL A   1      46.954  28.306  21.426  1.00  0.00    -0.237 OA
ATOM     48  O   UNL A   1      49.367  28.684  21.763  1.00  0.00    -0.744 OA
ENDBRANCH  41  45
ENDBRANCH  24  38
BRANCH  25  49
ATOM     49  C   UNL A   1      38.788  30.416  30.901  1.00  0.00     0.023 A 
ATOM     50  C   UNL A   1      37.774  31.167  30.289  1.00  0.00     0.031 A 
ATOM     51  C   UNL A   1      38.607  30.014  32.237  1.00  0.00     0.131 A 
ATOM     52  C   UNL A   1      36.616  31.489  31.016  1.00  0.00     0.055 A 
ATOM     53  C   UNL A   1      37.441  30.306  32.942  1.00  0.00     0.041 A 
ATOM     54  F   UNL A   1      39.545  29.275  32.854  1.00  0.00    -0.206 F 
ATOM     55  C   UNL A   1      36.436  31.050  32.330  1.00  0.00     0.022 A 
BRANCH  52  56
ATOM     56  S   UNL A   1      35.323  32.476  30.211  1.00  0.00     0.124 S 
ATOM     57  O   UNL A   1      34.382  32.680  31.308  1.00  0.00    -0.237 OA
ATOM     58  O   UNL A   1      36.062  33.653  29.770  1.00  0.00    -0.237 OA
ATOM     59  O   UNL A   1      34.851  31.604  29.137  1.00  0.00    -0.744 OA
ENDBRANCH  52  56
ENDBRANCH  25  49
BRANCH  37  60
ATOM     60  C   UNL A   1      44.934  33.330  29.320  1.00  0.00     0.023 A 
ATOM     61  C   UNL A   1      44.725  34.461  28.515  1.00  0.00     0.031 A 
ATOM     62  C   UNL A   1      45.706  33.468  30.486  1.00  0.00     0.131 A 
ATOM     63  C   UNL A   1      45.305  35.687  28.877  1.00  0.00     0.055 A 
ATOM     64  C   UNL A   1      46.248  34.698  30.861  1.00  0.00     0.041 A 
ATOM     65  F   UNL A   1      45.928  32.413  31.285  1.00  0.00    -0.206 F 
ATOM     66  C   UNL A   1      46.051  35.815  30.052  1.00  0.00     0.022 A 
BRANCH  63  67
ATOM     67  S   UNL A   1      45.084  37.118  27.784  1.00  0.00     0.124 S 
ATOM     68  O   UNL A   1      46.128  36.897  26.788  1.00  0.00    -0.237 OA
ATOM     69  O   UNL A   1      43.712  36.954  27.318  1.00  0.00    -0.237 OA
ATOM     70  O   UNL A   1      45.303  38.260  28.670  1.00  0.00    -0.744 OA
ENDBRANCH  63  67
ENDBRANCH  37  60
ENDBRANCH  11  12
ENDBRANCH   4   6
ENDBRANCH   1   2
BRANCH   1  71
ATOM     71  C   UNL A   1      34.500  21.767  26.673  1.00  0.00     0.042 C 
BRANCH  71  72
ATOM     72  C   UNL A   1      33.737  22.603  27.680  1.00  0.00     0.118 C 
BRANCH  72  73
ATOM     73  N   UNL A   1      32.295  22.385  27.639  1.00  0.00    -0.352 N 
ATOM     74  C   UNL A   1      31.346  22.991  26.857  1.00  0.00     0.252 C 
ATOM     75  H   UNL A   1      31.954  21.706  28.265  1.00  0.00     0.163 HD
ATOM     76  O   UNL A   1      30.159  22.704  26.978  1.00  0.00    -0.269 OA
BRANCH  74  77
ATOM     77  C   UNL A   1      31.745  24.030  25.889  1.00  0.00     0.051 A 
ATOM     78  C   UNL A   1      31.735  25.339  26.364  1.00  0.00     0.043 A 
ATOM     79  C   UNL A   1      32.135  23.727  24.566  1.00  0.00     0.016 A 
ATOM     80  C   UNL A   1      32.153  26.340  25.511  1.00  0.00     0.072 A 
ATOM     81  C   UNL A   1      32.625  24.800  23.804  1.00  0.00     0.107 A 
ATOM     82  C   UNL A   1      32.081  22.428  23.991  1.00  0.00     0.011 A 
ATOM     83  N   UNL A   1      32.604  26.072  24.262  1.00  0.00    -0.245 NA
ATOM     84  C   UNL A   1      33.152  24.505  22.545  1.00  0.00     0.149 A 
ATOM     85  C   UNL A   1      32.616  22.169  22.734  1.00  0.00     0.004 A 
ATOM     86  F   UNL A   1      33.677  25.489  21.796  1.00  0.00    -0.205 F 
ATOM     87  C   UNL A   1      33.176  23.213  22.016  1.00  0.00     0.041 A 
BRANCH  80  88
ATOM     88  C   UNL A   1      32.099  27.758  25.880  1.00  0.00     0.003 A 
ATOM     89  C   UNL A   1      32.795  28.219  27.015  1.00  0.00     0.010 A 
ATOM     90  C   UNL A   1      31.379  28.695  25.122  1.00  0.00     0.049 A 
ATOM     91  C   UNL A   1      32.789  29.570  27.374  1.00  0.00     0.004 A 
ATOM     92  C   UNL A   1      31.371  30.038  25.494  1.00  0.00     0.123 A 
ATOM     93  C   UNL A   1      32.073  30.483  26.606  1.00  0.00     0.039 A 
ATOM     94  F   UNL A   1      30.677  30.919  24.761  1.00  0.00    -0.207 F 
ENDBRANCH  80  88
ENDBRANCH  74  77
ENDBRANCH  72  73
ENDBRANCH  71  72
ENDBRANCH   1  71
TORSDOF 14
ENDMDL
MODEL 2
REMARK VINA RESULT:     -13.6      5.039     10.215
REMARK SMILES O=C(NCCCNC(=O)c1cc(-c2cccc(F)c2)nc2c(F)cccc12)c1ccc(-c2c3nc(c(-c4cc(S(=O)(=O)[O-])ccc4F)c4ccc([nH]4)c(-c4cc(S(=O)(=O)[O-])ccc4F)c4nc(c(-c5cc(S(=O)(=O)[O-])ccc5F)c5ccc2[nH]5)C=C4)C=C3)cc1
REMARK SMILES IDX 4 1 3 2 1 3 2 4 28 6 29 7 90 8 30 9 89 10 31 11 32 12 33 13
REMARK SMILES IDX 83 14 34 15 88 16 82 17 84 18 35 19 87 20 81 21 80 22 36 24
REMARK SMILES IDX 68 25 48 26 67 27 49 28 52 29 66 30 85 31 50 32 51 33 65 35
REMARK SMILES IDX 86 36 53 37 37 38 38 39 46 40 39 41 45 42 47 43 44 44 40 45
REMARK SMILES IDX 41 46 42 47 43 48 69 49 70 50 78 51 71 52 77 53 79 54 76 55
REMARK SMILES IDX 72 56 73 57 74 58 75 59 54 60 55 61 63 62 56 63 62 64 64 65
REMARK SMILES IDX 61 66 57 67 58 68 59 69 60 70 5 71 6 72 7 73 8 74 9 76 10 77
REMARK SMILES IDX 11 78 27 79 12 80 21 81 26 82 20 83 22 84 25 85 23 86 24 87
REMARK SMILES IDX 13 88 14 89 19 90 15 91 17 92 16 93 18 94
REMARK H PARENT 3 5 84 23 52 34 7 75
REMARK Flexibility Score: inf
ROOT
ATOM      1  C   UNL A   1      33.245  29.117  25.283  1.00  0.00     0.118 C 
ENDROOT
BRANCH   1   2
ATOM      2  N   UNL A   1      32.652  30.313  25.875  1.00  0.00    -0.352 N 
ATOM      3  O   UNL A   1      32.358  31.999  27.340  1.00  0.00    -0.269 OA
ATOM      4  C   UNL A   1      33.091  31.112  26.908  1.00  0.00     0.251 C 
ATOM      5  H   UNL A   1      31.800  30.593  25.471  1.00  0.00     0.163 HD
BRANCH   4   6
ATOM      6  C   UNL A   1      34.420  30.885  27.514  1.00  0.00     0.039 A 
ATOM      7  C   UNL A   1      34.787  29.615  27.953  1.00  0.00     0.014 A 
ATOM      8  C   UNL A   1      35.313  31.952  27.662  1.00  0.00     0.014 A 
ATOM      9  C   UNL A   1      35.917  29.459  28.738  1.00  0.00     0.010 A 
ATOM     10  C   UNL A   1      36.528  31.761  28.331  1.00  0.00     0.010 A 
ATOM     11  C   UNL A   1      36.819  30.521  28.920  1.00  0.00    -0.014 A 
BRANCH  11  12
ATOM     12  C   UNL A   1      38.066  30.256  29.686  1.00  0.00     0.031 A 
ATOM     13  C   UNL A   1      38.205  30.647  31.132  1.00  0.00     0.074 A 
ATOM     14  C   UNL A   1      39.043  29.551  29.079  1.00  0.00     0.049 A 
ATOM     15  N   UNL A   1      39.182  30.383  31.961  1.00  0.00    -0.248 NA
ATOM     16  C   UNL A   1      37.121  31.446  31.723  1.00  0.00     0.031 C 
ATOM     17  C   UNL A   1      39.021  29.129  27.674  1.00  0.00     0.029 A 
ATOM     18  N   UNL A   1      40.202  29.006  29.567  1.00  0.00    -0.354 N 
ATOM     19  C   UNL A   1      38.851  31.007  33.159  1.00  0.00     0.074 A 
ATOM     20  C   UNL A   1      37.587  31.679  32.943  1.00  0.00     0.031 C 
ATOM     21  C   UNL A   1      40.042  28.293  27.449  1.00  0.00     0.029 A 
ATOM     22  C   UNL A   1      40.845  28.193  28.661  1.00  0.00     0.049 A 
ATOM     23  H   UNL A   1      40.540  29.178  30.475  1.00  0.00     0.167 HD
ATOM     24  C   UNL A   1      39.539  31.013  34.327  1.00  0.00     0.034 A 
ATOM     25  C   UNL A   1      41.959  27.447  28.783  1.00  0.00     0.034 A 
ATOM     26  C   UNL A   1      40.782  30.310  34.534  1.00  0.00     0.049 A 
ATOM     27  C   UNL A   1      42.702  27.469  30.085  1.00  0.00     0.074 A 
ATOM     28  C   UNL A   1      41.538  30.220  35.691  1.00  0.00     0.029 A 
ATOM     29  N   UNL A   1      41.451  29.575  33.565  1.00  0.00    -0.354 N 
ATOM     30  N   UNL A   1      42.387  28.089  31.196  1.00  0.00    -0.248 NA
ATOM     31  C   UNL A   1      43.959  26.714  30.144  1.00  0.00     0.031 C 
ATOM     32  C   UNL A   1      42.691  29.481  35.406  1.00  0.00     0.029 A 
ATOM     33  C   UNL A   1      42.625  29.055  34.089  1.00  0.00     0.049 A 
ATOM     34  H   UNL A   1      41.139  29.443  32.641  1.00  0.00     0.167 HD
ATOM     35  C   UNL A   1      43.413  27.810  32.088  1.00  0.00     0.074 A 
ATOM     36  C   UNL A   1      44.350  26.950  31.390  1.00  0.00     0.031 C 
ATOM     37  C   UNL A   1      43.564  28.229  33.369  1.00  0.00     0.034 A 
BRANCH  24  38
ATOM     38  C   UNL A   1      38.991  31.845  35.460  1.00  0.00     0.023 A 
ATOM     39  C   UNL A   1      38.376  31.266  36.581  1.00  0.00     0.031 A 
ATOM     40  C   UNL A   1      39.096  33.248  35.415  1.00  0.00     0.131 A 
ATOM     41  C   UNL A   1      37.847  32.086  37.590  1.00  0.00     0.055 A 
ATOM     42  C   UNL A   1      38.624  34.056  36.450  1.00  0.00     0.041 A 
ATOM     43  F   UNL A   1      39.659  33.857  34.359  1.00  0.00    -0.206 F 
ATOM     44  C   UNL A   1      37.987  33.476  37.543  1.00  0.00     0.022 A 
BRANCH  41  45
ATOM     45  S   UNL A   1      36.886  31.318  38.922  1.00  0.00     0.124 S 
ATOM     46  O   UNL A   1      37.777  31.492  40.067  1.00  0.00    -0.237 OA
ATOM     47  O   UNL A   1      35.666  32.118  38.935  1.00  0.00    -0.237 OA
ATOM     48  O   UNL A   1      36.720  29.937  38.474  1.00  0.00    -0.744 OA
ENDBRANCH  41  45
ENDBRANCH  24  38
BRANCH  25  49
ATOM     49  C   UNL A   1      42.434  26.654  27.619  1.00  0.00     0.023 A 
ATOM     50  C   UNL A   1      42.148  25.286  27.509  1.00  0.00     0.031 A 
ATOM     51  C   UNL A   1      43.114  27.281  26.560  1.00  0.00     0.131 A 
ATOM     52  C   UNL A   1      42.538  24.587  26.355  1.00  0.00     0.055 A 
ATOM     53  C   UNL A   1      43.468  26.591  25.402  1.00  0.00     0.041 A 
ATOM     54  F   UNL A   1      43.389  28.595  26.615  1.00  0.00    -0.206 F 
ATOM     55  C   UNL A   1      43.180  25.233  25.295  1.00  0.00     0.022 A 
BRANCH  52  56
ATOM     56  S   UNL A   1      42.173  22.813  26.239  1.00  0.00     0.124 S 
ATOM     57  O   UNL A   1      42.737  22.481  24.935  1.00  0.00    -0.237 OA
ATOM     58  O   UNL A   1      42.876  22.277  27.399  1.00  0.00    -0.237 OA
ATOM     59  O   UNL A   1      40.715  22.761  26.321  1.00  0.00    -0.744 OA
ENDBRANCH  52  56
ENDBRANCH  25  49
BRANCH  37  60
ATOM     60  C   UNL A   1      44.788  27.759  34.100  1.00  0.00     0.023 A 
ATOM     61  C   UNL A   1      44.792  26.545  34.807  1.00  0.00     0.031 A 
ATOM     62  C   UNL A   1      45.972  28.515  34.057  1.00  0.00     0.131 A 
ATOM     63  C   UNL A   1      45.959  26.131  35.467  1.00  0.00     0.055 A 
ATOM     64  C   UNL A   1      47.140  28.079  34.682  1.00  0.00     0.041 A 
ATOM     65  F   UNL A   1      46.012  29.680  33.391  1.00  0.00    -0.206 F 
ATOM     66  C   UNL A   1      47.136  26.882  35.395  1.00  0.00     0.022 A 
BRANCH  63  67
ATOM     67  S   UNL A   1      45.922  24.598  36.434  1.00  0.00     0.124 S 
ATOM     68  O   UNL A   1      45.914  23.582  35.386  1.00  0.00    -0.237 OA
ATOM     69  O   UNL A   1      47.145  24.689  37.225  1.00  0.00    -0.237 OA
ATOM     70  O   UNL A   1      44.682  24.707  37.201  1.00  0.00    -0.744 OA
ENDBRANCH  63  67
ENDBRANCH  37  60
ENDBRANCH  11  12
ENDBRANCH   4   6
ENDBRANCH   1   2
BRANCH   1  71
ATOM     71  C   UNL A   1      32.969  28.977  23.796  1.00  0.00     0.042 C 
BRANCH  71  72
ATOM     72  C   UNL A   1      34.063  28.262  23.028  1.00  0.00     0.118 C 
BRANCH  72  73
ATOM     73  N   UNL A   1      33.579  27.573  21.837  1.00  0.00    -0.352 N 
ATOM     74  C   UNL A   1      33.101  26.295  21.707  1.00  0.00     0.252 C 
ATOM     75  H   UNL A   1      33.600  28.101  21.008  1.00  0.00     0.163 HD
ATOM     76  O   UNL A   1      32.761  25.863  20.609  1.00  0.00    -0.269 OA
BRANCH  74  77
ATOM     77  C   UNL A   1      33.032  25.411  22.886  1.00  0.00     0.051 A 
ATOM     78  C   UNL A   1      34.126  24.572  23.081  1.00  0.00     0.043 A 
ATOM     79  C   UNL A   1      31.939  25.421  23.780  1.00  0.00     0.016 A 
ATOM     80  C   UNL A   1      34.131  23.767  24.201  1.00  0.00     0.072 A 
ATOM     81  C   UNL A   1      32.076  24.631  24.933  1.00  0.00     0.107 A 
ATOM     82  C   UNL A   1      30.754  26.183  23.591  1.00  0.00     0.011 A 
ATOM     83  N   UNL A   1      33.133  23.808  25.116  1.00  0.00    -0.245 NA
ATOM     84  C   UNL A   1      31.076  24.733  25.903  1.00  0.00     0.149 A 
ATOM     85  C   UNL A   1      29.779  26.263  24.579  1.00  0.00     0.004 A 
ATOM     86  F   UNL A   1      31.184  24.035  27.045  1.00  0.00    -0.205 F 
ATOM     87  C   UNL A   1      29.953  25.549  25.753  1.00  0.00     0.041 A 
BRANCH  80  88
ATOM     88  C   UNL A   1      35.191  22.784  24.456  1.00  0.00     0.003 A 
ATOM     89  C   UNL A   1      36.529  23.207  24.582  1.00  0.00     0.010 A 
ATOM     90  C   UNL A   1      34.914  21.416  24.598  1.00  0.00     0.049 A 
ATOM     91  C   UNL A   1      37.556  22.300  24.857  1.00  0.00     0.004 A 
ATOM     92  C   UNL A   1      35.946  20.518  24.862  1.00  0.00     0.123 A 
ATOM     93  C   UNL A   1      37.260  20.948  24.998  1.00  0.00     0.039 A 
ATOM     94  F   UNL A   1      35.667  19.214  24.992  1.00  0.00    -0.207 F 
ENDBRANCH  80  88
ENDBRANCH  74  77
ENDBRANCH  72  73
ENDBRANCH  71  72
ENDBRANCH   1  71
TORSDOF 14
ENDMDL
MODEL 3
REMARK VINA RESULT:     -13.4      0.875      7.521
REMARK SMILES O=C(NCCCNC(=O)c1cc(-c2cccc(F)c2)nc2c(F)cccc12)c1ccc(-c2c3nc(c(-c4cc(S(=O)(=O)[O-])ccc4F)c4ccc([nH]4)c(-c4cc(S(=O)(=O)[O-])ccc4F)c4nc(c(-c5cc(S(=O)(=O)[O-])ccc5F)c5ccc2[nH]5)C=C4)C=C3)cc1
REMARK SMILES IDX 4 1 3 2 1 3 2 4 28 6 29 7 90 8 30 9 89 10 31 11 32 12 33 13
REMARK SMILES IDX 83 14 34 15 88 16 82 17 84 18 35 19 87 20 81 21 80 22 36 24
REMARK SMILES IDX 68 25 48 26 67 27 49 28 52 29 66 30 85 31 50 32 51 33 65 35
REMARK SMILES IDX 86 36 53 37 37 38 38 39 46 40 39 41 45 42 47 43 44 44 40 45
REMARK SMILES IDX 41 46 42 47 43 48 69 49 70 50 78 51 71 52 77 53 79 54 76 55
REMARK SMILES IDX 72 56 73 57 74 58 75 59 54 60 55 61 63 62 56 63 62 64 64 65
REMARK SMILES IDX 61 66 57 67 58 68 59 69 60 70 5 71 6 72 7 73 8 74 9 76 10 77
REMARK SMILES IDX 11 78 27 79 12 80 21 81 26 82 20 83 22 84 25 85 23 86 24 87
REMARK SMILES IDX 13 88 14 89 19 90 15 91 17 92 16 93 18 94
REMARK H PARENT 3 5 84 23 52 34 7 75
REMARK Flexibility Score: inf
ROOT
ATOM      1  C   UNL A   1      35.820  22.106  25.878  1.00  0.00     0.118 C 
ENDROOT
BRANCH   1   2
ATOM      2  N   UNL A   1      36.860  21.095  25.708  1.00  0.00    -0.352 N 
ATOM      3  O   UNL A   1      38.932  20.241  25.480  1.00  0.00    -0.269 OA
ATOM      4  C   UNL A   1      38.231  21.198  25.799  1.00  0.00     0.251 C 
ATOM      5  H   UNL A   1      36.527  20.194  25.495  1.00  0.00     0.163 HD
BRANCH   4   6
ATOM      6  C   UNL A   1      38.856  22.463  26.244  1.00  0.00     0.039 A 
ATOM      7  C   UNL A   1      38.343  23.688  25.827  1.00  0.00     0.014 A 
ATOM      8  C   UNL A   1      39.978  22.430  27.080  1.00  0.00     0.014 A 
ATOM      9  C   UNL A   1      39.073  24.846  26.038  1.00  0.00     0.010 A 
ATOM     10  C   UNL A   1      40.634  23.621  27.416  1.00  0.00     0.010 A 
ATOM     11  C   UNL A   1      40.216  24.837  26.856  1.00  0.00    -0.014 A 
BRANCH  11  12
ATOM     12  C   UNL A   1      40.892  26.134  27.128  1.00  0.00     0.031 A 
ATOM     13  C   UNL A   1      40.312  27.145  28.079  1.00  0.00     0.074 A 
ATOM     14  C   UNL A   1      42.106  26.341  26.577  1.00  0.00     0.049 A 
ATOM     15  N   UNL A   1      40.838  28.266  28.503  1.00  0.00    -0.248 NA
ATOM     16  C   UNL A   1      38.969  26.876  28.614  1.00  0.00     0.031 C 
ATOM     17  C   UNL A   1      42.761  25.433  25.629  1.00  0.00     0.029 A 
ATOM     18  N   UNL A   1      43.034  27.329  26.780  1.00  0.00    -0.354 N 
ATOM     19  C   UNL A   1      39.884  28.852  29.326  1.00  0.00     0.074 A 
ATOM     20  C   UNL A   1      38.736  27.970  29.328  1.00  0.00     0.031 C 
ATOM     21  C   UNL A   1      44.022  25.837  25.432  1.00  0.00     0.029 A 
ATOM     22  C   UNL A   1      44.238  27.080  26.160  1.00  0.00     0.049 A 
ATOM     23  H   UNL A   1      42.858  28.135  27.315  1.00  0.00     0.167 HD
ATOM     24  C   UNL A   1      39.962  30.018  30.015  1.00  0.00     0.034 A 
ATOM     25  C   UNL A   1      45.393  27.772  26.170  1.00  0.00     0.034 A 
ATOM     26  C   UNL A   1      41.127  30.869  30.027  1.00  0.00     0.049 A 
ATOM     27  C   UNL A   1      45.457  29.056  26.941  1.00  0.00     0.074 A 
ATOM     28  C   UNL A   1      41.324  32.049  30.724  1.00  0.00     0.029 A 
ATOM     29  N   UNL A   1      42.294  30.632  29.311  1.00  0.00    -0.354 N 
ATOM     30  N   UNL A   1      44.533  29.608  27.689  1.00  0.00    -0.248 NA
ATOM     31  C   UNL A   1      46.705  29.822  26.849  1.00  0.00     0.031 C 
ATOM     32  C   UNL A   1      42.584  32.555  30.385  1.00  0.00     0.029 A 
ATOM     33  C   UNL A   1      43.200  31.659  29.526  1.00  0.00     0.049 A 
ATOM     34  H   UNL A   1      42.453  29.850  28.735  1.00  0.00     0.167 HD
ATOM     35  C   UNL A   1      45.082  30.795  28.153  1.00  0.00     0.074 A 
ATOM     36  C   UNL A   1      46.426  30.873  27.612  1.00  0.00     0.031 C 
ATOM     37  C   UNL A   1      44.522  31.736  28.952  1.00  0.00     0.034 A 
BRANCH  24  38
ATOM     38  C   UNL A   1      38.740  30.467  30.775  1.00  0.00     0.023 A 
ATOM     39  C   UNL A   1      37.819  31.379  30.233  1.00  0.00     0.031 A 
ATOM     40  C   UNL A   1      38.490  29.963  32.065  1.00  0.00     0.131 A 
ATOM     41  C   UNL A   1      36.717  31.796  30.997  1.00  0.00     0.055 A 
ATOM     42  C   UNL A   1      37.359  30.333  32.795  1.00  0.00     0.041 A 
ATOM     43  F   UNL A   1      39.346  29.102  32.639  1.00  0.00    -0.206 F 
ATOM     44  C   UNL A   1      36.469  31.263  32.265  1.00  0.00     0.022 A 
BRANCH  41  45
ATOM     45  S   UNL A   1      35.661  33.120  30.350  1.00  0.00     0.124 S 
ATOM     46  O   UNL A   1      35.727  34.104  31.428  1.00  0.00    -0.237 OA
ATOM     47  O   UNL A   1      36.336  33.487  29.109  1.00  0.00    -0.237 OA
ATOM     48  O   UNL A   1      34.361  32.473  30.184  1.00  0.00    -0.744 OA
ENDBRANCH  41  45
ENDBRANCH  24  38
BRANCH  25  49
ATOM     49  C   UNL A   1      46.553  27.260  25.395  1.00  0.00     0.023 A 
ATOM     50  C   UNL A   1      46.855  27.764  24.122  1.00  0.00     0.031 A 
ATOM     51  C   UNL A   1      47.424  26.311  25.961  1.00  0.00     0.131 A 
ATOM     52  C   UNL A   1      48.007  27.318  23.454  1.00  0.00     0.055 A 
ATOM     53  C   UNL A   1      48.585  25.897  25.309  1.00  0.00     0.041 A 
ATOM     54  F   UNL A   1      47.183  25.818  27.187  1.00  0.00    -0.206 F 
ATOM     55  C   UNL A   1      48.881  26.402  24.046  1.00  0.00     0.022 A 
BRANCH  52  56
ATOM     56  S   UNL A   1      48.370  27.970  21.801  1.00  0.00     0.124 S 
ATOM     57  O   UNL A   1      47.311  28.959  21.634  1.00  0.00    -0.237 OA
ATOM     58  O   UNL A   1      49.721  28.496  21.967  1.00  0.00    -0.237 OA
ATOM     59  O   UNL A   1      48.267  26.792  20.942  1.00  0.00    -0.744 OA
ENDBRANCH  52  56
ENDBRANCH  25  49
BRANCH  37  60
ATOM     60  C   UNL A   1      45.366  32.930  29.295  1.00  0.00     0.023 A 
ATOM     61  C   UNL A   1      45.328  34.096  28.514  1.00  0.00     0.031 A 
ATOM     62  C   UNL A   1      46.185  32.912  30.437  1.00  0.00     0.131 A 
ATOM     63  C   UNL A   1      46.119  35.198  28.873  1.00  0.00     0.055 A 
ATOM     64  C   UNL A   1      46.940  34.024  30.810  1.00  0.00     0.041 A 
ATOM     65  F   UNL A   1      46.249  31.819  31.212  1.00  0.00    -0.206 F 
ATOM     66  C   UNL A   1      46.912  35.174  30.025  1.00  0.00     0.022 A 
BRANCH  63  67
ATOM     67  S   UNL A   1      46.112  36.667  27.810  1.00  0.00     0.124 S 
ATOM     68  O   UNL A   1      44.721  37.100  27.906  1.00  0.00    -0.237 OA
ATOM     69  O   UNL A   1      47.095  37.532  28.453  1.00  0.00    -0.237 OA
ATOM     70  O   UNL A   1      46.510  36.146  26.503  1.00  0.00    -0.744 OA
ENDBRANCH  63  67
ENDBRANCH  37  60
ENDBRANCH  11  12
ENDBRANCH   4   6
ENDBRANCH   1   2
BRANCH   1  71
ATOM     71  C   UNL A   1      34.561  21.575  26.544  1.00  0.00     0.042 C 
BRANCH  71  72
ATOM     72  C   UNL A   1      34.033  22.456  27.658  1.00  0.00     0.118 C 
BRANCH  72  73
ATOM     73  N   UNL A   1      32.577  22.464  27.748  1.00  0.00    -0.352 N 
ATOM     74  C   UNL A   1      31.671  23.270  27.109  1.00  0.00     0.252 C 
ATOM     75  H   UNL A   1      32.190  21.795  28.357  1.00  0.00     0.163 HD
ATOM     76  O   UNL A   1      30.469  23.157  27.329  1.00  0.00    -0.269 OA
BRANCH  74  77
ATOM     77  C   UNL A   1      32.142  24.313  26.178  1.00  0.00     0.051 A 
ATOM     78  C   UNL A   1      32.335  25.577  26.730  1.00  0.00     0.043 A 
ATOM     79  C   UNL A   1      32.406  24.053  24.815  1.00  0.00     0.016 A 
ATOM     80  C   UNL A   1      32.827  26.572  25.910  1.00  0.00     0.072 A 
ATOM     81  C   UNL A   1      32.985  25.104  24.086  1.00  0.00     0.107 A 
ATOM     82  C   UNL A   1      32.145  22.814  24.170  1.00  0.00     0.011 A 
ATOM     83  N   UNL A   1      33.160  26.334  24.619  1.00  0.00    -0.245 NA
ATOM     84  C   UNL A   1      33.388  24.830  22.777  1.00  0.00     0.149 A 
ATOM     85  C   UNL A   1      32.562  22.575  22.865  1.00  0.00     0.004 A 
ATOM     86  F   UNL A   1      33.991  25.788  22.053  1.00  0.00    -0.205 F 
ATOM     87  C   UNL A   1      33.209  23.585  22.172  1.00  0.00     0.041 A 
BRANCH  80  88
ATOM     88  C   UNL A   1      32.984  27.957  26.366  1.00  0.00     0.003 A 
ATOM     89  C   UNL A   1      31.852  28.783  26.514  1.00  0.00     0.010 A 
ATOM     90  C   UNL A   1      34.240  28.497  26.680  1.00  0.00     0.049 A 
ATOM     91  C   UNL A   1      31.965  30.097  26.977  1.00  0.00     0.004 A 
ATOM     92  C   UNL A   1      34.344  29.811  27.131  1.00  0.00     0.123 A 
ATOM     93  C   UNL A   1      33.219  30.611  27.287  1.00  0.00     0.039 A 
ATOM     94  F   UNL A   1      35.551  30.313  27.425  1.00  0.00    -0.207 F 
ENDBRANCH  80  88
ENDBRANCH  74  77
ENDBRANCH  72  73
ENDBRANCH  71  72
ENDBRANCH   1  71
TORSDOF 14
ENDMDL
