MODEL 1
REMARK VINA RESULT:     -12.0      0.000      0.000
REMARK SMILES CC(=O)NCCc1c[nH]c2ccc(C(=O)NCCCNC(=O)c3ccc(-c4c5nc(c(-c6cc(S(=O)(=O)[O-])ccc6F)c6ccc([nH]6)c(-c6cc(S(=O)(=O)[O-])ccc6F)c6nc(c(-c7cc(S(=O)(=O)[O-])ccc7F)c7ccc4[nH]7)C=C6)C=C5)cc3)cc12
REMARK SMILES IDX 18 1 17 2 16 3 14 4 15 5 13 7 7 8 8 9 87 10 9 11 10 12 86 13
REMARK SMILES IDX 11 15 12 16 6 17 5 18 4 19 1 20 2 21 3 22 19 24 20 25 21 26
REMARK SMILES IDX 22 28 23 29 24 30 85 31 25 32 84 33 26 34 27 35 28 36 78 37
REMARK SMILES IDX 29 38 83 39 77 40 79 41 30 42 82 43 76 44 75 45 31 47 63 48
REMARK SMILES IDX 43 49 62 50 44 51 47 52 61 53 80 54 45 55 46 56 60 58 81 59
REMARK SMILES IDX 48 60 32 61 33 62 41 63 34 64 40 65 42 66 39 67 35 68 36 69
REMARK SMILES IDX 37 70 38 71 64 72 65 73 73 74 66 75 72 76 74 77 71 78 67 79
REMARK SMILES IDX 68 80 69 81 70 82 49 83 50 84 58 85 51 86 57 87 59 88 56 89
REMARK SMILES IDX 52 90 53 91 54 92 55 93
REMARK H PARENT 16 6 9 14 4 23 20 27 79 46 47 57
REMARK Flexibility Score: inf
ROOT
ATOM      1  C   UNL A   1      33.759  28.462  24.848  1.00  0.00     0.042 C 
ENDROOT
BRANCH   1   2
ATOM      2  C   UNL A   1      32.696  27.456  24.409  1.00  0.00     0.118 C 
BRANCH   2   3
ATOM      3  N   UNL A   1      33.060  26.830  23.151  1.00  0.00    -0.352 N 
ATOM      4  C   UNL A   1      33.612  25.616  22.837  1.00  0.00     0.251 C 
ATOM      5  O   UNL A   1      33.757  25.360  21.640  1.00  0.00    -0.269 OA
ATOM      6  H   UNL A   1      32.871  27.390  22.365  1.00  0.00     0.163 HD
BRANCH   4   7
ATOM      7  C   UNL A   1      33.989  24.582  23.844  1.00  0.00     0.040 A 
ATOM      8  C   UNL A   1      33.324  20.884  24.641  1.00  0.00    -0.021 A 
ATOM      9  C   UNL A   1      33.875  20.384  25.806  1.00  0.00     0.087 A 
ATOM     10  C   UNL A   1      33.686  22.267  24.574  1.00  0.00     0.003 A 
ATOM     11  N   UNL A   1      34.596  21.382  26.404  1.00  0.00    -0.361 N 
ATOM     12  C   UNL A   1      34.526  22.531  25.653  1.00  0.00     0.046 A 
ATOM     13  C   UNL A   1      33.405  23.312  23.672  1.00  0.00     0.024 A 
ATOM     14  H   UNL A   1      35.091  21.290  27.251  1.00  0.00     0.166 HD
ATOM     15  C   UNL A   1      35.156  23.765  25.830  1.00  0.00     0.027 A 
ATOM     16  C   UNL A   1      34.897  24.771  24.888  1.00  0.00     0.016 A 
BRANCH   8  17
ATOM     17  C   UNL A   1      32.551  20.110  23.615  1.00  0.00     0.059 C 
BRANCH  17  18
ATOM     18  C   UNL A   1      32.237  18.682  24.087  1.00  0.00     0.120 C 
BRANCH  18  19
ATOM     19  N   UNL A   1      32.815  17.677  23.204  1.00  0.00    -0.356 N 
ATOM     20  C   UNL A   1      34.551  16.899  24.760  1.00  0.00     0.114 C 
ATOM     21  C   UNL A   1      33.895  16.875  23.409  1.00  0.00     0.216 C 
ATOM     22  O   UNL A   1      34.305  16.152  22.503  1.00  0.00    -0.275 OA
ATOM     23  H   UNL A   1      32.362  17.564  22.338  1.00  0.00     0.163 HD
ENDBRANCH  18  19
ENDBRANCH  17  18
ENDBRANCH   8  17
ENDBRANCH   4   7
ENDBRANCH   2   3
ENDBRANCH   1   2
BRANCH   1  24
ATOM     24  C   UNL A   1      33.751  28.729  26.353  1.00  0.00     0.118 C 
BRANCH  24  25
ATOM     25  N   UNL A   1      33.760  30.155  26.648  1.00  0.00    -0.352 N 
ATOM     26  C   UNL A   1      34.562  30.877  27.497  1.00  0.00     0.251 C 
ATOM     27  H   UNL A   1      33.086  30.683  26.163  1.00  0.00     0.163 HD
ATOM     28  O   UNL A   1      34.230  32.021  27.797  1.00  0.00    -0.269 OA
BRANCH  26  29
ATOM     29  C   UNL A   1      35.804  30.292  28.051  1.00  0.00     0.039 A 
ATOM     30  C   UNL A   1      36.966  30.319  27.276  1.00  0.00     0.014 A 
ATOM     31  C   UNL A   1      35.815  29.671  29.303  1.00  0.00     0.014 A 
ATOM     32  C   UNL A   1      38.149  29.767  27.773  1.00  0.00     0.010 A 
ATOM     33  C   UNL A   1      37.012  29.184  29.828  1.00  0.00     0.010 A 
ATOM     34  C   UNL A   1      38.189  29.218  29.065  1.00  0.00    -0.014 A 
BRANCH  34  35
ATOM     35  C   UNL A   1      39.449  28.670  29.631  1.00  0.00     0.031 A 
ATOM     36  C   UNL A   1      40.133  29.369  30.773  1.00  0.00     0.074 A 
ATOM     37  C   UNL A   1      40.018  27.590  29.061  1.00  0.00     0.049 A 
ATOM     38  N   UNL A   1      41.279  29.101  31.345  1.00  0.00    -0.248 NA
ATOM     39  C   UNL A   1      39.451  30.552  31.317  1.00  0.00     0.031 C 
ATOM     40  C   UNL A   1      39.480  26.863  27.908  1.00  0.00     0.029 A 
ATOM     41  N   UNL A   1      41.183  26.929  29.355  1.00  0.00    -0.354 N 
ATOM     42  C   UNL A   1      41.467  30.094  32.302  1.00  0.00     0.074 A 
ATOM     43  C   UNL A   1      40.346  31.002  32.182  1.00  0.00     0.031 C 
ATOM     44  C   UNL A   1      40.310  25.857  27.599  1.00  0.00     0.029 A 
ATOM     45  C   UNL A   1      41.457  25.888  28.501  1.00  0.00     0.049 A 
ATOM     46  H   UNL A   1      41.768  27.178  30.108  1.00  0.00     0.167 HD
ATOM     47  C   UNL A   1      42.470  30.222  33.208  1.00  0.00     0.034 A 
ATOM     48  C   UNL A   1      42.520  25.064  28.434  1.00  0.00     0.034 A 
ATOM     49  C   UNL A   1      43.575  29.297  33.312  1.00  0.00     0.049 A 
ATOM     50  C   UNL A   1      43.622  25.215  29.448  1.00  0.00     0.074 A 
ATOM     51  C   UNL A   1      44.603  29.278  34.238  1.00  0.00     0.029 A 
ATOM     52  N   UNL A   1      43.805  28.233  32.447  1.00  0.00    -0.354 N 
ATOM     53  N   UNL A   1      43.750  26.111  30.399  1.00  0.00    -0.248 NA
ATOM     54  C   UNL A   1      44.712  24.233  29.391  1.00  0.00     0.031 C 
ATOM     55  C   UNL A   1      45.490  28.252  33.891  1.00  0.00     0.029 A 
ATOM     56  C   UNL A   1      44.977  27.577  32.795  1.00  0.00     0.049 A 
ATOM     57  H   UNL A   1      43.221  27.981  31.696  1.00  0.00     0.167 HD
ATOM     58  C   UNL A   1      44.929  25.790  31.066  1.00  0.00     0.074 A 
ATOM     59  C   UNL A   1      45.462  24.608  30.418  1.00  0.00     0.031 C 
ATOM     60  C   UNL A   1      45.514  26.413  32.122  1.00  0.00     0.034 A 
BRANCH  47  61
ATOM     61  C   UNL A   1      42.425  31.426  34.125  1.00  0.00     0.023 A 
ATOM     62  C   UNL A   1      41.672  31.425  35.312  1.00  0.00     0.031 A 
ATOM     63  C   UNL A   1      43.089  32.616  33.775  1.00  0.00     0.131 A 
ATOM     64  C   UNL A   1      41.511  32.611  36.044  1.00  0.00     0.055 A 
ATOM     65  C   UNL A   1      43.005  33.767  34.561  1.00  0.00     0.041 A 
ATOM     66  F   UNL A   1      43.812  32.690  32.646  1.00  0.00    -0.206 F 
ATOM     67  C   UNL A   1      42.193  33.777  35.691  1.00  0.00     0.022 A 
BRANCH  64  68
ATOM     68  S   UNL A   1      40.247  32.656  37.347  1.00  0.00     0.124 S 
ATOM     69  O   UNL A   1      39.728  34.015  37.205  1.00  0.00    -0.237 OA
ATOM     70  O   UNL A   1      39.346  31.582  36.949  1.00  0.00    -0.237 OA
ATOM     71  O   UNL A   1      41.008  32.415  38.572  1.00  0.00    -0.744 OA
ENDBRANCH  64  68
ENDBRANCH  47  61
BRANCH  48  72
ATOM     72  C   UNL A   1      42.594  24.039  27.356  1.00  0.00     0.023 A 
ATOM     73  C   UNL A   1      41.797  22.885  27.390  1.00  0.00     0.031 A 
ATOM     74  C   UNL A   1      43.458  24.215  26.260  1.00  0.00     0.131 A 
ATOM     75  C   UNL A   1      41.898  21.937  26.359  1.00  0.00     0.055 A 
ATOM     76  C   UNL A   1      43.524  23.291  25.217  1.00  0.00     0.041 A 
ATOM     77  F   UNL A   1      44.230  25.311  26.174  1.00  0.00    -0.206 F 
ATOM     78  C   UNL A   1      42.746  22.138  25.266  1.00  0.00     0.022 A 
BRANCH  75  79
ATOM     79  S   UNL A   1      40.926  20.410  26.481  1.00  0.00     0.124 S 
ATOM     80  O   UNL A   1      39.623  20.846  25.994  1.00  0.00    -0.237 OA
ATOM     81  O   UNL A   1      41.669  19.507  25.609  1.00  0.00    -0.237 OA
ATOM     82  O   UNL A   1      40.984  20.083  27.904  1.00  0.00    -0.744 OA
ENDBRANCH  75  79
ENDBRANCH  48  72
BRANCH  60  83
ATOM     83  C   UNL A   1      46.786  25.802  32.657  1.00  0.00     0.023 A 
ATOM     84  C   UNL A   1      46.770  24.816  33.659  1.00  0.00     0.031 A 
ATOM     85  C   UNL A   1      48.035  26.223  32.165  1.00  0.00     0.131 A 
ATOM     86  C   UNL A   1      47.978  24.322  34.174  1.00  0.00     0.055 A 
ATOM     87  C   UNL A   1      49.231  25.684  32.638  1.00  0.00     0.041 A 
ATOM     88  F   UNL A   1      48.110  27.165  31.212  1.00  0.00    -0.206 F 
ATOM     89  C   UNL A   1      49.208  24.737  33.657  1.00  0.00     0.022 A 
BRANCH  86  90
ATOM     90  S   UNL A   1      47.926  23.196  35.595  1.00  0.00     0.124 S 
ATOM     91  O   UNL A   1      48.116  21.896  34.960  1.00  0.00    -0.237 OA
ATOM     92  O   UNL A   1      49.036  23.675  36.413  1.00  0.00    -0.237 OA
ATOM     93  O   UNL A   1      46.597  23.419  36.162  1.00  0.00    -0.744 OA
ENDBRANCH  86  90
ENDBRANCH  60  83
ENDBRANCH  34  35
ENDBRANCH  26  29
ENDBRANCH  24  25
ENDBRANCH   1  24
TORSDOF 16
ENDMDL
MODEL 2
REMARK VINA RESULT:     -11.7      3.399      8.680
REMARK SMILES CC(=O)NCCc1c[nH]c2ccc(C(=O)NCCCNC(=O)c3ccc(-c4c5nc(c(-c6cc(S(=O)(=O)[O-])ccc6F)c6ccc([nH]6)c(-c6cc(S(=O)(=O)[O-])ccc6F)c6nc(c(-c7cc(S(=O)(=O)[O-])ccc7F)c7ccc4[nH]7)C=C6)C=C5)cc3)cc12
REMARK SMILES IDX 18 1 17 2 16 3 14 4 15 5 13 7 7 8 8 9 87 10 9 11 10 12 86 13
REMARK SMILES IDX 11 15 12 16 6 17 5 18 4 19 1 20 2 21 3 22 19 24 20 25 21 26
REMARK SMILES IDX 22 28 23 29 24 30 85 31 25 32 84 33 26 34 27 35 28 36 78 37
REMARK SMILES IDX 29 38 83 39 77 40 79 41 30 42 82 43 76 44 75 45 31 47 63 48
REMARK SMILES IDX 43 49 62 50 44 51 47 52 61 53 80 54 45 55 46 56 60 58 81 59
REMARK SMILES IDX 48 60 32 61 33 62 41 63 34 64 40 65 42 66 39 67 35 68 36 69
REMARK SMILES IDX 37 70 38 71 64 72 65 73 73 74 66 75 72 76 74 77 71 78 67 79
REMARK SMILES IDX 68 80 69 81 70 82 49 83 50 84 58 85 51 86 57 87 59 88 56 89
REMARK SMILES IDX 52 90 53 91 54 92 55 93
REMARK H PARENT 16 6 9 14 4 23 20 27 79 46 47 57
REMARK Flexibility Score: inf
ROOT
ATOM      1  C   UNL A   1      31.366  31.957  26.502  1.00  0.00     0.042 C 
ENDROOT
BRANCH   1   2
ATOM      2  C   UNL A   1      31.461  30.523  25.984  1.00  0.00     0.118 C 
BRANCH   2   3
ATOM      3  N   UNL A   1      32.609  29.839  26.551  1.00  0.00    -0.352 N 
ATOM      4  C   UNL A   1      33.481  28.907  26.054  1.00  0.00     0.251 C 
ATOM      5  O   UNL A   1      34.401  28.552  26.793  1.00  0.00    -0.269 OA
ATOM      6  H   UNL A   1      32.800  30.099  27.481  1.00  0.00     0.163 HD
BRANCH   4   7
ATOM      7  C   UNL A   1      33.412  28.350  24.672  1.00  0.00     0.040 A 
ATOM      8  C   UNL A   1      31.595  25.597  22.705  1.00  0.00    -0.021 A 
ATOM      9  C   UNL A   1      31.965  25.420  21.385  1.00  0.00     0.087 A 
ATOM     10  C   UNL A   1      32.414  26.648  23.226  1.00  0.00     0.003 A 
ATOM     11  N   UNL A   1      32.920  26.351  21.077  1.00  0.00    -0.361 N 
ATOM     12  C   UNL A   1      33.185  27.136  22.174  1.00  0.00     0.046 A 
ATOM     13  C   UNL A   1      32.545  27.255  24.490  1.00  0.00     0.024 A 
ATOM     14  H   UNL A   1      33.355  26.443  20.198  1.00  0.00     0.166 HD
ATOM     15  C   UNL A   1      34.022  28.246  22.308  1.00  0.00     0.027 A 
ATOM     16  C   UNL A   1      34.094  28.862  23.566  1.00  0.00     0.016 A 
BRANCH   8  17
ATOM     17  C   UNL A   1      30.501  24.871  23.431  1.00  0.00     0.059 C 
BRANCH  17  18
ATOM     18  C   UNL A   1      31.031  23.648  24.194  1.00  0.00     0.120 C 
BRANCH  18  19
ATOM     19  N   UNL A   1      30.304  23.426  25.438  1.00  0.00    -0.356 N 
ATOM     20  C   UNL A   1      32.242  23.618  26.937  1.00  0.00     0.114 C 
ATOM     21  C   UNL A   1      30.784  23.338  26.708  1.00  0.00     0.216 C 
ATOM     22  O   UNL A   1      30.029  23.042  27.632  1.00  0.00    -0.275 OA
ATOM     23  H   UNL A   1      29.329  23.324  25.346  1.00  0.00     0.163 HD
ENDBRANCH  18  19
ENDBRANCH  17  18
ENDBRANCH   8  17
ENDBRANCH   4   7
ENDBRANCH   2   3
ENDBRANCH   1   2
BRANCH   1  24
ATOM     24  C   UNL A   1      32.701  32.508  27.003  1.00  0.00     0.118 C 
BRANCH  24  25
ATOM     25  N   UNL A   1      32.576  33.879  27.474  1.00  0.00    -0.352 N 
ATOM     26  C   UNL A   1      33.201  34.516  28.517  1.00  0.00     0.251 C 
ATOM     27  H   UNL A   1      31.945  34.438  26.965  1.00  0.00     0.163 HD
ATOM     28  O   UNL A   1      32.757  35.593  28.908  1.00  0.00    -0.269 OA
BRANCH  26  29
ATOM     29  C   UNL A   1      34.387  33.919  29.172  1.00  0.00     0.039 A 
ATOM     30  C   UNL A   1      34.197  32.899  30.109  1.00  0.00     0.014 A 
ATOM     31  C   UNL A   1      35.675  34.394  28.911  1.00  0.00     0.014 A 
ATOM     32  C   UNL A   1      35.300  32.325  30.747  1.00  0.00     0.010 A 
ATOM     33  C   UNL A   1      36.778  33.773  29.494  1.00  0.00     0.010 A 
ATOM     34  C   UNL A   1      36.601  32.738  30.425  1.00  0.00    -0.014 A 
BRANCH  34  35
ATOM     35  C   UNL A   1      37.790  32.106  31.057  1.00  0.00     0.031 A 
ATOM     36  C   UNL A   1      38.576  31.061  30.313  1.00  0.00     0.074 A 
ATOM     37  C   UNL A   1      38.108  32.414  32.329  1.00  0.00     0.049 A 
ATOM     38  N   UNL A   1      39.583  30.333  30.721  1.00  0.00    -0.248 NA
ATOM     39  C   UNL A   1      38.143  30.774  28.939  1.00  0.00     0.031 C 
ATOM     40  C   UNL A   1      37.382  33.367  33.171  1.00  0.00     0.029 A 
ATOM     41  N   UNL A   1      39.107  31.944  33.142  1.00  0.00    -0.354 N 
ATOM     42  C   UNL A   1      39.892  29.484  29.662  1.00  0.00     0.074 A 
ATOM     43  C   UNL A   1      38.919  29.749  28.623  1.00  0.00     0.031 C 
ATOM     44  C   UNL A   1      37.962  33.414  34.380  1.00  0.00     0.029 A 
ATOM     45  C   UNL A   1      39.074  32.469  34.413  1.00  0.00     0.049 A 
ATOM     46  H   UNL A   1      39.783  31.293  32.845  1.00  0.00     0.167 HD
ATOM     47  C   UNL A   1      40.904  28.585  29.561  1.00  0.00     0.034 A 
ATOM     48  C   UNL A   1      39.837  32.205  35.490  1.00  0.00     0.034 A 
ATOM     49  C   UNL A   1      41.866  28.345  30.612  1.00  0.00     0.049 A 
ATOM     50  C   UNL A   1      40.959  31.209  35.362  1.00  0.00     0.074 A 
ATOM     51  C   UNL A   1      42.978  27.521  30.594  1.00  0.00     0.029 A 
ATOM     52  N   UNL A   1      41.821  28.918  31.877  1.00  0.00    -0.354 N 
ATOM     53  N   UNL A   1      41.290  30.469  34.329  1.00  0.00    -0.248 NA
ATOM     54  C   UNL A   1      41.819  31.028  36.537  1.00  0.00     0.031 C 
ATOM     55  C   UNL A   1      43.560  27.539  31.866  1.00  0.00     0.029 A 
ATOM     56  C   UNL A   1      42.862  28.436  32.659  1.00  0.00     0.049 A 
ATOM     57  H   UNL A   1      41.148  29.570  32.177  1.00  0.00     0.167 HD
ATOM     58  C   UNL A   1      42.409  29.744  34.725  1.00  0.00     0.074 A 
ATOM     59  C   UNL A   1      42.706  30.151  36.084  1.00  0.00     0.031 C 
ATOM     60  C   UNL A   1      43.131  28.830  34.026  1.00  0.00     0.034 A 
BRANCH  47  61
ATOM     61  C   UNL A   1      40.986  27.778  28.283  1.00  0.00     0.023 A 
ATOM     62  C   UNL A   1      40.600  26.427  28.234  1.00  0.00     0.031 A 
ATOM     63  C   UNL A   1      41.520  28.346  27.112  1.00  0.00     0.131 A 
ATOM     64  C   UNL A   1      40.853  25.664  27.084  1.00  0.00     0.055 A 
ATOM     65  C   UNL A   1      41.680  27.606  25.938  1.00  0.00     0.041 A 
ATOM     66  F   UNL A   1      41.924  29.626  27.095  1.00  0.00    -0.206 F 
ATOM     67  C   UNL A   1      41.368  26.250  25.926  1.00  0.00     0.022 A 
BRANCH  64  68
ATOM     68  S   UNL A   1      40.683  23.859  27.191  1.00  0.00     0.124 S 
ATOM     69  O   UNL A   1      39.233  23.696  27.123  1.00  0.00    -0.237 OA
ATOM     70  O   UNL A   1      41.433  23.403  26.026  1.00  0.00    -0.237 OA
ATOM     71  O   UNL A   1      41.278  23.534  28.485  1.00  0.00    -0.744 OA
ENDBRANCH  64  68
ENDBRANCH  47  61
BRANCH  48  72
ATOM     72  C   UNL A   1      39.549  32.884  36.784  1.00  0.00     0.023 A 
ATOM     73  C   UNL A   1      38.594  32.376  37.678  1.00  0.00     0.031 A 
ATOM     74  C   UNL A   1      40.245  34.050  37.151  1.00  0.00     0.131 A 
ATOM     75  C   UNL A   1      38.343  33.047  38.886  1.00  0.00     0.055 A 
ATOM     76  C   UNL A   1      40.022  34.690  38.370  1.00  0.00     0.041 A 
ATOM     77  F   UNL A   1      41.179  34.567  36.335  1.00  0.00    -0.206 F 
ATOM     78  C   UNL A   1      39.060  34.193  39.244  1.00  0.00     0.022 A 
BRANCH  75  79
ATOM     79  S   UNL A   1      37.036  32.420  39.976  1.00  0.00     0.124 S 
ATOM     80  O   UNL A   1      35.863  32.503  39.113  1.00  0.00    -0.237 OA
ATOM     81  O   UNL A   1      37.514  31.077  40.282  1.00  0.00    -0.237 OA
ATOM     82  O   UNL A   1      37.053  33.355  41.100  1.00  0.00    -0.744 OA
ENDBRANCH  75  79
ENDBRANCH  48  72
BRANCH  60  83
ATOM     83  C   UNL A   1      44.331  28.231  34.718  1.00  0.00     0.023 A 
ATOM     84  C   UNL A   1      44.244  27.029  35.442  1.00  0.00     0.031 A 
ATOM     85  C   UNL A   1      45.578  28.879  34.662  1.00  0.00     0.131 A 
ATOM     86  C   UNL A   1      45.369  26.541  36.124  1.00  0.00     0.055 A 
ATOM     87  C   UNL A   1      46.708  28.358  35.292  1.00  0.00     0.041 A 
ATOM     88  F   UNL A   1      45.717  30.033  33.989  1.00  0.00    -0.206 F 
ATOM     89  C   UNL A   1      46.605  27.188  36.039  1.00  0.00     0.022 A 
BRANCH  86  90
ATOM     90  S   UNL A   1      45.176  25.096  37.204  1.00  0.00     0.124 S 
ATOM     91  O   UNL A   1      46.493  24.472  37.114  1.00  0.00    -0.237 OA
ATOM     92  O   UNL A   1      44.847  25.707  38.488  1.00  0.00    -0.237 OA
ATOM     93  O   UNL A   1      44.090  24.342  36.580  1.00  0.00    -0.744 OA
ENDBRANCH  86  90
ENDBRANCH  60  83
ENDBRANCH  34  35
ENDBRANCH  26  29
ENDBRANCH  24  25
ENDBRANCH   1  24
TORSDOF 16
ENDMDL
MODEL 3
REMARK VINA RESULT:     -11.7      5.627      8.709
REMARK SMILES CC(=O)NCCc1c[nH]c2ccc(C(=O)NCCCNC(=O)c3ccc(-c4c5nc(c(-c6cc(S(=O)(=O)[O-])ccc6F)c6ccc([nH]6)c(-c6cc(S(=O)(=O)[O-])ccc6F)c6nc(c(-c7cc(S(=O)(=O)[O-])ccc7F)c7ccc4[nH]7)C=C6)C=C5)cc3)cc12
REMARK SMILES IDX 18 1 17 2 16 3 14 4 15 5 13 7 7 8 8 9 87 10 9 11 10 12 86 13
REMARK SMILES IDX 11 15 12 16 6 17 5 18 4 19 1 20 2 21 3 22 19 24 20 25 21 26
REMARK SMILES IDX 22 28 23 29 24 30 85 31 25 32 84 33 26 34 27 35 28 36 78 37
REMARK SMILES IDX 29 38 83 39 77 40 79 41 30 42 82 43 76 44 75 45 31 47 63 48
REMARK SMILES IDX 43 49 62 50 44 51 47 52 61 53 80 54 45 55 46 56 60 58 81 59
REMARK SMILES IDX 48 60 32 61 33 62 41 63 34 64 40 65 42 66 39 67 35 68 36 69
REMARK SMILES IDX 37 70 38 71 64 72 65 73 73 74 66 75 72 76 74 77 71 78 67 79
REMARK SMILES IDX 68 80 69 81 70 82 49 83 50 84 58 85 51 86 57 87 59 88 56 89
REMARK SMILES IDX 52 90 53 91 54 92 55 93
REMARK H PARENT 16 6 9 14 4 23 20 27 79 46 47 57
REMARK Flexibility Score: inf
ROOT
ATOM      1  C   UNL A   1      38.284  19.852  24.965  1.00  0.00     0.042 C 
ENDROOT
BRANCH   1   2
ATOM      2  C   UNL A   1      37.376  21.024  24.600  1.00  0.00     0.118 C 
BRANCH   2   3
ATOM      3  N   UNL A   1      37.910  22.275  25.107  1.00  0.00    -0.352 N 
ATOM      4  C   UNL A   1      37.329  23.376  25.679  1.00  0.00     0.251 C 
ATOM      5  O   UNL A   1      38.083  24.276  26.053  1.00  0.00    -0.269 OA
ATOM      6  H   UNL A   1      38.888  22.346  25.024  1.00  0.00     0.163 HD
BRANCH   4   7
ATOM      7  C   UNL A   1      35.863  23.518  25.921  1.00  0.00     0.040 A 
ATOM      8  C   UNL A   1      32.827  25.404  24.516  1.00  0.00    -0.021 A 
ATOM      9  C   UNL A   1      31.628  25.249  25.185  1.00  0.00     0.087 A 
ATOM     10  C   UNL A   1      33.799  24.635  25.230  1.00  0.00     0.003 A 
ATOM     11  N   UNL A   1      31.823  24.379  26.223  1.00  0.00    -0.361 N 
ATOM     12  C   UNL A   1      33.132  23.961  26.250  1.00  0.00     0.046 A 
ATOM     13  C   UNL A   1      35.183  24.418  25.078  1.00  0.00     0.024 A 
ATOM     14  H   UNL A   1      31.126  24.095  26.859  1.00  0.00     0.166 HD
ATOM     15  C   UNL A   1      33.765  23.029  27.075  1.00  0.00     0.027 A 
ATOM     16  C   UNL A   1      35.133  22.797  26.868  1.00  0.00     0.016 A 
BRANCH   8  17
ATOM     17  C   UNL A   1      33.051  26.179  23.252  1.00  0.00     0.059 C 
BRANCH  17  18
ATOM     18  C   UNL A   1      31.816  26.158  22.338  1.00  0.00     0.120 C 
BRANCH  18  19
ATOM     19  N   UNL A   1      31.383  27.502  21.977  1.00  0.00    -0.356 N 
ATOM     20  C   UNL A   1      29.339  27.516  23.341  1.00  0.00     0.114 C 
ATOM     21  C   UNL A   1      30.250  28.164  22.338  1.00  0.00     0.216 C 
ATOM     22  O   UNL A   1      29.999  29.265  21.851  1.00  0.00    -0.275 OA
ATOM     23  H   UNL A   1      31.995  28.000  21.389  1.00  0.00     0.163 HD
ENDBRANCH  18  19
ENDBRANCH  17  18
ENDBRANCH   8  17
ENDBRANCH   4   7
ENDBRANCH   2   3
ENDBRANCH   1   2
BRANCH   1  24
ATOM     24  C   UNL A   1      39.269  20.179  26.088  1.00  0.00     0.118 C 
BRANCH  24  25
ATOM     25  N   UNL A   1      40.430  19.300  26.061  1.00  0.00    -0.352 N 
ATOM     26  C   UNL A   1      41.768  19.603  26.035  1.00  0.00     0.251 C 
ATOM     27  H   UNL A   1      40.222  18.338  26.060  1.00  0.00     0.163 HD
ATOM     28  O   UNL A   1      42.572  18.720  25.747  1.00  0.00    -0.269 OA
BRANCH  26  29
ATOM     29  C   UNL A   1      42.244  20.971  26.342  1.00  0.00     0.039 A 
ATOM     30  C   UNL A   1      42.615  21.277  27.655  1.00  0.00     0.014 A 
ATOM     31  C   UNL A   1      42.274  21.965  25.360  1.00  0.00     0.014 A 
ATOM     32  C   UNL A   1      43.059  22.563  27.971  1.00  0.00     0.010 A 
ATOM     33  C   UNL A   1      42.785  23.226  25.661  1.00  0.00     0.010 A 
ATOM     34  C   UNL A   1      43.174  23.541  26.972  1.00  0.00    -0.014 A 
BRANCH  34  35
ATOM     35  C   UNL A   1      43.691  24.901  27.280  1.00  0.00     0.031 A 
ATOM     36  C   UNL A   1      42.767  25.958  27.819  1.00  0.00     0.074 A 
ATOM     37  C   UNL A   1      44.973  25.204  26.995  1.00  0.00     0.049 A 
ATOM     38  N   UNL A   1      43.004  27.221  28.066  1.00  0.00    -0.248 NA
ATOM     39  C   UNL A   1      41.381  25.543  28.078  1.00  0.00     0.031 C 
ATOM     40  C   UNL A   1      45.947  24.278  26.412  1.00  0.00     0.029 A 
ATOM     41  N   UNL A   1      45.670  26.376  27.135  1.00  0.00    -0.354 N 
ATOM     42  C   UNL A   1      41.792  27.759  28.488  1.00  0.00     0.074 A 
ATOM     43  C   UNL A   1      40.814  26.695  28.399  1.00  0.00     0.031 C 
ATOM     44  C   UNL A   1      47.115  24.917  26.250  1.00  0.00     0.029 A 
ATOM     45  C   UNL A   1      46.964  26.305  26.677  1.00  0.00     0.049 A 
ATOM     46  H   UNL A   1      45.279  27.192  27.526  1.00  0.00     0.167 HD
ATOM     47  C   UNL A   1      41.528  29.015  28.929  1.00  0.00     0.034 A 
ATOM     48  C   UNL A   1      47.917  27.253  26.590  1.00  0.00     0.034 A 
ATOM     49  C   UNL A   1      42.525  30.057  29.015  1.00  0.00     0.049 A 
ATOM     50  C   UNL A   1      47.611  28.640  27.086  1.00  0.00     0.074 A 
ATOM     51  C   UNL A   1      42.394  31.340  29.519  1.00  0.00     0.029 A 
ATOM     52  N   UNL A   1      43.837  29.941  28.571  1.00  0.00    -0.354 N 
ATOM     53  N   UNL A   1      46.482  29.117  27.558  1.00  0.00    -0.248 NA
ATOM     54  C   UNL A   1      48.711  29.611  27.057  1.00  0.00     0.031 C 
ATOM     55  C   UNL A   1      43.600  32.019  29.313  1.00  0.00     0.029 A 
ATOM     56  C   UNL A   1      44.513  31.139  28.753  1.00  0.00     0.049 A 
ATOM     57  H   UNL A   1      44.230  29.127  28.182  1.00  0.00     0.167 HD
ATOM     58  C   UNL A   1      46.741  30.441  27.896  1.00  0.00     0.074 A 
ATOM     59  C   UNL A   1      48.138  30.680  27.592  1.00  0.00     0.031 C 
ATOM     60  C   UNL A   1      45.902  31.373  28.419  1.00  0.00     0.034 A 
BRANCH  47  61
ATOM     61  C   UNL A   1      40.096  29.327  29.311  1.00  0.00     0.023 A 
ATOM     62  C   UNL A   1      39.691  29.416  30.655  1.00  0.00     0.031 A 
ATOM     63  C   UNL A   1      39.108  29.473  28.321  1.00  0.00     0.131 A 
ATOM     64  C   UNL A   1      38.330  29.531  30.973  1.00  0.00     0.055 A 
ATOM     65  C   UNL A   1      37.766  29.686  28.644  1.00  0.00     0.041 A 
ATOM     66  F   UNL A   1      39.424  29.383  27.019  1.00  0.00    -0.206 F 
ATOM     67  C   UNL A   1      37.365  29.693  29.976  1.00  0.00     0.022 A 
BRANCH  64  68
ATOM     68  S   UNL A   1      37.821  29.271  32.696  1.00  0.00     0.124 S 
ATOM     69  O   UNL A   1      36.550  29.992  32.739  1.00  0.00    -0.237 OA
ATOM     70  O   UNL A   1      37.735  27.818  32.783  1.00  0.00    -0.237 OA
ATOM     71  O   UNL A   1      38.900  29.883  33.469  1.00  0.00    -0.744 OA
ENDBRANCH  64  68
ENDBRANCH  47  61
BRANCH  48  72
ATOM     72  C   UNL A   1      49.239  26.918  25.991  1.00  0.00     0.023 A 
ATOM     73  C   UNL A   1      49.604  27.385  24.720  1.00  0.00     0.031 A 
ATOM     74  C   UNL A   1      50.167  26.133  26.700  1.00  0.00     0.131 A 
ATOM     75  C   UNL A   1      50.857  27.043  24.185  1.00  0.00     0.055 A 
ATOM     76  C   UNL A   1      51.426  25.831  26.182  1.00  0.00     0.041 A 
ATOM     77  F   UNL A   1      49.869  25.674  27.927  1.00  0.00    -0.206 F 
ATOM     78  C   UNL A   1      51.775  26.281  24.912  1.00  0.00     0.022 A 
BRANCH  75  79
ATOM     79  S   UNL A   1      51.261  27.582  22.501  1.00  0.00     0.124 S 
ATOM     80  O   UNL A   1      50.735  28.942  22.488  1.00  0.00    -0.237 OA
ATOM     81  O   UNL A   1      52.714  27.455  22.481  1.00  0.00    -0.237 OA
ATOM     82  O   UNL A   1      50.545  26.627  21.657  1.00  0.00    -0.744 OA
ENDBRANCH  75  79
ENDBRANCH  48  72
BRANCH  60  83
ATOM     83  C   UNL A   1      46.489  32.731  28.718  1.00  0.00     0.023 A 
ATOM     84  C   UNL A   1      46.464  33.773  27.775  1.00  0.00     0.031 A 
ATOM     85  C   UNL A   1      47.093  32.982  29.963  1.00  0.00     0.131 A 
ATOM     86  C   UNL A   1      47.078  34.999  28.071  1.00  0.00     0.055 A 
ATOM     87  C   UNL A   1      47.649  34.223  30.275  1.00  0.00     0.041 A 
ATOM     88  F   UNL A   1      47.151  32.022  30.900  1.00  0.00    -0.206 F 
ATOM     89  C   UNL A   1      47.655  35.237  29.321  1.00  0.00     0.022 A 
BRANCH  86  90
ATOM     90  S   UNL A   1      47.197  36.253  26.765  1.00  0.00     0.124 S 
ATOM     91  O   UNL A   1      45.794  36.583  26.532  1.00  0.00    -0.237 OA
ATOM     92  O   UNL A   1      47.999  37.293  27.403  1.00  0.00    -0.237 OA
ATOM     93  O   UNL A   1      47.857  35.547  25.669  1.00  0.00    -0.744 OA
ENDBRANCH  86  90
ENDBRANCH  60  83
ENDBRANCH  34  35
ENDBRANCH  26  29
ENDBRANCH  24  25
ENDBRANCH   1  24
TORSDOF 16
ENDMDL
