MODEL 1
REMARK VINA RESULT:     -13.4      0.000      0.000
REMARK SMILES O=C(NCCCNC(=O)c1cc2c(c(S(=O)(=O)Nc3cc(C(F)(F)F)ccc3-n3cccn3)c1)CCC2)c1ccc(-c2c3nc(c(-c4cc(S(=O)(=O)[O-])ccc4F)c4ccc([nH]4)c(-c4cc(S(=O)(=O)[O-])ccc4F)c4nc(c(-c5cc(S(=O)(=O)[O-])ccc5F)c5ccc2[nH]5)C=C4)C=C3)cc1
REMARK SMILES IDX 5 1 4 2 3 3 1 4 2 5 38 7 39 8 100 9 40 10 99 11 41 12 42 13
REMARK SMILES IDX 43 14 93 15 44 16 98 17 92 18 94 19 45 20 97 21 91 22 90 23
REMARK SMILES IDX 46 25 78 26 58 27 77 28 59 29 62 30 76 31 95 32 60 33 61 34
REMARK SMILES IDX 75 36 96 37 63 38 47 39 48 40 56 41 49 42 55 43 57 44 54 45
REMARK SMILES IDX 50 46 51 47 52 48 53 49 79 50 80 51 88 52 81 53 87 54 89 55
REMARK SMILES IDX 86 56 82 57 83 58 84 59 85 60 64 61 65 62 73 63 66 64 72 65
REMARK SMILES IDX 74 66 71 67 67 68 68 69 69 70 70 71 6 72 7 73 8 74 9 76
REMARK SMILES IDX 10 77 11 78 34 79 12 80 14 81 13 82 37 83 35 84 36 85 15 86
REMARK SMILES IDX 16 87 17 88 18 89 19 91 20 92 28 93 21 94 27 95 26 96 29 97
REMARK SMILES IDX 30 98 33 99 31 100 32 101 22 102 23 103 24 104 25 105
REMARK H PARENT 3 6 94 24 62 35 7 75 18 90
REMARK Flexibility Score: inf
ROOT
ATOM      1  C   UNL A   1      32.303  30.083  26.823  1.00  0.00     0.042 C 
ENDROOT
BRANCH   1   2
ATOM      2  C   UNL A   1      33.698  30.620  27.114  1.00  0.00     0.118 C 
BRANCH   2   3
ATOM      3  N   UNL A   1      33.787  31.535  28.236  1.00  0.00    -0.352 N 
ATOM      4  O   UNL A   1      34.491  32.896  29.817  1.00  0.00    -0.269 OA
ATOM      5  C   UNL A   1      34.784  31.954  29.075  1.00  0.00     0.251 C 
ATOM      6  H   UNL A   1      32.921  31.957  28.444  1.00  0.00     0.163 HD
BRANCH   5   7
ATOM      7  C   UNL A   1      36.134  31.335  29.202  1.00  0.00     0.039 A 
ATOM      8  C   UNL A   1      37.328  32.008  29.461  1.00  0.00     0.014 A 
ATOM      9  C   UNL A   1      36.178  29.936  29.034  1.00  0.00     0.014 A 
ATOM     10  C   UNL A   1      38.540  31.310  29.485  1.00  0.00     0.010 A 
ATOM     11  C   UNL A   1      37.381  29.235  29.064  1.00  0.00     0.010 A 
ATOM     12  C   UNL A   1      38.571  29.926  29.267  1.00  0.00    -0.014 A 
BRANCH  12  13
ATOM     13  C   UNL A   1      39.831  29.201  29.464  1.00  0.00     0.031 A 
ATOM     14  C   UNL A   1      40.214  29.014  30.894  1.00  0.00     0.074 A 
ATOM     15  C   UNL A   1      40.530  28.577  28.492  1.00  0.00     0.049 A 
ATOM     16  N   UNL A   1      41.247  29.487  31.509  1.00  0.00    -0.248 NA
ATOM     17  C   UNL A   1      39.271  28.309  31.776  1.00  0.00     0.031 C 
ATOM     18  C   UNL A   1      40.153  28.405  27.088  1.00  0.00     0.029 A 
ATOM     19  N   UNL A   1      41.696  27.867  28.585  1.00  0.00    -0.354 N 
ATOM     20  C   UNL A   1      41.201  28.970  32.803  1.00  0.00     0.074 A 
ATOM     21  C   UNL A   1      39.889  28.399  32.954  1.00  0.00     0.031 C 
ATOM     22  C   UNL A   1      40.952  27.471  26.522  1.00  0.00     0.029 A 
ATOM     23  C   UNL A   1      41.973  27.067  27.477  1.00  0.00     0.049 A 
ATOM     24  H   UNL A   1      42.289  27.916  29.369  1.00  0.00     0.167 HD
ATOM     25  C   UNL A   1      42.320  28.876  33.576  1.00  0.00     0.034 A 
ATOM     26  C   UNL A   1      42.931  26.105  27.364  1.00  0.00     0.034 A 
ATOM     27  C   UNL A   1      43.386  29.695  33.054  1.00  0.00     0.049 A 
ATOM     28  C   UNL A   1      43.969  26.398  28.383  1.00  0.00     0.074 A 
ATOM     29  C   UNL A   1      43.537  31.043  32.790  1.00  0.00     0.029 A 
ATOM     30  N   UNL A   1      44.413  29.074  32.379  1.00  0.00    -0.354 N 
ATOM     31  N   UNL A   1      44.737  27.451  28.343  1.00  0.00    -0.248 NA
ATOM     32  C   UNL A   1      43.847  25.772  29.691  1.00  0.00     0.031 C 
ATOM     33  C   UNL A   1      44.294  31.097  31.584  1.00  0.00     0.029 A 
ATOM     34  C   UNL A   1      44.624  29.788  31.226  1.00  0.00     0.049 A 
ATOM     35  H   UNL A   1      44.902  28.271  32.669  1.00  0.00     0.167 HD
ATOM     36  C   UNL A   1      44.827  27.877  29.658  1.00  0.00     0.074 A 
ATOM     37  C   UNL A   1      44.347  26.749  30.453  1.00  0.00     0.031 C 
ATOM     38  C   UNL A   1      45.018  29.193  29.964  1.00  0.00     0.034 A 
BRANCH  25  39
ATOM     39  C   UNL A   1      42.586  27.796  34.605  1.00  0.00     0.023 A 
ATOM     40  C   UNL A   1      43.347  26.683  34.191  1.00  0.00     0.031 A 
ATOM     41  C   UNL A   1      41.904  27.649  35.832  1.00  0.00     0.131 A 
ATOM     42  C   UNL A   1      43.314  25.475  34.908  1.00  0.00     0.055 A 
ATOM     43  C   UNL A   1      41.935  26.468  36.581  1.00  0.00     0.041 A 
ATOM     44  F   UNL A   1      41.094  28.592  36.327  1.00  0.00    -0.206 F 
ATOM     45  C   UNL A   1      42.611  25.360  36.103  1.00  0.00     0.022 A 
BRANCH  42  46
ATOM     46  S   UNL A   1      44.042  24.002  34.144  1.00  0.00     0.124 S 
ATOM     47  O   UNL A   1      45.326  23.919  34.834  1.00  0.00    -0.237 OA
ATOM     48  O   UNL A   1      43.063  22.974  34.477  1.00  0.00    -0.237 OA
ATOM     49  O   UNL A   1      44.116  24.357  32.729  1.00  0.00    -0.744 OA
ENDBRANCH  42  46
ENDBRANCH  25  39
BRANCH  26  50
ATOM     50  C   UNL A   1      42.844  24.800  26.644  1.00  0.00     0.023 A 
ATOM     51  C   UNL A   1      43.905  24.257  25.884  1.00  0.00     0.031 A 
ATOM     52  C   UNL A   1      41.759  23.936  26.913  1.00  0.00     0.131 A 
ATOM     53  C   UNL A   1      43.848  22.914  25.430  1.00  0.00     0.055 A 
ATOM     54  C   UNL A   1      41.705  22.616  26.461  1.00  0.00     0.041 A 
ATOM     55  F   UNL A   1      40.745  24.319  27.705  1.00  0.00    -0.206 F 
ATOM     56  C   UNL A   1      42.755  22.095  25.724  1.00  0.00     0.022 A 
BRANCH  53  57
ATOM     57  S   UNL A   1      45.246  22.170  24.524  1.00  0.00     0.124 S 
ATOM     58  O   UNL A   1      45.686  23.269  23.672  1.00  0.00    -0.237 OA
ATOM     59  O   UNL A   1      46.149  21.780  25.600  1.00  0.00    -0.237 OA
ATOM     60  O   UNL A   1      44.633  21.049  23.808  1.00  0.00    -0.744 OA
ENDBRANCH  53  57
ENDBRANCH  26  50
BRANCH  38  61
ATOM     61  C   UNL A   1      45.452  30.144  28.867  1.00  0.00     0.023 A 
ATOM     62  C   UNL A   1      46.793  30.466  28.558  1.00  0.00     0.031 A 
ATOM     63  C   UNL A   1      44.447  30.643  28.020  1.00  0.00     0.131 A 
ATOM     64  C   UNL A   1      47.082  31.272  27.438  1.00  0.00     0.055 A 
ATOM     65  C   UNL A   1      44.738  31.421  26.901  1.00  0.00     0.041 A 
ATOM     66  F   UNL A   1      43.156  30.349  28.245  1.00  0.00    -0.206 F 
ATOM     67  C   UNL A   1      46.059  31.743  26.609  1.00  0.00     0.022 A 
BRANCH  64  68
ATOM     68  S   UNL A   1      48.800  31.736  27.042  1.00  0.00     0.124 S 
ATOM     69  O   UNL A   1      48.651  32.786  26.043  1.00  0.00    -0.237 OA
ATOM     70  O   UNL A   1      49.322  32.157  28.341  1.00  0.00    -0.237 OA
ATOM     71  O   UNL A   1      49.380  30.491  26.534  1.00  0.00    -0.744 OA
ENDBRANCH  64  68
ENDBRANCH  38  61
ENDBRANCH  12  13
ENDBRANCH   5   7
ENDBRANCH   2   3
ENDBRANCH   1   2
BRANCH   1  72
ATOM     72  C   UNL A   1      32.263  28.808  25.984  1.00  0.00     0.118 C 
BRANCH  72  73
ATOM     73  N   UNL A   1      31.028  28.632  25.213  1.00  0.00    -0.352 N 
ATOM     74  C   UNL A   1      30.597  27.572  24.439  1.00  0.00     0.251 C 
ATOM     75  H   UNL A   1      30.404  29.392  25.254  1.00  0.00     0.163 HD
ATOM     76  O   UNL A   1      29.551  27.653  23.798  1.00  0.00    -0.269 OA
BRANCH  74  77
ATOM     77  C   UNL A   1      31.417  26.342  24.354  1.00  0.00     0.041 A 
ATOM     78  C   UNL A   1      32.230  26.151  23.244  1.00  0.00     0.018 A 
ATOM     79  C   UNL A   1      31.267  25.326  25.321  1.00  0.00     0.036 A 
ATOM     80  C   UNL A   1      32.620  24.859  22.970  1.00  0.00    -0.043 A 
ATOM     81  C   UNL A   1      31.753  24.019  25.083  1.00  0.00     0.092 A 
ATOM     82  C   UNL A   1      32.304  23.783  23.830  1.00  0.00    -0.024 A 
ATOM     83  C   UNL A   1      33.220  24.391  21.677  1.00  0.00     0.036 C 
ATOM     84  C   UNL A   1      32.486  22.525  23.038  1.00  0.00     0.037 C 
ATOM     85  C   UNL A   1      33.574  22.956  22.048  1.00  0.00     0.010 C 
BRANCH  81  86
ATOM     86  S   UNL A   1      31.371  22.770  26.293  1.00  0.00     0.262 S 
ATOM     87  O   UNL A   1      31.023  23.473  27.517  1.00  0.00    -0.201 OA
ATOM     88  O   UNL A   1      30.410  21.866  25.702  1.00  0.00    -0.201 OA
BRANCH  86  89
ATOM     89  N   UNL A   1      32.687  21.794  26.787  1.00  0.00    -0.277 N 
ATOM     90  H   UNL A   1      32.596  21.279  27.621  1.00  0.00     0.180 HD
BRANCH  89  91
ATOM     91  C   UNL A   1      33.915  21.681  26.056  1.00  0.00     0.075 A 
ATOM     92  C   UNL A   1      34.872  22.703  26.191  1.00  0.00     0.042 A 
ATOM     93  C   UNL A   1      34.227  20.547  25.289  1.00  0.00     0.089 A 
ATOM     94  C   UNL A   1      36.160  22.571  25.630  1.00  0.00     0.058 A 
ATOM     95  C   UNL A   1      35.500  20.421  24.709  1.00  0.00     0.031 A 
ATOM     96  C   UNL A   1      36.457  21.426  24.878  1.00  0.00     0.015 A 
BRANCH  93  97
ATOM     97  N   UNL A   1      33.306  19.483  25.137  1.00  0.00    -0.239 N 
ATOM     98  C   UNL A   1      32.984  18.499  26.046  1.00  0.00     0.115 A 
ATOM     99  N   UNL A   1      32.687  19.270  23.948  1.00  0.00    -0.177 NA
ATOM    100  C   UNL A   1      32.351  17.504  25.346  1.00  0.00     0.042 A 
ATOM    101  C   UNL A   1      32.236  18.016  24.044  1.00  0.00     0.135 A 
ENDBRANCH  93  97
BRANCH  94 102
ATOM    102  C   UNL A   1      37.220  23.619  25.900  1.00  0.00     0.416 C 
ATOM    103  F   UNL A   1      38.272  23.110  26.598  1.00  0.00    -0.166 F 
ATOM    104  F   UNL A   1      37.740  24.135  24.757  1.00  0.00    -0.166 F 
ATOM    105  F   UNL A   1      36.763  24.675  26.626  1.00  0.00    -0.166 F 
ENDBRANCH  94 102
ENDBRANCH  89  91
ENDBRANCH  86  89
ENDBRANCH  81  86
ENDBRANCH  74  77
ENDBRANCH  72  73
ENDBRANCH   1  72
TORSDOF 18
ENDMDL
MODEL 2
REMARK VINA RESULT:     -13.4      3.415      9.392
REMARK SMILES O=C(NCCCNC(=O)c1cc2c(c(S(=O)(=O)Nc3cc(C(F)(F)F)ccc3-n3cccn3)c1)CCC2)c1ccc(-c2c3nc(c(-c4cc(S(=O)(=O)[O-])ccc4F)c4ccc([nH]4)c(-c4cc(S(=O)(=O)[O-])ccc4F)c4nc(c(-c5cc(S(=O)(=O)[O-])ccc5F)c5ccc2[nH]5)C=C4)C=C3)cc1
REMARK SMILES IDX 5 1 4 2 3 3 1 4 2 5 38 7 39 8 100 9 40 10 99 11 41 12 42 13
REMARK SMILES IDX 43 14 93 15 44 16 98 17 92 18 94 19 45 20 97 21 91 22 90 23
REMARK SMILES IDX 46 25 78 26 58 27 77 28 59 29 62 30 76 31 95 32 60 33 61 34
REMARK SMILES IDX 75 36 96 37 63 38 47 39 48 40 56 41 49 42 55 43 57 44 54 45
REMARK SMILES IDX 50 46 51 47 52 48 53 49 79 50 80 51 88 52 81 53 87 54 89 55
REMARK SMILES IDX 86 56 82 57 83 58 84 59 85 60 64 61 65 62 73 63 66 64 72 65
REMARK SMILES IDX 74 66 71 67 67 68 68 69 69 70 70 71 6 72 7 73 8 74 9 76
REMARK SMILES IDX 10 77 11 78 34 79 12 80 14 81 13 82 37 83 35 84 36 85 15 86
REMARK SMILES IDX 16 87 17 88 18 89 19 91 20 92 28 93 21 94 27 95 26 96 29 97
REMARK SMILES IDX 30 98 33 99 31 100 32 101 22 102 23 103 24 104 25 105
REMARK H PARENT 3 6 94 24 62 35 7 75 18 90
REMARK Flexibility Score: inf
ROOT
ATOM      1  C   UNL A   1      37.702  22.234  24.831  1.00  0.00     0.042 C 
ENDROOT
BRANCH   1   2
ATOM      2  C   UNL A   1      38.345  22.523  26.181  1.00  0.00     0.118 C 
BRANCH   2   3
ATOM      3  N   UNL A   1      39.776  22.294  26.247  1.00  0.00    -0.352 N 
ATOM      4  O   UNL A   1      41.916  22.356  26.758  1.00  0.00    -0.269 OA
ATOM      5  C   UNL A   1      40.850  22.979  26.746  1.00  0.00     0.251 C 
ATOM      6  H   UNL A   1      40.037  21.440  25.831  1.00  0.00     0.163 HD
BRANCH   5   7
ATOM      7  C   UNL A   1      40.844  24.398  27.202  1.00  0.00     0.039 A 
ATOM      8  C   UNL A   1      40.046  25.424  26.696  1.00  0.00     0.014 A 
ATOM      9  C   UNL A   1      41.745  24.704  28.242  1.00  0.00     0.014 A 
ATOM     10  C   UNL A   1      40.193  26.732  27.170  1.00  0.00     0.010 A 
ATOM     11  C   UNL A   1      41.890  26.004  28.723  1.00  0.00     0.010 A 
ATOM     12  C   UNL A   1      41.129  27.027  28.170  1.00  0.00    -0.014 A 
BRANCH  12  13
ATOM     13  C   UNL A   1      41.141  28.369  28.761  1.00  0.00     0.031 A 
ATOM     14  C   UNL A   1      42.257  29.238  28.286  1.00  0.00     0.074 A 
ATOM     15  C   UNL A   1      40.160  28.891  29.528  1.00  0.00     0.049 A 
ATOM     16  N   UNL A   1      43.233  29.729  28.977  1.00  0.00    -0.248 NA
ATOM     17  C   UNL A   1      42.365  29.499  26.843  1.00  0.00     0.031 C 
ATOM     18  C   UNL A   1      38.863  28.294  29.851  1.00  0.00     0.029 A 
ATOM     19  N   UNL A   1      40.078  30.130  30.103  1.00  0.00    -0.354 N 
ATOM     20  C   UNL A   1      43.964  30.533  28.105  1.00  0.00     0.074 A 
ATOM     21  C   UNL A   1      43.486  30.219  26.784  1.00  0.00     0.031 C 
ATOM     22  C   UNL A   1      38.052  29.243  30.373  1.00  0.00     0.029 A 
ATOM     23  C   UNL A   1      38.801  30.480  30.538  1.00  0.00     0.049 A 
ATOM     24  H   UNL A   1      40.856  30.725  30.201  1.00  0.00     0.167 HD
ATOM     25  C   UNL A   1      44.763  31.541  28.558  1.00  0.00     0.034 A 
ATOM     26  C   UNL A   1      38.368  31.704  30.952  1.00  0.00     0.034 A 
ATOM     27  C   UNL A   1      45.032  31.398  29.968  1.00  0.00     0.049 A 
ATOM     28  C   UNL A   1      39.565  32.470  31.378  1.00  0.00     0.074 A 
ATOM     29  C   UNL A   1      45.615  30.421  30.753  1.00  0.00     0.029 A 
ATOM     30  N   UNL A   1      44.359  32.218  30.845  1.00  0.00    -0.354 N 
ATOM     31  N   UNL A   1      40.289  32.153  32.414  1.00  0.00    -0.248 NA
ATOM     32  C   UNL A   1      40.229  33.313  30.395  1.00  0.00     0.031 C 
ATOM     33  C   UNL A   1      44.841  30.406  31.950  1.00  0.00     0.029 A 
ATOM     34  C   UNL A   1      43.886  31.421  31.856  1.00  0.00     0.049 A 
ATOM     35  H   UNL A   1      44.239  33.191  30.762  1.00  0.00     0.167 HD
ATOM     36  C   UNL A   1      41.598  32.365  32.013  1.00  0.00     0.074 A 
ATOM     37  C   UNL A   1      41.495  33.175  30.802  1.00  0.00     0.031 C 
ATOM     38  C   UNL A   1      42.626  31.637  32.539  1.00  0.00     0.034 A 
BRANCH  25  39
ATOM     39  C   UNL A   1      45.030  32.842  27.831  1.00  0.00     0.023 A 
ATOM     40  C   UNL A   1      44.258  33.962  28.206  1.00  0.00     0.031 A 
ATOM     41  C   UNL A   1      45.752  32.973  26.625  1.00  0.00     0.131 A 
ATOM     42  C   UNL A   1      44.135  35.075  27.357  1.00  0.00     0.055 A 
ATOM     43  C   UNL A   1      45.685  34.114  25.819  1.00  0.00     0.041 A 
ATOM     44  F   UNL A   1      46.479  31.976  26.106  1.00  0.00    -0.206 F 
ATOM     45  C   UNL A   1      44.845  35.158  26.164  1.00  0.00     0.022 A 
BRANCH  42  46
ATOM     46  S   UNL A   1      42.876  36.318  27.747  1.00  0.00     0.124 S 
ATOM     47  O   UNL A   1      43.159  36.589  29.153  1.00  0.00    -0.237 OA
ATOM     48  O   UNL A   1      43.202  37.384  26.806  1.00  0.00    -0.237 OA
ATOM     49  O   UNL A   1      41.619  35.620  27.487  1.00  0.00    -0.744 OA
ENDBRANCH  42  46
ENDBRANCH  25  39
BRANCH  26  50
ATOM     50  C   UNL A   1      37.038  32.339  30.713  1.00  0.00     0.023 A 
ATOM     51  C   UNL A   1      36.284  32.973  31.727  1.00  0.00     0.031 A 
ATOM     52  C   UNL A   1      36.602  32.546  29.384  1.00  0.00     0.131 A 
ATOM     53  C   UNL A   1      35.154  33.763  31.392  1.00  0.00     0.055 A 
ATOM     54  C   UNL A   1      35.487  33.321  29.061  1.00  0.00     0.041 A 
ATOM     55  F   UNL A   1      37.302  32.071  28.342  1.00  0.00    -0.206 F 
ATOM     56  C   UNL A   1      34.762  33.942  30.064  1.00  0.00     0.022 A 
BRANCH  53  57
ATOM     57  S   UNL A   1      34.221  34.658  32.680  1.00  0.00     0.124 S 
ATOM     58  O   UNL A   1      32.974  34.979  31.996  1.00  0.00    -0.237 OA
ATOM     59  O   UNL A   1      34.139  33.674  33.753  1.00  0.00    -0.237 OA
ATOM     60  O   UNL A   1      35.070  35.813  32.977  1.00  0.00    -0.744 OA
ENDBRANCH  53  57
ENDBRANCH  26  50
BRANCH  38  61
ATOM     61  C   UNL A   1      42.378  30.820  33.791  1.00  0.00     0.023 A 
ATOM     62  C   UNL A   1      42.107  29.433  33.815  1.00  0.00     0.031 A 
ATOM     63  C   UNL A   1      42.553  31.474  35.025  1.00  0.00     0.131 A 
ATOM     64  C   UNL A   1      42.011  28.757  35.048  1.00  0.00     0.055 A 
ATOM     65  C   UNL A   1      42.478  30.797  36.240  1.00  0.00     0.041 A 
ATOM     66  F   UNL A   1      42.839  32.785  35.068  1.00  0.00    -0.206 F 
ATOM     67  C   UNL A   1      42.201  29.435  36.256  1.00  0.00     0.022 A 
BRANCH  64  68
ATOM     68  S   UNL A   1      41.622  26.977  35.105  1.00  0.00     0.124 S 
ATOM     69  O   UNL A   1      41.279  26.744  36.502  1.00  0.00    -0.237 OA
ATOM     70  O   UNL A   1      40.522  26.861  34.150  1.00  0.00    -0.237 OA
ATOM     71  O   UNL A   1      42.868  26.342  34.671  1.00  0.00    -0.744 OA
ENDBRANCH  64  68
ENDBRANCH  38  61
ENDBRANCH  12  13
ENDBRANCH   5   7
ENDBRANCH   2   3
ENDBRANCH   1   2
BRANCH   1  72
ATOM     72  C   UNL A   1      36.292  22.793  24.654  1.00  0.00     0.118 C 
BRANCH  72  73
ATOM     73  N   UNL A   1      35.295  21.797  24.250  1.00  0.00    -0.352 N 
ATOM     74  C   UNL A   1      33.924  21.904  24.112  1.00  0.00     0.251 C 
ATOM     75  H   UNL A   1      35.661  20.907  24.042  1.00  0.00     0.163 HD
ATOM     76  O   UNL A   1      33.246  20.917  23.835  1.00  0.00    -0.269 OA
BRANCH  74  77
ATOM     77  C   UNL A   1      33.264  23.211  24.330  1.00  0.00     0.041 A 
ATOM     78  C   UNL A   1      32.506  23.398  25.479  1.00  0.00     0.018 A 
ATOM     79  C   UNL A   1      33.296  24.196  23.319  1.00  0.00     0.036 A 
ATOM     80  C   UNL A   1      31.570  24.407  25.453  1.00  0.00    -0.043 A 
ATOM     81  C   UNL A   1      32.397  25.288  23.341  1.00  0.00     0.092 A 
ATOM     82  C   UNL A   1      31.447  25.287  24.355  1.00  0.00    -0.024 A 
ATOM     83  C   UNL A   1      30.453  24.579  26.441  1.00  0.00     0.036 C 
ATOM     84  C   UNL A   1      30.103  25.938  24.466  1.00  0.00     0.037 C 
ATOM     85  C   UNL A   1      29.892  25.920  25.984  1.00  0.00     0.010 C 
BRANCH  81  86
ATOM     86  S   UNL A   1      32.408  26.385  21.938  1.00  0.00     0.262 S 
ATOM     87  O   UNL A   1      33.629  26.101  21.202  1.00  0.00    -0.201 OA
ATOM     88  O   UNL A   1      31.133  26.252  21.269  1.00  0.00    -0.201 OA
BRANCH  86  89
ATOM     89  N   UNL A   1      32.572  28.048  22.304  1.00  0.00    -0.277 N 
ATOM     90  H   UNL A   1      32.873  28.653  21.588  1.00  0.00     0.180 HD
BRANCH  89  91
ATOM     91  C   UNL A   1      32.295  28.613  23.592  1.00  0.00     0.075 A 
ATOM     92  C   UNL A   1      33.308  28.587  24.567  1.00  0.00     0.042 A 
ATOM     93  C   UNL A   1      31.087  29.269  23.877  1.00  0.00     0.089 A 
ATOM     94  C   UNL A   1      33.155  29.269  25.793  1.00  0.00     0.058 A 
ATOM     95  C   UNL A   1      30.920  29.930  25.104  1.00  0.00     0.031 A 
ATOM     96  C   UNL A   1      31.946  29.929  26.054  1.00  0.00     0.015 A 
BRANCH  93  97
ATOM     97  N   UNL A   1      30.044  29.340  22.923  1.00  0.00    -0.239 N 
ATOM     98  C   UNL A   1      29.978  30.119  21.789  1.00  0.00     0.115 A 
ATOM     99  N   UNL A   1      28.883  28.662  23.117  1.00  0.00    -0.177 NA
ATOM    100  C   UNL A   1      28.664  30.135  21.395  1.00  0.00     0.042 A 
ATOM    101  C   UNL A   1      28.026  29.253  22.280  1.00  0.00     0.135 A 
ENDBRANCH  93  97
BRANCH  94 102
ATOM    102  C   UNL A   1      34.307  29.343  26.773  1.00  0.00     0.416 C 
ATOM    103  F   UNL A   1      35.444  28.795  26.263  1.00  0.00    -0.166 F 
ATOM    104  F   UNL A   1      34.622  30.621  27.107  1.00  0.00    -0.166 F 
ATOM    105  F   UNL A   1      34.066  28.687  27.941  1.00  0.00    -0.166 F 
ENDBRANCH  94 102
ENDBRANCH  89  91
ENDBRANCH  86  89
ENDBRANCH  81  86
ENDBRANCH  74  77
ENDBRANCH  72  73
ENDBRANCH   1  72
TORSDOF 18
ENDMDL
MODEL 3
REMARK VINA RESULT:     -13.2      3.913      9.600
REMARK SMILES O=C(NCCCNC(=O)c1cc2c(c(S(=O)(=O)Nc3cc(C(F)(F)F)ccc3-n3cccn3)c1)CCC2)c1ccc(-c2c3nc(c(-c4cc(S(=O)(=O)[O-])ccc4F)c4ccc([nH]4)c(-c4cc(S(=O)(=O)[O-])ccc4F)c4nc(c(-c5cc(S(=O)(=O)[O-])ccc5F)c5ccc2[nH]5)C=C4)C=C3)cc1
REMARK SMILES IDX 5 1 4 2 3 3 1 4 2 5 38 7 39 8 100 9 40 10 99 11 41 12 42 13
REMARK SMILES IDX 43 14 93 15 44 16 98 17 92 18 94 19 45 20 97 21 91 22 90 23
REMARK SMILES IDX 46 25 78 26 58 27 77 28 59 29 62 30 76 31 95 32 60 33 61 34
REMARK SMILES IDX 75 36 96 37 63 38 47 39 48 40 56 41 49 42 55 43 57 44 54 45
REMARK SMILES IDX 50 46 51 47 52 48 53 49 79 50 80 51 88 52 81 53 87 54 89 55
REMARK SMILES IDX 86 56 82 57 83 58 84 59 85 60 64 61 65 62 73 63 66 64 72 65
REMARK SMILES IDX 74 66 71 67 67 68 68 69 69 70 70 71 6 72 7 73 8 74 9 76
REMARK SMILES IDX 10 77 11 78 34 79 12 80 14 81 13 82 37 83 35 84 36 85 15 86
REMARK SMILES IDX 16 87 17 88 18 89 19 91 20 92 28 93 21 94 27 95 26 96 29 97
REMARK SMILES IDX 30 98 33 99 31 100 32 101 22 102 23 103 24 104 25 105
REMARK H PARENT 3 6 94 24 62 35 7 75 18 90
REMARK Flexibility Score: inf
ROOT
ATOM      1  C   UNL A   1      37.126  21.986  25.588  1.00  0.00     0.042 C 
ENDROOT
BRANCH   1   2
ATOM      2  C   UNL A   1      38.227  23.026  25.745  1.00  0.00     0.118 C 
BRANCH   2   3
ATOM      3  N   UNL A   1      39.466  22.535  26.315  1.00  0.00    -0.352 N 
ATOM      4  O   UNL A   1      41.239  22.201  27.578  1.00  0.00    -0.269 OA
ATOM      5  C   UNL A   1      40.381  23.012  27.214  1.00  0.00     0.251 C 
ATOM      6  H   UNL A   1      39.708  21.644  25.973  1.00  0.00     0.163 HD
BRANCH   5   7
ATOM      7  C   UNL A   1      40.457  24.410  27.722  1.00  0.00     0.039 A 
ATOM      8  C   UNL A   1      41.551  25.000  28.356  1.00  0.00     0.014 A 
ATOM      9  C   UNL A   1      39.295  25.187  27.536  1.00  0.00     0.014 A 
ATOM     10  C   UNL A   1      41.462  26.306  28.849  1.00  0.00     0.010 A 
ATOM     11  C   UNL A   1      39.204  26.491  28.018  1.00  0.00     0.010 A 
ATOM     12  C   UNL A   1      40.283  27.047  28.698  1.00  0.00    -0.014 A 
BRANCH  12  13
ATOM     13  C   UNL A   1      40.278  28.464  29.074  1.00  0.00     0.031 A 
ATOM     14  C   UNL A   1      41.434  29.244  28.544  1.00  0.00     0.074 A 
ATOM     15  C   UNL A   1      39.257  29.103  29.686  1.00  0.00     0.049 A 
ATOM     16  N   UNL A   1      42.371  29.831  29.213  1.00  0.00    -0.248 NA
ATOM     17  C   UNL A   1      41.637  29.276  27.087  1.00  0.00     0.031 C 
ATOM     18  C   UNL A   1      37.935  28.570  30.012  1.00  0.00     0.029 A 
ATOM     19  N   UNL A   1      39.158  30.417  30.056  1.00  0.00    -0.354 N 
ATOM     20  C   UNL A   1      43.168  30.487  28.275  1.00  0.00     0.074 A 
ATOM     21  C   UNL A   1      42.770  29.973  26.991  1.00  0.00     0.031 C 
ATOM     22  C   UNL A   1      37.105  29.593  30.328  1.00  0.00     0.029 A 
ATOM     23  C   UNL A   1      37.861  30.837  30.348  1.00  0.00     0.049 A 
ATOM     24  H   UNL A   1      39.936  31.017  30.111  1.00  0.00     0.167 HD
ATOM     25  C   UNL A   1      43.951  31.548  28.618  1.00  0.00     0.034 A 
ATOM     26  C   UNL A   1      37.421  32.112  30.538  1.00  0.00     0.034 A 
ATOM     27  C   UNL A   1      44.129  31.625  30.048  1.00  0.00     0.049 A 
ATOM     28  C   UNL A   1      38.600  32.929  30.917  1.00  0.00     0.074 A 
ATOM     29  C   UNL A   1      44.646  30.780  31.010  1.00  0.00     0.029 A 
ATOM     30  N   UNL A   1      43.414  32.575  30.742  1.00  0.00    -0.354 N 
ATOM     31  N   UNL A   1      39.252  32.774  32.035  1.00  0.00    -0.248 NA
ATOM     32  C   UNL A   1      39.337  33.606  29.861  1.00  0.00     0.031 C 
ATOM     33  C   UNL A   1      43.798  30.954  32.143  1.00  0.00     0.029 A 
ATOM     34  C   UNL A   1      42.866  31.946  31.832  1.00  0.00     0.049 A 
ATOM     35  H   UNL A   1      43.313  33.524  30.502  1.00  0.00     0.167 HD
ATOM     36  C   UNL A   1      40.586  32.914  31.692  1.00  0.00     0.074 A 
ATOM     37  C   UNL A   1      40.572  33.527  30.366  1.00  0.00     0.031 C 
ATOM     38  C   UNL A   1      41.568  32.272  32.389  1.00  0.00     0.034 A 
BRANCH  25  39
ATOM     39  C   UNL A   1      44.283  32.720  27.718  1.00  0.00     0.023 A 
ATOM     40  C   UNL A   1      43.738  33.975  28.062  1.00  0.00     0.031 A 
ATOM     41  C   UNL A   1      44.826  32.625  26.418  1.00  0.00     0.131 A 
ATOM     42  C   UNL A   1      43.644  35.008  27.115  1.00  0.00     0.055 A 
ATOM     43  C   UNL A   1      44.797  33.683  25.503  1.00  0.00     0.041 A 
ATOM     44  F   UNL A   1      45.324  31.485  25.923  1.00  0.00    -0.206 F 
ATOM     45  C   UNL A   1      44.171  34.871  25.836  1.00  0.00     0.022 A 
BRANCH  42  46
ATOM     46  S   UNL A   1      42.641  36.461  27.527  1.00  0.00     0.124 S 
ATOM     47  O   UNL A   1      41.290  35.912  27.461  1.00  0.00    -0.237 OA
ATOM     48  O   UNL A   1      43.135  36.801  28.856  1.00  0.00    -0.237 OA
ATOM     49  O   UNL A   1      42.979  37.415  26.474  1.00  0.00    -0.744 OA
ENDBRANCH  42  46
ENDBRANCH  25  39
BRANCH  26  50
ATOM     50  C   UNL A   1      36.118  32.709  30.118  1.00  0.00     0.023 A 
ATOM     51  C   UNL A   1      35.413  33.662  30.888  1.00  0.00     0.031 A 
ATOM     52  C   UNL A   1      35.669  32.517  28.792  1.00  0.00     0.131 A 
ATOM     53  C   UNL A   1      34.316  34.366  30.329  1.00  0.00     0.055 A 
ATOM     54  C   UNL A   1      34.586  33.209  28.247  1.00  0.00     0.041 A 
ATOM     55  F   UNL A   1      36.326  31.709  27.946  1.00  0.00    -0.206 F 
ATOM     56  C   UNL A   1      33.909  34.145  29.011  1.00  0.00     0.022 A 
BRANCH  53  57
ATOM     57  S   UNL A   1      33.450  35.661  31.279  1.00  0.00     0.124 S 
ATOM     58  O   UNL A   1      32.952  36.539  30.227  1.00  0.00    -0.237 OA
ATOM     59  O   UNL A   1      32.450  34.897  32.016  1.00  0.00    -0.237 OA
ATOM     60  O   UNL A   1      34.507  36.240  32.110  1.00  0.00    -0.744 OA
ENDBRANCH  53  57
ENDBRANCH  26  50
BRANCH  38  61
ATOM     61  C   UNL A   1      41.230  31.661  33.734  1.00  0.00     0.023 A 
ATOM     62  C   UNL A   1      41.214  32.361  34.962  1.00  0.00     0.031 A 
ATOM     63  C   UNL A   1      40.781  30.328  33.736  1.00  0.00     0.131 A 
ATOM     64  C   UNL A   1      40.768  31.717  36.133  1.00  0.00     0.055 A 
ATOM     65  C   UNL A   1      40.321  29.701  34.892  1.00  0.00     0.041 A 
ATOM     66  F   UNL A   1      40.747  29.618  32.596  1.00  0.00    -0.206 F 
ATOM     67  C   UNL A   1      40.318  30.393  36.098  1.00  0.00     0.022 A 
BRANCH  64  68
ATOM     68  S   UNL A   1      40.777  32.586  37.735  1.00  0.00     0.124 S 
ATOM     69  O   UNL A   1      39.433  32.365  38.255  1.00  0.00    -0.237 OA
ATOM     70  O   UNL A   1      41.858  31.915  38.454  1.00  0.00    -0.237 OA
ATOM     71  O   UNL A   1      41.067  33.974  37.369  1.00  0.00    -0.744 OA
ENDBRANCH  64  68
ENDBRANCH  38  61
ENDBRANCH  12  13
ENDBRANCH   5   7
ENDBRANCH   2   3
ENDBRANCH   1   2
BRANCH   1  72
ATOM     72  C   UNL A   1      35.727  22.554  25.353  1.00  0.00     0.118 C 
BRANCH  72  73
ATOM     73  N   UNL A   1      34.859  21.697  24.539  1.00  0.00    -0.352 N 
ATOM     74  C   UNL A   1      33.592  21.925  24.035  1.00  0.00     0.251 C 
ATOM     75  H   UNL A   1      35.239  20.818  24.315  1.00  0.00     0.163 HD
ATOM     76  O   UNL A   1      32.992  21.037  23.434  1.00  0.00    -0.269 OA
BRANCH  74  77
ATOM     77  C   UNL A   1      32.942  23.238  24.247  1.00  0.00     0.041 A 
ATOM     78  C   UNL A   1      32.114  23.408  25.349  1.00  0.00     0.018 A 
ATOM     79  C   UNL A   1      33.058  24.250  23.270  1.00  0.00     0.036 A 
ATOM     80  C   UNL A   1      31.199  24.435  25.291  1.00  0.00    -0.043 A 
ATOM     81  C   UNL A   1      32.179  25.358  23.265  1.00  0.00     0.092 A 
ATOM     82  C   UNL A   1      31.164  25.348  24.213  1.00  0.00    -0.024 A 
ATOM     83  C   UNL A   1      30.023  24.601  26.209  1.00  0.00     0.036 C 
ATOM     84  C   UNL A   1      29.828  26.021  24.256  1.00  0.00     0.037 C 
ATOM     85  C   UNL A   1      29.517  25.965  25.755  1.00  0.00     0.010 C 
BRANCH  81  86
ATOM     86  S   UNL A   1      32.302  26.493  21.897  1.00  0.00     0.262 S 
ATOM     87  O   UNL A   1      33.713  26.579  21.558  1.00  0.00    -0.201 OA
ATOM     88  O   UNL A   1      31.358  26.067  20.889  1.00  0.00    -0.201 OA
BRANCH  86  89
ATOM     89  N   UNL A   1      31.905  28.119  22.251  1.00  0.00    -0.277 N 
ATOM     90  H   UNL A   1      31.691  28.719  21.500  1.00  0.00     0.180 HD
BRANCH  89  91
ATOM     91  C   UNL A   1      31.863  28.660  23.579  1.00  0.00     0.075 A 
ATOM     92  C   UNL A   1      32.933  28.384  24.449  1.00  0.00     0.042 A 
ATOM     93  C   UNL A   1      30.842  29.525  24.002  1.00  0.00     0.089 A 
ATOM     94  C   UNL A   1      33.030  29.018  25.706  1.00  0.00     0.058 A 
ATOM     95  C   UNL A   1      30.922  30.142  25.261  1.00  0.00     0.031 A 
ATOM     96  C   UNL A   1      32.007  29.889  26.106  1.00  0.00     0.015 A 
BRANCH  93  97
ATOM     97  N   UNL A   1      29.754  29.850  23.158  1.00  0.00    -0.239 N 
ATOM     98  C   UNL A   1      28.548  29.195  23.030  1.00  0.00     0.115 A 
ATOM     99  N   UNL A   1      29.855  30.862  22.258  1.00  0.00    -0.177 NA
ATOM    100  C   UNL A   1      27.980  29.633  21.861  1.00  0.00     0.042 A 
ATOM    101  C   UNL A   1      28.855  30.630  21.403  1.00  0.00     0.135 A 
ENDBRANCH  93  97
BRANCH  94 102
ATOM    102  C   UNL A   1      34.256  28.812  26.571  1.00  0.00     0.416 C 
ATOM    103  F   UNL A   1      34.697  27.524  26.528  1.00  0.00    -0.166 F 
ATOM    104  F   UNL A   1      35.303  29.582  26.177  1.00  0.00    -0.166 F 
ATOM    105  F   UNL A   1      34.044  29.093  27.885  1.00  0.00    -0.166 F 
ENDBRANCH  94 102
ENDBRANCH  89  91
ENDBRANCH  86  89
ENDBRANCH  81  86
ENDBRANCH  74  77
ENDBRANCH  72  73
ENDBRANCH   1  72
TORSDOF 18
ENDMDL
