MODEL 1
REMARK VINA RESULT:     -13.5      0.000      0.000
REMARK SMILES O=C(NCCCNC(=O)[C@H]1[C@H]2CC[C@H](CC2)[C@@H]1C(=O)Nc1sc2c(c1C(=O)N1CCCCC1)CCCC2)c1ccc(-c2c3nc(c(-c4cc(S(=O)(=O)[O-])ccc4F)c4ccc([nH]4)c(-c4cc(S(=O)(=O)[O-])ccc4F)c4nc(c(-c5cc(S(=O)(=O)[O-])ccc5F)c5ccc2[nH]5)C=C4)C=C3)cc1
REMARK SMILES IDX 5 1 4 2 3 3 1 4 2 5 38 7 39 8 100 9 40 10 99 11 41 12 42 13
REMARK SMILES IDX 43 14 93 15 44 16 98 17 92 18 94 19 45 20 97 21 91 22 90 23
REMARK SMILES IDX 46 25 78 26 58 27 77 28 59 29 62 30 76 31 95 32 60 33 61 34
REMARK SMILES IDX 75 36 96 37 63 38 47 39 48 40 56 41 49 42 55 43 57 44 54 45
REMARK SMILES IDX 50 46 51 47 52 48 53 49 79 50 80 51 88 52 81 53 87 54 89 55
REMARK SMILES IDX 86 56 82 57 83 58 84 59 85 60 64 61 65 62 73 63 66 64 72 65
REMARK SMILES IDX 74 66 71 67 67 68 68 69 69 70 70 71 6 72 7 73 8 74 9 76
REMARK SMILES IDX 10 77 11 78 17 79 12 80 16 81 14 82 13 83 15 84 18 85 19 86
REMARK SMILES IDX 20 87 21 89 22 90 25 91 23 92 24 93 37 94 34 95 36 96 35 97
REMARK SMILES IDX 26 98 27 99 28 100 29 101 33 102 30 103 32 104 31 105
REMARK H PARENT 3 6 94 24 62 35 7 75 20 88
REMARK Flexibility Score: inf
ROOT
ATOM      1  C   UNL A   1      31.404  29.671  26.740  1.00  0.00     0.042 C 
ENDROOT
BRANCH   1   2
ATOM      2  C   UNL A   1      32.476  30.589  26.172  1.00  0.00     0.118 C 
BRANCH   2   3
ATOM      3  N   UNL A   1      32.313  31.985  26.558  1.00  0.00    -0.352 N 
ATOM      4  O   UNL A   1      32.674  33.887  27.715  1.00  0.00    -0.269 OA
ATOM      5  C   UNL A   1      33.061  32.760  27.414  1.00  0.00     0.251 C 
ATOM      6  H   UNL A   1      31.548  32.446  26.141  1.00  0.00     0.163 HD
BRANCH   5   7
ATOM      7  C   UNL A   1      34.312  32.225  27.996  1.00  0.00     0.039 A 
ATOM      8  C   UNL A   1      34.381  30.903  28.432  1.00  0.00     0.014 A 
ATOM      9  C   UNL A   1      35.425  33.060  28.121  1.00  0.00     0.014 A 
ATOM     10  C   UNL A   1      35.477  30.478  29.170  1.00  0.00     0.010 A 
ATOM     11  C   UNL A   1      36.578  32.590  28.758  1.00  0.00     0.010 A 
ATOM     12  C   UNL A   1      36.598  31.308  29.328  1.00  0.00    -0.014 A 
BRANCH  12  13
ATOM     13  C   UNL A   1      37.786  30.786  30.055  1.00  0.00     0.031 A 
ATOM     14  C   UNL A   1      38.758  29.849  29.393  1.00  0.00     0.074 A 
ATOM     15  C   UNL A   1      38.004  31.208  31.317  1.00  0.00     0.049 A 
ATOM     16  N   UNL A   1      39.848  29.310  29.879  1.00  0.00    -0.248 NA
ATOM     17  C   UNL A   1      38.460  29.452  28.009  1.00  0.00     0.031 C 
ATOM     18  C   UNL A   1      37.128  32.117  32.061  1.00  0.00     0.029 A 
ATOM     19  N   UNL A   1      39.034  30.957  32.186  1.00  0.00    -0.354 N 
ATOM     20  C   UNL A   1      40.355  28.491  28.875  1.00  0.00     0.074 A 
ATOM     21  C   UNL A   1      39.429  28.581  27.763  1.00  0.00     0.031 C 
ATOM     22  C   UNL A   1      37.689  32.400  33.244  1.00  0.00     0.029 A 
ATOM     23  C   UNL A   1      38.919  31.630  33.380  1.00  0.00     0.049 A 
ATOM     24  H   UNL A   1      39.782  30.354  31.975  1.00  0.00     0.167 HD
ATOM     25  C   UNL A   1      41.488  27.743  28.879  1.00  0.00     0.034 A 
ATOM     26  C   UNL A   1      39.701  31.615  34.474  1.00  0.00     0.034 A 
ATOM     27  C   UNL A   1      42.402  27.677  29.997  1.00  0.00     0.049 A 
ATOM     28  C   UNL A   1      40.929  30.751  34.469  1.00  0.00     0.074 A 
ATOM     29  C   UNL A   1      43.593  26.980  30.100  1.00  0.00     0.029 A 
ATOM     30  N   UNL A   1      42.221  28.327  31.214  1.00  0.00    -0.354 N 
ATOM     31  N   UNL A   1      41.394  29.983  33.512  1.00  0.00    -0.248 NA
ATOM     32  C   UNL A   1      41.736  30.749  35.694  1.00  0.00     0.031 C 
ATOM     33  C   UNL A   1      44.097  27.154  31.395  1.00  0.00     0.029 A 
ATOM     34  C   UNL A   1      43.260  28.020  32.082  1.00  0.00     0.049 A 
ATOM     35  H   UNL A   1      41.465  28.920  31.429  1.00  0.00     0.167 HD
ATOM     36  C   UNL A   1      42.557  29.414  34.015  1.00  0.00     0.074 A 
ATOM     37  C   UNL A   1      42.732  29.944  35.353  1.00  0.00     0.031 C 
ATOM     38  C   UNL A   1      43.405  28.533  33.424  1.00  0.00     0.034 A 
BRANCH  25  39
ATOM     39  C   UNL A   1      41.766  26.896  27.656  1.00  0.00     0.023 A 
ATOM     40  C   UNL A   1      41.536  25.510  27.642  1.00  0.00     0.031 A 
ATOM     41  C   UNL A   1      42.312  27.481  26.498  1.00  0.00     0.131 A 
ATOM     42  C   UNL A   1      41.926  24.744  26.531  1.00  0.00     0.055 A 
ATOM     43  C   UNL A   1      42.621  26.726  25.365  1.00  0.00     0.041 A 
ATOM     44  F   UNL A   1      42.573  28.797  26.455  1.00  0.00    -0.206 F 
ATOM     45  C   UNL A   1      42.446  25.346  25.384  1.00  0.00     0.022 A 
BRANCH  42  46
ATOM     46  S   UNL A   1      41.902  22.934  26.674  1.00  0.00     0.124 S 
ATOM     47  O   UNL A   1      43.027  22.692  27.573  1.00  0.00    -0.237 OA
ATOM     48  O   UNL A   1      40.576  22.681  27.226  1.00  0.00    -0.237 OA
ATOM     49  O   UNL A   1      42.104  22.480  25.300  1.00  0.00    -0.744 OA
ENDBRANCH  42  46
ENDBRANCH  25  39
BRANCH  26  50
ATOM     50  C   UNL A   1      39.322  32.420  35.668  1.00  0.00     0.023 A 
ATOM     51  C   UNL A   1      39.773  33.739  35.825  1.00  0.00     0.031 A 
ATOM     52  C   UNL A   1      38.492  31.879  36.666  1.00  0.00     0.131 A 
ATOM     53  C   UNL A   1      39.409  34.467  36.968  1.00  0.00     0.055 A 
ATOM     54  C   UNL A   1      38.094  32.623  37.776  1.00  0.00     0.041 A 
ATOM     55  F   UNL A   1      38.027  30.624  36.556  1.00  0.00    -0.206 F 
ATOM     56  C   UNL A   1      38.560  33.923  37.936  1.00  0.00     0.022 A 
BRANCH  53  57
ATOM     57  S   UNL A   1      40.101  36.127  37.199  1.00  0.00     0.124 S 
ATOM     58  O   UNL A   1      41.472  35.826  37.596  1.00  0.00    -0.237 OA
ATOM     59  O   UNL A   1      39.930  36.714  35.874  1.00  0.00    -0.237 OA
ATOM     60  O   UNL A   1      39.260  36.703  38.246  1.00  0.00    -0.744 OA
ENDBRANCH  53  57
ENDBRANCH  26  50
BRANCH  38  61
ATOM     61  C   UNL A   1      44.614  28.122  34.227  1.00  0.00     0.023 A 
ATOM     62  C   UNL A   1      44.595  26.993  35.063  1.00  0.00     0.031 A 
ATOM     63  C   UNL A   1      45.789  28.893  34.181  1.00  0.00     0.131 A 
ATOM     64  C   UNL A   1      45.707  26.699  35.866  1.00  0.00     0.055 A 
ATOM     65  C   UNL A   1      46.914  28.563  34.937  1.00  0.00     0.041 A 
ATOM     66  F   UNL A   1      45.859  29.985  33.403  1.00  0.00    -0.206 F 
ATOM     67  C   UNL A   1      46.872  27.468  35.796  1.00  0.00     0.022 A 
BRANCH  64  68
ATOM     68  S   UNL A   1      45.579  25.353  37.075  1.00  0.00     0.124 S 
ATOM     69  O   UNL A   1      46.882  25.406  37.728  1.00  0.00    -0.237 OA
ATOM     70  O   UNL A   1      44.441  25.771  37.888  1.00  0.00    -0.237 OA
ATOM     71  O   UNL A   1      45.347  24.170  36.249  1.00  0.00    -0.744 OA
ENDBRANCH  64  68
ENDBRANCH  38  61
ENDBRANCH  12  13
ENDBRANCH   5   7
ENDBRANCH   2   3
ENDBRANCH   1   2
BRANCH   1  72
ATOM     72  C   UNL A   1      31.934  28.519  27.574  1.00  0.00     0.117 C 
BRANCH  72  73
ATOM     73  N   UNL A   1      33.053  27.839  26.947  1.00  0.00    -0.356 N 
ATOM     74  C   UNL A   1      33.071  26.799  26.071  1.00  0.00     0.224 C 
ATOM     75  H   UNL A   1      33.941  28.185  27.197  1.00  0.00     0.163 HD
ATOM     76  O   UNL A   1      34.174  26.444  25.653  1.00  0.00    -0.275 OA
BRANCH  74  77
ATOM     77  C   UNL A   1      31.757  26.148  25.633  1.00  0.00     0.094 C 
ATOM     78  C   UNL A   1      31.138  26.920  24.433  1.00  0.00     0.002 C 
ATOM     79  C   UNL A   1      31.972  24.660  25.218  1.00  0.00     0.094 C 
ATOM     80  C   UNL A   1      32.021  26.763  23.182  1.00  0.00     0.005 C 
ATOM     81  C   UNL A   1      29.755  26.314  24.146  1.00  0.00     0.005 C 
ATOM     82  C   UNL A   1      31.375  24.413  23.804  1.00  0.00     0.002 C 
ATOM     83  C   UNL A   1      32.163  25.285  22.809  1.00  0.00     0.005 C 
ATOM     84  C   UNL A   1      29.897  24.844  23.750  1.00  0.00     0.005 C 
BRANCH  79  85
ATOM     85  C   UNL A   1      31.370  23.651  26.210  1.00  0.00     0.229 C 
ATOM     86  O   UNL A   1      30.272  23.862  26.735  1.00  0.00    -0.274 OA
ATOM     87  N   UNL A   1      31.928  22.404  26.348  1.00  0.00    -0.317 N 
ATOM     88  H   UNL A   1      31.309  21.697  26.642  1.00  0.00     0.170 HD
BRANCH  87  89
ATOM     89  C   UNL A   1      33.233  21.995  26.136  1.00  0.00     0.108 A 
ATOM     90  S   UNL A   1      34.477  22.797  26.967  1.00  0.00    -0.122 S 
ATOM     91  C   UNL A   1      33.685  20.874  25.436  1.00  0.00     0.078 A 
ATOM     92  C   UNL A   1      35.662  21.963  26.106  1.00  0.00     0.011 A 
ATOM     93  C   UNL A   1      35.146  20.897  25.387  1.00  0.00    -0.019 A 
ATOM     94  C   UNL A   1      37.100  22.362  26.195  1.00  0.00     0.047 C 
ATOM     95  C   UNL A   1      36.075  19.991  24.633  1.00  0.00     0.037 C 
ATOM     96  C   UNL A   1      37.890  21.729  25.045  1.00  0.00     0.006 C 
ATOM     97  C   UNL A   1      37.563  20.241  24.928  1.00  0.00     0.005 C 
BRANCH  91  98
ATOM     98  C   UNL A   1      32.717  19.970  24.775  1.00  0.00     0.257 C 
ATOM     99  O   UNL A   1      31.712  20.401  24.205  1.00  0.00    -0.269 OA
ATOM    100  N   UNL A   1      33.045  18.619  24.694  1.00  0.00    -0.339 N 
ATOM    101  C   UNL A   1      32.934  18.016  23.374  1.00  0.00     0.120 C 
ATOM    102  C   UNL A   1      32.626  17.732  25.773  1.00  0.00     0.120 C 
ATOM    103  C   UNL A   1      33.804  16.768  23.285  1.00  0.00     0.022 C 
ATOM    104  C   UNL A   1      33.451  16.444  25.771  1.00  0.00     0.022 C 
ATOM    105  C   UNL A   1      33.460  15.774  24.395  1.00  0.00     0.004 C 
ENDBRANCH  91  98
ENDBRANCH  87  89
ENDBRANCH  79  85
ENDBRANCH  74  77
ENDBRANCH  72  73
ENDBRANCH   1  72
TORSDOF 16
ENDMDL
MODEL 2
REMARK VINA RESULT:     -13.5      0.348      7.329
REMARK SMILES O=C(NCCCNC(=O)[C@H]1[C@H]2CC[C@H](CC2)[C@@H]1C(=O)Nc1sc2c(c1C(=O)N1CCCCC1)CCCC2)c1ccc(-c2c3nc(c(-c4cc(S(=O)(=O)[O-])ccc4F)c4ccc([nH]4)c(-c4cc(S(=O)(=O)[O-])ccc4F)c4nc(c(-c5cc(S(=O)(=O)[O-])ccc5F)c5ccc2[nH]5)C=C4)C=C3)cc1
REMARK SMILES IDX 5 1 4 2 3 3 1 4 2 5 38 7 39 8 100 9 40 10 99 11 41 12 42 13
REMARK SMILES IDX 43 14 93 15 44 16 98 17 92 18 94 19 45 20 97 21 91 22 90 23
REMARK SMILES IDX 46 25 78 26 58 27 77 28 59 29 62 30 76 31 95 32 60 33 61 34
REMARK SMILES IDX 75 36 96 37 63 38 47 39 48 40 56 41 49 42 55 43 57 44 54 45
REMARK SMILES IDX 50 46 51 47 52 48 53 49 79 50 80 51 88 52 81 53 87 54 89 55
REMARK SMILES IDX 86 56 82 57 83 58 84 59 85 60 64 61 65 62 73 63 66 64 72 65
REMARK SMILES IDX 74 66 71 67 67 68 68 69 69 70 70 71 6 72 7 73 8 74 9 76
REMARK SMILES IDX 10 77 11 78 17 79 12 80 16 81 14 82 13 83 15 84 18 85 19 86
REMARK SMILES IDX 20 87 21 89 22 90 25 91 23 92 24 93 37 94 34 95 36 96 35 97
REMARK SMILES IDX 26 98 27 99 28 100 29 101 33 102 30 103 32 104 31 105
REMARK H PARENT 3 6 94 24 62 35 7 75 20 88
REMARK Flexibility Score: inf
ROOT
ATOM      1  C   UNL A   1      31.395  29.819  26.751  1.00  0.00     0.042 C 
ENDROOT
BRANCH   1   2
ATOM      2  C   UNL A   1      32.545  30.700  26.289  1.00  0.00     0.118 C 
BRANCH   2   3
ATOM      3  N   UNL A   1      32.386  32.104  26.647  1.00  0.00    -0.352 N 
ATOM      4  O   UNL A   1      32.756  34.028  27.765  1.00  0.00    -0.269 OA
ATOM      5  C   UNL A   1      33.140  32.894  27.485  1.00  0.00     0.251 C 
ATOM      6  H   UNL A   1      31.621  32.558  26.226  1.00  0.00     0.163 HD
BRANCH   5   7
ATOM      7  C   UNL A   1      34.393  32.369  28.071  1.00  0.00     0.039 A 
ATOM      8  C   UNL A   1      34.453  31.064  28.559  1.00  0.00     0.014 A 
ATOM      9  C   UNL A   1      35.516  33.195  28.148  1.00  0.00     0.014 A 
ATOM     10  C   UNL A   1      35.555  30.656  29.298  1.00  0.00     0.010 A 
ATOM     11  C   UNL A   1      36.673  32.738  28.788  1.00  0.00     0.010 A 
ATOM     12  C   UNL A   1      36.687  31.479  29.408  1.00  0.00    -0.014 A 
BRANCH  12  13
ATOM     13  C   UNL A   1      37.879  30.973  30.140  1.00  0.00     0.031 A 
ATOM     14  C   UNL A   1      38.145  31.366  31.566  1.00  0.00     0.074 A 
ATOM     15  C   UNL A   1      38.700  30.110  29.510  1.00  0.00     0.049 A 
ATOM     16  N   UNL A   1      39.129  31.007  32.352  1.00  0.00    -0.248 NA
ATOM     17  C   UNL A   1      37.192  32.295  32.188  1.00  0.00     0.031 C 
ATOM     18  C   UNL A   1      38.541  29.656  28.125  1.00  0.00     0.029 A 
ATOM     19  N   UNL A   1      39.811  29.437  29.951  1.00  0.00    -0.354 N 
ATOM     20  C   UNL A   1      38.931  31.683  33.552  1.00  0.00     0.074 A 
ATOM     21  C   UNL A   1      37.748  32.501  33.374  1.00  0.00     0.031 C 
ATOM     22  C   UNL A   1      39.473  28.734  27.853  1.00  0.00     0.029 A 
ATOM     23  C   UNL A   1      40.347  28.590  29.009  1.00  0.00     0.049 A 
ATOM     24  H   UNL A   1      40.186  29.549  30.853  1.00  0.00     0.167 HD
ATOM     25  C   UNL A   1      39.663  31.620  34.694  1.00  0.00     0.034 A 
ATOM     26  C   UNL A   1      41.436  27.801  29.058  1.00  0.00     0.034 A 
ATOM     27  C   UNL A   1      40.835  30.789  34.851  1.00  0.00     0.049 A 
ATOM     28  C   UNL A   1      42.252  27.777  30.319  1.00  0.00     0.074 A 
ATOM     29  C   UNL A   1      41.633  30.622  35.970  1.00  0.00     0.029 A 
ATOM     30  N   UNL A   1      41.385  29.989  33.854  1.00  0.00    -0.354 N 
ATOM     31  N   UNL A   1      42.050  28.422  31.444  1.00  0.00    -0.248 NA
ATOM     32  C   UNL A   1      43.442  26.920  30.315  1.00  0.00     0.031 C 
ATOM     33  C   UNL A   1      42.698  29.777  35.631  1.00  0.00     0.029 A 
ATOM     34  C   UNL A   1      42.527  29.355  34.322  1.00  0.00     0.049 A 
ATOM     35  H   UNL A   1      41.016  29.887  32.947  1.00  0.00     0.167 HD
ATOM     36  C   UNL A   1      43.085  28.040  32.288  1.00  0.00     0.074 A 
ATOM     37  C   UNL A   1      43.895  27.092  31.548  1.00  0.00     0.031 C 
ATOM     38  C   UNL A   1      43.342  28.435  33.562  1.00  0.00     0.034 A 
BRANCH  25  39
ATOM     39  C   UNL A   1      39.245  32.518  35.838  1.00  0.00     0.023 A 
ATOM     40  C   UNL A   1      39.651  33.861  35.918  1.00  0.00     0.031 A 
ATOM     41  C   UNL A   1      38.461  32.008  36.889  1.00  0.00     0.131 A 
ATOM     42  C   UNL A   1      39.345  34.621  37.059  1.00  0.00     0.055 A 
ATOM     43  C   UNL A   1      38.089  32.793  37.982  1.00  0.00     0.041 A 
ATOM     44  F   UNL A   1      38.056  30.728  36.881  1.00  0.00    -0.206 F 
ATOM     45  C   UNL A   1      38.547  34.103  38.081  1.00  0.00     0.022 A 
BRANCH  42  46
ATOM     46  S   UNL A   1      40.146  36.237  37.264  1.00  0.00     0.124 S 
ATOM     47  O   UNL A   1      39.904  36.855  35.963  1.00  0.00    -0.237 OA
ATOM     48  O   UNL A   1      39.416  36.808  38.390  1.00  0.00    -0.237 OA
ATOM     49  O   UNL A   1      41.541  35.896  37.533  1.00  0.00    -0.744 OA
ENDBRANCH  42  46
ENDBRANCH  25  39
BRANCH  26  50
ATOM     50  C   UNL A   1      41.827  27.001  27.865  1.00  0.00     0.023 A 
ATOM     51  C   UNL A   1      41.625  25.614  27.825  1.00  0.00     0.031 A 
ATOM     52  C   UNL A   1      42.400  27.620  26.740  1.00  0.00     0.131 A 
ATOM     53  C   UNL A   1      42.015  24.886  26.691  1.00  0.00     0.055 A 
ATOM     54  C   UNL A   1      42.743  26.900  25.597  1.00  0.00     0.041 A 
ATOM     55  F   UNL A   1      42.605  28.948  26.726  1.00  0.00    -0.206 F 
ATOM     56  C   UNL A   1      42.559  25.521  25.571  1.00  0.00     0.022 A 
BRANCH  53  57
ATOM     57  S   UNL A   1      41.848  23.081  26.716  1.00  0.00     0.124 S 
ATOM     58  O   UNL A   1      42.986  22.687  27.539  1.00  0.00    -0.237 OA
ATOM     59  O   UNL A   1      40.530  22.906  27.317  1.00  0.00    -0.237 OA
ATOM     60  O   UNL A   1      41.940  22.711  25.305  1.00  0.00    -0.744 OA
ENDBRANCH  53  57
ENDBRANCH  26  50
BRANCH  38  61
ATOM     61  C   UNL A   1      44.538  27.807  34.232  1.00  0.00     0.023 A 
ATOM     62  C   UNL A   1      44.452  26.564  34.883  1.00  0.00     0.031 A 
ATOM     63  C   UNL A   1      45.773  28.480  34.249  1.00  0.00     0.131 A 
ATOM     64  C   UNL A   1      45.562  26.059  35.575  1.00  0.00     0.055 A 
ATOM     65  C   UNL A   1      46.891  27.945  34.890  1.00  0.00     0.041 A 
ATOM     66  F   UNL A   1      45.909  29.672  33.648  1.00  0.00    -0.206 F 
ATOM     67  C   UNL A   1      46.786  26.735  35.569  1.00  0.00     0.022 A 
BRANCH  64  68
ATOM     68  S   UNL A   1      45.361  24.553  36.566  1.00  0.00     0.124 S 
ATOM     69  O   UNL A   1      44.157  23.967  35.987  1.00  0.00    -0.237 OA
ATOM     70  O   UNL A   1      46.607  23.839  36.306  1.00  0.00    -0.237 OA
ATOM     71  O   UNL A   1      45.211  25.058  37.930  1.00  0.00    -0.744 OA
ENDBRANCH  64  68
ENDBRANCH  38  61
ENDBRANCH  12  13
ENDBRANCH   5   7
ENDBRANCH   2   3
ENDBRANCH   1   2
BRANCH   1  72
ATOM     72  C   UNL A   1      31.815  28.577  27.514  1.00  0.00     0.117 C 
BRANCH  72  73
ATOM     73  N   UNL A   1      32.956  27.908  26.916  1.00  0.00    -0.356 N 
ATOM     74  C   UNL A   1      33.007  26.855  26.057  1.00  0.00     0.224 C 
ATOM     75  H   UNL A   1      33.833  28.275  27.174  1.00  0.00     0.163 HD
ATOM     76  O   UNL A   1      34.123  26.514  25.662  1.00  0.00    -0.275 OA
BRANCH  74  77
ATOM     77  C   UNL A   1      31.713  26.173  25.610  1.00  0.00     0.094 C 
ATOM     78  C   UNL A   1      31.096  26.915  24.390  1.00  0.00     0.002 C 
ATOM     79  C   UNL A   1      31.962  24.684  25.220  1.00  0.00     0.094 C 
ATOM     80  C   UNL A   1      32.001  26.758  23.154  1.00  0.00     0.005 C 
ATOM     81  C   UNL A   1      29.730  26.279  24.092  1.00  0.00     0.005 C 
ATOM     82  C   UNL A   1      31.391  24.405  23.800  1.00  0.00     0.002 C 
ATOM     83  C   UNL A   1      32.177  25.278  22.805  1.00  0.00     0.005 C 
ATOM     84  C   UNL A   1      29.906  24.806  23.719  1.00  0.00     0.005 C 
BRANCH  79  85
ATOM     85  C   UNL A   1      31.364  23.677  26.217  1.00  0.00     0.229 C 
ATOM     86  O   UNL A   1      30.267  23.887  26.742  1.00  0.00    -0.274 OA
ATOM     87  N   UNL A   1      31.927  22.432  26.359  1.00  0.00    -0.317 N 
ATOM     88  H   UNL A   1      31.311  21.725  26.658  1.00  0.00     0.170 HD
BRANCH  87  89
ATOM     89  C   UNL A   1      33.233  22.026  26.147  1.00  0.00     0.108 A 
ATOM     90  S   UNL A   1      34.476  22.841  26.967  1.00  0.00    -0.122 S 
ATOM     91  C   UNL A   1      33.687  20.901  25.457  1.00  0.00     0.078 A 
ATOM     92  C   UNL A   1      35.662  22.004  26.110  1.00  0.00     0.011 A 
ATOM     93  C   UNL A   1      35.148  20.929  25.403  1.00  0.00    -0.019 A 
ATOM     94  C   UNL A   1      37.099  22.409  26.191  1.00  0.00     0.047 C 
ATOM     95  C   UNL A   1      36.078  20.019  24.655  1.00  0.00     0.037 C 
ATOM     96  C   UNL A   1      37.888  21.769  25.045  1.00  0.00     0.006 C 
ATOM     97  C   UNL A   1      37.567  20.278  24.943  1.00  0.00     0.005 C 
BRANCH  91  98
ATOM     98  C   UNL A   1      32.721  19.987  24.807  1.00  0.00     0.257 C 
ATOM     99  O   UNL A   1      31.708  20.407  24.245  1.00  0.00    -0.269 OA
ATOM    100  N   UNL A   1      33.059  18.637  24.729  1.00  0.00    -0.339 N 
ATOM    101  C   UNL A   1      32.942  18.029  23.412  1.00  0.00     0.120 C 
ATOM    102  C   UNL A   1      32.657  17.751  25.815  1.00  0.00     0.120 C 
ATOM    103  C   UNL A   1      33.821  16.788  23.320  1.00  0.00     0.022 C 
ATOM    104  C   UNL A   1      33.492  16.470  25.810  1.00  0.00     0.022 C 
ATOM    105  C   UNL A   1      33.495  15.795  24.436  1.00  0.00     0.004 C 
ENDBRANCH  91  98
ENDBRANCH  87  89
ENDBRANCH  79  85
ENDBRANCH  74  77
ENDBRANCH  72  73
ENDBRANCH   1  72
TORSDOF 16
ENDMDL
MODEL 3
REMARK VINA RESULT:     -12.9      1.940      3.042
REMARK SMILES O=C(NCCCNC(=O)[C@H]1[C@H]2CC[C@H](CC2)[C@@H]1C(=O)Nc1sc2c(c1C(=O)N1CCCCC1)CCCC2)c1ccc(-c2c3nc(c(-c4cc(S(=O)(=O)[O-])ccc4F)c4ccc([nH]4)c(-c4cc(S(=O)(=O)[O-])ccc4F)c4nc(c(-c5cc(S(=O)(=O)[O-])ccc5F)c5ccc2[nH]5)C=C4)C=C3)cc1
REMARK SMILES IDX 5 1 4 2 3 3 1 4 2 5 38 7 39 8 100 9 40 10 99 11 41 12 42 13
REMARK SMILES IDX 43 14 93 15 44 16 98 17 92 18 94 19 45 20 97 21 91 22 90 23
REMARK SMILES IDX 46 25 78 26 58 27 77 28 59 29 62 30 76 31 95 32 60 33 61 34
REMARK SMILES IDX 75 36 96 37 63 38 47 39 48 40 56 41 49 42 55 43 57 44 54 45
REMARK SMILES IDX 50 46 51 47 52 48 53 49 79 50 80 51 88 52 81 53 87 54 89 55
REMARK SMILES IDX 86 56 82 57 83 58 84 59 85 60 64 61 65 62 73 63 66 64 72 65
REMARK SMILES IDX 74 66 71 67 67 68 68 69 69 70 70 71 6 72 7 73 8 74 9 76
REMARK SMILES IDX 10 77 11 78 17 79 12 80 16 81 14 82 13 83 15 84 18 85 19 86
REMARK SMILES IDX 20 87 21 89 22 90 25 91 23 92 24 93 37 94 34 95 36 96 35 97
REMARK SMILES IDX 26 98 27 99 28 100 29 101 33 102 30 103 32 104 31 105
REMARK H PARENT 3 6 94 24 62 35 7 75 20 88
REMARK Flexibility Score: inf
ROOT
ATOM      1  C   UNL A   1      33.660  29.109  24.188  1.00  0.00     0.042 C 
ENDROOT
BRANCH   1   2
ATOM      2  C   UNL A   1      32.842  29.072  25.469  1.00  0.00     0.118 C 
BRANCH   2   3
ATOM      3  N   UNL A   1      32.398  30.386  25.917  1.00  0.00    -0.352 N 
ATOM      4  O   UNL A   1      32.331  32.243  27.195  1.00  0.00    -0.269 OA
ATOM      5  C   UNL A   1      32.939  31.229  26.861  1.00  0.00     0.251 C 
ATOM      6  H   UNL A   1      31.584  30.724  25.477  1.00  0.00     0.163 HD
BRANCH   5   7
ATOM      7  C   UNL A   1      34.235  30.898  27.493  1.00  0.00     0.039 A 
ATOM      8  C   UNL A   1      34.520  29.589  27.881  1.00  0.00     0.014 A 
ATOM      9  C   UNL A   1      35.172  31.911  27.715  1.00  0.00     0.014 A 
ATOM     10  C   UNL A   1      35.637  29.331  28.664  1.00  0.00     0.010 A 
ATOM     11  C   UNL A   1      36.357  31.624  28.400  1.00  0.00     0.010 A 
ATOM     12  C   UNL A   1      36.580  30.339  28.920  1.00  0.00    -0.014 A 
BRANCH  12  13
ATOM     13  C   UNL A   1      37.804  30.003  29.694  1.00  0.00     0.031 A 
ATOM     14  C   UNL A   1      38.917  29.196  29.084  1.00  0.00     0.074 A 
ATOM     15  C   UNL A   1      37.920  30.477  30.950  1.00  0.00     0.049 A 
ATOM     16  N   UNL A   1      40.055  28.824  29.615  1.00  0.00    -0.248 NA
ATOM     17  C   UNL A   1      38.722  28.733  27.703  1.00  0.00     0.031 C 
ATOM     18  C   UNL A   1      36.904  31.271  31.646  1.00  0.00     0.029 A 
ATOM     19  N   UNL A   1      38.946  30.390  31.855  1.00  0.00    -0.354 N 
ATOM     20  C   UNL A   1      40.702  28.064  28.647  1.00  0.00     0.074 A 
ATOM     21  C   UNL A   1      39.810  28.000  27.507  1.00  0.00     0.031 C 
ATOM     22  C   UNL A   1      37.382  31.653  32.837  1.00  0.00     0.029 A 
ATOM     23  C   UNL A   1      38.701  31.065  33.028  1.00  0.00     0.049 A 
ATOM     24  H   UNL A   1      39.778  29.893  31.682  1.00  0.00     0.167 HD
ATOM     25  C   UNL A   1      41.927  27.481  28.703  1.00  0.00     0.034 A 
ATOM     26  C   UNL A   1      39.442  31.181  34.145  1.00  0.00     0.034 A 
ATOM     27  C   UNL A   1      42.805  27.565  29.849  1.00  0.00     0.049 A 
ATOM     28  C   UNL A   1      40.777  30.496  34.198  1.00  0.00     0.074 A 
ATOM     29  C   UNL A   1      44.077  27.043  30.004  1.00  0.00     0.029 A 
ATOM     30  N   UNL A   1      42.496  28.209  31.043  1.00  0.00    -0.354 N 
ATOM     31  N   UNL A   1      41.375  29.781  33.273  1.00  0.00    -0.248 NA
ATOM     32  C   UNL A   1      41.536  30.632  35.445  1.00  0.00     0.031 C 
ATOM     33  C   UNL A   1      44.510  27.312  31.308  1.00  0.00     0.029 A 
ATOM     34  C   UNL A   1      43.539  28.067  31.948  1.00  0.00     0.049 A 
ATOM     35  H   UNL A   1      41.659  28.695  31.221  1.00  0.00     0.167 HD
ATOM     36  C   UNL A   1      42.588  29.390  33.825  1.00  0.00     0.074 A 
ATOM     37  C   UNL A   1      42.645  29.967  35.154  1.00  0.00     0.031 C 
ATOM     38  C   UNL A   1      43.569  28.624  33.281  1.00  0.00     0.034 A 
BRANCH  25  39
ATOM     39  C   UNL A   1      42.359  26.655  27.510  1.00  0.00     0.023 A 
ATOM     40  C   UNL A   1      42.359  25.250  27.537  1.00  0.00     0.031 A 
ATOM     41  C   UNL A   1      42.821  27.287  26.341  1.00  0.00     0.131 A 
ATOM     42  C   UNL A   1      42.887  24.527  26.455  1.00  0.00     0.055 A 
ATOM     43  C   UNL A   1      43.266  26.560  25.235  1.00  0.00     0.041 A 
ATOM     44  F   UNL A   1      42.864  28.627  26.259  1.00  0.00    -0.206 F 
ATOM     45  C   UNL A   1      43.319  25.172  25.295  1.00  0.00     0.022 A 
BRANCH  42  46
ATOM     46  S   UNL A   1      43.156  22.742  26.655  1.00  0.00     0.124 S 
ATOM     47  O   UNL A   1      44.612  22.672  26.761  1.00  0.00    -0.237 OA
ATOM     48  O   UNL A   1      42.411  22.446  27.872  1.00  0.00    -0.237 OA
ATOM     49  O   UNL A   1      42.601  22.174  25.428  1.00  0.00    -0.744 OA
ENDBRANCH  42  46
ENDBRANCH  25  39
BRANCH  26  50
ATOM     50  C   UNL A   1      38.917  31.951  35.307  1.00  0.00     0.023 A 
ATOM     51  C   UNL A   1      38.328  31.300  36.400  1.00  0.00     0.031 A 
ATOM     52  C   UNL A   1      39.010  33.354  35.340  1.00  0.00     0.131 A 
ATOM     53  C   UNL A   1      37.831  32.055  37.474  1.00  0.00     0.055 A 
ATOM     54  C   UNL A   1      38.558  34.096  36.431  1.00  0.00     0.041 A 
ATOM     55  F   UNL A   1      39.574  34.022  34.321  1.00  0.00    -0.206 F 
ATOM     56  C   UNL A   1      37.956  33.447  37.503  1.00  0.00     0.022 A 
BRANCH  53  57
ATOM     57  S   UNL A   1      36.972  31.193  38.818  1.00  0.00     0.124 S 
ATOM     58  O   UNL A   1      35.751  31.981  38.944  1.00  0.00    -0.237 OA
ATOM     59  O   UNL A   1      36.817  29.851  38.268  1.00  0.00    -0.237 OA
ATOM     60  O   UNL A   1      37.902  31.301  39.940  1.00  0.00    -0.744 OA
ENDBRANCH  53  57
ENDBRANCH  26  50
BRANCH  38  61
ATOM     61  C   UNL A   1      44.796  28.401  34.129  1.00  0.00     0.023 A 
ATOM     62  C   UNL A   1      44.903  27.302  34.998  1.00  0.00     0.031 A 
ATOM     63  C   UNL A   1      45.857  29.323  34.091  1.00  0.00     0.131 A 
ATOM     64  C   UNL A   1      46.019  27.183  35.839  1.00  0.00     0.055 A 
ATOM     65  C   UNL A   1      46.992  29.168  34.888  1.00  0.00     0.041 A 
ATOM     66  F   UNL A   1      45.804  30.393  33.283  1.00  0.00    -0.206 F 
ATOM     67  C   UNL A   1      47.071  28.101  35.778  1.00  0.00     0.022 A 
BRANCH  64  68
ATOM     68  S   UNL A   1      46.035  25.864  37.085  1.00  0.00     0.124 S 
ATOM     69  O   UNL A   1      47.464  25.687  37.322  1.00  0.00    -0.237 OA
ATOM     70  O   UNL A   1      45.276  26.460  38.180  1.00  0.00    -0.237 OA
ATOM     71  O   UNL A   1      45.375  24.748  36.412  1.00  0.00    -0.744 OA
ENDBRANCH  64  68
ENDBRANCH  38  61
ENDBRANCH  12  13
ENDBRANCH   5   7
ENDBRANCH   2   3
ENDBRANCH   1   2
BRANCH   1  72
ATOM     72  C   UNL A   1      32.868  28.834  22.923  1.00  0.00     0.117 C 
BRANCH  72  73
ATOM     73  N   UNL A   1      33.262  27.600  22.269  1.00  0.00    -0.356 N 
ATOM     74  C   UNL A   1      33.082  26.307  22.651  1.00  0.00     0.224 C 
ATOM     75  H   UNL A   1      33.734  27.717  21.413  1.00  0.00     0.163 HD
ATOM     76  O   UNL A   1      33.478  25.438  21.871  1.00  0.00    -0.275 OA
BRANCH  74  77
ATOM     77  C   UNL A   1      32.393  25.993  23.980  1.00  0.00     0.094 C 
ATOM     78  C   UNL A   1      30.849  26.116  23.839  1.00  0.00     0.002 C 
ATOM     79  C   UNL A   1      32.740  24.554  24.472  1.00  0.00     0.094 C 
ATOM     80  C   UNL A   1      30.306  25.013  22.912  1.00  0.00     0.005 C 
ATOM     81  C   UNL A   1      30.232  25.943  25.235  1.00  0.00     0.005 C 
ATOM     82  C   UNL A   1      31.433  23.772  24.786  1.00  0.00     0.002 C 
ATOM     83  C   UNL A   1      30.650  23.629  23.469  1.00  0.00     0.005 C 
ATOM     84  C   UNL A   1      30.554  24.551  25.783  1.00  0.00     0.005 C 
BRANCH  79  85
ATOM     85  C   UNL A   1      33.658  24.530  25.705  1.00  0.00     0.229 C 
ATOM     86  O   UNL A   1      34.041  25.582  26.226  1.00  0.00    -0.274 OA
ATOM     87  N   UNL A   1      33.876  23.353  26.379  1.00  0.00    -0.317 N 
ATOM     88  H   UNL A   1      34.097  23.451  27.334  1.00  0.00     0.170 HD
BRANCH  87  89
ATOM     89  C   UNL A   1      33.830  22.051  25.914  1.00  0.00     0.108 A 
ATOM     90  S   UNL A   1      32.509  21.080  26.353  1.00  0.00    -0.122 S 
ATOM     91  C   UNL A   1      34.659  21.440  24.971  1.00  0.00     0.078 A 
ATOM     92  C   UNL A   1      33.211  19.716  25.656  1.00  0.00     0.011 A 
ATOM     93  C   UNL A   1      34.304  20.026  24.864  1.00  0.00    -0.019 A 
ATOM     94  C   UNL A   1      32.631  18.355  25.878  1.00  0.00     0.047 C 
ATOM     95  C   UNL A   1      34.996  18.939  24.094  1.00  0.00     0.037 C 
ATOM     96  C   UNL A   1      33.652  17.283  25.486  1.00  0.00     0.006 C 
ATOM     97  C   UNL A   1      34.253  17.593  24.116  1.00  0.00     0.005 C 
BRANCH  91  98
ATOM     98  C   UNL A   1      35.778  22.197  24.363  1.00  0.00     0.257 C 
ATOM     99  O   UNL A   1      35.678  22.723  23.254  1.00  0.00    -0.269 OA
ATOM    100  N   UNL A   1      36.910  22.416  25.146  1.00  0.00    -0.339 N 
ATOM    101  C   UNL A   1      37.378  23.794  25.211  1.00  0.00     0.120 C 
ATOM    102  C   UNL A   1      37.990  21.438  25.103  1.00  0.00     0.120 C 
ATOM    103  C   UNL A   1      38.221  24.008  26.463  1.00  0.00     0.022 C 
ATOM    104  C   UNL A   1      38.894  21.571  26.329  1.00  0.00     0.022 C 
ATOM    105  C   UNL A   1      39.377  23.010  26.530  1.00  0.00     0.004 C 
ENDBRANCH  91  98
ENDBRANCH  87  89
ENDBRANCH  79  85
ENDBRANCH  74  77
ENDBRANCH  72  73
ENDBRANCH   1  72
TORSDOF 16
ENDMDL
