MODEL 1
REMARK VINA RESULT:     -11.4      0.000      0.000
REMARK SMILES CC(C)C[C@@H](NC(=O)c1cccnc1)C(=O)NCCCNC(=O)c1ccc(-c2c3nc(c(-c4cc(S(=O)(=O)[O-])ccc4F)c4ccc([nH]4)c(-c4cc(S(=O)(=O)[O-])ccc4F)c4nc(c(-c5cc(S(=O)(=O)[O-])ccc5F)c5ccc2[nH]5)C=C4)C=C3)cc1
REMARK SMILES IDX 19 1 18 2 17 3 15 4 16 5 5 7 4 8 2 9 1 10 3 11 6 12 7 13
REMARK SMILES IDX 8 15 9 16 10 17 14 18 11 19 13 20 12 21 20 22 21 23 22 24
REMARK SMILES IDX 23 26 24 27 25 28 86 29 26 30 85 31 27 32 28 33 29 34 79 35
REMARK SMILES IDX 30 36 84 37 78 38 80 39 31 40 83 41 77 42 76 43 32 45 64 46
REMARK SMILES IDX 44 47 63 48 45 49 48 50 62 51 81 52 46 53 47 54 61 56 82 57
REMARK SMILES IDX 49 58 33 59 34 60 42 61 35 62 41 63 43 64 40 65 36 66 37 67
REMARK SMILES IDX 38 68 39 69 65 70 66 71 74 72 67 73 73 74 75 75 72 76 68 77
REMARK SMILES IDX 69 78 70 79 71 80 50 81 51 82 59 83 52 84 58 85 60 86 57 87
REMARK SMILES IDX 53 88 54 89 55 90 56 91
REMARK H PARENT 17 6 6 14 21 25 80 44 48 55
REMARK Flexibility Score: inf
ROOT
ATOM      1  C   UNL A   1      36.149  21.470  25.485  1.00  0.00     0.042 C 
ENDROOT
BRANCH   1   2
ATOM      2  C   UNL A   1      35.613  22.702  26.181  1.00  0.00     0.117 C 
BRANCH   2   3
ATOM      3  N   UNL A   1      34.689  22.342  27.246  1.00  0.00    -0.354 N 
ATOM      4  C   UNL A   1      33.353  22.576  27.353  1.00  0.00     0.242 C 
ATOM      5  O   UNL A   1      32.787  22.302  28.414  1.00  0.00    -0.273 OA
ATOM      6  H   UNL A   1      35.092  21.857  28.002  1.00  0.00     0.163 HD
BRANCH   4   7
ATOM      7  C   UNL A   1      32.597  23.285  26.218  1.00  0.00     0.171 C 
BRANCH   7   8
ATOM      8  C   UNL A   1      31.765  22.148  25.565  1.00  0.00     0.038 C 
BRANCH   8   9
ATOM      9  C   UNL A   1      32.162  21.648  24.171  1.00  0.00    -0.015 C 
ATOM     10  C   UNL A   1      33.194  22.563  23.525  1.00  0.00     0.007 C 
ATOM     11  C   UNL A   1      32.729  20.227  24.306  1.00  0.00     0.007 C 
ENDBRANCH   8   9
ENDBRANCH   7   8
BRANCH   7  12
ATOM     12  N   UNL A   1      31.788  24.449  26.637  1.00  0.00    -0.340 N 
ATOM     13  C   UNL A   1      31.158  25.430  25.896  1.00  0.00     0.253 C 
ATOM     14  H   UNL A   1      31.679  24.540  27.611  1.00  0.00     0.164 HD
ATOM     15  O   UNL A   1      30.281  26.111  26.422  1.00  0.00    -0.269 OA
BRANCH  13  16
ATOM     16  C   UNL A   1      31.636  25.813  24.556  1.00  0.00     0.058 A 
ATOM     17  C   UNL A   1      30.981  25.497  23.370  1.00  0.00     0.017 A 
ATOM     18  C   UNL A   1      32.878  26.436  24.472  1.00  0.00     0.124 A 
ATOM     19  C   UNL A   1      31.646  25.698  22.158  1.00  0.00     0.021 A 
ATOM     20  N   UNL A   1      33.547  26.633  23.310  1.00  0.00    -0.264 NA
ATOM     21  C   UNL A   1      32.924  26.239  22.180  1.00  0.00     0.111 A 
ENDBRANCH  13  16
ENDBRANCH   7  12
ENDBRANCH   4   7
ENDBRANCH   2   3
ENDBRANCH   1   2
BRANCH   1  22
ATOM     22  C   UNL A   1      37.612  21.616  25.108  1.00  0.00     0.118 C 
BRANCH  22  23
ATOM     23  N   UNL A   1      38.441  20.545  25.647  1.00  0.00    -0.352 N 
ATOM     24  C   UNL A   1      39.662  20.646  26.269  1.00  0.00     0.251 C 
ATOM     25  H   UNL A   1      38.080  19.635  25.555  1.00  0.00     0.163 HD
ATOM     26  O   UNL A   1      40.351  19.648  26.448  1.00  0.00    -0.269 OA
BRANCH  24  27
ATOM     27  C   UNL A   1      40.133  21.978  26.697  1.00  0.00     0.039 A 
ATOM     28  C   UNL A   1      41.129  22.074  27.665  1.00  0.00     0.014 A 
ATOM     29  C   UNL A   1      39.601  23.129  26.107  1.00  0.00     0.014 A 
ATOM     30  C   UNL A   1      41.624  23.332  28.009  1.00  0.00     0.010 A 
ATOM     31  C   UNL A   1      40.180  24.364  26.359  1.00  0.00     0.010 A 
ATOM     32  C   UNL A   1      41.173  24.483  27.340  1.00  0.00    -0.014 A 
BRANCH  32  33
ATOM     33  C   UNL A   1      41.683  25.828  27.701  1.00  0.00     0.031 A 
ATOM     34  C   UNL A   1      43.049  26.258  27.229  1.00  0.00     0.074 A 
ATOM     35  C   UNL A   1      40.937  26.640  28.475  1.00  0.00     0.049 A 
ATOM     36  N   UNL A   1      43.683  27.381  27.442  1.00  0.00    -0.248 NA
ATOM     37  C   UNL A   1      43.818  25.277  26.446  1.00  0.00     0.031 C 
ATOM     38  C   UNL A   1      39.629  26.303  29.041  1.00  0.00     0.029 A 
ATOM     39  N   UNL A   1      41.166  27.920  28.910  1.00  0.00    -0.354 N 
ATOM     40  C   UNL A   1      44.925  27.235  26.832  1.00  0.00     0.074 A 
ATOM     41  C   UNL A   1      44.987  25.884  26.321  1.00  0.00     0.031 C 
ATOM     42  C   UNL A   1      39.151  27.366  29.708  1.00  0.00     0.029 A 
ATOM     43  C   UNL A   1      40.133  28.444  29.652  1.00  0.00     0.049 A 
ATOM     44  H   UNL A   1      41.993  28.416  28.713  1.00  0.00     0.167 HD
ATOM     45  C   UNL A   1      45.908  28.155  26.677  1.00  0.00     0.034 A 
ATOM     46  C   UNL A   1      39.994  29.660  30.215  1.00  0.00     0.034 A 
ATOM     47  C   UNL A   1      45.816  29.504  27.178  1.00  0.00     0.049 A 
ATOM     48  C   UNL A   1      41.094  30.672  30.018  1.00  0.00     0.074 A 
ATOM     49  C   UNL A   1      46.726  30.538  27.047  1.00  0.00     0.029 A 
ATOM     50  N   UNL A   1      44.746  30.007  27.908  1.00  0.00    -0.354 N 
ATOM     51  N   UNL A   1      42.240  30.539  29.389  1.00  0.00    -0.248 NA
ATOM     52  C   UNL A   1      40.871  32.005  30.588  1.00  0.00     0.031 C 
ATOM     53  C   UNL A   1      46.238  31.642  27.754  1.00  0.00     0.029 A 
ATOM     54  C   UNL A   1      44.983  31.329  28.253  1.00  0.00     0.049 A 
ATOM     55  H   UNL A   1      43.937  29.499  28.146  1.00  0.00     0.167 HD
ATOM     56  C   UNL A   1      42.855  31.787  29.454  1.00  0.00     0.074 A 
ATOM     57  C   UNL A   1      41.941  32.659  30.164  1.00  0.00     0.031 C 
ATOM     58  C   UNL A   1      44.062  32.181  28.969  1.00  0.00     0.034 A 
BRANCH  45  59
ATOM     59  C   UNL A   1      47.162  27.716  25.955  1.00  0.00     0.023 A 
ATOM     60  C   UNL A   1      47.370  27.999  24.591  1.00  0.00     0.031 A 
ATOM     61  C   UNL A   1      48.145  26.966  26.623  1.00  0.00     0.131 A 
ATOM     62  C   UNL A   1      48.482  27.464  23.924  1.00  0.00     0.055 A 
ATOM     63  C   UNL A   1      49.297  26.514  25.973  1.00  0.00     0.041 A 
ATOM     64  F   UNL A   1      47.995  26.641  27.917  1.00  0.00    -0.206 F 
ATOM     65  C   UNL A   1      49.462  26.748  24.612  1.00  0.00     0.022 A 
BRANCH  62  66
ATOM     66  S   UNL A   1      48.544  27.581  22.114  1.00  0.00     0.124 S 
ATOM     67  O   UNL A   1      48.830  26.197  21.740  1.00  0.00    -0.237 OA
ATOM     68  O   UNL A   1      47.211  28.070  21.782  1.00  0.00    -0.237 OA
ATOM     69  O   UNL A   1      49.634  28.521  21.869  1.00  0.00    -0.744 OA
ENDBRANCH  62  66
ENDBRANCH  45  59
BRANCH  46  70
ATOM     70  C   UNL A   1      38.768  30.001  30.993  1.00  0.00     0.023 A 
ATOM     71  C   UNL A   1      37.740  30.773  30.428  1.00  0.00     0.031 A 
ATOM     72  C   UNL A   1      38.625  29.596  32.332  1.00  0.00     0.131 A 
ATOM     73  C   UNL A   1      36.644  31.165  31.212  1.00  0.00     0.055 A 
ATOM     74  C   UNL A   1      37.506  29.940  33.092  1.00  0.00     0.041 A 
ATOM     75  F   UNL A   1      39.573  28.848  32.920  1.00  0.00    -0.206 F 
ATOM     76  C   UNL A   1      36.514  30.742  32.538  1.00  0.00     0.022 A 
BRANCH  73  77
ATOM     77  S   UNL A   1      35.435  32.317  30.504  1.00  0.00     0.124 S 
ATOM     78  O   UNL A   1      36.223  33.539  30.389  1.00  0.00    -0.237 OA
ATOM     79  O   UNL A   1      35.087  31.656  29.251  1.00  0.00    -0.237 OA
ATOM     80  O   UNL A   1      34.372  32.350  31.506  1.00  0.00    -0.744 OA
ENDBRANCH  73  77
ENDBRANCH  46  70
BRANCH  58  81
ATOM     81  C   UNL A   1      44.425  33.637  29.147  1.00  0.00     0.023 A 
ATOM     82  C   UNL A   1      43.826  34.650  28.378  1.00  0.00     0.031 A 
ATOM     83  C   UNL A   1      45.417  34.007  30.072  1.00  0.00     0.131 A 
ATOM     84  C   UNL A   1      44.287  35.971  28.486  1.00  0.00     0.055 A 
ATOM     85  C   UNL A   1      45.815  35.336  30.231  1.00  0.00     0.041 A 
ATOM     86  F   UNL A   1      46.024  33.082  30.833  1.00  0.00    -0.206 F 
ATOM     87  C   UNL A   1      45.264  36.323  29.421  1.00  0.00     0.022 A 
BRANCH  84  88
ATOM     88  S   UNL A   1      43.691  37.197  27.289  1.00  0.00     0.124 S 
ATOM     89  O   UNL A   1      42.946  38.117  28.144  1.00  0.00    -0.237 OA
ATOM     90  O   UNL A   1      44.935  37.714  26.728  1.00  0.00    -0.237 OA
ATOM     91  O   UNL A   1      42.875  36.408  26.369  1.00  0.00    -0.744 OA
ENDBRANCH  84  88
ENDBRANCH  58  81
ENDBRANCH  32  33
ENDBRANCH  24  27
ENDBRANCH  22  23
ENDBRANCH   1  22
TORSDOF 17
ENDMDL
MODEL 2
REMARK VINA RESULT:     -11.2      5.449     10.817
REMARK SMILES CC(C)C[C@@H](NC(=O)c1cccnc1)C(=O)NCCCNC(=O)c1ccc(-c2c3nc(c(-c4cc(S(=O)(=O)[O-])ccc4F)c4ccc([nH]4)c(-c4cc(S(=O)(=O)[O-])ccc4F)c4nc(c(-c5cc(S(=O)(=O)[O-])ccc5F)c5ccc2[nH]5)C=C4)C=C3)cc1
REMARK SMILES IDX 19 1 18 2 17 3 15 4 16 5 5 7 4 8 2 9 1 10 3 11 6 12 7 13
REMARK SMILES IDX 8 15 9 16 10 17 14 18 11 19 13 20 12 21 20 22 21 23 22 24
REMARK SMILES IDX 23 26 24 27 25 28 86 29 26 30 85 31 27 32 28 33 29 34 79 35
REMARK SMILES IDX 30 36 84 37 78 38 80 39 31 40 83 41 77 42 76 43 32 45 64 46
REMARK SMILES IDX 44 47 63 48 45 49 48 50 62 51 81 52 46 53 47 54 61 56 82 57
REMARK SMILES IDX 49 58 33 59 34 60 42 61 35 62 41 63 43 64 40 65 36 66 37 67
REMARK SMILES IDX 38 68 39 69 65 70 66 71 74 72 67 73 73 74 75 75 72 76 68 77
REMARK SMILES IDX 69 78 70 79 71 80 50 81 51 82 59 83 52 84 58 85 60 86 57 87
REMARK SMILES IDX 53 88 54 89 55 90 56 91
REMARK H PARENT 17 6 6 14 21 25 80 44 48 55
REMARK Flexibility Score: inf
ROOT
ATOM      1  C   UNL A   1      31.303  31.981  26.549  1.00  0.00     0.042 C 
ENDROOT
BRANCH   1   2
ATOM      2  C   UNL A   1      31.453  30.718  25.731  1.00  0.00     0.117 C 
BRANCH   2   3
ATOM      3  N   UNL A   1      30.493  30.685  24.638  1.00  0.00    -0.354 N 
ATOM      4  C   UNL A   1      30.343  29.771  23.641  1.00  0.00     0.242 C 
ATOM      5  O   UNL A   1      29.546  30.011  22.731  1.00  0.00    -0.273 OA
ATOM      6  H   UNL A   1      29.858  31.437  24.616  1.00  0.00     0.163 HD
BRANCH   4   7
ATOM      7  C   UNL A   1      31.244  28.526  23.588  1.00  0.00     0.171 C 
BRANCH   7   8
ATOM      8  C   UNL A   1      30.358  27.462  22.885  1.00  0.00     0.038 C 
BRANCH   8   9
ATOM      9  C   UNL A   1      29.694  26.373  23.735  1.00  0.00    -0.015 C 
ATOM     10  C   UNL A   1      30.341  26.268  25.110  1.00  0.00     0.007 C 
ATOM     11  C   UNL A   1      28.202  26.708  23.879  1.00  0.00     0.007 C 
ENDBRANCH   8   9
ENDBRANCH   7   8
BRANCH   7  12
ATOM     12  N   UNL A   1      32.556  28.730  22.941  1.00  0.00    -0.340 N 
ATOM     13  C   UNL A   1      33.486  27.824  22.469  1.00  0.00     0.253 C 
ATOM     14  H   UNL A   1      32.811  29.674  22.825  1.00  0.00     0.164 HD
ATOM     15  O   UNL A   1      34.352  28.204  21.684  1.00  0.00    -0.269 OA
BRANCH  13  16
ATOM     16  C   UNL A   1      33.588  26.462  23.024  1.00  0.00     0.058 A 
ATOM     17  C   UNL A   1      33.200  25.310  22.348  1.00  0.00     0.017 A 
ATOM     18  C   UNL A   1      33.999  26.339  24.347  1.00  0.00     0.124 A 
ATOM     19  C   UNL A   1      33.116  24.109  23.057  1.00  0.00     0.021 A 
ATOM     20  N   UNL A   1      33.918  25.188  25.059  1.00  0.00    -0.264 NA
ATOM     21  C   UNL A   1      33.458  24.103  24.403  1.00  0.00     0.111 A 
ENDBRANCH  13  16
ENDBRANCH   7  12
ENDBRANCH   4   7
ENDBRANCH   2   3
ENDBRANCH   1   2
BRANCH   1  22
ATOM     22  C   UNL A   1      32.629  32.467  27.104  1.00  0.00     0.118 C 
BRANCH  22  23
ATOM     23  N   UNL A   1      32.558  33.826  27.626  1.00  0.00    -0.352 N 
ATOM     24  C   UNL A   1      33.311  34.394  28.624  1.00  0.00     0.251 C 
ATOM     25  H   UNL A   1      31.884  34.410  27.211  1.00  0.00     0.163 HD
ATOM     26  O   UNL A   1      32.976  35.463  29.123  1.00  0.00    -0.269 OA
BRANCH  24  27
ATOM     27  C   UNL A   1      34.517  33.685  29.094  1.00  0.00     0.039 A 
ATOM     28  C   UNL A   1      35.777  34.172  28.751  1.00  0.00     0.014 A 
ATOM     29  C   UNL A   1      34.390  32.551  29.903  1.00  0.00     0.014 A 
ATOM     30  C   UNL A   1      36.911  33.543  29.262  1.00  0.00     0.010 A 
ATOM     31  C   UNL A   1      35.513  32.006  30.508  1.00  0.00     0.010 A 
ATOM     32  C   UNL A   1      36.788  32.472  30.165  1.00  0.00    -0.014 A 
BRANCH  32  33
ATOM     33  C   UNL A   1      37.986  31.788  30.710  1.00  0.00     0.031 A 
ATOM     34  C   UNL A   1      38.492  32.152  32.082  1.00  0.00     0.074 A 
ATOM     35  C   UNL A   1      38.630  30.872  29.961  1.00  0.00     0.049 A 
ATOM     36  N   UNL A   1      39.524  31.684  32.735  1.00  0.00    -0.248 NA
ATOM     37  C   UNL A   1      37.764  33.213  32.797  1.00  0.00     0.031 C 
ATOM     38  C   UNL A   1      38.265  30.488  28.595  1.00  0.00     0.029 A 
ATOM     39  N   UNL A   1      39.719  30.090  30.245  1.00  0.00    -0.354 N 
ATOM     40  C   UNL A   1      39.573  32.400  33.927  1.00  0.00     0.074 A 
ATOM     41  C   UNL A   1      38.525  33.393  33.865  1.00  0.00     0.031 C 
ATOM     42  C   UNL A   1      39.086  29.510  28.179  1.00  0.00     0.029 A 
ATOM     43  C   UNL A   1      40.058  29.225  29.231  1.00  0.00     0.049 A 
ATOM     44  H   UNL A   1      40.213  30.142  31.095  1.00  0.00     0.167 HD
ATOM     45  C   UNL A   1      40.391  32.221  34.993  1.00  0.00     0.034 A 
ATOM     46  C   UNL A   1      41.038  28.303  29.162  1.00  0.00     0.034 A 
ATOM     47  C   UNL A   1      41.417  31.209  35.040  1.00  0.00     0.049 A 
ATOM     48  C   UNL A   1      41.928  28.111  30.364  1.00  0.00     0.074 A 
ATOM     49  C   UNL A   1      42.280  30.902  36.078  1.00  0.00     0.029 A 
ATOM     50  N   UNL A   1      41.721  30.337  34.001  1.00  0.00    -0.354 N 
ATOM     51  N   UNL A   1      41.926  28.757  31.508  1.00  0.00    -0.248 NA
ATOM     52  C   UNL A   1      42.936  27.049  30.272  1.00  0.00     0.031 C 
ATOM     53  C   UNL A   1      43.146  29.893  35.642  1.00  0.00     0.029 A 
ATOM     54  C   UNL A   1      42.770  29.508  34.365  1.00  0.00     0.049 A 
ATOM     55  H   UNL A   1      41.258  30.312  33.133  1.00  0.00     0.167 HD
ATOM     56  C   UNL A   1      42.907  28.149  32.287  1.00  0.00     0.074 A 
ATOM     57  C   UNL A   1      43.461  27.075  31.487  1.00  0.00     0.031 C 
ATOM     58  C   UNL A   1      43.314  28.446  33.550  1.00  0.00     0.034 A 
BRANCH  45  59
ATOM     59  C   UNL A   1      40.211  33.151  36.170  1.00  0.00     0.023 A 
ATOM     60  C   UNL A   1      39.541  32.744  37.340  1.00  0.00     0.031 A 
ATOM     61  C   UNL A   1      40.674  34.477  36.111  1.00  0.00     0.131 A 
ATOM     62  C   UNL A   1      39.278  33.673  38.359  1.00  0.00     0.055 A 
ATOM     63  C   UNL A   1      40.491  35.371  37.169  1.00  0.00     0.041 A 
ATOM     64  F   UNL A   1      41.298  34.934  35.014  1.00  0.00    -0.206 F 
ATOM     65  C   UNL A   1      39.774  34.976  38.294  1.00  0.00     0.022 A 
BRANCH  62  66
ATOM     66  S   UNL A   1      38.144  33.198  39.693  1.00  0.00     0.124 S 
ATOM     67  O   UNL A   1      38.153  34.397  40.527  1.00  0.00    -0.237 OA
ATOM     68  O   UNL A   1      36.904  32.930  38.973  1.00  0.00    -0.237 OA
ATOM     69  O   UNL A   1      38.786  32.029  40.289  1.00  0.00    -0.744 OA
ENDBRANCH  62  66
ENDBRANCH  45  59
BRANCH  46  70
ATOM     70  C   UNL A   1      41.220  27.478  27.933  1.00  0.00     0.023 A 
ATOM     71  C   UNL A   1      40.864  26.119  27.912  1.00  0.00     0.031 A 
ATOM     72  C   UNL A   1      41.793  28.025  26.772  1.00  0.00     0.131 A 
ATOM     73  C   UNL A   1      41.138  25.340  26.777  1.00  0.00     0.055 A 
ATOM     74  C   UNL A   1      42.012  27.260  25.625  1.00  0.00     0.041 A 
ATOM     75  F   UNL A   1      42.143  29.321  26.733  1.00  0.00    -0.206 F 
ATOM     76  C   UNL A   1      41.698  25.905  25.628  1.00  0.00     0.022 A 
BRANCH  73  77
ATOM     77  S   UNL A   1      40.840  23.552  26.856  1.00  0.00     0.124 S 
ATOM     78  O   UNL A   1      39.408  23.478  26.589  1.00  0.00    -0.237 OA
ATOM     79  O   UNL A   1      41.717  23.053  25.802  1.00  0.00    -0.237 OA
ATOM     80  O   UNL A   1      41.242  23.202  28.216  1.00  0.00    -0.744 OA
ENDBRANCH  73  77
ENDBRANCH  46  70
BRANCH  58  81
ATOM     81  C   UNL A   1      44.371  27.551  34.153  1.00  0.00     0.023 A 
ATOM     82  C   UNL A   1      44.038  26.399  34.886  1.00  0.00     0.031 A 
ATOM     83  C   UNL A   1      45.732  27.883  34.025  1.00  0.00     0.131 A 
ATOM     84  C   UNL A   1      45.046  25.671  35.537  1.00  0.00     0.055 A 
ATOM     85  C   UNL A   1      46.735  27.108  34.610  1.00  0.00     0.041 A 
ATOM     86  F   UNL A   1      46.110  28.972  33.337  1.00  0.00    -0.206 F 
ATOM     87  C   UNL A   1      46.393  26.007  35.387  1.00  0.00     0.022 A 
BRANCH  84  88
ATOM     88  S   UNL A   1      44.559  24.363  36.695  1.00  0.00     0.124 S 
ATOM     89  O   UNL A   1      45.642  24.405  37.673  1.00  0.00    -0.237 OA
ATOM     90  O   UNL A   1      43.259  24.831  37.165  1.00  0.00    -0.237 OA
ATOM     91  O   UNL A   1      44.523  23.163  35.861  1.00  0.00    -0.744 OA
ENDBRANCH  84  88
ENDBRANCH  58  81
ENDBRANCH  32  33
ENDBRANCH  24  27
ENDBRANCH  22  23
ENDBRANCH   1  22
TORSDOF 17
ENDMDL
MODEL 3
REMARK VINA RESULT:     -11.1      4.912      9.814
REMARK SMILES CC(C)C[C@@H](NC(=O)c1cccnc1)C(=O)NCCCNC(=O)c1ccc(-c2c3nc(c(-c4cc(S(=O)(=O)[O-])ccc4F)c4ccc([nH]4)c(-c4cc(S(=O)(=O)[O-])ccc4F)c4nc(c(-c5cc(S(=O)(=O)[O-])ccc5F)c5ccc2[nH]5)C=C4)C=C3)cc1
REMARK SMILES IDX 19 1 18 2 17 3 15 4 16 5 5 7 4 8 2 9 1 10 3 11 6 12 7 13
REMARK SMILES IDX 8 15 9 16 10 17 14 18 11 19 13 20 12 21 20 22 21 23 22 24
REMARK SMILES IDX 23 26 24 27 25 28 86 29 26 30 85 31 27 32 28 33 29 34 79 35
REMARK SMILES IDX 30 36 84 37 78 38 80 39 31 40 83 41 77 42 76 43 32 45 64 46
REMARK SMILES IDX 44 47 63 48 45 49 48 50 62 51 81 52 46 53 47 54 61 56 82 57
REMARK SMILES IDX 49 58 33 59 34 60 42 61 35 62 41 63 43 64 40 65 36 66 37 67
REMARK SMILES IDX 38 68 39 69 65 70 66 71 74 72 67 73 73 74 75 75 72 76 68 77
REMARK SMILES IDX 69 78 70 79 71 80 50 81 51 82 59 83 52 84 58 85 60 86 57 87
REMARK SMILES IDX 53 88 54 89 55 90 56 91
REMARK H PARENT 17 6 6 14 21 25 80 44 48 55
REMARK Flexibility Score: inf
ROOT
ATOM      1  C   UNL A   1      32.902  28.457  26.798  1.00  0.00     0.042 C 
ENDROOT
BRANCH   1   2
ATOM      2  C   UNL A   1      33.229  27.079  26.267  1.00  0.00     0.117 C 
BRANCH   2   3
ATOM      3  N   UNL A   1      32.017  26.337  25.955  1.00  0.00    -0.354 N 
ATOM      4  C   UNL A   1      31.858  25.201  25.223  1.00  0.00     0.242 C 
ATOM      5  O   UNL A   1      30.715  24.815  24.968  1.00  0.00    -0.273 OA
ATOM      6  H   UNL A   1      31.188  26.713  26.330  1.00  0.00     0.163 HD
BRANCH   4   7
ATOM      7  C   UNL A   1      33.081  24.489  24.621  1.00  0.00     0.171 C 
BRANCH   7   8
ATOM      8  C   UNL A   1      33.246  23.228  25.512  1.00  0.00     0.038 C 
BRANCH   8   9
ATOM      9  C   UNL A   1      34.226  23.276  26.690  1.00  0.00    -0.015 C 
ATOM     10  C   UNL A   1      34.031  22.089  27.625  1.00  0.00     0.007 C 
ATOM     11  C   UNL A   1      35.657  23.279  26.134  1.00  0.00     0.007 C 
ENDBRANCH   8   9
ENDBRANCH   7   8
BRANCH   7  12
ATOM     12  N   UNL A   1      32.983  24.190  23.178  1.00  0.00    -0.340 N 
ATOM     13  C   UNL A   1      33.025  25.019  22.074  1.00  0.00     0.253 C 
ATOM     14  H   UNL A   1      32.869  23.235  22.967  1.00  0.00     0.164 HD
ATOM     15  O   UNL A   1      33.247  24.536  20.966  1.00  0.00    -0.269 OA
BRANCH  13  16
ATOM     16  C   UNL A   1      32.622  26.435  22.156  1.00  0.00     0.058 A 
ATOM     17  C   UNL A   1      33.481  27.474  22.498  1.00  0.00     0.017 A 
ATOM     18  C   UNL A   1      31.274  26.728  21.984  1.00  0.00     0.124 A 
ATOM     19  C   UNL A   1      32.939  28.731  22.779  1.00  0.00     0.021 A 
ATOM     20  N   UNL A   1      30.722  27.936  22.259  1.00  0.00    -0.264 NA
ATOM     21  C   UNL A   1      31.566  28.905  22.671  1.00  0.00     0.111 A 
ENDBRANCH  13  16
ENDBRANCH   7  12
ENDBRANCH   4   7
ENDBRANCH   2   3
ENDBRANCH   1   2
BRANCH   1  22
ATOM     22  C   UNL A   1      33.921  29.495  26.365  1.00  0.00     0.118 C 
BRANCH  22  23
ATOM     23  N   UNL A   1      33.703  30.793  26.991  1.00  0.00    -0.352 N 
ATOM     24  C   UNL A   1      34.413  31.374  28.014  1.00  0.00     0.251 C 
ATOM     25  H   UNL A   1      32.953  31.321  26.636  1.00  0.00     0.163 HD
ATOM     26  O   UNL A   1      33.967  32.354  28.600  1.00  0.00    -0.269 OA
BRANCH  24  27
ATOM     27  C   UNL A   1      35.708  30.782  28.404  1.00  0.00     0.039 A 
ATOM     28  C   UNL A   1      36.889  31.332  27.910  1.00  0.00     0.014 A 
ATOM     29  C   UNL A   1      35.744  29.699  29.288  1.00  0.00     0.014 A 
ATOM     30  C   UNL A   1      38.111  30.819  28.342  1.00  0.00     0.010 A 
ATOM     31  C   UNL A   1      36.956  29.275  29.810  1.00  0.00     0.010 A 
ATOM     32  C   UNL A   1      38.155  29.805  29.315  1.00  0.00    -0.014 A 
BRANCH  32  33
ATOM     33  C   UNL A   1      39.447  29.243  29.778  1.00  0.00     0.031 A 
ATOM     34  C   UNL A   1      40.140  29.853  30.970  1.00  0.00     0.074 A 
ATOM     35  C   UNL A   1      40.006  28.216  29.110  1.00  0.00     0.049 A 
ATOM     36  N   UNL A   1      41.275  29.521  31.527  1.00  0.00    -0.248 NA
ATOM     37  C   UNL A   1      39.487  31.015  31.593  1.00  0.00     0.031 C 
ATOM     38  C   UNL A   1      39.455  27.589  27.906  1.00  0.00     0.029 A 
ATOM     39  N   UNL A   1      41.156  27.510  29.354  1.00  0.00    -0.354 N 
ATOM     40  C   UNL A   1      41.475  30.439  32.553  1.00  0.00     0.074 A 
ATOM     41  C   UNL A   1      40.392  31.393  32.482  1.00  0.00     0.031 C 
ATOM     42  C   UNL A   1      40.242  26.562  27.545  1.00  0.00     0.029 A 
ATOM     43  C   UNL A   1      41.372  26.482  28.466  1.00  0.00     0.049 A 
ATOM     44  H   UNL A   1      41.770  27.720  30.094  1.00  0.00     0.167 HD
ATOM     45  C   UNL A   1      42.451  30.463  33.493  1.00  0.00     0.034 A 
ATOM     46  C   UNL A   1      42.365  25.574  28.408  1.00  0.00     0.034 A 
ATOM     47  C   UNL A   1      43.512  29.488  33.557  1.00  0.00     0.049 A 
ATOM     48  C   UNL A   1      43.434  25.611  29.472  1.00  0.00     0.074 A 
ATOM     49  C   UNL A   1      44.533  29.382  34.485  1.00  0.00     0.029 A 
ATOM     50  N   UNL A   1      43.689  28.449  32.652  1.00  0.00    -0.354 N 
ATOM     51  N   UNL A   1      43.579  26.451  30.472  1.00  0.00    -0.248 NA
ATOM     52  C   UNL A   1      44.457  24.562  29.412  1.00  0.00     0.031 C 
ATOM     53  C   UNL A   1      45.362  28.322  34.103  1.00  0.00     0.029 A 
ATOM     54  C   UNL A   1      44.813  27.710  32.988  1.00  0.00     0.049 A 
ATOM     55  H   UNL A   1      43.102  28.263  31.884  1.00  0.00     0.167 HD
ATOM     56  C   UNL A   1      44.689  26.004  31.184  1.00  0.00     0.074 A 
ATOM     57  C   UNL A   1      45.157  24.810  30.507  1.00  0.00     0.031 C 
ATOM     58  C   UNL A   1      45.269  26.526  32.296  1.00  0.00     0.034 A 
BRANCH  45  59
ATOM     59  C   UNL A   1      42.414  31.587  34.504  1.00  0.00     0.023 A 
ATOM     60  C   UNL A   1      41.542  31.561  35.609  1.00  0.00     0.031 A 
ATOM     61  C   UNL A   1      43.229  32.720  34.341  1.00  0.00     0.131 A 
ATOM     62  C   UNL A   1      41.442  32.679  36.451  1.00  0.00     0.055 A 
ATOM     63  C   UNL A   1      43.190  33.791  35.238  1.00  0.00     0.041 A 
ATOM     64  F   UNL A   1      44.064  32.817  33.295  1.00  0.00    -0.206 F 
ATOM     65  C   UNL A   1      42.281  33.782  36.291  1.00  0.00     0.022 A 
BRANCH  62  66
ATOM     66  S   UNL A   1      40.089  32.734  37.659  1.00  0.00     0.124 S 
ATOM     67  O   UNL A   1      40.779  32.353  38.890  1.00  0.00    -0.237 OA
ATOM     68  O   UNL A   1      39.649  34.122  37.578  1.00  0.00    -0.237 OA
ATOM     69  O   UNL A   1      39.139  31.745  37.156  1.00  0.00    -0.744 OA
ENDBRANCH  62  66
ENDBRANCH  45  59
BRANCH  46  70
ATOM     70  C   UNL A   1      42.392  24.545  27.329  1.00  0.00     0.023 A 
ATOM     71  C   UNL A   1      41.633  23.367  27.430  1.00  0.00     0.031 A 
ATOM     72  C   UNL A   1      43.213  24.702  26.199  1.00  0.00     0.131 A 
ATOM     73  C   UNL A   1      41.753  22.370  26.450  1.00  0.00     0.055 A 
ATOM     74  C   UNL A   1      43.286  23.732  25.198  1.00  0.00     0.041 A 
ATOM     75  F   UNL A   1      43.953  25.813  26.046  1.00  0.00    -0.206 F 
ATOM     76  C   UNL A   1      42.565  22.550  25.328  1.00  0.00     0.022 A 
BRANCH  73  77
ATOM     77  S   UNL A   1      40.904  20.787  26.712  1.00  0.00     0.124 S 
ATOM     78  O   UNL A   1      41.841  19.846  26.110  1.00  0.00    -0.237 OA
ATOM     79  O   UNL A   1      40.792  20.742  28.166  1.00  0.00    -0.237 OA
ATOM     80  O   UNL A   1      39.642  20.957  25.997  1.00  0.00    -0.744 OA
ENDBRANCH  73  77
ENDBRANCH  46  70
BRANCH  58  81
ATOM     81  C   UNL A   1      46.440  25.766  32.875  1.00  0.00     0.023 A 
ATOM     82  C   UNL A   1      46.261  24.685  33.755  1.00  0.00     0.031 A 
ATOM     83  C   UNL A   1      47.756  26.159  32.570  1.00  0.00     0.131 A 
ATOM     84  C   UNL A   1      47.375  24.093  34.368  1.00  0.00     0.055 A 
ATOM     85  C   UNL A   1      48.862  25.514  33.123  1.00  0.00     0.041 A 
ATOM     86  F   UNL A   1      47.988  27.185  31.735  1.00  0.00    -0.206 F 
ATOM     87  C   UNL A   1      48.675  24.488  34.044  1.00  0.00     0.022 A 
BRANCH  84  88
ATOM     88  S   UNL A   1      47.095  22.896  35.703  1.00  0.00     0.124 S 
ATOM     89  O   UNL A   1      48.408  22.842  36.340  1.00  0.00    -0.237 OA
ATOM     90  O   UNL A   1      46.037  23.535  36.477  1.00  0.00    -0.237 OA
ATOM     91  O   UNL A   1      46.699  21.681  34.994  1.00  0.00    -0.744 OA
ENDBRANCH  84  88
ENDBRANCH  58  81
ENDBRANCH  32  33
ENDBRANCH  24  27
ENDBRANCH  22  23
ENDBRANCH   1  22
TORSDOF 17
ENDMDL
