MODEL 1
REMARK VINA RESULT:     -13.3      0.000      0.000
REMARK SMILES CC(C)(C)c1ccc(C(=O)N/C(=C/c2ccc(O)cc2)C(=O)NCCCNC(=O)c2ccc(-c3c4nc(c(-c5cc(S(=O)(=O)[O-])ccc5F)c5ccc([nH]5)c(-c5cc(S(=O)(=O)[O-])ccc5F)c5nc(c(-c6cc(S(=O)(=O)[O-])ccc6F)c6ccc3[nH]6)C=C5)C=C4)cc2)cc1
REMARK SMILES IDX 25 1 24 2 23 3 21 4 22 5 12 7 13 8 11 9 9 10 10 11 8 13 5 14
REMARK SMILES IDX 6 15 94 16 7 17 93 18 2 19 1 20 3 21 4 22 14 23 15 24 20 25
REMARK SMILES IDX 16 26 19 27 17 28 18 29 26 31 27 32 28 33 29 35 30 36 31 37
REMARK SMILES IDX 92 38 32 39 91 40 33 41 34 42 35 43 85 44 36 45 90 46 84 47
REMARK SMILES IDX 86 48 37 49 89 50 83 51 82 52 38 54 70 55 50 56 69 57 51 58
REMARK SMILES IDX 54 59 68 60 87 61 52 62 53 63 67 65 88 66 55 67 39 68 40 69
REMARK SMILES IDX 48 70 41 71 47 72 49 73 46 74 42 75 43 76 44 77 45 78 71 79
REMARK SMILES IDX 72 80 80 81 73 82 79 83 81 84 78 85 74 86 75 87 76 88 77 89
REMARK SMILES IDX 56 90 57 91 65 92 58 93 64 94 66 95 63 96 59 97 60 98 61 99
REMARK SMILES IDX 62 100
REMARK H PARENT 23 6 11 12 18 30 27 34 86 53 54 64
REMARK Flexibility Score: inf
ROOT
ATOM      1  C   UNL A   1      31.380  27.759  26.344  1.00  0.00     0.042 C 
ENDROOT
BRANCH   1   2
ATOM      2  C   UNL A   1      32.535  27.396  25.434  1.00  0.00     0.118 C 
BRANCH   2   3
ATOM      3  N   UNL A   1      32.888  28.418  24.492  1.00  0.00    -0.351 N 
ATOM      4  C   UNL A   1      33.062  28.231  23.155  1.00  0.00     0.267 C 
ATOM      5  O   UNL A   1      34.064  28.751  22.653  1.00  0.00    -0.268 OA
ATOM      6  H   UNL A   1      33.013  29.330  24.841  1.00  0.00     0.163 HD
BRANCH   4   7
ATOM      7  C   UNL A   1      32.005  27.613  22.230  1.00  0.00     0.107 C 
ATOM      8  C   UNL A   1      30.655  27.746  22.187  1.00  0.00     0.040 C 
BRANCH   7   9
ATOM      9  N   UNL A   1      32.513  26.701  21.300  1.00  0.00    -0.317 N 
ATOM     10  C   UNL A   1      32.779  25.343  21.386  1.00  0.00     0.255 C 
ATOM     11  O   UNL A   1      33.007  24.718  20.349  1.00  0.00    -0.269 OA
ATOM     12  H   UNL A   1      32.720  27.094  20.423  1.00  0.00     0.170 HD
BRANCH  10  13
ATOM     13  C   UNL A   1      32.918  24.633  22.690  1.00  0.00     0.040 A 
ATOM     14  C   UNL A   1      33.307  23.081  25.035  1.00  0.00    -0.043 A 
ATOM     15  C   UNL A   1      34.378  23.747  24.412  1.00  0.00     0.005 A 
ATOM     16  C   UNL A   1      32.020  23.337  24.534  1.00  0.00     0.005 A 
ATOM     17  C   UNL A   1      34.190  24.504  23.248  1.00  0.00     0.014 A 
ATOM     18  C   UNL A   1      31.824  24.123  23.391  1.00  0.00     0.014 A 
BRANCH  14  19
ATOM     19  C   UNL A   1      33.549  22.112  26.209  1.00  0.00    -0.013 C 
ATOM     20  C   UNL A   1      33.105  20.663  25.892  1.00  0.00     0.016 C 
ATOM     21  C   UNL A   1      32.764  22.603  27.438  1.00  0.00     0.016 C 
ATOM     22  C   UNL A   1      35.050  22.028  26.574  1.00  0.00     0.016 C 
ENDBRANCH  14  19
ENDBRANCH  10  13
ENDBRANCH   7   9
BRANCH   8  23
ATOM     23  C   UNL A   1      29.742  28.709  22.812  1.00  0.00    -0.023 A 
ATOM     24  C   UNL A   1      30.157  29.953  23.305  1.00  0.00     0.012 A 
ATOM     25  C   UNL A   1      28.372  28.388  22.815  1.00  0.00     0.012 A 
ATOM     26  C   UNL A   1      29.194  30.920  23.636  1.00  0.00     0.047 A 
ATOM     27  C   UNL A   1      27.417  29.354  23.144  1.00  0.00     0.047 A 
ATOM     28  C   UNL A   1      27.838  30.629  23.497  1.00  0.00     0.115 A 
BRANCH  28  29
ATOM     29  O   UNL A   1      26.939  31.639  23.662  1.00  0.00    -0.508 OA
ATOM     30  H   UNL A   1      26.072  31.450  23.966  1.00  0.00     0.293 HD
ENDBRANCH  28  29
ENDBRANCH   8  23
ENDBRANCH   4   7
ENDBRANCH   2   3
ENDBRANCH   1   2
BRANCH   1  31
ATOM     31  C   UNL A   1      31.775  28.776  27.393  1.00  0.00     0.118 C 
BRANCH  31  32
ATOM     32  N   UNL A   1      31.721  30.143  26.872  1.00  0.00    -0.352 N 
ATOM     33  C   UNL A   1      32.550  31.224  27.086  1.00  0.00     0.251 C 
ATOM     34  H   UNL A   1      30.963  30.321  26.268  1.00  0.00     0.163 HD
ATOM     35  O   UNL A   1      32.104  32.352  26.891  1.00  0.00    -0.269 OA
BRANCH  33  36
ATOM     36  C   UNL A   1      33.933  31.027  27.594  1.00  0.00     0.039 A 
ATOM     37  C   UNL A   1      34.643  32.105  28.129  1.00  0.00     0.014 A 
ATOM     38  C   UNL A   1      34.533  29.771  27.565  1.00  0.00     0.014 A 
ATOM     39  C   UNL A   1      35.883  31.887  28.740  1.00  0.00     0.010 A 
ATOM     40  C   UNL A   1      35.668  29.526  28.323  1.00  0.00     0.010 A 
ATOM     41  C   UNL A   1      36.370  30.581  28.915  1.00  0.00    -0.014 A 
BRANCH  41  42
ATOM     42  C   UNL A   1      37.604  30.282  29.694  1.00  0.00     0.031 A 
ATOM     43  C   UNL A   1      38.674  29.396  29.101  1.00  0.00     0.074 A 
ATOM     44  C   UNL A   1      37.715  30.715  30.967  1.00  0.00     0.049 A 
ATOM     45  N   UNL A   1      39.748  28.900  29.662  1.00  0.00    -0.248 NA
ATOM     46  C   UNL A   1      38.479  28.966  27.708  1.00  0.00     0.031 C 
ATOM     47  C   UNL A   1      36.720  31.520  31.679  1.00  0.00     0.029 A 
ATOM     48  N   UNL A   1      38.711  30.533  31.894  1.00  0.00    -0.354 N 
ATOM     49  C   UNL A   1      40.332  28.079  28.703  1.00  0.00     0.074 A 
ATOM     50  C   UNL A   1      39.444  28.072  27.561  1.00  0.00     0.031 C 
ATOM     51  C   UNL A   1      37.176  31.802  32.910  1.00  0.00     0.029 A 
ATOM     52  C   UNL A   1      38.465  31.148  33.102  1.00  0.00     0.049 A 
ATOM     53  H   UNL A   1      39.526  30.011  31.714  1.00  0.00     0.167 HD
ATOM     54  C   UNL A   1      41.516  27.420  28.750  1.00  0.00     0.034 A 
ATOM     55  C   UNL A   1      39.188  31.172  34.239  1.00  0.00     0.034 A 
ATOM     56  C   UNL A   1      42.403  27.468  29.886  1.00  0.00     0.049 A 
ATOM     57  C   UNL A   1      40.498  30.429  34.275  1.00  0.00     0.074 A 
ATOM     58  C   UNL A   1      43.659  26.904  30.023  1.00  0.00     0.029 A 
ATOM     59  N   UNL A   1      42.125  28.115  31.085  1.00  0.00    -0.354 N 
ATOM     60  N   UNL A   1      41.067  29.708  33.335  1.00  0.00    -0.248 NA
ATOM     61  C   UNL A   1      41.269  30.510  35.522  1.00  0.00     0.031 C 
ATOM     62  C   UNL A   1      44.107  27.147  31.326  1.00  0.00     0.029 A 
ATOM     63  C   UNL A   1      43.170  27.934  31.976  1.00  0.00     0.049 A 
ATOM     64  H   UNL A   1      41.304  28.626  31.272  1.00  0.00     0.167 HD
ATOM     65  C   UNL A   1      42.276  29.273  33.870  1.00  0.00     0.074 A 
ATOM     66  C   UNL A   1      42.362  29.830  35.205  1.00  0.00     0.031 C 
ATOM     67  C   UNL A   1      43.232  28.488  33.309  1.00  0.00     0.034 A 
BRANCH  54  68
ATOM     68  C   UNL A   1      41.902  26.588  27.546  1.00  0.00     0.023 A 
ATOM     69  C   UNL A   1      41.549  25.230  27.443  1.00  0.00     0.031 A 
ATOM     70  C   UNL A   1      42.670  27.143  26.509  1.00  0.00     0.131 A 
ATOM     71  C   UNL A   1      42.044  24.453  26.385  1.00  0.00     0.055 A 
ATOM     72  C   UNL A   1      43.078  26.387  25.407  1.00  0.00     0.041 A 
ATOM     73  F   UNL A   1      43.058  28.428  26.556  1.00  0.00    -0.206 F 
ATOM     74  C   UNL A   1      42.783  25.029  25.351  1.00  0.00     0.022 A 
BRANCH  71  75
ATOM     75  S   UNL A   1      41.859  22.651  26.478  1.00  0.00     0.124 S 
ATOM     76  O   UNL A   1      40.409  22.498  26.369  1.00  0.00    -0.237 OA
ATOM     77  O   UNL A   1      42.637  22.193  25.333  1.00  0.00    -0.237 OA
ATOM     78  O   UNL A   1      42.415  22.316  27.787  1.00  0.00    -0.744 OA
ENDBRANCH  71  75
ENDBRANCH  54  68
BRANCH  55  79
ATOM     79  C   UNL A   1      38.698  31.921  35.433  1.00  0.00     0.023 A 
ATOM     80  C   UNL A   1      38.193  31.240  36.553  1.00  0.00     0.031 A 
ATOM     81  C   UNL A   1      38.698  33.326  35.464  1.00  0.00     0.131 A 
ATOM     82  C   UNL A   1      37.668  31.963  37.635  1.00  0.00     0.055 A 
ATOM     83  C   UNL A   1      38.226  34.041  36.567  1.00  0.00     0.041 A 
ATOM     84  F   UNL A   1      39.173  34.029  34.423  1.00  0.00    -0.206 F 
ATOM     85  C   UNL A   1      37.695  33.360  37.656  1.00  0.00     0.022 A 
BRANCH  82  86
ATOM     86  S   UNL A   1      36.867  31.050  38.983  1.00  0.00     0.124 S 
ATOM     87  O   UNL A   1      36.753  29.714  38.410  1.00  0.00    -0.237 OA
ATOM     88  O   UNL A   1      37.832  31.204  40.068  1.00  0.00    -0.237 OA
ATOM     89  O   UNL A   1      35.604  31.760  39.171  1.00  0.00    -0.744 OA
ENDBRANCH  82  86
ENDBRANCH  55  79
BRANCH  67  90
ATOM     90  C   UNL A   1      44.469  28.223  34.132  1.00  0.00     0.023 A 
ATOM     91  C   UNL A   1      44.574  27.099  34.970  1.00  0.00     0.031 A 
ATOM     92  C   UNL A   1      45.557  29.112  34.079  1.00  0.00     0.131 A 
ATOM     93  C   UNL A   1      45.717  26.927  35.765  1.00  0.00     0.055 A 
ATOM     94  C   UNL A   1      46.718  28.899  34.821  1.00  0.00     0.041 A 
ATOM     95  F   UNL A   1      45.509  30.204  33.299  1.00  0.00    -0.206 F 
ATOM     96  C   UNL A   1      46.797  27.808  35.682  1.00  0.00     0.022 A 
BRANCH  93  97
ATOM     97  S   UNL A   1      45.728  25.588  36.989  1.00  0.00     0.124 S 
ATOM     98  O   UNL A   1      44.307  25.280  37.113  1.00  0.00    -0.237 OA
ATOM     99  O   UNL A   1      46.546  24.573  36.335  1.00  0.00    -0.237 OA
ATOM    100  O   UNL A   1      46.333  26.208  38.168  1.00  0.00    -0.744 OA
ENDBRANCH  93  97
ENDBRANCH  67  90
ENDBRANCH  41  42
ENDBRANCH  33  36
ENDBRANCH  31  32
ENDBRANCH   1  31
TORSDOF 18
ENDMDL
MODEL 2
REMARK VINA RESULT:     -13.0      3.013      7.941
REMARK SMILES CC(C)(C)c1ccc(C(=O)N/C(=C/c2ccc(O)cc2)C(=O)NCCCNC(=O)c2ccc(-c3c4nc(c(-c5cc(S(=O)(=O)[O-])ccc5F)c5ccc([nH]5)c(-c5cc(S(=O)(=O)[O-])ccc5F)c5nc(c(-c6cc(S(=O)(=O)[O-])ccc6F)c6ccc3[nH]6)C=C5)C=C4)cc2)cc1
REMARK SMILES IDX 25 1 24 2 23 3 21 4 22 5 12 7 13 8 11 9 9 10 10 11 8 13 5 14
REMARK SMILES IDX 6 15 94 16 7 17 93 18 2 19 1 20 3 21 4 22 14 23 15 24 20 25
REMARK SMILES IDX 16 26 19 27 17 28 18 29 26 31 27 32 28 33 29 35 30 36 31 37
REMARK SMILES IDX 92 38 32 39 91 40 33 41 34 42 35 43 85 44 36 45 90 46 84 47
REMARK SMILES IDX 86 48 37 49 89 50 83 51 82 52 38 54 70 55 50 56 69 57 51 58
REMARK SMILES IDX 54 59 68 60 87 61 52 62 53 63 67 65 88 66 55 67 39 68 40 69
REMARK SMILES IDX 48 70 41 71 47 72 49 73 46 74 42 75 43 76 44 77 45 78 71 79
REMARK SMILES IDX 72 80 80 81 73 82 79 83 81 84 78 85 74 86 75 87 76 88 77 89
REMARK SMILES IDX 56 90 57 91 65 92 58 93 64 94 66 95 63 96 59 97 60 98 61 99
REMARK SMILES IDX 62 100
REMARK H PARENT 23 6 11 12 18 30 27 34 86 53 54 64
REMARK Flexibility Score: inf
ROOT
ATOM      1  C   UNL A   1      33.562  28.030  24.794  1.00  0.00     0.042 C 
ENDROOT
BRANCH   1   2
ATOM      2  C   UNL A   1      32.996  26.642  25.008  1.00  0.00     0.118 C 
BRANCH   2   3
ATOM      3  N   UNL A   1      32.406  26.439  26.299  1.00  0.00    -0.351 N 
ATOM      4  C   UNL A   1      31.079  26.539  26.584  1.00  0.00     0.267 C 
ATOM      5  O   UNL A   1      30.781  27.175  27.601  1.00  0.00    -0.268 OA
ATOM      6  H   UNL A   1      33.011  26.205  27.041  1.00  0.00     0.163 HD
BRANCH   4   7
ATOM      7  C   UNL A   1      29.983  25.749  25.856  1.00  0.00     0.107 C 
ATOM      8  C   UNL A   1      29.274  26.018  24.730  1.00  0.00     0.040 C 
BRANCH   7   9
ATOM      9  N   UNL A   1      29.601  24.566  26.496  1.00  0.00    -0.317 N 
ATOM     10  C   UNL A   1      30.323  23.446  26.877  1.00  0.00     0.255 C 
ATOM     11  O   UNL A   1      29.795  22.633  27.638  1.00  0.00    -0.269 OA
ATOM     12  H   UNL A   1      28.644  24.520  26.719  1.00  0.00     0.170 HD
BRANCH  10  13
ATOM     13  C   UNL A   1      31.664  23.124  26.310  1.00  0.00     0.040 A 
ATOM     14  C   UNL A   1      34.288  22.773  25.285  1.00  0.00    -0.043 A 
ATOM     15  C   UNL A   1      34.050  22.877  26.668  1.00  0.00     0.005 A 
ATOM     16  C   UNL A   1      33.162  22.701  24.449  1.00  0.00     0.005 A 
ATOM     17  C   UNL A   1      32.757  23.063  27.174  1.00  0.00     0.014 A 
ATOM     18  C   UNL A   1      31.864  22.850  24.956  1.00  0.00     0.014 A 
BRANCH  14  19
ATOM     19  C   UNL A   1      35.724  22.745  24.726  1.00  0.00    -0.013 C 
ATOM     20  C   UNL A   1      35.801  23.197  23.248  1.00  0.00     0.016 C 
ATOM     21  C   UNL A   1      36.276  21.312  24.825  1.00  0.00     0.016 C 
ATOM     22  C   UNL A   1      36.657  23.697  25.512  1.00  0.00     0.016 C 
ENDBRANCH  14  19
ENDBRANCH  10  13
ENDBRANCH   7   9
BRANCH   8  23
ATOM     23  C   UNL A   1      29.464  27.004  23.661  1.00  0.00    -0.023 A 
ATOM     24  C   UNL A   1      28.595  28.083  23.448  1.00  0.00     0.012 A 
ATOM     25  C   UNL A   1      30.636  26.900  22.890  1.00  0.00     0.012 A 
ATOM     26  C   UNL A   1      28.985  29.124  22.591  1.00  0.00     0.047 A 
ATOM     27  C   UNL A   1      31.022  27.940  22.040  1.00  0.00     0.047 A 
ATOM     28  C   UNL A   1      30.218  29.068  21.943  1.00  0.00     0.115 A 
BRANCH  28  29
ATOM     29  O   UNL A   1      30.640  30.168  21.259  1.00  0.00    -0.508 OA
ATOM     30  H   UNL A   1      30.119  30.514  20.560  1.00  0.00     0.293 HD
ENDBRANCH  28  29
ENDBRANCH   8  23
ENDBRANCH   4   7
ENDBRANCH   2   3
ENDBRANCH   1   2
BRANCH   1  31
ATOM     31  C   UNL A   1      34.368  28.510  25.982  1.00  0.00     0.118 C 
BRANCH  31  32
ATOM     32  N   UNL A   1      34.040  29.892  26.338  1.00  0.00    -0.352 N 
ATOM     33  C   UNL A   1      34.478  30.683  27.379  1.00  0.00     0.251 C 
ATOM     34  H   UNL A   1      33.397  30.329  25.733  1.00  0.00     0.163 HD
ATOM     35  O   UNL A   1      33.784  31.637  27.722  1.00  0.00    -0.269 OA
BRANCH  33  36
ATOM     36  C   UNL A   1      35.733  30.353  28.104  1.00  0.00     0.039 A 
ATOM     37  C   UNL A   1      35.677  29.702  29.339  1.00  0.00     0.014 A 
ATOM     38  C   UNL A   1      36.975  30.664  27.560  1.00  0.00     0.014 A 
ATOM     39  C   UNL A   1      36.859  29.261  29.947  1.00  0.00     0.010 A 
ATOM     40  C   UNL A   1      38.124  30.075  28.067  1.00  0.00     0.010 A 
ATOM     41  C   UNL A   1      38.088  29.372  29.276  1.00  0.00    -0.014 A 
BRANCH  41  42
ATOM     42  C   UNL A   1      39.349  28.781  29.806  1.00  0.00     0.031 A 
ATOM     43  C   UNL A   1      39.999  29.369  31.035  1.00  0.00     0.074 A 
ATOM     44  C   UNL A   1      39.963  27.791  29.126  1.00  0.00     0.049 A 
ATOM     45  N   UNL A   1      41.162  29.097  31.571  1.00  0.00    -0.248 NA
ATOM     46  C   UNL A   1      39.266  30.445  31.721  1.00  0.00     0.031 C 
ATOM     47  C   UNL A   1      39.474  27.183  27.886  1.00  0.00     0.029 A 
ATOM     48  N   UNL A   1      41.138  27.125  29.373  1.00  0.00    -0.354 N 
ATOM     49  C   UNL A   1      41.309  29.989  32.629  1.00  0.00     0.074 A 
ATOM     50  C   UNL A   1      40.160  30.867  32.600  1.00  0.00     0.031 C 
ATOM     51  C   UNL A   1      40.312  26.204  27.510  1.00  0.00     0.029 A 
ATOM     52  C   UNL A   1      41.433  26.154  28.442  1.00  0.00     0.049 A 
ATOM     53  H   UNL A   1      41.716  27.322  30.145  1.00  0.00     0.167 HD
ATOM     54  C   UNL A   1      42.291  30.050  33.563  1.00  0.00     0.034 A 
ATOM     55  C   UNL A   1      42.491  25.326  28.342  1.00  0.00     0.034 A 
ATOM     56  C   UNL A   1      43.411  29.142  33.595  1.00  0.00     0.049 A 
ATOM     57  C   UNL A   1      43.575  25.412  29.385  1.00  0.00     0.074 A 
ATOM     58  C   UNL A   1      44.426  29.058  34.531  1.00  0.00     0.029 A 
ATOM     59  N   UNL A   1      43.666  28.163  32.642  1.00  0.00    -0.354 N 
ATOM     60  N   UNL A   1      43.667  26.221  30.417  1.00  0.00    -0.248 NA
ATOM     61  C   UNL A   1      44.693  24.469  29.257  1.00  0.00     0.031 C 
ATOM     62  C   UNL A   1      45.331  28.080  34.106  1.00  0.00     0.029 A 
ATOM     63  C   UNL A   1      44.840  27.494  32.951  1.00  0.00     0.049 A 
ATOM     64  H   UNL A   1      43.096  27.973  31.863  1.00  0.00     0.167 HD
ATOM     65  C   UNL A   1      44.840  25.862  31.075  1.00  0.00     0.074 A 
ATOM     66  C   UNL A   1      45.408  24.754  30.336  1.00  0.00     0.031 C 
ATOM     67  C   UNL A   1      45.397  26.397  32.193  1.00  0.00     0.034 A 
BRANCH  54  68
ATOM     68  C   UNL A   1      42.194  31.140  34.609  1.00  0.00     0.023 A 
ATOM     69  C   UNL A   1      42.778  32.405  34.414  1.00  0.00     0.031 A 
ATOM     70  C   UNL A   1      41.549  30.901  35.834  1.00  0.00     0.131 A 
ATOM     71  C   UNL A   1      42.793  33.341  35.459  1.00  0.00     0.055 A 
ATOM     72  C   UNL A   1      41.483  31.873  36.835  1.00  0.00     0.041 A 
ATOM     73  F   UNL A   1      40.990  29.708  36.093  1.00  0.00    -0.206 F 
ATOM     74  C   UNL A   1      42.125  33.095  36.658  1.00  0.00     0.022 A 
BRANCH  71  75
ATOM     75  S   UNL A   1      43.850  34.806  35.288  1.00  0.00     0.124 S 
ATOM     76  O   UNL A   1      44.585  34.787  36.552  1.00  0.00    -0.237 OA
ATOM     77  O   UNL A   1      44.627  34.498  34.094  1.00  0.00    -0.237 OA
ATOM     78  O   UNL A   1      42.895  35.903  35.148  1.00  0.00    -0.744 OA
ENDBRANCH  71  75
ENDBRANCH  54  68
BRANCH  55  79
ATOM     79  C   UNL A   1      42.584  24.346  27.220  1.00  0.00     0.023 A 
ATOM     80  C   UNL A   1      41.925  23.108  27.288  1.00  0.00     0.031 A 
ATOM     81  C   UNL A   1      43.355  24.618  26.076  1.00  0.00     0.131 A 
ATOM     82  C   UNL A   1      42.085  22.170  26.256  1.00  0.00     0.055 A 
ATOM     83  C   UNL A   1      43.465  23.704  25.026  1.00  0.00     0.041 A 
ATOM     84  F   UNL A   1      44.002  25.788  25.954  1.00  0.00    -0.206 F 
ATOM     85  C   UNL A   1      42.839  22.466  25.118  1.00  0.00     0.022 A 
BRANCH  82  86
ATOM     86  S   UNL A   1      41.362  20.519  26.463  1.00  0.00     0.124 S 
ATOM     87  O   UNL A   1      41.717  20.211  27.843  1.00  0.00    -0.237 OA
ATOM     88  O   UNL A   1      39.949  20.773  26.204  1.00  0.00    -0.237 OA
ATOM     89  O   UNL A   1      42.046  19.719  25.448  1.00  0.00    -0.744 OA
ENDBRANCH  82  86
ENDBRANCH  55  79
BRANCH  67  90
ATOM     90  C   UNL A   1      46.667  25.757  32.699  1.00  0.00     0.023 A 
ATOM     91  C   UNL A   1      46.645  24.708  33.634  1.00  0.00     0.031 A 
ATOM     92  C   UNL A   1      47.917  26.209  32.241  1.00  0.00     0.131 A 
ATOM     93  C   UNL A   1      47.851  24.186  34.125  1.00  0.00     0.055 A 
ATOM     94  C   UNL A   1      49.111  25.640  32.683  1.00  0.00     0.041 A 
ATOM     95  F   UNL A   1      47.997  27.211  31.351  1.00  0.00    -0.206 F 
ATOM     96  C   UNL A   1      49.083  24.632  33.641  1.00  0.00     0.022 A 
BRANCH  93  97
ATOM     97  S   UNL A   1      47.788  22.987  35.484  1.00  0.00     0.124 S 
ATOM     98  O   UNL A   1      47.219  21.815  34.827  1.00  0.00    -0.237 OA
ATOM     99  O   UNL A   1      49.189  22.882  35.875  1.00  0.00    -0.237 OA
ATOM    100  O   UNL A   1      46.916  23.630  36.467  1.00  0.00    -0.744 OA
ENDBRANCH  93  97
ENDBRANCH  67  90
ENDBRANCH  41  42
ENDBRANCH  33  36
ENDBRANCH  31  32
ENDBRANCH   1  31
TORSDOF 18
ENDMDL
MODEL 3
REMARK VINA RESULT:     -12.6      2.234      7.803
REMARK SMILES CC(C)(C)c1ccc(C(=O)N/C(=C/c2ccc(O)cc2)C(=O)NCCCNC(=O)c2ccc(-c3c4nc(c(-c5cc(S(=O)(=O)[O-])ccc5F)c5ccc([nH]5)c(-c5cc(S(=O)(=O)[O-])ccc5F)c5nc(c(-c6cc(S(=O)(=O)[O-])ccc6F)c6ccc3[nH]6)C=C5)C=C4)cc2)cc1
REMARK SMILES IDX 25 1 24 2 23 3 21 4 22 5 12 7 13 8 11 9 9 10 10 11 8 13 5 14
REMARK SMILES IDX 6 15 94 16 7 17 93 18 2 19 1 20 3 21 4 22 14 23 15 24 20 25
REMARK SMILES IDX 16 26 19 27 17 28 18 29 26 31 27 32 28 33 29 35 30 36 31 37
REMARK SMILES IDX 92 38 32 39 91 40 33 41 34 42 35 43 85 44 36 45 90 46 84 47
REMARK SMILES IDX 86 48 37 49 89 50 83 51 82 52 38 54 70 55 50 56 69 57 51 58
REMARK SMILES IDX 54 59 68 60 87 61 52 62 53 63 67 65 88 66 55 67 39 68 40 69
REMARK SMILES IDX 48 70 41 71 47 72 49 73 46 74 42 75 43 76 44 77 45 78 71 79
REMARK SMILES IDX 72 80 80 81 73 82 79 83 81 84 78 85 74 86 75 87 76 88 77 89
REMARK SMILES IDX 56 90 57 91 65 92 58 93 64 94 66 95 63 96 59 97 60 98 61 99
REMARK SMILES IDX 62 100
REMARK H PARENT 23 6 11 12 18 30 27 34 86 53 54 64
REMARK Flexibility Score: inf
ROOT
ATOM      1  C   UNL A   1      32.843  29.335  25.405  1.00  0.00     0.042 C 
ENDROOT
BRANCH   1   2
ATOM      2  C   UNL A   1      32.753  27.827  25.297  1.00  0.00     0.118 C 
BRANCH   2   3
ATOM      3  N   UNL A   1      32.329  27.174  26.501  1.00  0.00    -0.351 N 
ATOM      4  C   UNL A   1      31.061  26.753  26.765  1.00  0.00     0.267 C 
ATOM      5  O   UNL A   1      30.612  27.025  27.883  1.00  0.00    -0.268 OA
ATOM      6  H   UNL A   1      33.011  27.015  27.194  1.00  0.00     0.163 HD
BRANCH   4   7
ATOM      7  C   UNL A   1      30.267  25.803  25.858  1.00  0.00     0.107 C 
ATOM      8  C   UNL A   1      29.681  25.989  24.648  1.00  0.00     0.040 C 
BRANCH   7   9
ATOM      9  N   UNL A   1      30.056  24.531  26.399  1.00  0.00    -0.317 N 
ATOM     10  C   UNL A   1      30.935  23.524  26.768  1.00  0.00     0.255 C 
ATOM     11  O   UNL A   1      30.508  22.583  27.439  1.00  0.00    -0.269 OA
ATOM     12  H   UNL A   1      29.109  24.308  26.546  1.00  0.00     0.170 HD
BRANCH  10  13
ATOM     13  C   UNL A   1      32.345  23.474  26.285  1.00  0.00     0.040 A 
ATOM     14  C   UNL A   1      34.973  23.127  25.269  1.00  0.00    -0.043 A 
ATOM     15  C   UNL A   1      33.882  23.361  24.412  1.00  0.00     0.005 A 
ATOM     16  C   UNL A   1      34.730  23.222  26.650  1.00  0.00     0.005 A 
ATOM     17  C   UNL A   1      32.582  23.520  24.911  1.00  0.00     0.014 A 
ATOM     18  C   UNL A   1      33.437  23.417  27.152  1.00  0.00     0.014 A 
BRANCH  14  19
ATOM     19  C   UNL A   1      36.365  22.781  24.707  1.00  0.00    -0.013 C 
ATOM     20  C   UNL A   1      36.469  23.008  23.179  1.00  0.00     0.016 C 
ATOM     21  C   UNL A   1      36.675  21.303  25.001  1.00  0.00     0.016 C 
ATOM     22  C   UNL A   1      37.468  23.661  25.344  1.00  0.00     0.016 C 
ENDBRANCH  14  19
ENDBRANCH  10  13
ENDBRANCH   7   9
BRANCH   8  23
ATOM     23  C   UNL A   1      29.807  27.056  23.649  1.00  0.00    -0.023 A 
ATOM     24  C   UNL A   1      28.924  28.140  23.567  1.00  0.00     0.012 A 
ATOM     25  C   UNL A   1      30.935  27.020  22.809  1.00  0.00     0.012 A 
ATOM     26  C   UNL A   1      29.262  29.247  22.773  1.00  0.00     0.047 A 
ATOM     27  C   UNL A   1      31.269  28.125  22.021  1.00  0.00     0.047 A 
ATOM     28  C   UNL A   1      30.457  29.250  22.055  1.00  0.00     0.115 A 
BRANCH  28  29
ATOM     29  O   UNL A   1      30.837  30.403  21.435  1.00  0.00    -0.508 OA
ATOM     30  H   UNL A   1      30.309  30.760  20.747  1.00  0.00     0.293 HD
ENDBRANCH  28  29
ENDBRANCH   8  23
ENDBRANCH   4   7
ENDBRANCH   2   3
ENDBRANCH   1   2
BRANCH   1  31
ATOM     31  C   UNL A   1      32.626  29.822  26.822  1.00  0.00     0.118 C 
BRANCH  31  32
ATOM     32  N   UNL A   1      32.824  31.268  26.936  1.00  0.00    -0.352 N 
ATOM     33  C   UNL A   1      33.791  31.997  27.594  1.00  0.00     0.251 C 
ATOM     34  H   UNL A   1      32.152  31.811  26.462  1.00  0.00     0.163 HD
ATOM     35  O   UNL A   1      33.541  33.160  27.899  1.00  0.00    -0.269 OA
BRANCH  33  36
ATOM     36  C   UNL A   1      35.083  31.369  27.975  1.00  0.00     0.039 A 
ATOM     37  C   UNL A   1      36.257  32.128  27.977  1.00  0.00     0.014 A 
ATOM     38  C   UNL A   1      35.143  30.031  28.354  1.00  0.00     0.014 A 
ATOM     39  C   UNL A   1      37.441  31.575  28.478  1.00  0.00     0.010 A 
ATOM     40  C   UNL A   1      36.263  29.544  29.011  1.00  0.00     0.010 A 
ATOM     41  C   UNL A   1      37.436  30.303  29.075  1.00  0.00    -0.014 A 
BRANCH  41  42
ATOM     42  C   UNL A   1      38.630  29.733  29.761  1.00  0.00     0.031 A 
ATOM     43  C   UNL A   1      39.023  30.232  31.130  1.00  0.00     0.074 A 
ATOM     44  C   UNL A   1      39.417  28.849  29.113  1.00  0.00     0.049 A 
ATOM     45  N   UNL A   1      40.097  29.974  31.832  1.00  0.00    -0.248 NA
ATOM     46  C   UNL A   1      38.113  31.195  31.771  1.00  0.00     0.031 C 
ATOM     47  C   UNL A   1      39.184  28.339  27.759  1.00  0.00     0.029 A 
ATOM     48  N   UNL A   1      40.577  28.227  29.500  1.00  0.00    -0.354 N 
ATOM     49  C   UNL A   1      40.004  30.764  32.974  1.00  0.00     0.074 A 
ATOM     50  C   UNL A   1      38.817  31.577  32.824  1.00  0.00     0.031 C 
ATOM     51  C   UNL A   1      40.139  27.449  27.450  1.00  0.00     0.029 A 
ATOM     52  C   UNL A   1      41.091  27.369  28.553  1.00  0.00     0.049 A 
ATOM     53  H   UNL A   1      41.004  28.379  30.374  1.00  0.00     0.167 HD
ATOM     54  C   UNL A   1      40.809  30.787  34.064  1.00  0.00     0.034 A 
ATOM     55  C   UNL A   1      42.206  26.613  28.564  1.00  0.00     0.034 A 
ATOM     56  C   UNL A   1      41.969  29.943  34.209  1.00  0.00     0.049 A 
ATOM     57  C   UNL A   1      43.093  26.656  29.782  1.00  0.00     0.074 A 
ATOM     58  C   UNL A   1      42.818  29.822  35.295  1.00  0.00     0.029 A 
ATOM     59  N   UNL A   1      42.448  29.076  33.233  1.00  0.00    -0.354 N 
ATOM     60  N   UNL A   1      42.955  27.364  30.881  1.00  0.00    -0.248 NA
ATOM     61  C   UNL A   1      44.279  25.792  29.767  1.00  0.00     0.031 C 
ATOM     62  C   UNL A   1      43.848  28.941  34.949  1.00  0.00     0.029 A 
ATOM     63  C   UNL A   1      43.598  28.445  33.680  1.00  0.00     0.049 A 
ATOM     64  H   UNL A   1      42.030  28.932  32.353  1.00  0.00     0.167 HD
ATOM     65  C   UNL A   1      44.024  27.007  31.698  1.00  0.00     0.074 A 
ATOM     66  C   UNL A   1      44.784  26.008  30.973  1.00  0.00     0.031 C 
ATOM     67  C   UNL A   1      44.349  27.460  32.936  1.00  0.00     0.034 A 
BRANCH  54  68
ATOM     68  C   UNL A   1      40.463  31.762  35.169  1.00  0.00     0.023 A 
ATOM     69  C   UNL A   1      39.527  31.444  36.169  1.00  0.00     0.031 A 
ATOM     70  C   UNL A   1      41.042  33.042  35.199  1.00  0.00     0.131 A 
ATOM     71  C   UNL A   1      39.124  32.422  37.092  1.00  0.00     0.055 A 
ATOM     72  C   UNL A   1      40.708  33.979  36.181  1.00  0.00     0.041 A 
ATOM     73  F   UNL A   1      41.927  33.417  34.262  1.00  0.00    -0.206 F 
ATOM     74  C   UNL A   1      39.729  33.678  37.123  1.00  0.00     0.022 A 
BRANCH  71  75
ATOM     75  S   UNL A   1      37.675  32.082  38.130  1.00  0.00     0.124 S 
ATOM     76  O   UNL A   1      37.379  30.695  37.778  1.00  0.00    -0.237 OA
ATOM     77  O   UNL A   1      38.192  32.303  39.475  1.00  0.00    -0.237 OA
ATOM     78  O   UNL A   1      36.689  33.057  37.670  1.00  0.00    -0.744 OA
ENDBRANCH  71  75
ENDBRANCH  54  68
BRANCH  55  79
ATOM     79  C   UNL A   1      42.553  25.754  27.394  1.00  0.00     0.023 A 
ATOM     80  C   UNL A   1      42.112  24.423  27.322  1.00  0.00     0.031 A 
ATOM     81  C   UNL A   1      43.353  26.239  26.344  1.00  0.00     0.131 A 
ATOM     82  C   UNL A   1      42.511  23.609  26.250  1.00  0.00     0.055 A 
ATOM     83  C   UNL A   1      43.700  25.443  25.251  1.00  0.00     0.041 A 
ATOM     84  F   UNL A   1      43.798  27.506  26.358  1.00  0.00    -0.206 F 
ATOM     85  C   UNL A   1      43.290  24.115  25.206  1.00  0.00     0.022 A 
BRANCH  82  86
ATOM     86  S   UNL A   1      42.068  21.850  26.283  1.00  0.00     0.124 S 
ATOM     87  O   UNL A   1      42.396  21.487  27.656  1.00  0.00    -0.237 OA
ATOM     88  O   UNL A   1      40.648  21.890  25.950  1.00  0.00    -0.237 OA
ATOM     89  O   UNL A   1      42.930  21.264  25.259  1.00  0.00    -0.744 OA
ENDBRANCH  82  86
ENDBRANCH  55  79
BRANCH  67  90
ATOM     90  C   UNL A   1      45.558  26.843  33.596  1.00  0.00     0.023 A 
ATOM     91  C   UNL A   1      46.846  27.381  33.428  1.00  0.00     0.031 A 
ATOM     92  C   UNL A   1      45.418  25.698  34.398  1.00  0.00     0.131 A 
ATOM     93  C   UNL A   1      47.951  26.737  34.007  1.00  0.00     0.055 A 
ATOM     94  C   UNL A   1      46.512  25.102  35.027  1.00  0.00     0.041 A 
ATOM     95  F   UNL A   1      44.212  25.140  34.589  1.00  0.00    -0.206 F 
ATOM     96  C   UNL A   1      47.790  25.613  34.821  1.00  0.00     0.022 A 
BRANCH  93  97
ATOM     97  S   UNL A   1      49.614  27.331  33.596  1.00  0.00     0.124 S 
ATOM     98  O   UNL A   1      49.535  27.474  32.146  1.00  0.00    -0.237 OA
ATOM     99  O   UNL A   1      49.700  28.573  34.355  1.00  0.00    -0.237 OA
ATOM    100  O   UNL A   1      50.487  26.255  34.065  1.00  0.00    -0.744 OA
ENDBRANCH  93  97
ENDBRANCH  67  90
ENDBRANCH  41  42
ENDBRANCH  33  36
ENDBRANCH  31  32
ENDBRANCH   1  31
TORSDOF 18
ENDMDL
