MODEL 1
REMARK VINA RESULT:     -13.0      0.000      0.000
REMARK SMILES O=C(NCCCNC(=O)c1cccc(S(=O)(=O)NC[C@@H]2COc3ccccc3O2)c1)c1ccc(-c2c3nc(c(-c4cc(S(=O)(=O)[O-])ccc4F)c4ccc([nH]4)c(-c4cc(S(=O)(=O)[O-])ccc4F)c4nc(c(-c5cc(S(=O)(=O)[O-])ccc5F)c5ccc2[nH]5)C=C4)C=C3)cc1
REMARK SMILES IDX 5 1 4 2 3 3 1 4 2 5 31 7 32 8 93 9 33 10 92 11 34 12 35 13
REMARK SMILES IDX 36 14 86 15 37 16 91 17 85 18 87 19 38 20 90 21 84 22 83 23
REMARK SMILES IDX 39 25 71 26 51 27 70 28 52 29 55 30 69 31 88 32 53 33 54 34
REMARK SMILES IDX 68 36 89 37 56 38 40 39 41 40 49 41 42 42 48 43 50 44 47 45
REMARK SMILES IDX 43 46 44 47 45 48 46 49 72 50 73 51 81 52 74 53 80 54 82 55
REMARK SMILES IDX 79 56 75 57 76 58 77 59 78 60 57 61 58 62 66 63 59 64 65 65
REMARK SMILES IDX 67 66 64 67 60 68 61 69 62 70 63 71 6 72 7 73 8 74 9 76
REMARK SMILES IDX 10 77 11 78 30 79 12 80 14 81 13 82 15 83 16 84 17 85 18 86
REMARK SMILES IDX 19 88 20 89 21 90 29 91 22 92 28 93 23 94 27 95 24 96 26 97
REMARK SMILES IDX 25 98
REMARK H PARENT 3 6 87 24 55 35 7 75 18 87
REMARK Flexibility Score: inf
ROOT
ATOM      1  C   UNL A   1      37.949  19.674  25.171  1.00  0.00     0.042 C 
ENDROOT
BRANCH   1   2
ATOM      2  C   UNL A   1      39.252  20.266  25.682  1.00  0.00     0.118 C 
BRANCH   2   3
ATOM      3  N   UNL A   1      40.282  19.257  25.885  1.00  0.00    -0.352 N 
ATOM      4  O   UNL A   1      42.368  18.433  26.039  1.00  0.00    -0.269 OA
ATOM      5  C   UNL A   1      41.629  19.409  26.115  1.00  0.00     0.251 C 
ATOM      6  H   UNL A   1      39.966  18.325  25.852  1.00  0.00     0.163 HD
BRANCH   5   7
ATOM      7  C   UNL A   1      42.184  20.742  26.441  1.00  0.00     0.039 A 
ATOM      8  C   UNL A   1      42.534  21.636  25.428  1.00  0.00     0.014 A 
ATOM      9  C   UNL A   1      42.311  21.124  27.781  1.00  0.00     0.014 A 
ATOM     10  C   UNL A   1      43.143  22.843  25.743  1.00  0.00     0.010 A 
ATOM     11  C   UNL A   1      42.825  22.384  28.099  1.00  0.00     0.010 A 
ATOM     12  C   UNL A   1      43.259  23.248  27.081  1.00  0.00    -0.014 A 
BRANCH  12  13
ATOM     13  C   UNL A   1      43.714  24.629  27.379  1.00  0.00     0.031 A 
ATOM     14  C   UNL A   1      42.761  25.674  27.885  1.00  0.00     0.074 A 
ATOM     15  C   UNL A   1      45.015  24.924  27.179  1.00  0.00     0.049 A 
ATOM     16  N   UNL A   1      42.996  26.930  28.161  1.00  0.00    -0.248 NA
ATOM     17  C   UNL A   1      41.367  25.262  28.102  1.00  0.00     0.031 C 
ATOM     18  C   UNL A   1      46.022  23.980  26.678  1.00  0.00     0.029 A 
ATOM     19  N   UNL A   1      45.721  26.082  27.371  1.00  0.00    -0.354 N 
ATOM     20  C   UNL A   1      41.778  27.470  28.561  1.00  0.00     0.074 A 
ATOM     21  C   UNL A   1      40.802  26.403  28.480  1.00  0.00     0.031 C 
ATOM     22  C   UNL A   1      47.214  24.588  26.629  1.00  0.00     0.029 A 
ATOM     23  C   UNL A   1      47.046  25.983  27.013  1.00  0.00     0.049 A 
ATOM     24  H   UNL A   1      45.318  26.906  27.729  1.00  0.00     0.167 HD
ATOM     25  C   UNL A   1      41.509  28.738  28.955  1.00  0.00     0.034 A 
ATOM     26  C   UNL A   1      48.012  26.919  26.955  1.00  0.00     0.034 A 
ATOM     27  C   UNL A   1      42.506  29.777  29.047  1.00  0.00     0.049 A 
ATOM     28  C   UNL A   1      47.668  28.328  27.354  1.00  0.00     0.074 A 
ATOM     29  C   UNL A   1      42.362  31.068  29.529  1.00  0.00     0.029 A 
ATOM     30  N   UNL A   1      43.825  29.656  28.630  1.00  0.00    -0.354 N 
ATOM     31  N   UNL A   1      46.523  28.802  27.788  1.00  0.00    -0.248 NA
ATOM     32  C   UNL A   1      48.738  29.326  27.250  1.00  0.00     0.031 C 
ATOM     33  C   UNL A   1      43.569  31.746  29.335  1.00  0.00     0.029 A 
ATOM     34  C   UNL A   1      44.488  30.862  28.792  1.00  0.00     0.049 A 
ATOM     35  H   UNL A   1      44.230  28.833  28.271  1.00  0.00     0.167 HD
ATOM     36  C   UNL A   1      46.739  30.156  28.013  1.00  0.00     0.074 A 
ATOM     37  C   UNL A   1      48.129  30.415  27.696  1.00  0.00     0.031 C 
ATOM     38  C   UNL A   1      45.867  31.104  28.440  1.00  0.00     0.034 A 
BRANCH  25  39
ATOM     39  C   UNL A   1      40.078  29.096  29.269  1.00  0.00     0.023 A 
ATOM     40  C   UNL A   1      39.600  29.181  30.588  1.00  0.00     0.031 A 
ATOM     41  C   UNL A   1      39.187  29.391  28.221  1.00  0.00     0.131 A 
ATOM     42  C   UNL A   1      38.256  29.516  30.822  1.00  0.00     0.055 A 
ATOM     43  C   UNL A   1      37.868  29.779  28.463  1.00  0.00     0.041 A 
ATOM     44  F   UNL A   1      39.586  29.306  26.943  1.00  0.00    -0.206 F 
ATOM     45  C   UNL A   1      37.394  29.837  29.770  1.00  0.00     0.022 A 
BRANCH  42  46
ATOM     46  S   UNL A   1      37.625  29.451  32.521  1.00  0.00     0.124 S 
ATOM     47  O   UNL A   1      37.693  28.019  32.806  1.00  0.00    -0.237 OA
ATOM     48  O   UNL A   1      38.573  30.290  33.244  1.00  0.00    -0.237 OA
ATOM     49  O   UNL A   1      36.272  29.992  32.407  1.00  0.00    -0.744 OA
ENDBRANCH  42  46
ENDBRANCH  25  39
BRANCH  26  50
ATOM     50  C   UNL A   1      49.363  26.575  26.429  1.00  0.00     0.023 A 
ATOM     51  C   UNL A   1      49.821  27.088  25.207  1.00  0.00     0.031 A 
ATOM     52  C   UNL A   1      50.205  25.691  27.130  1.00  0.00     0.131 A 
ATOM     53  C   UNL A   1      51.065  26.681  24.701  1.00  0.00     0.055 A 
ATOM     54  C   UNL A   1      51.466  25.335  26.652  1.00  0.00     0.041 A 
ATOM     55  F   UNL A   1      49.817  25.172  28.306  1.00  0.00    -0.206 F 
ATOM     56  C   UNL A   1      51.897  25.819  25.422  1.00  0.00     0.022 A 
BRANCH  53  57
ATOM     57  S   UNL A   1      51.542  27.214  23.035  1.00  0.00     0.124 S 
ATOM     58  O   UNL A   1      51.781  28.639  23.234  1.00  0.00    -0.237 OA
ATOM     59  O   UNL A   1      52.722  26.394  22.783  1.00  0.00    -0.237 OA
ATOM     60  O   UNL A   1      50.371  26.886  22.225  1.00  0.00    -0.744 OA
ENDBRANCH  53  57
ENDBRANCH  26  50
BRANCH  38  61
ATOM     61  C   UNL A   1      46.411  32.499  28.589  1.00  0.00     0.023 A 
ATOM     62  C   UNL A   1      46.505  33.365  27.486  1.00  0.00     0.031 A 
ATOM     63  C   UNL A   1      46.861  32.958  29.837  1.00  0.00     0.131 A 
ATOM     64  C   UNL A   1      47.082  34.633  27.644  1.00  0.00     0.055 A 
ATOM     65  C   UNL A   1      47.386  34.241  30.000  1.00  0.00     0.041 A 
ATOM     66  F   UNL A   1      46.797  32.166  30.921  1.00  0.00    -0.206 F 
ATOM     67  C   UNL A   1      47.509  35.082  28.897  1.00  0.00     0.022 A 
BRANCH  64  68
ATOM     68  S   UNL A   1      47.335  35.663  26.173  1.00  0.00     0.124 S 
ATOM     69  O   UNL A   1      48.728  36.070  26.325  1.00  0.00    -0.237 OA
ATOM     70  O   UNL A   1      47.057  34.732  25.084  1.00  0.00    -0.237 OA
ATOM     71  O   UNL A   1      46.355  36.736  26.335  1.00  0.00    -0.744 OA
ENDBRANCH  64  68
ENDBRANCH  38  61
ENDBRANCH  12  13
ENDBRANCH   5   7
ENDBRANCH   2   3
ENDBRANCH   1   2
BRANCH   1  72
ATOM     72  C   UNL A   1      36.945  20.719  24.716  1.00  0.00     0.118 C 
BRANCH  72  73
ATOM     73  N   UNL A   1      35.580  20.354  25.079  1.00  0.00    -0.352 N 
ATOM     74  C   UNL A   1      34.505  21.135  25.416  1.00  0.00     0.251 C 
ATOM     75  H   UNL A   1      35.402  19.387  25.083  1.00  0.00     0.163 HD
ATOM     76  O   UNL A   1      33.518  20.614  25.928  1.00  0.00    -0.269 OA
BRANCH  74  77
ATOM     77  C   UNL A   1      34.466  22.577  25.084  1.00  0.00     0.041 A 
ATOM     78  C   UNL A   1      34.657  23.533  26.082  1.00  0.00     0.014 A 
ATOM     79  C   UNL A   1      34.065  22.988  23.817  1.00  0.00     0.035 A 
ATOM     80  C   UNL A   1      34.470  24.890  25.793  1.00  0.00     0.002 A 
ATOM     81  C   UNL A   1      33.827  24.329  23.539  1.00  0.00     0.083 A 
ATOM     82  C   UNL A   1      34.045  25.293  24.521  1.00  0.00     0.022 A 
BRANCH  81  83
ATOM     83  S   UNL A   1      33.202  24.788  21.942  1.00  0.00     0.240 S 
ATOM     84  O   UNL A   1      33.718  26.095  21.614  1.00  0.00    -0.207 OA
ATOM     85  O   UNL A   1      33.378  23.641  21.082  1.00  0.00    -0.207 OA
BRANCH  83  86
ATOM     86  N   UNL A   1      31.529  24.912  22.192  1.00  0.00    -0.207 NA
ATOM     87  H   UNL A   1      31.096  24.206  21.599  1.00  0.00     0.141 HD
BRANCH  86  88
ATOM     88  C   UNL A   1      30.931  24.747  23.547  1.00  0.00     0.147 C 
BRANCH  88  89
ATOM     89  C   UNL A   1      29.986  25.869  24.028  1.00  0.00     0.226 C 
ATOM     90  C   UNL A   1      30.033  27.152  23.190  1.00  0.00     0.276 C 
ATOM     91  O   UNL A   1      30.277  26.167  25.411  1.00  0.00    -0.482 OA
ATOM     92  O   UNL A   1      31.319  27.770  23.238  1.00  0.00    -0.486 OA
ATOM     93  C   UNL A   1      31.171  27.189  25.587  1.00  0.00     0.161 A 
ATOM     94  C   UNL A   1      31.685  27.960  24.542  1.00  0.00     0.161 A 
ATOM     95  C   UNL A   1      31.555  27.462  26.897  1.00  0.00     0.050 A 
ATOM     96  C   UNL A   1      32.602  28.976  24.794  1.00  0.00     0.050 A 
ATOM     97  C   UNL A   1      32.454  28.499  27.158  1.00  0.00     0.004 A 
ATOM     98  C   UNL A   1      32.981  29.252  26.106  1.00  0.00     0.004 A 
ENDBRANCH  88  89
ENDBRANCH  86  88
ENDBRANCH  83  86
ENDBRANCH  81  83
ENDBRANCH  74  77
ENDBRANCH  72  73
ENDBRANCH   1  72
TORSDOF 17
ENDMDL
MODEL 2
REMARK VINA RESULT:     -13.0      5.649     11.404
REMARK SMILES O=C(NCCCNC(=O)c1cccc(S(=O)(=O)NC[C@@H]2COc3ccccc3O2)c1)c1ccc(-c2c3nc(c(-c4cc(S(=O)(=O)[O-])ccc4F)c4ccc([nH]4)c(-c4cc(S(=O)(=O)[O-])ccc4F)c4nc(c(-c5cc(S(=O)(=O)[O-])ccc5F)c5ccc2[nH]5)C=C4)C=C3)cc1
REMARK SMILES IDX 5 1 4 2 3 3 1 4 2 5 31 7 32 8 93 9 33 10 92 11 34 12 35 13
REMARK SMILES IDX 36 14 86 15 37 16 91 17 85 18 87 19 38 20 90 21 84 22 83 23
REMARK SMILES IDX 39 25 71 26 51 27 70 28 52 29 55 30 69 31 88 32 53 33 54 34
REMARK SMILES IDX 68 36 89 37 56 38 40 39 41 40 49 41 42 42 48 43 50 44 47 45
REMARK SMILES IDX 43 46 44 47 45 48 46 49 72 50 73 51 81 52 74 53 80 54 82 55
REMARK SMILES IDX 79 56 75 57 76 58 77 59 78 60 57 61 58 62 66 63 59 64 65 65
REMARK SMILES IDX 67 66 64 67 60 68 61 69 62 70 63 71 6 72 7 73 8 74 9 76
REMARK SMILES IDX 10 77 11 78 30 79 12 80 14 81 13 82 15 83 16 84 17 85 18 86
REMARK SMILES IDX 19 88 20 89 21 90 29 91 22 92 28 93 23 94 27 95 24 96 26 97
REMARK SMILES IDX 25 98
REMARK H PARENT 3 6 87 24 55 35 7 75 18 87
REMARK Flexibility Score: inf
ROOT
ATOM      1  C   UNL A   1      31.530  31.911  26.490  1.00  0.00     0.042 C 
ENDROOT
BRANCH   1   2
ATOM      2  C   UNL A   1      32.726  32.466  27.245  1.00  0.00     0.118 C 
BRANCH   2   3
ATOM      3  N   UNL A   1      32.554  33.865  27.612  1.00  0.00    -0.352 N 
ATOM      4  O   UNL A   1      32.726  35.702  28.897  1.00  0.00    -0.269 OA
ATOM      5  C   UNL A   1      33.168  34.596  28.602  1.00  0.00     0.251 C 
ATOM      6  H   UNL A   1      31.899  34.362  27.070  1.00  0.00     0.163 HD
BRANCH   5   7
ATOM      7  C   UNL A   1      34.346  34.049  29.312  1.00  0.00     0.039 A 
ATOM      8  C   UNL A   1      34.189  33.117  30.339  1.00  0.00     0.014 A 
ATOM      9  C   UNL A   1      35.630  34.436  28.913  1.00  0.00     0.014 A 
ATOM     10  C   UNL A   1      35.293  32.684  31.062  1.00  0.00     0.010 A 
ATOM     11  C   UNL A   1      36.748  33.917  29.572  1.00  0.00     0.010 A 
ATOM     12  C   UNL A   1      36.587  33.047  30.662  1.00  0.00    -0.014 A 
BRANCH  12  13
ATOM     13  C   UNL A   1      37.751  32.400  31.316  1.00  0.00     0.031 A 
ATOM     14  C   UNL A   1      38.535  31.320  30.628  1.00  0.00     0.074 A 
ATOM     15  C   UNL A   1      38.089  32.812  32.556  1.00  0.00     0.049 A 
ATOM     16  N   UNL A   1      39.554  30.636  31.076  1.00  0.00    -0.248 NA
ATOM     17  C   UNL A   1      38.117  30.952  29.267  1.00  0.00     0.031 C 
ATOM     18  C   UNL A   1      37.384  33.850  33.317  1.00  0.00     0.029 A 
ATOM     19  N   UNL A   1      39.100  32.422  33.395  1.00  0.00    -0.354 N 
ATOM     20  C   UNL A   1      39.889  29.740  30.067  1.00  0.00     0.074 A 
ATOM     21  C   UNL A   1      38.953  29.960  28.985  1.00  0.00     0.031 C 
ATOM     22  C   UNL A   1      37.998  34.031  34.494  1.00  0.00     0.029 A 
ATOM     23  C   UNL A   1      39.087  33.071  34.609  1.00  0.00     0.049 A 
ATOM     24  H   UNL A   1      39.770  31.743  33.152  1.00  0.00     0.167 HD
ATOM     25  C   UNL A   1      40.885  28.821  30.056  1.00  0.00     0.034 A 
ATOM     26  C   UNL A   1      39.837  32.885  35.711  1.00  0.00     0.034 A 
ATOM     27  C   UNL A   1      41.820  28.637  31.141  1.00  0.00     0.049 A 
ATOM     28  C   UNL A   1      40.903  31.825  35.681  1.00  0.00     0.074 A 
ATOM     29  C   UNL A   1      42.926  27.806  31.192  1.00  0.00     0.029 A 
ATOM     30  N   UNL A   1      41.746  29.275  32.372  1.00  0.00    -0.354 N 
ATOM     31  N   UNL A   1      41.242  31.029  34.694  1.00  0.00    -0.248 NA
ATOM     32  C   UNL A   1      41.679  31.632  36.911  1.00  0.00     0.031 C 
ATOM     33  C   UNL A   1      43.475  27.886  32.476  1.00  0.00     0.029 A 
ATOM     34  C   UNL A   1      42.752  28.815  33.207  1.00  0.00     0.049 A 
ATOM     35  H   UNL A   1      41.077  29.955  32.617  1.00  0.00     0.167 HD
ATOM     36  C   UNL A   1      42.277  30.243  35.184  1.00  0.00     0.074 A 
ATOM     37  C   UNL A   1      42.526  30.680  36.542  1.00  0.00     0.031 C 
ATOM     38  C   UNL A   1      42.961  29.245  34.569  1.00  0.00     0.034 A 
BRANCH  25  39
ATOM     39  C   UNL A   1      40.995  27.907  28.861  1.00  0.00     0.023 A 
ATOM     40  C   UNL A   1      41.982  28.077  27.877  1.00  0.00     0.031 A 
ATOM     41  C   UNL A   1      40.109  26.822  28.730  1.00  0.00     0.131 A 
ATOM     42  C   UNL A   1      42.036  27.197  26.783  1.00  0.00     0.055 A 
ATOM     43  C   UNL A   1      40.204  25.917  27.672  1.00  0.00     0.041 A 
ATOM     44  F   UNL A   1      39.136  26.624  29.633  1.00  0.00    -0.206 F 
ATOM     45  C   UNL A   1      41.168  26.106  26.686  1.00  0.00     0.022 A 
BRANCH  42  46
ATOM     46  S   UNL A   1      43.208  27.543  25.443  1.00  0.00     0.124 S 
ATOM     47  O   UNL A   1      42.339  28.158  24.442  1.00  0.00    -0.237 OA
ATOM     48  O   UNL A   1      44.170  28.430  26.084  1.00  0.00    -0.237 OA
ATOM     49  O   UNL A   1      43.720  26.221  25.084  1.00  0.00    -0.744 OA
ENDBRANCH  42  46
ENDBRANCH  25  39
BRANCH  26  50
ATOM     50  C   UNL A   1      39.554  33.660  36.953  1.00  0.00     0.023 A 
ATOM     51  C   UNL A   1      40.257  34.835  37.253  1.00  0.00     0.031 A 
ATOM     52  C   UNL A   1      38.597  33.208  37.880  1.00  0.00     0.131 A 
ATOM     53  C   UNL A   1      40.022  35.497  38.469  1.00  0.00     0.055 A 
ATOM     54  C   UNL A   1      38.326  33.900  39.060  1.00  0.00     0.041 A 
ATOM     55  F   UNL A   1      37.895  32.088  37.642  1.00  0.00    -0.206 F 
ATOM     56  C   UNL A   1      39.052  35.046  39.368  1.00  0.00     0.022 A 
BRANCH  53  57
ATOM     57  S   UNL A   1      41.078  36.904  38.908  1.00  0.00     0.124 S 
ATOM     58  O   UNL A   1      41.938  37.011  37.735  1.00  0.00    -0.237 OA
ATOM     59  O   UNL A   1      40.098  37.971  39.085  1.00  0.00    -0.237 OA
ATOM     60  O   UNL A   1      41.744  36.461  40.131  1.00  0.00    -0.744 OA
ENDBRANCH  53  57
ENDBRANCH  26  50
BRANCH  38  61
ATOM     61  C   UNL A   1      44.042  28.576  35.375  1.00  0.00     0.023 A 
ATOM     62  C   UNL A   1      43.757  27.483  36.210  1.00  0.00     0.031 A 
ATOM     63  C   UNL A   1      45.363  29.050  35.325  1.00  0.00     0.131 A 
ATOM     64  C   UNL A   1      44.772  26.928  37.001  1.00  0.00     0.055 A 
ATOM     65  C   UNL A   1      46.382  28.459  36.074  1.00  0.00     0.041 A 
ATOM     66  F   UNL A   1      45.686  30.096  34.546  1.00  0.00    -0.206 F 
ATOM     67  C   UNL A   1      46.086  27.399  36.927  1.00  0.00     0.022 A 
BRANCH  64  68
ATOM     68  S   UNL A   1      44.338  25.624  38.185  1.00  0.00     0.124 S 
ATOM     69  O   UNL A   1      43.070  25.139  37.649  1.00  0.00    -0.237 OA
ATOM     70  O   UNL A   1      45.469  24.709  38.076  1.00  0.00    -0.237 OA
ATOM     71  O   UNL A   1      44.240  26.337  39.458  1.00  0.00    -0.744 OA
ENDBRANCH  64  68
ENDBRANCH  38  61
ENDBRANCH  12  13
ENDBRANCH   5   7
ENDBRANCH   2   3
ENDBRANCH   1   2
BRANCH   1  72
ATOM     72  C   UNL A   1      31.572  30.403  26.311  1.00  0.00     0.118 C 
BRANCH  72  73
ATOM     73  N   UNL A   1      31.302  30.013  24.932  1.00  0.00    -0.352 N 
ATOM     74  C   UNL A   1      31.745  28.940  24.203  1.00  0.00     0.251 C 
ATOM     75  H   UNL A   1      30.702  30.621  24.443  1.00  0.00     0.163 HD
ATOM     76  O   UNL A   1      31.595  28.936  22.984  1.00  0.00    -0.269 OA
BRANCH  74  77
ATOM     77  C   UNL A   1      32.309  27.741  24.862  1.00  0.00     0.041 A 
ATOM     78  C   UNL A   1      33.678  27.478  24.789  1.00  0.00     0.014 A 
ATOM     79  C   UNL A   1      31.460  26.781  25.403  1.00  0.00     0.035 A 
ATOM     80  C   UNL A   1      34.183  26.269  25.283  1.00  0.00     0.002 A 
ATOM     81  C   UNL A   1      31.950  25.558  25.846  1.00  0.00     0.083 A 
ATOM     82  C   UNL A   1      33.319  25.299  25.806  1.00  0.00     0.022 A 
BRANCH  81  83
ATOM     83  S   UNL A   1      30.812  24.321  26.417  1.00  0.00     0.240 S 
ATOM     84  O   UNL A   1      31.430  23.608  27.508  1.00  0.00    -0.207 OA
ATOM     85  O   UNL A   1      29.524  24.966  26.537  1.00  0.00    -0.207 OA
BRANCH  83  86
ATOM     86  N   UNL A   1      30.669  23.272  25.093  1.00  0.00    -0.207 NA
ATOM     87  H   UNL A   1      29.672  23.180  24.904  1.00  0.00     0.141 HD
BRANCH  86  88
ATOM     88  C   UNL A   1      31.319  23.576  23.786  1.00  0.00     0.147 C 
BRANCH  88  89
ATOM     89  C   UNL A   1      32.090  22.421  23.112  1.00  0.00     0.226 C 
ATOM     90  C   UNL A   1      32.259  21.167  23.978  1.00  0.00     0.276 C 
ATOM     91  O   UNL A   1      33.380  22.907  22.682  1.00  0.00    -0.482 OA
ATOM     92  O   UNL A   1      33.033  21.433  25.148  1.00  0.00    -0.486 OA
ATOM     93  C   UNL A   1      34.384  22.711  23.592  1.00  0.00     0.161 A 
ATOM     94  C   UNL A   1      34.221  22.009  24.789  1.00  0.00     0.161 A 
ATOM     95  C   UNL A   1      35.632  23.236  23.267  1.00  0.00     0.050 A 
ATOM     96  C   UNL A   1      35.284  21.858  25.674  1.00  0.00     0.050 A 
ATOM     97  C   UNL A   1      36.708  23.065  24.140  1.00  0.00     0.004 A 
ATOM     98  C   UNL A   1      36.533  22.381  25.345  1.00  0.00     0.004 A 
ENDBRANCH  88  89
ENDBRANCH  86  88
ENDBRANCH  83  86
ENDBRANCH  81  83
ENDBRANCH  74  77
ENDBRANCH  72  73
ENDBRANCH   1  72
TORSDOF 17
ENDMDL
MODEL 3
REMARK VINA RESULT:     -12.9      5.573     11.234
REMARK SMILES O=C(NCCCNC(=O)c1cccc(S(=O)(=O)NC[C@@H]2COc3ccccc3O2)c1)c1ccc(-c2c3nc(c(-c4cc(S(=O)(=O)[O-])ccc4F)c4ccc([nH]4)c(-c4cc(S(=O)(=O)[O-])ccc4F)c4nc(c(-c5cc(S(=O)(=O)[O-])ccc5F)c5ccc2[nH]5)C=C4)C=C3)cc1
REMARK SMILES IDX 5 1 4 2 3 3 1 4 2 5 31 7 32 8 93 9 33 10 92 11 34 12 35 13
REMARK SMILES IDX 36 14 86 15 37 16 91 17 85 18 87 19 38 20 90 21 84 22 83 23
REMARK SMILES IDX 39 25 71 26 51 27 70 28 52 29 55 30 69 31 88 32 53 33 54 34
REMARK SMILES IDX 68 36 89 37 56 38 40 39 41 40 49 41 42 42 48 43 50 44 47 45
REMARK SMILES IDX 43 46 44 47 45 48 46 49 72 50 73 51 81 52 74 53 80 54 82 55
REMARK SMILES IDX 79 56 75 57 76 58 77 59 78 60 57 61 58 62 66 63 59 64 65 65
REMARK SMILES IDX 67 66 64 67 60 68 61 69 62 70 63 71 6 72 7 73 8 74 9 76
REMARK SMILES IDX 10 77 11 78 30 79 12 80 14 81 13 82 15 83 16 84 17 85 18 86
REMARK SMILES IDX 19 88 20 89 21 90 29 91 22 92 28 93 23 94 27 95 24 96 26 97
REMARK SMILES IDX 25 98
REMARK H PARENT 3 6 87 24 55 35 7 75 18 87
REMARK Flexibility Score: inf
ROOT
ATOM      1  C   UNL A   1      31.521  32.140  26.811  1.00  0.00     0.042 C 
ENDROOT
BRANCH   1   2
ATOM      2  C   UNL A   1      32.815  32.917  26.987  1.00  0.00     0.118 C 
BRANCH   2   3
ATOM      3  N   UNL A   1      32.617  34.177  27.689  1.00  0.00    -0.352 N 
ATOM      4  O   UNL A   1      32.737  35.635  29.397  1.00  0.00    -0.269 OA
ATOM      5  C   UNL A   1      33.199  34.640  28.845  1.00  0.00     0.251 C 
ATOM      6  H   UNL A   1      31.969  34.791  27.272  1.00  0.00     0.163 HD
BRANCH   5   7
ATOM      7  C   UNL A   1      34.367  33.940  29.426  1.00  0.00     0.039 A 
ATOM      8  C   UNL A   1      35.667  34.323  29.091  1.00  0.00     0.014 A 
ATOM      9  C   UNL A   1      34.160  32.916  30.357  1.00  0.00     0.014 A 
ATOM     10  C   UNL A   1      36.751  33.597  29.565  1.00  0.00     0.010 A 
ATOM     11  C   UNL A   1      35.257  32.255  30.918  1.00  0.00     0.010 A 
ATOM     12  C   UNL A   1      36.561  32.582  30.515  1.00  0.00    -0.014 A 
BRANCH  12  13
ATOM     13  C   UNL A   1      37.749  31.972  31.163  1.00  0.00     0.031 A 
ATOM     14  C   UNL A   1      38.530  30.878  30.494  1.00  0.00     0.074 A 
ATOM     15  C   UNL A   1      38.108  32.428  32.381  1.00  0.00     0.049 A 
ATOM     16  N   UNL A   1      39.568  30.222  30.941  1.00  0.00    -0.248 NA
ATOM     17  C   UNL A   1      38.088  30.461  29.155  1.00  0.00     0.031 C 
ATOM     18  C   UNL A   1      37.407  33.481  33.124  1.00  0.00     0.029 A 
ATOM     19  N   UNL A   1      39.142  32.078  33.209  1.00  0.00    -0.354 N 
ATOM     20  C   UNL A   1      39.893  29.297  29.955  1.00  0.00     0.074 A 
ATOM     21  C   UNL A   1      38.930  29.470  28.887  1.00  0.00     0.031 C 
ATOM     22  C   UNL A   1      38.044  33.709  34.279  1.00  0.00     0.029 A 
ATOM     23  C   UNL A   1      39.147  32.767  34.401  1.00  0.00     0.049 A 
ATOM     24  H   UNL A   1      39.816  31.399  32.974  1.00  0.00     0.167 HD
ATOM     25  C   UNL A   1      40.900  28.390  29.951  1.00  0.00     0.034 A 
ATOM     26  C   UNL A   1      39.924  32.626  35.492  1.00  0.00     0.034 A 
ATOM     27  C   UNL A   1      41.860  28.254  31.020  1.00  0.00     0.049 A 
ATOM     28  C   UNL A   1      41.002  31.579  35.473  1.00  0.00     0.074 A 
ATOM     29  C   UNL A   1      42.977  27.438  31.074  1.00  0.00     0.029 A 
ATOM     30  N   UNL A   1      41.805  28.931  32.231  1.00  0.00    -0.354 N 
ATOM     31  N   UNL A   1      41.330  30.755  34.504  1.00  0.00    -0.248 NA
ATOM     32  C   UNL A   1      41.809  31.436  36.690  1.00  0.00     0.031 C 
ATOM     33  C   UNL A   1      43.554  27.567  32.342  1.00  0.00     0.029 A 
ATOM     34  C   UNL A   1      42.836  28.512  33.058  1.00  0.00     0.049 A 
ATOM     35  H   UNL A   1      41.133  29.611  32.468  1.00  0.00     0.167 HD
ATOM     36  C   UNL A   1      42.386  29.998  34.997  1.00  0.00     0.074 A 
ATOM     37  C   UNL A   1      42.659  30.483  36.334  1.00  0.00     0.031 C 
ATOM     38  C   UNL A   1      43.069  28.988  34.400  1.00  0.00     0.034 A 
BRANCH  25  39
ATOM     39  C   UNL A   1      40.995  27.439  28.785  1.00  0.00     0.023 A 
ATOM     40  C   UNL A   1      41.976  27.572  27.788  1.00  0.00     0.031 A 
ATOM     41  C   UNL A   1      40.101  26.357  28.694  1.00  0.00     0.131 A 
ATOM     42  C   UNL A   1      42.016  26.658  26.722  1.00  0.00     0.055 A 
ATOM     43  C   UNL A   1      40.182  25.419  27.663  1.00  0.00     0.041 A 
ATOM     44  F   UNL A   1      39.133  26.193  29.609  1.00  0.00    -0.206 F 
ATOM     45  C   UNL A   1      41.140  25.570  26.666  1.00  0.00     0.022 A 
BRANCH  42  46
ATOM     46  S   UNL A   1      43.180  26.953  25.364  1.00  0.00     0.124 S 
ATOM     47  O   UNL A   1      43.336  25.610  24.811  1.00  0.00    -0.237 OA
ATOM     48  O   UNL A   1      42.459  27.906  24.529  1.00  0.00    -0.237 OA
ATOM     49  O   UNL A   1      44.366  27.484  26.035  1.00  0.00    -0.744 OA
ENDBRANCH  42  46
ENDBRANCH  25  39
BRANCH  26  50
ATOM     50  C   UNL A   1      39.659  33.438  36.714  1.00  0.00     0.023 A 
ATOM     51  C   UNL A   1      38.978  32.897  37.813  1.00  0.00     0.031 A 
ATOM     52  C   UNL A   1      40.055  34.787  36.781  1.00  0.00     0.131 A 
ATOM     53  C   UNL A   1      38.675  33.712  38.915  1.00  0.00     0.055 A 
ATOM     54  C   UNL A   1      39.802  35.577  37.902  1.00  0.00     0.041 A 
ATOM     55  F   UNL A   1      40.711  35.355  35.756  1.00  0.00    -0.206 F 
ATOM     56  C   UNL A   1      39.094  35.044  38.974  1.00  0.00     0.022 A 
BRANCH  53  57
ATOM     57  S   UNL A   1      37.631  33.034  40.235  1.00  0.00     0.124 S 
ATOM     58  O   UNL A   1      36.405  32.714  39.512  1.00  0.00    -0.237 OA
ATOM     59  O   UNL A   1      38.423  31.895  40.688  1.00  0.00    -0.237 OA
ATOM     60  O   UNL A   1      37.525  34.138  41.186  1.00  0.00    -0.744 OA
ENDBRANCH  53  57
ENDBRANCH  26  50
BRANCH  38  61
ATOM     61  C   UNL A   1      44.176  28.360  35.202  1.00  0.00     0.023 A 
ATOM     62  C   UNL A   1      45.474  28.900  35.201  1.00  0.00     0.031 A 
ATOM     63  C   UNL A   1      43.938  27.199  35.956  1.00  0.00     0.131 A 
ATOM     64  C   UNL A   1      46.499  28.251  35.902  1.00  0.00     0.055 A 
ATOM     65  C   UNL A   1      44.951  26.586  36.696  1.00  0.00     0.041 A 
ATOM     66  F   UNL A   1      42.717  26.641  35.986  1.00  0.00    -0.206 F 
ATOM     67  C   UNL A   1      46.242  27.106  36.662  1.00  0.00     0.022 A 
BRANCH  64  68
ATOM     68  S   UNL A   1      48.192  28.882  35.750  1.00  0.00     0.124 S 
ATOM     69  O   UNL A   1      48.960  27.858  36.452  1.00  0.00    -0.237 OA
ATOM     70  O   UNL A   1      48.378  28.940  34.304  1.00  0.00    -0.237 OA
ATOM     71  O   UNL A   1      48.134  30.180  36.419  1.00  0.00    -0.744 OA
ENDBRANCH  64  68
ENDBRANCH  38  61
ENDBRANCH  12  13
ENDBRANCH   5   7
ENDBRANCH   2   3
ENDBRANCH   1   2
BRANCH   1  72
ATOM     72  C   UNL A   1      31.733  30.656  26.562  1.00  0.00     0.118 C 
BRANCH  72  73
ATOM     73  N   UNL A   1      31.288  30.261  25.231  1.00  0.00    -0.352 N 
ATOM     74  C   UNL A   1      31.592  29.156  24.478  1.00  0.00     0.251 C 
ATOM     75  H   UNL A   1      30.668  30.892  24.801  1.00  0.00     0.163 HD
ATOM     76  O   UNL A   1      31.304  29.142  23.285  1.00  0.00    -0.269 OA
BRANCH  74  77
ATOM     77  C   UNL A   1      32.166  27.939  25.094  1.00  0.00     0.041 A 
ATOM     78  C   UNL A   1      33.543  27.714  25.054  1.00  0.00     0.014 A 
ATOM     79  C   UNL A   1      31.326  26.931  25.557  1.00  0.00     0.035 A 
ATOM     80  C   UNL A   1      34.064  26.494  25.503  1.00  0.00     0.002 A 
ATOM     81  C   UNL A   1      31.833  25.699  25.953  1.00  0.00     0.083 A 
ATOM     82  C   UNL A   1      33.209  25.477  25.946  1.00  0.00     0.022 A 
BRANCH  81  83
ATOM     83  S   UNL A   1      30.711  24.406  26.423  1.00  0.00     0.240 S 
ATOM     84  O   UNL A   1      31.351  23.596  27.430  1.00  0.00    -0.207 OA
ATOM     85  O   UNL A   1      29.422  25.029  26.624  1.00  0.00    -0.207 OA
BRANCH  83  86
ATOM     86  N   UNL A   1      30.551  23.487  25.007  1.00  0.00    -0.207 NA
ATOM     87  H   UNL A   1      29.569  23.539  24.739  1.00  0.00     0.141 HD
BRANCH  86  88
ATOM     88  C   UNL A   1      31.338  23.803  23.781  1.00  0.00     0.147 C 
BRANCH  88  89
ATOM     89  C   UNL A   1      32.125  22.638  23.144  1.00  0.00     0.226 C 
ATOM     90  C   UNL A   1      32.204  21.370  24.002  1.00  0.00     0.276 C 
ATOM     91  O   UNL A   1      33.453  23.096  22.809  1.00  0.00    -0.482 OA
ATOM     92  O   UNL A   1      32.903  21.601  25.225  1.00  0.00    -0.486 OA
ATOM     93  C   UNL A   1      34.387  22.863  23.782  1.00  0.00     0.161 A 
ATOM     94  C   UNL A   1      34.126  22.151  24.955  1.00  0.00     0.161 A 
ATOM     95  C   UNL A   1      35.667  23.360  23.550  1.00  0.00     0.050 A 
ATOM     96  C   UNL A   1      35.122  21.962  25.908  1.00  0.00     0.050 A 
ATOM     97  C   UNL A   1      36.677  23.151  24.492  1.00  0.00     0.004 A 
ATOM     98  C   UNL A   1      36.403  22.457  25.672  1.00  0.00     0.004 A 
ENDBRANCH  88  89
ENDBRANCH  86  88
ENDBRANCH  83  86
ENDBRANCH  81  83
ENDBRANCH  74  77
ENDBRANCH  72  73
ENDBRANCH   1  72
TORSDOF 17
ENDMDL
