MODEL 1
REMARK VINA RESULT:     -12.4      0.000      0.000
REMARK SMILES CC[C@@H](C)[C@H](C(=O)NCCCNC(=O)c1ccc(-c2c3nc(c(-c4cc(S(=O)(=O)[O-])ccc4F)c4ccc([nH]4)c(-c4cc(S(=O)(=O)[O-])ccc4F)c4nc(c(-c5cc(S(=O)(=O)[O-])ccc5F)c5ccc2[nH]5)C=C4)C=C3)cc1)N1C(=O)/C(=C/c2ccc3c(c2)OCO3)SC1=S
REMARK SMILES IDX 10 1 9 2 8 3 6 4 7 5 5 7 3 8 4 9 2 10 1 11 78 12 79 13 93 14
REMARK SMILES IDX 80 15 81 16 92 17 94 18 82 19 83 20 84 21 88 22 85 23 87 24
REMARK SMILES IDX 86 25 89 26 91 27 90 28 11 29 12 30 13 31 14 33 15 34 16 35
REMARK SMILES IDX 77 36 17 37 76 38 18 39 19 40 20 41 70 42 21 43 75 44 69 45
REMARK SMILES IDX 71 46 22 47 74 48 68 49 67 50 23 52 55 53 35 54 54 55 36 56
REMARK SMILES IDX 39 57 53 58 72 59 37 60 38 61 52 63 73 64 40 65 24 66 25 67
REMARK SMILES IDX 33 68 26 69 32 70 34 71 31 72 27 73 28 74 29 75 30 76 56 77
REMARK SMILES IDX 57 78 65 79 58 80 64 81 66 82 63 83 59 84 60 85 61 86 62 87
REMARK SMILES IDX 41 88 42 89 50 90 43 91 49 92 51 93 48 94 44 95 45 96 46 97
REMARK SMILES IDX 47 98
REMARK H PARENT 8 6 12 32 71 51 39 62
REMARK Flexibility Score: inf
ROOT
ATOM      1  C   UNL A   1      38.191  19.714  24.997  1.00  0.00     0.042 C 
ENDROOT
BRANCH   1   2
ATOM      2  C   UNL A   1      37.150  20.777  24.683  1.00  0.00     0.117 C 
BRANCH   2   3
ATOM      3  N   UNL A   1      36.401  21.137  25.872  1.00  0.00    -0.354 N 
ATOM      4  C   UNL A   1      35.111  21.554  26.010  1.00  0.00     0.243 C 
ATOM      5  O   UNL A   1      34.651  21.605  27.157  1.00  0.00    -0.273 OA
ATOM      6  H   UNL A   1      36.906  21.070  26.714  1.00  0.00     0.163 HD
BRANCH   4   7
ATOM      7  C   UNL A   1      34.215  21.944  24.802  1.00  0.00     0.184 C 
BRANCH   7   8
ATOM      8  C   UNL A   1      33.350  20.762  24.208  1.00  0.00     0.018 C 
ATOM      9  C   UNL A   1      32.170  21.144  23.312  1.00  0.00     0.010 C 
BRANCH   8  10
ATOM     10  C   UNL A   1      33.008  19.701  25.287  1.00  0.00     0.002 C 
ATOM     11  C   UNL A   1      32.506  18.365  24.755  1.00  0.00     0.004 C 
ENDBRANCH   8  10
ENDBRANCH   7   8
BRANCH   7  12
ATOM     12  N   UNL A   1      33.565  23.289  24.874  1.00  0.00    -0.280 N 
ATOM     13  C   UNL A   1      33.825  24.275  23.929  1.00  0.00     0.266 C 
ATOM     14  C   UNL A   1      32.546  23.606  25.760  1.00  0.00     0.149 C 
ATOM     15  O   UNL A   1      34.484  24.192  22.902  1.00  0.00    -0.268 OA
ATOM     16  C   UNL A   1      33.156  25.548  24.285  1.00  0.00     0.081 C 
ATOM     17  S   UNL A   1      32.157  25.317  25.656  1.00  0.00    -0.054 SA
ATOM     18  S   UNL A   1      31.688  22.626  26.805  1.00  0.00    -0.052 S 
ATOM     19  C   UNL A   1      33.400  26.691  23.624  1.00  0.00     0.029 C 
BRANCH  19  20
ATOM     20  C   UNL A   1      32.940  27.982  24.134  1.00  0.00    -0.020 A 
ATOM     21  C   UNL A   1      31.636  28.457  23.884  1.00  0.00     0.012 A 
ATOM     22  C   UNL A   1      33.785  28.653  25.029  1.00  0.00     0.058 A 
ATOM     23  C   UNL A   1      31.143  29.561  24.590  1.00  0.00     0.051 A 
ATOM     24  C   UNL A   1      33.251  29.693  25.746  1.00  0.00     0.166 A 
ATOM     25  C   UNL A   1      31.962  30.127  25.545  1.00  0.00     0.165 A 
ATOM     26  O   UNL A   1      33.870  30.340  26.769  1.00  0.00    -0.454 OA
ATOM     27  O   UNL A   1      31.614  31.101  26.431  1.00  0.00    -0.454 OA
ATOM     28  C   UNL A   1      32.746  31.043  27.329  1.00  0.00     0.468 C 
ENDBRANCH  19  20
ENDBRANCH   7  12
ENDBRANCH   4   7
ENDBRANCH   2   3
ENDBRANCH   1   2
BRANCH   1  29
ATOM     29  C   UNL A   1      39.217  20.193  26.007  1.00  0.00     0.118 C 
BRANCH  29  30
ATOM     30  N   UNL A   1      40.353  19.285  26.068  1.00  0.00    -0.352 N 
ATOM     31  C   UNL A   1      41.700  19.568  26.059  1.00  0.00     0.251 C 
ATOM     32  H   UNL A   1      40.126  18.329  26.123  1.00  0.00     0.163 HD
ATOM     33  O   UNL A   1      42.496  18.673  25.791  1.00  0.00    -0.269 OA
BRANCH  31  34
ATOM     34  C   UNL A   1      42.183  20.937  26.356  1.00  0.00     0.039 A 
ATOM     35  C   UNL A   1      42.481  21.287  27.676  1.00  0.00     0.014 A 
ATOM     36  C   UNL A   1      42.308  21.893  25.344  1.00  0.00     0.014 A 
ATOM     37  C   UNL A   1      42.946  22.573  27.966  1.00  0.00     0.010 A 
ATOM     38  C   UNL A   1      42.881  23.130  25.616  1.00  0.00     0.010 A 
ATOM     39  C   UNL A   1      43.179  23.497  26.935  1.00  0.00    -0.014 A 
BRANCH  39  40
ATOM     40  C   UNL A   1      43.679  24.870  27.213  1.00  0.00     0.031 A 
ATOM     41  C   UNL A   1      42.735  25.912  27.759  1.00  0.00     0.074 A 
ATOM     42  C   UNL A   1      44.956  25.192  26.928  1.00  0.00     0.049 A 
ATOM     43  N   UNL A   1      42.945  27.182  27.988  1.00  0.00    -0.248 NA
ATOM     44  C   UNL A   1      41.361  25.472  28.052  1.00  0.00     0.031 C 
ATOM     45  C   UNL A   1      45.952  24.280  26.361  1.00  0.00     0.029 A 
ATOM     46  N   UNL A   1      45.637  26.376  27.068  1.00  0.00    -0.354 N 
ATOM     47  C   UNL A   1      41.730  27.694  28.433  1.00  0.00     0.074 A 
ATOM     48  C   UNL A   1      40.771  26.613  28.369  1.00  0.00     0.031 C 
ATOM     49  C   UNL A   1      47.122  24.926  26.238  1.00  0.00     0.029 A 
ATOM     50  C   UNL A   1      46.950  26.312  26.660  1.00  0.00     0.049 A 
ATOM     51  H   UNL A   1      45.225  27.194  27.428  1.00  0.00     0.167 HD
ATOM     52  C   UNL A   1      41.446  28.941  28.884  1.00  0.00     0.034 A 
ATOM     53  C   UNL A   1      47.902  27.267  26.617  1.00  0.00     0.034 A 
ATOM     54  C   UNL A   1      42.422  30.000  28.961  1.00  0.00     0.049 A 
ATOM     55  C   UNL A   1      47.554  28.655  27.095  1.00  0.00     0.074 A 
ATOM     56  C   UNL A   1      42.262  31.285  29.447  1.00  0.00     0.029 A 
ATOM     57  N   UNL A   1      43.741  29.898  28.534  1.00  0.00    -0.354 N 
ATOM     58  N   UNL A   1      46.411  29.109  27.558  1.00  0.00    -0.248 NA
ATOM     59  C   UNL A   1      48.627  29.657  27.055  1.00  0.00     0.031 C 
ATOM     60  C   UNL A   1      43.456  31.982  29.244  1.00  0.00     0.029 A 
ATOM     61  C   UNL A   1      44.393  31.107  28.715  1.00  0.00     0.049 A 
ATOM     62  H   UNL A   1      44.151  29.086  28.159  1.00  0.00     0.167 HD
ATOM     63  C   UNL A   1      46.642  30.440  27.897  1.00  0.00     0.074 A 
ATOM     64  C   UNL A   1      48.034  30.707  27.603  1.00  0.00     0.031 C 
ATOM     65  C   UNL A   1      45.782  31.358  28.410  1.00  0.00     0.034 A 
BRANCH  52  66
ATOM     66  C   UNL A   1      40.023  29.226  29.305  1.00  0.00     0.023 A 
ATOM     67  C   UNL A   1      39.648  29.283  30.659  1.00  0.00     0.031 A 
ATOM     68  C   UNL A   1      39.020  29.427  28.339  1.00  0.00     0.131 A 
ATOM     69  C   UNL A   1      38.301  29.454  31.009  1.00  0.00     0.055 A 
ATOM     70  C   UNL A   1      37.694  29.685  28.696  1.00  0.00     0.041 A 
ATOM     71  F   UNL A   1      39.308  29.361  27.030  1.00  0.00    -0.206 F 
ATOM     72  C   UNL A   1      37.325  29.685  30.037  1.00  0.00     0.022 A 
BRANCH  69  73
ATOM     73  S   UNL A   1      37.820  29.222  32.743  1.00  0.00     0.124 S 
ATOM     74  O   UNL A   1      36.557  29.954  32.798  1.00  0.00    -0.237 OA
ATOM     75  O   UNL A   1      37.724  27.773  32.853  1.00  0.00    -0.237 OA
ATOM     76  O   UNL A   1      38.919  29.834  33.488  1.00  0.00    -0.744 OA
ENDBRANCH  69  73
ENDBRANCH  52  66
BRANCH  53  77
ATOM     77  C   UNL A   1      49.266  26.957  26.099  1.00  0.00     0.023 A 
ATOM     78  C   UNL A   1      49.687  27.426  24.844  1.00  0.00     0.031 A 
ATOM     79  C   UNL A   1      50.153  26.143  26.825  1.00  0.00     0.131 A 
ATOM     80  C   UNL A   1      50.932  27.032  24.329  1.00  0.00     0.055 A 
ATOM     81  C   UNL A   1      51.417  25.805  26.337  1.00  0.00     0.041 A 
ATOM     82  F   UNL A   1      49.806  25.667  28.032  1.00  0.00    -0.206 F 
ATOM     83  C   UNL A   1      51.806  26.238  25.073  1.00  0.00     0.022 A 
BRANCH  80  84
ATOM     84  S   UNL A   1      51.347  27.484  22.621  1.00  0.00     0.124 S 
ATOM     85  O   UNL A   1      51.205  28.934  22.657  1.00  0.00    -0.237 OA
ATOM     86  O   UNL A   1      52.708  26.973  22.497  1.00  0.00    -0.237 OA
ATOM     87  O   UNL A   1      50.343  26.776  21.829  1.00  0.00    -0.744 OA
ENDBRANCH  80  84
ENDBRANCH  53  77
BRANCH  65  88
ATOM     88  C   UNL A   1      46.344  32.721  28.732  1.00  0.00     0.023 A 
ATOM     89  C   UNL A   1      46.344  33.766  27.792  1.00  0.00     0.031 A 
ATOM     90  C   UNL A   1      46.895  32.975  30.001  1.00  0.00     0.131 A 
ATOM     91  C   UNL A   1      46.937  34.995  28.113  1.00  0.00     0.055 A 
ATOM     92  C   UNL A   1      47.420  34.222  30.340  1.00  0.00     0.041 A 
ATOM     93  F   UNL A   1      46.926  32.013  30.937  1.00  0.00    -0.206 F 
ATOM     94  C   UNL A   1      47.457  35.236  29.388  1.00  0.00     0.022 A 
BRANCH  91  95
ATOM     95  S   UNL A   1      47.116  36.243  26.809  1.00  0.00     0.124 S 
ATOM     96  O   UNL A   1      48.562  36.269  26.613  1.00  0.00    -0.237 OA
ATOM     97  O   UNL A   1      46.334  35.669  25.719  1.00  0.00    -0.237 OA
ATOM     98  O   UNL A   1      46.549  37.450  27.409  1.00  0.00    -0.744 OA
ENDBRANCH  91  95
ENDBRANCH  65  88
ENDBRANCH  39  40
ENDBRANCH  31  34
ENDBRANCH  29  30
ENDBRANCH   1  29
TORSDOF 17
ENDMDL
MODEL 2
REMARK VINA RESULT:     -12.2      3.007      8.282
REMARK SMILES CC[C@@H](C)[C@H](C(=O)NCCCNC(=O)c1ccc(-c2c3nc(c(-c4cc(S(=O)(=O)[O-])ccc4F)c4ccc([nH]4)c(-c4cc(S(=O)(=O)[O-])ccc4F)c4nc(c(-c5cc(S(=O)(=O)[O-])ccc5F)c5ccc2[nH]5)C=C4)C=C3)cc1)N1C(=O)/C(=C/c2ccc3c(c2)OCO3)SC1=S
REMARK SMILES IDX 10 1 9 2 8 3 6 4 7 5 5 7 3 8 4 9 2 10 1 11 78 12 79 13 93 14
REMARK SMILES IDX 80 15 81 16 92 17 94 18 82 19 83 20 84 21 88 22 85 23 87 24
REMARK SMILES IDX 86 25 89 26 91 27 90 28 11 29 12 30 13 31 14 33 15 34 16 35
REMARK SMILES IDX 77 36 17 37 76 38 18 39 19 40 20 41 70 42 21 43 75 44 69 45
REMARK SMILES IDX 71 46 22 47 74 48 68 49 67 50 23 52 55 53 35 54 54 55 36 56
REMARK SMILES IDX 39 57 53 58 72 59 37 60 38 61 52 63 73 64 40 65 24 66 25 67
REMARK SMILES IDX 33 68 26 69 32 70 34 71 31 72 27 73 28 74 29 75 30 76 56 77
REMARK SMILES IDX 57 78 65 79 58 80 64 81 66 82 63 83 59 84 60 85 61 86 62 87
REMARK SMILES IDX 41 88 42 89 50 90 43 91 49 92 51 93 48 94 44 95 45 96 46 97
REMARK SMILES IDX 47 98
REMARK H PARENT 8 6 12 32 71 51 39 62
REMARK Flexibility Score: inf
ROOT
ATOM      1  C   UNL A   1      35.456  22.400  25.528  1.00  0.00     0.042 C 
ENDROOT
BRANCH   1   2
ATOM      2  C   UNL A   1      35.124  23.881  25.612  1.00  0.00     0.117 C 
BRANCH   2   3
ATOM      3  N   UNL A   1      33.791  24.085  26.147  1.00  0.00    -0.354 N 
ATOM      4  C   UNL A   1      32.689  24.651  25.579  1.00  0.00     0.243 C 
ATOM      5  O   UNL A   1      31.614  24.521  26.176  1.00  0.00    -0.273 OA
ATOM      6  H   UNL A   1      33.661  23.761  27.068  1.00  0.00     0.163 HD
BRANCH   4   7
ATOM      7  C   UNL A   1      32.735  25.424  24.232  1.00  0.00     0.184 C 
BRANCH   7   8
ATOM      8  C   UNL A   1      32.753  24.510  22.943  1.00  0.00     0.018 C 
ATOM      9  C   UNL A   1      32.582  25.207  21.592  1.00  0.00     0.010 C 
BRANCH   8  10
ATOM     10  C   UNL A   1      31.868  23.248  23.120  1.00  0.00     0.002 C 
ATOM     11  C   UNL A   1      32.609  21.918  23.075  1.00  0.00     0.004 C 
ENDBRANCH   8  10
ENDBRANCH   7   8
BRANCH   7  12
ATOM     12  N   UNL A   1      31.918  26.674  24.164  1.00  0.00    -0.280 N 
ATOM     13  C   UNL A   1      30.557  26.641  23.879  1.00  0.00     0.266 C 
ATOM     14  C   UNL A   1      32.389  27.924  24.538  1.00  0.00     0.149 C 
ATOM     15  O   UNL A   1      29.828  25.667  23.753  1.00  0.00    -0.268 OA
ATOM     16  C   UNL A   1      30.003  28.009  23.752  1.00  0.00     0.081 C 
ATOM     17  S   UNL A   1      31.199  29.162  24.164  1.00  0.00    -0.054 SA
ATOM     18  S   UNL A   1      33.824  28.353  25.276  1.00  0.00    -0.052 S 
ATOM     19  C   UNL A   1      28.756  28.235  23.307  1.00  0.00     0.029 C 
BRANCH  19  20
ATOM     20  C   UNL A   1      28.306  29.578  22.943  1.00  0.00    -0.020 A 
ATOM     21  C   UNL A   1      28.396  30.660  23.843  1.00  0.00     0.012 A 
ATOM     22  C   UNL A   1      27.944  29.789  21.606  1.00  0.00     0.058 A 
ATOM     23  C   UNL A   1      28.200  31.970  23.388  1.00  0.00     0.051 A 
ATOM     24  C   UNL A   1      27.819  31.087  21.181  1.00  0.00     0.166 A 
ATOM     25  C   UNL A   1      27.958  32.150  22.042  1.00  0.00     0.165 A 
ATOM     26  O   UNL A   1      27.642  31.477  19.890  1.00  0.00    -0.454 OA
ATOM     27  O   UNL A   1      27.891  33.342  21.387  1.00  0.00    -0.454 OA
ATOM     28  C   UNL A   1      27.929  32.881  20.018  1.00  0.00     0.468 C 
ENDBRANCH  19  20
ENDBRANCH   7  12
ENDBRANCH   4   7
ENDBRANCH   2   3
ENDBRANCH   1   2
BRANCH   1  29
ATOM     29  C   UNL A   1      36.732  22.140  24.747  1.00  0.00     0.118 C 
BRANCH  29  30
ATOM     30  N   UNL A   1      37.504  21.065  25.353  1.00  0.00    -0.352 N 
ATOM     31  C   UNL A   1      38.763  21.098  25.910  1.00  0.00     0.251 C 
ATOM     32  H   UNL A   1      37.063  20.185  25.366  1.00  0.00     0.163 HD
ATOM     33  O   UNL A   1      39.372  20.045  26.071  1.00  0.00    -0.269 OA
BRANCH  31  34
ATOM     34  C   UNL A   1      39.380  22.388  26.297  1.00  0.00     0.039 A 
ATOM     35  C   UNL A   1      40.457  22.393  27.188  1.00  0.00     0.014 A 
ATOM     36  C   UNL A   1      38.878  23.601  25.816  1.00  0.00     0.014 A 
ATOM     37  C   UNL A   1      41.052  23.604  27.553  1.00  0.00     0.010 A 
ATOM     38  C   UNL A   1      39.544  24.791  26.086  1.00  0.00     0.010 A 
ATOM     39  C   UNL A   1      40.621  24.812  26.982  1.00  0.00    -0.014 A 
BRANCH  39  40
ATOM     40  C   UNL A   1      41.240  26.114  27.347  1.00  0.00     0.031 A 
ATOM     41  C   UNL A   1      42.628  26.443  26.860  1.00  0.00     0.074 A 
ATOM     42  C   UNL A   1      40.582  26.970  28.154  1.00  0.00     0.049 A 
ATOM     43  N   UNL A   1      43.380  27.478  27.134  1.00  0.00    -0.248 NA
ATOM     44  C   UNL A   1      43.271  25.457  25.976  1.00  0.00     0.031 C 
ATOM     45  C   UNL A   1      39.249  26.745  28.718  1.00  0.00     0.029 A 
ATOM     46  N   UNL A   1      40.943  28.200  28.645  1.00  0.00    -0.354 N 
ATOM     47  C   UNL A   1      44.584  27.259  26.472  1.00  0.00     0.074 A 
ATOM     48  C   UNL A   1      44.489  25.958  25.847  1.00  0.00     0.031 C 
ATOM     49  C   UNL A   1      38.892  27.815  29.446  1.00  0.00     0.029 A 
ATOM     50  C   UNL A   1      39.988  28.778  29.450  1.00  0.00     0.049 A 
ATOM     51  H   UNL A   1      41.805  28.628  28.439  1.00  0.00     0.167 HD
ATOM     52  C   UNL A   1      45.659  28.078  26.367  1.00  0.00     0.034 A 
ATOM     53  C   UNL A   1      40.002  29.944  30.127  1.00  0.00     0.034 A 
ATOM     54  C   UNL A   1      45.726  29.382  26.980  1.00  0.00     0.049 A 
ATOM     55  C   UNL A   1      41.221  30.826  30.021  1.00  0.00     0.074 A 
ATOM     56  C   UNL A   1      46.741  30.320  26.901  1.00  0.00     0.029 A 
ATOM     57  N   UNL A   1      44.741  29.931  27.792  1.00  0.00    -0.354 N 
ATOM     58  N   UNL A   1      42.333  30.624  29.350  1.00  0.00    -0.248 NA
ATOM     59  C   UNL A   1      41.183  32.099  30.752  1.00  0.00     0.031 C 
ATOM     60  C   UNL A   1      46.405  31.399  27.723  1.00  0.00     0.029 A 
ATOM     61  C   UNL A   1      45.140  31.179  28.246  1.00  0.00     0.049 A 
ATOM     62  H   UNL A   1      43.886  29.498  28.012  1.00  0.00     0.167 HD
ATOM     63  C   UNL A   1      43.110  31.762  29.554  1.00  0.00     0.074 A 
ATOM     64  C   UNL A   1      42.332  32.650  30.391  1.00  0.00     0.031 C 
ATOM     65  C   UNL A   1      44.353  32.050  29.087  1.00  0.00     0.034 A 
BRANCH  52  66
ATOM     66  C   UNL A   1      46.849  27.578  25.582  1.00  0.00     0.023 A 
ATOM     67  C   UNL A   1      47.095  27.997  24.262  1.00  0.00     0.031 A 
ATOM     68  C   UNL A   1      47.742  26.652  26.152  1.00  0.00     0.131 A 
ATOM     69  C   UNL A   1      48.154  27.437  23.533  1.00  0.00     0.055 A 
ATOM     70  C   UNL A   1      48.846  26.165  25.450  1.00  0.00     0.041 A 
ATOM     71  F   UNL A   1      47.549  26.195  27.398  1.00  0.00    -0.206 F 
ATOM     72  C   UNL A   1      49.049  26.545  24.126  1.00  0.00     0.022 A 
BRANCH  69  73
ATOM     73  S   UNL A   1      48.255  27.777  21.753  1.00  0.00     0.124 S 
ATOM     74  O   UNL A   1      48.549  26.451  21.217  1.00  0.00    -0.237 OA
ATOM     75  O   UNL A   1      46.930  28.307  21.457  1.00  0.00    -0.237 OA
ATOM     76  O   UNL A   1      49.350  28.740  21.650  1.00  0.00    -0.744 OA
ENDBRANCH  69  73
ENDBRANCH  52  66
BRANCH  53  77
ATOM     77  C   UNL A   1      38.839  30.347  30.970  1.00  0.00     0.023 A 
ATOM     78  C   UNL A   1      37.831  31.182  30.461  1.00  0.00     0.031 A 
ATOM     79  C   UNL A   1      38.742  29.947  32.315  1.00  0.00     0.131 A 
ATOM     80  C   UNL A   1      36.805  31.637  31.305  1.00  0.00     0.055 A 
ATOM     81  C   UNL A   1      37.685  30.351  33.133  1.00  0.00     0.041 A 
ATOM     82  F   UNL A   1      39.676  29.147  32.855  1.00  0.00    -0.206 F 
ATOM     83  C   UNL A   1      36.716  31.215  32.633  1.00  0.00     0.022 A 
BRANCH  80  84
ATOM     84  S   UNL A   1      35.645  32.879  30.669  1.00  0.00     0.124 S 
ATOM     85  O   UNL A   1      34.396  32.464  31.294  1.00  0.00    -0.237 OA
ATOM     86  O   UNL A   1      36.231  34.120  31.163  1.00  0.00    -0.237 OA
ATOM     87  O   UNL A   1      35.711  32.695  29.220  1.00  0.00    -0.744 OA
ENDBRANCH  80  84
ENDBRANCH  53  77
BRANCH  65  88
ATOM     88  C   UNL A   1      44.920  33.405  29.432  1.00  0.00     0.023 A 
ATOM     89  C   UNL A   1      45.696  33.613  30.586  1.00  0.00     0.031 A 
ATOM     90  C   UNL A   1      44.675  34.507  28.594  1.00  0.00     0.131 A 
ATOM     91  C   UNL A   1      46.146  34.902  30.902  1.00  0.00     0.055 A 
ATOM     92  C   UNL A   1      45.184  35.775  28.876  1.00  0.00     0.041 A 
ATOM     93  F   UNL A   1      43.936  34.368  27.481  1.00  0.00    -0.206 F 
ATOM     94  C   UNL A   1      45.912  35.981  30.044  1.00  0.00     0.022 A 
BRANCH  91  95
ATOM     95  S   UNL A   1      46.952  35.175  32.504  1.00  0.00     0.124 S 
ATOM     96  O   UNL A   1      47.955  34.115  32.521  1.00  0.00    -0.237 OA
ATOM     97  O   UNL A   1      47.462  36.535  32.368  1.00  0.00    -0.237 OA
ATOM     98  O   UNL A   1      45.864  35.016  33.467  1.00  0.00    -0.744 OA
ENDBRANCH  91  95
ENDBRANCH  65  88
ENDBRANCH  39  40
ENDBRANCH  31  34
ENDBRANCH  29  30
ENDBRANCH   1  29
TORSDOF 17
ENDMDL
MODEL 3
REMARK VINA RESULT:     -12.0      1.720      7.528
REMARK SMILES CC[C@@H](C)[C@H](C(=O)NCCCNC(=O)c1ccc(-c2c3nc(c(-c4cc(S(=O)(=O)[O-])ccc4F)c4ccc([nH]4)c(-c4cc(S(=O)(=O)[O-])ccc4F)c4nc(c(-c5cc(S(=O)(=O)[O-])ccc5F)c5ccc2[nH]5)C=C4)C=C3)cc1)N1C(=O)/C(=C/c2ccc3c(c2)OCO3)SC1=S
REMARK SMILES IDX 10 1 9 2 8 3 6 4 7 5 5 7 3 8 4 9 2 10 1 11 78 12 79 13 93 14
REMARK SMILES IDX 80 15 81 16 92 17 94 18 82 19 83 20 84 21 88 22 85 23 87 24
REMARK SMILES IDX 86 25 89 26 91 27 90 28 11 29 12 30 13 31 14 33 15 34 16 35
REMARK SMILES IDX 77 36 17 37 76 38 18 39 19 40 20 41 70 42 21 43 75 44 69 45
REMARK SMILES IDX 71 46 22 47 74 48 68 49 67 50 23 52 55 53 35 54 54 55 36 56
REMARK SMILES IDX 39 57 53 58 72 59 37 60 38 61 52 63 73 64 40 65 24 66 25 67
REMARK SMILES IDX 33 68 26 69 32 70 34 71 31 72 27 73 28 74 29 75 30 76 56 77
REMARK SMILES IDX 57 78 65 79 58 80 64 81 66 82 63 83 59 84 60 85 61 86 62 87
REMARK SMILES IDX 41 88 42 89 50 90 43 91 49 92 51 93 48 94 44 95 45 96 46 97
REMARK SMILES IDX 47 98
REMARK H PARENT 8 6 12 32 71 51 39 62
REMARK Flexibility Score: inf
ROOT
ATOM      1  C   UNL A   1      37.893  19.648  24.994  1.00  0.00     0.042 C 
ENDROOT
BRANCH   1   2
ATOM      2  C   UNL A   1      36.689  20.504  24.633  1.00  0.00     0.117 C 
BRANCH   2   3
ATOM      3  N   UNL A   1      36.007  20.971  25.825  1.00  0.00    -0.354 N 
ATOM      4  C   UNL A   1      34.702  21.315  26.017  1.00  0.00     0.243 C 
ATOM      5  O   UNL A   1      34.328  21.489  27.183  1.00  0.00    -0.273 OA
ATOM      6  H   UNL A   1      36.577  21.050  26.623  1.00  0.00     0.163 HD
BRANCH   4   7
ATOM      7  C   UNL A   1      33.690  21.479  24.850  1.00  0.00     0.184 C 
BRANCH   7   8
ATOM      8  C   UNL A   1      32.751  20.232  24.605  1.00  0.00     0.018 C 
ATOM      9  C   UNL A   1      33.051  18.965  25.408  1.00  0.00     0.010 C 
BRANCH   8  10
ATOM     10  C   UNL A   1      32.513  19.981  23.092  1.00  0.00     0.002 C 
ATOM     11  C   UNL A   1      32.185  18.543  22.712  1.00  0.00     0.004 C 
ENDBRANCH   8  10
ENDBRANCH   7   8
BRANCH   7  12
ATOM     12  N   UNL A   1      33.071  22.833  24.703  1.00  0.00    -0.280 N 
ATOM     13  C   UNL A   1      33.550  23.757  23.781  1.00  0.00     0.266 C 
ATOM     14  C   UNL A   1      31.893  23.213  25.329  1.00  0.00     0.149 C 
ATOM     15  O   UNL A   1      34.412  23.604  22.926  1.00  0.00    -0.268 OA
ATOM     16  C   UNL A   1      32.850  25.055  23.911  1.00  0.00     0.081 C 
ATOM     17  S   UNL A   1      31.575  24.919  25.046  1.00  0.00    -0.054 SA
ATOM     18  S   UNL A   1      30.809  22.307  26.219  1.00  0.00    -0.052 S 
ATOM     19  C   UNL A   1      33.256  26.154  23.254  1.00  0.00     0.029 C 
BRANCH  19  20
ATOM     20  C   UNL A   1      32.727  27.478  23.578  1.00  0.00    -0.020 A 
ATOM     21  C   UNL A   1      31.502  27.937  23.052  1.00  0.00     0.012 A 
ATOM     22  C   UNL A   1      33.396  28.207  24.570  1.00  0.00     0.058 A 
ATOM     23  C   UNL A   1      30.900  29.089  23.574  1.00  0.00     0.051 A 
ATOM     24  C   UNL A   1      32.751  29.296  25.100  1.00  0.00     0.166 A 
ATOM     25  C   UNL A   1      31.531  29.717  24.628  1.00  0.00     0.165 A 
ATOM     26  O   UNL A   1      33.173  30.011  26.177  1.00  0.00    -0.454 OA
ATOM     27  O   UNL A   1      31.035  30.751  25.363  1.00  0.00    -0.454 OA
ATOM     28  C   UNL A   1      31.974  30.753  26.462  1.00  0.00     0.468 C 
ENDBRANCH  19  20
ENDBRANCH   7  12
ENDBRANCH   4   7
ENDBRANCH   2   3
ENDBRANCH   1   2
BRANCH   1  29
ATOM     29  C   UNL A   1      38.926  20.417  25.797  1.00  0.00     0.118 C 
BRANCH  29  30
ATOM     30  N   UNL A   1      40.088  19.588  26.083  1.00  0.00    -0.352 N 
ATOM     31  C   UNL A   1      41.390  19.961  26.327  1.00  0.00     0.251 C 
ATOM     32  H   UNL A   1      39.918  18.619  26.105  1.00  0.00     0.163 HD
ATOM     33  O   UNL A   1      42.280  19.122  26.225  1.00  0.00    -0.269 OA
BRANCH  31  34
ATOM     34  C   UNL A   1      41.715  21.359  26.695  1.00  0.00     0.039 A 
ATOM     35  C   UNL A   1      41.873  21.695  28.043  1.00  0.00     0.014 A 
ATOM     36  C   UNL A   1      41.829  22.353  25.719  1.00  0.00     0.014 A 
ATOM     37  C   UNL A   1      42.188  23.008  28.400  1.00  0.00     0.010 A 
ATOM     38  C   UNL A   1      42.259  23.629  26.066  1.00  0.00     0.010 A 
ATOM     39  C   UNL A   1      42.414  23.982  27.413  1.00  0.00    -0.014 A 
BRANCH  39  40
ATOM     40  C   UNL A   1      42.758  25.386  27.764  1.00  0.00     0.031 A 
ATOM     41  C   UNL A   1      44.182  25.862  27.627  1.00  0.00     0.074 A 
ATOM     42  C   UNL A   1      41.809  26.209  28.253  1.00  0.00     0.049 A 
ATOM     43  N   UNL A   1      44.707  27.013  27.960  1.00  0.00    -0.248 NA
ATOM     44  C   UNL A   1      45.152  24.902  27.076  1.00  0.00     0.031 C 
ATOM     45  C   UNL A   1      40.405  25.849  28.466  1.00  0.00     0.029 A 
ATOM     46  N   UNL A   1      41.879  27.516  28.665  1.00  0.00    -0.354 N 
ATOM     47  C   UNL A   1      46.065  26.908  27.675  1.00  0.00     0.074 A 
ATOM     48  C   UNL A   1      46.294  25.556  27.215  1.00  0.00     0.031 C 
ATOM     49  C   UNL A   1      39.742  26.919  28.933  1.00  0.00     0.029 A 
ATOM     50  C   UNL A   1      40.679  28.024  29.108  1.00  0.00     0.049 A 
ATOM     51  H   UNL A   1      42.711  28.042  28.644  1.00  0.00     0.167 HD
ATOM     52  C   UNL A   1      47.028  27.858  27.759  1.00  0.00     0.034 A 
ATOM     53  C   UNL A   1      40.373  29.236  29.612  1.00  0.00     0.034 A 
ATOM     54  C   UNL A   1      46.775  29.209  28.200  1.00  0.00     0.049 A 
ATOM     55  C   UNL A   1      41.468  30.268  29.725  1.00  0.00     0.074 A 
ATOM     56  C   UNL A   1      47.661  30.269  28.276  1.00  0.00     0.029 A 
ATOM     57  N   UNL A   1      45.548  29.684  28.645  1.00  0.00    -0.354 N 
ATOM     58  N   UNL A   1      42.738  30.166  29.406  1.00  0.00    -0.248 NA
ATOM     59  C   UNL A   1      41.085  31.583  30.255  1.00  0.00     0.031 C 
ATOM     60  C   UNL A   1      46.990  31.359  28.838  1.00  0.00     0.029 A 
ATOM     61  C   UNL A   1      45.662  31.010  29.028  1.00  0.00     0.049 A 
ATOM     62  H   UNL A   1      44.718  29.155  28.681  1.00  0.00     0.167 HD
ATOM     63  C   UNL A   1      43.295  31.416  29.665  1.00  0.00     0.074 A 
ATOM     64  C   UNL A   1      42.220  32.257  30.147  1.00  0.00     0.031 C 
ATOM     65  C   UNL A   1      44.579  31.833  29.513  1.00  0.00     0.034 A 
BRANCH  52  66
ATOM     66  C   UNL A   1      48.438  27.463  27.387  1.00  0.00     0.023 A 
ATOM     67  C   UNL A   1      48.973  27.735  26.115  1.00  0.00     0.031 A 
ATOM     68  C   UNL A   1      49.256  26.785  28.310  1.00  0.00     0.131 A 
ATOM     69  C   UNL A   1      50.251  27.266  25.776  1.00  0.00     0.055 A 
ATOM     70  C   UNL A   1      50.560  26.400  27.995  1.00  0.00     0.041 A 
ATOM     71  F   UNL A   1      48.795  26.475  29.532  1.00  0.00    -0.206 F 
ATOM     72  C   UNL A   1      51.060  26.625  26.716  1.00  0.00     0.022 A 
BRANCH  69  73
ATOM     73  S   UNL A   1      50.781  27.374  24.044  1.00  0.00     0.124 S 
ATOM     74  O   UNL A   1      51.974  26.532  24.049  1.00  0.00    -0.237 OA
ATOM     75  O   UNL A   1      49.628  26.844  23.327  1.00  0.00    -0.237 OA
ATOM     76  O   UNL A   1      51.034  28.801  23.852  1.00  0.00    -0.744 OA
ENDBRANCH  69  73
ENDBRANCH  52  66
BRANCH  53  77
ATOM     77  C   UNL A   1      38.983  29.545  30.058  1.00  0.00     0.023 A 
ATOM     78  C   UNL A   1      38.148  30.381  29.299  1.00  0.00     0.031 A 
ATOM     79  C   UNL A   1      38.484  29.053  31.278  1.00  0.00     0.131 A 
ATOM     80  C   UNL A   1      36.886  30.746  29.792  1.00  0.00     0.055 A 
ATOM     81  C   UNL A   1      37.202  29.367  31.734  1.00  0.00     0.041 A 
ATOM     82  F   UNL A   1      39.237  28.248  32.045  1.00  0.00    -0.206 F 
ATOM     83  C   UNL A   1      36.401  30.232  30.996  1.00  0.00     0.022 A 
BRANCH  80  84
ATOM     84  S   UNL A   1      35.927  31.991  28.885  1.00  0.00     0.124 S 
ATOM     85  O   UNL A   1      36.874  33.097  28.812  1.00  0.00    -0.237 OA
ATOM     86  O   UNL A   1      35.645  31.302  27.632  1.00  0.00    -0.237 OA
ATOM     87  O   UNL A   1      34.767  32.218  29.745  1.00  0.00    -0.744 OA
ENDBRANCH  80  84
ENDBRANCH  53  77
BRANCH  65  88
ATOM     88  C   UNL A   1      44.873  33.280  29.826  1.00  0.00     0.023 A 
ATOM     89  C   UNL A   1      44.697  34.297  28.870  1.00  0.00     0.031 A 
ATOM     90  C   UNL A   1      45.342  33.647  31.100  1.00  0.00     0.131 A 
ATOM     91  C   UNL A   1      45.045  35.618  29.184  1.00  0.00     0.055 A 
ATOM     92  C   UNL A   1      45.620  34.973  31.430  1.00  0.00     0.041 A 
ATOM     93  F   UNL A   1      45.533  32.717  32.051  1.00  0.00    -0.206 F 
ATOM     94  C   UNL A   1      45.487  35.966  30.464  1.00  0.00     0.022 A 
BRANCH  91  95
ATOM     95  S   UNL A   1      45.015  36.863  27.865  1.00  0.00     0.124 S 
ATOM     96  O   UNL A   1      46.437  37.125  27.665  1.00  0.00    -0.237 OA
ATOM     97  O   UNL A   1      44.338  36.155  26.784  1.00  0.00    -0.237 OA
ATOM     98  O   UNL A   1      44.258  37.966  28.452  1.00  0.00    -0.744 OA
ENDBRANCH  91  95
ENDBRANCH  65  88
ENDBRANCH  39  40
ENDBRANCH  31  34
ENDBRANCH  29  30
ENDBRANCH   1  29
TORSDOF 17
ENDMDL
