MODEL 1
REMARK VINA RESULT:     -10.1      0.000      0.000
REMARK SMILES C[C@@H](C(=O)NCCCNC(=O)c1ccc(-c2c3nc(c(-c4cc(S(=O)(=O)[O-])ccc4F)c4ccc([nH]4)c(-c4cc(S(=O)(=O)[O-])ccc4F)c4nc(c(-c5cc(S(=O)(=O)[O-])ccc5F)c5ccc2[nH]5)C=C4)C=C3)cc1)c1ccc(C[C@H]2CCCC2=O)cc1
REMARK SMILES IDX 7 1 6 2 5 3 3 4 4 5 2 7 1 8 75 9 76 10 87 11 77 12 86 13
REMARK SMILES IDX 78 14 79 15 80 16 81 17 84 18 82 19 83 20 85 21 8 22 9 23
REMARK SMILES IDX 10 24 11 26 12 27 13 28 74 29 14 30 73 31 15 32 16 33 17 34
REMARK SMILES IDX 67 35 18 36 72 37 66 38 68 39 19 40 71 41 65 42 64 43 20 45
REMARK SMILES IDX 52 46 32 47 51 48 33 49 36 50 50 51 69 52 34 53 35 54 49 56
REMARK SMILES IDX 70 57 37 58 21 59 22 60 30 61 23 62 29 63 31 64 28 65 24 66
REMARK SMILES IDX 25 67 26 68 27 69 53 70 54 71 62 72 55 73 61 74 63 75 60 76
REMARK SMILES IDX 56 77 57 78 58 79 59 80 38 81 39 82 47 83 40 84 46 85 48 86
REMARK SMILES IDX 45 87 41 88 42 89 43 90 44 91
REMARK H PARENT 5 6 9 25 68 44 36 55
REMARK Flexibility Score: inf
ROOT
ATOM      1  C   UNL A   1      33.485  34.035  28.767  1.00  0.00     0.042 C 
ENDROOT
BRANCH   1   2
ATOM      2  C   UNL A   1      34.262  35.155  29.456  1.00  0.00     0.117 C 
BRANCH   2   3
ATOM      3  N   UNL A   1      34.133  35.099  30.899  1.00  0.00    -0.356 N 
ATOM      4  C   UNL A   1      34.633  34.218  31.814  1.00  0.00     0.227 C 
ATOM      5  O   UNL A   1      34.339  34.455  32.987  1.00  0.00    -0.274 OA
ATOM      6  H   UNL A   1      33.591  35.823  31.286  1.00  0.00     0.163 HD
BRANCH   4   7
ATOM      7  C   UNL A   1      35.531  33.052  31.360  1.00  0.00     0.105 C 
ATOM      8  C   UNL A   1      35.735  32.005  32.459  1.00  0.00     0.023 C 
BRANCH   7   9
ATOM      9  C   UNL A   1      36.918  33.439  30.843  1.00  0.00    -0.036 A 
ATOM     10  C   UNL A   1      37.718  34.294  31.620  1.00  0.00     0.005 A 
ATOM     11  C   UNL A   1      37.379  33.087  29.567  1.00  0.00     0.005 A 
ATOM     12  C   UNL A   1      38.932  34.783  31.131  1.00  0.00     0.004 A 
ATOM     13  C   UNL A   1      38.600  33.560  29.085  1.00  0.00     0.004 A 
ATOM     14  C   UNL A   1      39.375  34.436  29.850  1.00  0.00    -0.047 A 
BRANCH  14  15
ATOM     15  C   UNL A   1      40.637  35.031  29.277  1.00  0.00     0.047 C 
BRANCH  15  16
ATOM     16  C   UNL A   1      41.942  34.610  29.964  1.00  0.00     0.060 C 
ATOM     17  C   UNL A   1      41.907  33.314  30.782  1.00  0.00     0.012 C 
ATOM     18  C   UNL A   1      43.047  34.329  28.974  1.00  0.00     0.136 C 
ATOM     19  C   UNL A   1      42.467  32.220  29.881  1.00  0.00     0.009 C 
ATOM     20  C   UNL A   1      43.514  32.899  29.010  1.00  0.00     0.076 C 
ATOM     21  O   UNL A   1      43.530  35.180  28.234  1.00  0.00    -0.299 OA
ENDBRANCH  15  16
ENDBRANCH  14  15
ENDBRANCH   7   9
ENDBRANCH   4   7
ENDBRANCH   2   3
ENDBRANCH   1   2
BRANCH   1  22
ATOM     22  C   UNL A   1      34.343  33.082  27.938  1.00  0.00     0.118 C 
BRANCH  22  23
ATOM     23  N   UNL A   1      33.631  31.874  27.556  1.00  0.00    -0.352 N 
ATOM     24  C   UNL A   1      34.071  30.577  27.487  1.00  0.00     0.251 C 
ATOM     25  H   UNL A   1      32.687  32.008  27.309  1.00  0.00     0.163 HD
ATOM     26  O   UNL A   1      33.354  29.734  26.943  1.00  0.00    -0.269 OA
BRANCH  24  27
ATOM     27  C   UNL A   1      35.391  30.191  28.030  1.00  0.00     0.039 A 
ATOM     28  C   UNL A   1      35.473  29.774  29.361  1.00  0.00     0.014 A 
ATOM     29  C   UNL A   1      36.550  30.262  27.252  1.00  0.00     0.014 A 
ATOM     30  C   UNL A   1      36.702  29.375  29.891  1.00  0.00     0.010 A 
ATOM     31  C   UNL A   1      37.760  29.786  27.757  1.00  0.00     0.010 A 
ATOM     32  C   UNL A   1      37.851  29.341  29.083  1.00  0.00    -0.014 A 
BRANCH  32  33
ATOM     33  C   UNL A   1      39.149  28.850  29.620  1.00  0.00     0.031 A 
ATOM     34  C   UNL A   1      39.765  29.494  30.833  1.00  0.00     0.074 A 
ATOM     35  C   UNL A   1      39.791  27.845  28.990  1.00  0.00     0.049 A 
ATOM     36  N   UNL A   1      40.905  29.234  31.420  1.00  0.00    -0.248 NA
ATOM     37  C   UNL A   1      39.011  30.595  31.451  1.00  0.00     0.031 C 
ATOM     38  C   UNL A   1      39.316  27.167  27.782  1.00  0.00     0.029 A 
ATOM     39  N   UNL A   1      40.980  27.219  29.273  1.00  0.00    -0.354 N 
ATOM     40  C   UNL A   1      41.006  30.136  32.475  1.00  0.00     0.074 A 
ATOM     41  C   UNL A   1      39.845  30.997  32.397  1.00  0.00     0.031 C 
ATOM     42  C   UNL A   1      40.188  26.205  27.445  1.00  0.00     0.029 A 
ATOM     43  C   UNL A   1      41.309  26.225  28.380  1.00  0.00     0.049 A 
ATOM     44  H   UNL A   1      41.545  27.458  30.043  1.00  0.00     0.167 HD
ATOM     45  C   UNL A   1      41.962  30.219  33.435  1.00  0.00     0.034 A 
ATOM     46  C   UNL A   1      42.395  25.429  28.311  1.00  0.00     0.034 A 
ATOM     47  C   UNL A   1      43.114  29.353  33.498  1.00  0.00     0.049 A 
ATOM     48  C   UNL A   1      43.462  25.564  29.370  1.00  0.00     0.074 A 
ATOM     49  C   UNL A   1      44.126  29.330  34.443  1.00  0.00     0.029 A 
ATOM     50  N   UNL A   1      43.416  28.361  32.573  1.00  0.00    -0.354 N 
ATOM     51  N   UNL A   1      43.516  26.393  30.387  1.00  0.00    -0.248 NA
ATOM     52  C   UNL A   1      44.603  24.646  29.278  1.00  0.00     0.031 C 
ATOM     53  C   UNL A   1      45.070  28.375  34.053  1.00  0.00     0.029 A 
ATOM     54  C   UNL A   1      44.610  27.740  32.911  1.00  0.00     0.049 A 
ATOM     55  H   UNL A   1      42.863  28.131  31.792  1.00  0.00     0.167 HD
ATOM     56  C   UNL A   1      44.685  26.071  31.075  1.00  0.00     0.074 A 
ATOM     57  C   UNL A   1      45.288  24.961  30.367  1.00  0.00     0.031 C 
ATOM     58  C   UNL A   1      45.210  26.641  32.190  1.00  0.00     0.034 A 
BRANCH  45  59
ATOM     59  C   UNL A   1      41.802  31.300  34.480  1.00  0.00     0.023 A 
ATOM     60  C   UNL A   1      40.764  31.259  35.428  1.00  0.00     0.031 A 
ATOM     61  C   UNL A   1      42.681  32.396  34.519  1.00  0.00     0.131 A 
ATOM     62  C   UNL A   1      40.582  32.328  36.318  1.00  0.00     0.055 A 
ATOM     63  C   UNL A   1      42.548  33.416  35.465  1.00  0.00     0.041 A 
ATOM     64  F   UNL A   1      43.679  32.505  33.629  1.00  0.00    -0.206 F 
ATOM     65  C   UNL A   1      41.484  33.393  36.361  1.00  0.00     0.022 A 
BRANCH  62  66
ATOM     66  S   UNL A   1      39.066  32.378  37.313  1.00  0.00     0.124 S 
ATOM     67  O   UNL A   1      38.518  31.044  37.079  1.00  0.00    -0.237 OA
ATOM     68  O   UNL A   1      39.578  32.633  38.655  1.00  0.00    -0.237 OA
ATOM     69  O   UNL A   1      38.300  33.471  36.718  1.00  0.00    -0.744 OA
ENDBRANCH  62  66
ENDBRANCH  45  59
BRANCH  46  70
ATOM     70  C   UNL A   1      42.544  24.445  27.199  1.00  0.00     0.023 A 
ATOM     71  C   UNL A   1      41.942  23.178  27.262  1.00  0.00     0.031 A 
ATOM     72  C   UNL A   1      43.337  24.741  26.076  1.00  0.00     0.131 A 
ATOM     73  C   UNL A   1      42.186  22.235  26.251  1.00  0.00     0.055 A 
ATOM     74  C   UNL A   1      43.527  23.821  25.043  1.00  0.00     0.041 A 
ATOM     75  F   UNL A   1      43.934  25.938  25.961  1.00  0.00    -0.206 F 
ATOM     76  C   UNL A   1      42.962  22.554  25.135  1.00  0.00     0.022 A 
BRANCH  73  77
ATOM     77  S   UNL A   1      41.556  20.548  26.467  1.00  0.00     0.124 S 
ATOM     78  O   UNL A   1      41.946  20.260  27.843  1.00  0.00    -0.237 OA
ATOM     79  O   UNL A   1      40.128  20.725  26.228  1.00  0.00    -0.237 OA
ATOM     80  O   UNL A   1      42.269  19.787  25.443  1.00  0.00    -0.744 OA
ENDBRANCH  73  77
ENDBRANCH  46  70
BRANCH  58  81
ATOM     81  C   UNL A   1      46.482  26.034  32.735  1.00  0.00     0.023 A 
ATOM     82  C   UNL A   1      46.462  24.964  33.646  1.00  0.00     0.031 A 
ATOM     83  C   UNL A   1      47.733  26.553  32.353  1.00  0.00     0.131 A 
ATOM     84  C   UNL A   1      47.663  24.491  34.196  1.00  0.00     0.055 A 
ATOM     85  C   UNL A   1      48.928  26.032  32.850  1.00  0.00     0.041 A 
ATOM     86  F   UNL A   1      47.814  27.578  31.490  1.00  0.00    -0.206 F 
ATOM     87  C   UNL A   1      48.897  25.005  33.790  1.00  0.00     0.022 A 
BRANCH  84  88
ATOM     88  S   UNL A   1      47.586  23.270  35.535  1.00  0.00     0.124 S 
ATOM     89  O   UNL A   1      46.583  23.852  36.420  1.00  0.00    -0.237 OA
ATOM     90  O   UNL A   1      47.185  22.057  34.828  1.00  0.00    -0.237 OA
ATOM     91  O   UNL A   1      48.948  23.255  36.065  1.00  0.00    -0.744 OA
ENDBRANCH  84  88
ENDBRANCH  58  81
ENDBRANCH  32  33
ENDBRANCH  24  27
ENDBRANCH  22  23
ENDBRANCH   1  22
TORSDOF 16
ENDMDL
MODEL 2
REMARK VINA RESULT:     -10.1      3.322      6.445
REMARK SMILES C[C@@H](C(=O)NCCCNC(=O)c1ccc(-c2c3nc(c(-c4cc(S(=O)(=O)[O-])ccc4F)c4ccc([nH]4)c(-c4cc(S(=O)(=O)[O-])ccc4F)c4nc(c(-c5cc(S(=O)(=O)[O-])ccc5F)c5ccc2[nH]5)C=C4)C=C3)cc1)c1ccc(C[C@H]2CCCC2=O)cc1
REMARK SMILES IDX 7 1 6 2 5 3 3 4 4 5 2 7 1 8 75 9 76 10 87 11 77 12 86 13
REMARK SMILES IDX 78 14 79 15 80 16 81 17 84 18 82 19 83 20 85 21 8 22 9 23
REMARK SMILES IDX 10 24 11 26 12 27 13 28 74 29 14 30 73 31 15 32 16 33 17 34
REMARK SMILES IDX 67 35 18 36 72 37 66 38 68 39 19 40 71 41 65 42 64 43 20 45
REMARK SMILES IDX 52 46 32 47 51 48 33 49 36 50 50 51 69 52 34 53 35 54 49 56
REMARK SMILES IDX 70 57 37 58 21 59 22 60 30 61 23 62 29 63 31 64 28 65 24 66
REMARK SMILES IDX 25 67 26 68 27 69 53 70 54 71 62 72 55 73 61 74 63 75 60 76
REMARK SMILES IDX 56 77 57 78 58 79 59 80 38 81 39 82 47 83 40 84 46 85 48 86
REMARK SMILES IDX 45 87 41 88 42 89 43 90 44 91
REMARK H PARENT 5 6 9 25 68 44 36 55
REMARK Flexibility Score: inf
ROOT
ATOM      1  C   UNL A   1      32.966  27.946  26.886  1.00  0.00     0.042 C 
ENDROOT
BRANCH   1   2
ATOM      2  C   UNL A   1      31.512  27.972  26.422  1.00  0.00     0.117 C 
BRANCH   2   3
ATOM      3  N   UNL A   1      30.803  26.760  26.785  1.00  0.00    -0.356 N 
ATOM      4  C   UNL A   1      30.368  25.710  26.029  1.00  0.00     0.227 C 
ATOM      5  O   UNL A   1      29.791  24.817  26.650  1.00  0.00    -0.274 OA
ATOM      6  H   UNL A   1      30.601  26.680  27.745  1.00  0.00     0.163 HD
BRANCH   4   7
ATOM      7  C   UNL A   1      30.644  25.677  24.514  1.00  0.00     0.105 C 
ATOM      8  C   UNL A   1      32.139  25.734  24.187  1.00  0.00     0.023 C 
BRANCH   7   9
ATOM      9  C   UNL A   1      29.960  26.767  23.685  1.00  0.00    -0.036 A 
ATOM     10  C   UNL A   1      30.753  27.631  22.913  1.00  0.00     0.005 A 
ATOM     11  C   UNL A   1      28.585  27.029  23.763  1.00  0.00     0.005 A 
ATOM     12  C   UNL A   1      30.189  28.724  22.249  1.00  0.00     0.004 A 
ATOM     13  C   UNL A   1      28.017  28.108  23.085  1.00  0.00     0.004 A 
ATOM     14  C   UNL A   1      28.818  28.983  22.344  1.00  0.00    -0.047 A 
BRANCH  14  15
ATOM     15  C   UNL A   1      28.214  30.210  21.708  1.00  0.00     0.047 C 
BRANCH  15  16
ATOM     16  C   UNL A   1      27.775  31.314  22.678  1.00  0.00     0.060 C 
ATOM     17  C   UNL A   1      28.404  31.297  24.076  1.00  0.00     0.012 C 
ATOM     18  C   UNL A   1      28.143  32.692  22.182  1.00  0.00     0.136 C 
ATOM     19  C   UNL A   1      29.552  32.300  24.045  1.00  0.00     0.009 C 
ATOM     20  C   UNL A   1      29.113  33.401  23.091  1.00  0.00     0.076 C 
ATOM     21  O   UNL A   1      27.683  33.193  21.162  1.00  0.00    -0.299 OA
ENDBRANCH  15  16
ENDBRANCH  14  15
ENDBRANCH   7   9
ENDBRANCH   4   7
ENDBRANCH   2   3
ENDBRANCH   1   2
BRANCH   1  22
ATOM     22  C   UNL A   1      33.886  28.919  26.154  1.00  0.00     0.118 C 
BRANCH  22  23
ATOM     23  N   UNL A   1      33.677  30.300  26.555  1.00  0.00    -0.352 N 
ATOM     24  C   UNL A   1      34.355  31.064  27.471  1.00  0.00     0.251 C 
ATOM     25  H   UNL A   1      32.934  30.758  26.099  1.00  0.00     0.163 HD
ATOM     26  O   UNL A   1      33.882  32.152  27.804  1.00  0.00    -0.269 OA
BRANCH  24  27
ATOM     27  C   UNL A   1      35.619  30.587  28.072  1.00  0.00     0.039 A 
ATOM     28  C   UNL A   1      35.555  29.745  29.187  1.00  0.00     0.014 A 
ATOM     29  C   UNL A   1      36.862  30.980  27.569  1.00  0.00     0.014 A 
ATOM     30  C   UNL A   1      36.733  29.255  29.757  1.00  0.00     0.010 A 
ATOM     31  C   UNL A   1      38.032  30.426  28.088  1.00  0.00     0.010 A 
ATOM     32  C   UNL A   1      37.981  29.560  29.190  1.00  0.00    -0.014 A 
BRANCH  32  33
ATOM     33  C   UNL A   1      39.235  28.984  29.748  1.00  0.00     0.031 A 
ATOM     34  C   UNL A   1      39.871  29.586  30.973  1.00  0.00     0.074 A 
ATOM     35  C   UNL A   1      39.821  27.940  29.126  1.00  0.00     0.049 A 
ATOM     36  N   UNL A   1      40.981  29.251  31.578  1.00  0.00    -0.248 NA
ATOM     37  C   UNL A   1      39.180  30.733  31.580  1.00  0.00     0.031 C 
ATOM     38  C   UNL A   1      39.324  27.297  27.909  1.00  0.00     0.029 A 
ATOM     39  N   UNL A   1      40.962  27.238  29.427  1.00  0.00    -0.354 N 
ATOM     40  C   UNL A   1      41.122  30.144  32.636  1.00  0.00     0.074 A 
ATOM     41  C   UNL A   1      40.022  31.079  32.541  1.00  0.00     0.031 C 
ATOM     42  C   UNL A   1      40.137  26.280  27.584  1.00  0.00     0.029 A 
ATOM     43  C   UNL A   1      41.241  26.226  28.538  1.00  0.00     0.049 A 
ATOM     44  H   UNL A   1      41.527  27.439  30.208  1.00  0.00     0.167 HD
ATOM     45  C   UNL A   1      42.065  30.163  33.613  1.00  0.00     0.034 A 
ATOM     46  C   UNL A   1      42.273  25.361  28.486  1.00  0.00     0.034 A 
ATOM     47  C   UNL A   1      43.158  29.223  33.693  1.00  0.00     0.049 A 
ATOM     48  C   UNL A   1      43.328  25.425  29.563  1.00  0.00     0.074 A 
ATOM     49  C   UNL A   1      44.149  29.133  34.656  1.00  0.00     0.029 A 
ATOM     50  N   UNL A   1      43.409  28.214  32.771  1.00  0.00    -0.354 N 
ATOM     51  N   UNL A   1      43.419  26.247  30.583  1.00  0.00    -0.248 NA
ATOM     52  C   UNL A   1      44.409  24.434  29.489  1.00  0.00     0.031 C 
ATOM     53  C   UNL A   1      45.036  28.119  34.279  1.00  0.00     0.029 A 
ATOM     54  C   UNL A   1      44.555  27.517  33.128  1.00  0.00     0.049 A 
ATOM     55  H   UNL A   1      42.856  28.022  31.980  1.00  0.00     0.167 HD
ATOM     56  C   UNL A   1      44.552  25.849  31.289  1.00  0.00     0.074 A 
ATOM     57  C   UNL A   1      45.094  24.703  30.589  1.00  0.00     0.031 C 
ATOM     58  C   UNL A   1      45.094  26.382  32.415  1.00  0.00     0.034 A 
BRANCH  45  59
ATOM     59  C   UNL A   1      41.958  31.251  34.658  1.00  0.00     0.023 A 
ATOM     60  C   UNL A   1      40.901  31.279  35.584  1.00  0.00     0.031 A 
ATOM     61  C   UNL A   1      42.909  32.284  34.717  1.00  0.00     0.131 A 
ATOM     62  C   UNL A   1      40.774  32.357  36.474  1.00  0.00     0.055 A 
ATOM     63  C   UNL A   1      42.827  33.309  35.663  1.00  0.00     0.041 A 
ATOM     64  F   UNL A   1      43.930  32.326  33.847  1.00  0.00    -0.206 F 
ATOM     65  C   UNL A   1      41.746  33.358  36.538  1.00  0.00     0.022 A 
BRANCH  62  66
ATOM     66  S   UNL A   1      39.246  32.508  37.439  1.00  0.00     0.124 S 
ATOM     67  O   UNL A   1      38.643  33.700  36.847  1.00  0.00    -0.237 OA
ATOM     68  O   UNL A   1      38.571  31.246  37.161  1.00  0.00    -0.237 OA
ATOM     69  O   UNL A   1      39.721  32.675  38.810  1.00  0.00    -0.744 OA
ENDBRANCH  62  66
ENDBRANCH  45  59
BRANCH  46  70
ATOM     70  C   UNL A   1      42.377  24.370  27.375  1.00  0.00     0.023 A 
ATOM     71  C   UNL A   1      41.590  23.208  27.359  1.00  0.00     0.031 A 
ATOM     72  C   UNL A   1      43.306  24.550  26.333  1.00  0.00     0.131 A 
ATOM     73  C   UNL A   1      41.784  22.244  26.358  1.00  0.00     0.055 A 
ATOM     74  C   UNL A   1      43.452  23.616  25.305  1.00  0.00     0.041 A 
ATOM     75  F   UNL A   1      44.082  25.644  26.295  1.00  0.00    -0.206 F 
ATOM     76  C   UNL A   1      42.699  22.447  25.323  1.00  0.00     0.022 A 
BRANCH  73  77
ATOM     77  S   UNL A   1      40.894  20.668  26.484  1.00  0.00     0.124 S 
ATOM     78  O   UNL A   1      39.595  21.016  25.917  1.00  0.00    -0.237 OA
ATOM     79  O   UNL A   1      41.729  19.783  25.680  1.00  0.00    -0.237 OA
ATOM     80  O   UNL A   1      40.895  20.392  27.919  1.00  0.00    -0.744 OA
ENDBRANCH  73  77
ENDBRANCH  46  70
BRANCH  58  81
ATOM     81  C   UNL A   1      46.315  25.693  32.980  1.00  0.00     0.023 A 
ATOM     82  C   UNL A   1      46.209  24.618  33.880  1.00  0.00     0.031 A 
ATOM     83  C   UNL A   1      47.603  26.136  32.630  1.00  0.00     0.131 A 
ATOM     84  C   UNL A   1      47.367  24.067  34.449  1.00  0.00     0.055 A 
ATOM     85  C   UNL A   1      48.753  25.538  33.146  1.00  0.00     0.041 A 
ATOM     86  F   UNL A   1      47.765  27.162  31.778  1.00  0.00    -0.206 F 
ATOM     87  C   UNL A   1      48.638  24.507  34.074  1.00  0.00     0.022 A 
BRANCH  84  88
ATOM     88  S   UNL A   1      47.186  22.841  35.775  1.00  0.00     0.124 S 
ATOM     89  O   UNL A   1      47.599  21.610  35.108  1.00  0.00    -0.237 OA
ATOM     90  O   UNL A   1      48.097  23.349  36.795  1.00  0.00    -0.237 OA
ATOM     91  O   UNL A   1      45.768  22.915  36.119  1.00  0.00    -0.744 OA
ENDBRANCH  84  88
ENDBRANCH  58  81
ENDBRANCH  32  33
ENDBRANCH  24  27
ENDBRANCH  22  23
ENDBRANCH   1  22
TORSDOF 16
ENDMDL
MODEL 3
REMARK VINA RESULT:     -10.1      3.724      6.801
REMARK SMILES C[C@@H](C(=O)NCCCNC(=O)c1ccc(-c2c3nc(c(-c4cc(S(=O)(=O)[O-])ccc4F)c4ccc([nH]4)c(-c4cc(S(=O)(=O)[O-])ccc4F)c4nc(c(-c5cc(S(=O)(=O)[O-])ccc5F)c5ccc2[nH]5)C=C4)C=C3)cc1)c1ccc(C[C@H]2CCCC2=O)cc1
REMARK SMILES IDX 7 1 6 2 5 3 3 4 4 5 2 7 1 8 75 9 76 10 87 11 77 12 86 13
REMARK SMILES IDX 78 14 79 15 80 16 81 17 84 18 82 19 83 20 85 21 8 22 9 23
REMARK SMILES IDX 10 24 11 26 12 27 13 28 74 29 14 30 73 31 15 32 16 33 17 34
REMARK SMILES IDX 67 35 18 36 72 37 66 38 68 39 19 40 71 41 65 42 64 43 20 45
REMARK SMILES IDX 52 46 32 47 51 48 33 49 36 50 50 51 69 52 34 53 35 54 49 56
REMARK SMILES IDX 70 57 37 58 21 59 22 60 30 61 23 62 29 63 31 64 28 65 24 66
REMARK SMILES IDX 25 67 26 68 27 69 53 70 54 71 62 72 55 73 61 74 63 75 60 76
REMARK SMILES IDX 56 77 57 78 58 79 59 80 38 81 39 82 47 83 40 84 46 85 48 86
REMARK SMILES IDX 45 87 41 88 42 89 43 90 44 91
REMARK H PARENT 5 6 9 25 68 44 36 55
REMARK Flexibility Score: inf
ROOT
ATOM      1  C   UNL A   1      31.435  29.138  26.705  1.00  0.00     0.042 C 
ENDROOT
BRANCH   1   2
ATOM      2  C   UNL A   1      31.795  27.666  26.895  1.00  0.00     0.117 C 
BRANCH   2   3
ATOM      3  N   UNL A   1      32.685  27.186  25.856  1.00  0.00    -0.356 N 
ATOM      4  C   UNL A   1      32.442  26.458  24.727  1.00  0.00     0.227 C 
ATOM      5  O   UNL A   1      33.432  26.211  24.037  1.00  0.00    -0.274 OA
ATOM      6  H   UNL A   1      33.630  27.426  25.988  1.00  0.00     0.163 HD
BRANCH   4   7
ATOM      7  C   UNL A   1      31.004  26.039  24.367  1.00  0.00     0.105 C 
ATOM      8  C   UNL A   1      30.954  24.727  23.579  1.00  0.00     0.023 C 
BRANCH   7   9
ATOM      9  C   UNL A   1      30.184  27.067  23.585  1.00  0.00    -0.036 A 
ATOM     10  C   UNL A   1      30.858  28.038  22.827  1.00  0.00     0.005 A 
ATOM     11  C   UNL A   1      28.790  27.168  23.694  1.00  0.00     0.005 A 
ATOM     12  C   UNL A   1      30.161  29.078  22.207  1.00  0.00     0.004 A 
ATOM     13  C   UNL A   1      28.090  28.195  23.059  1.00  0.00     0.004 A 
ATOM     14  C   UNL A   1      28.771  29.177  22.333  1.00  0.00    -0.047 A 
BRANCH  14  15
ATOM     15  C   UNL A   1      28.019  30.344  21.746  1.00  0.00     0.047 C 
BRANCH  15  16
ATOM     16  C   UNL A   1      27.668  31.470  22.727  1.00  0.00     0.060 C 
ATOM     17  C   UNL A   1      28.316  31.406  24.114  1.00  0.00     0.012 C 
ATOM     18  C   UNL A   1      28.116  32.824  22.230  1.00  0.00     0.136 C 
ATOM     19  C   UNL A   1      29.526  32.332  24.069  1.00  0.00     0.009 C 
ATOM     20  C   UNL A   1      29.144  33.463  23.126  1.00  0.00     0.076 C 
ATOM     21  O   UNL A   1      27.674  33.358  21.218  1.00  0.00    -0.299 OA
ENDBRANCH  15  16
ENDBRANCH  14  15
ENDBRANCH   7   9
ENDBRANCH   4   7
ENDBRANCH   2   3
ENDBRANCH   1   2
BRANCH   1  22
ATOM     22  C   UNL A   1      32.527  29.982  26.052  1.00  0.00     0.118 C 
BRANCH  22  23
ATOM     23  N   UNL A   1      32.413  31.394  26.376  1.00  0.00    -0.352 N 
ATOM     24  C   UNL A   1      33.145  32.159  27.248  1.00  0.00     0.251 C 
ATOM     25  H   UNL A   1      31.702  31.876  25.895  1.00  0.00     0.163 HD
ATOM     26  O   UNL A   1      32.749  33.294  27.520  1.00  0.00    -0.269 OA
BRANCH  24  27
ATOM     27  C   UNL A   1      34.376  31.631  27.877  1.00  0.00     0.039 A 
ATOM     28  C   UNL A   1      35.468  32.488  28.037  1.00  0.00     0.014 A 
ATOM     29  C   UNL A   1      34.473  30.297  28.283  1.00  0.00     0.014 A 
ATOM     30  C   UNL A   1      36.631  32.024  28.655  1.00  0.00     0.010 A 
ATOM     31  C   UNL A   1      35.604  29.859  28.972  1.00  0.00     0.010 A 
ATOM     32  C   UNL A   1      36.697  30.715  29.162  1.00  0.00    -0.014 A 
BRANCH  32  33
ATOM     33  C   UNL A   1      37.907  30.236  29.885  1.00  0.00     0.031 A 
ATOM     34  C   UNL A   1      38.196  30.710  31.285  1.00  0.00     0.074 A 
ATOM     35  C   UNL A   1      38.765  29.402  29.264  1.00  0.00     0.049 A 
ATOM     36  N   UNL A   1      39.217  30.438  32.056  1.00  0.00    -0.248 NA
ATOM     37  C   UNL A   1      37.221  31.633  31.884  1.00  0.00     0.031 C 
ATOM     38  C   UNL A   1      38.616  28.905  27.894  1.00  0.00     0.029 A 
ATOM     39  N   UNL A   1      39.933  28.825  29.698  1.00  0.00    -0.354 N 
ATOM     40  C   UNL A   1      39.008  31.154  33.231  1.00  0.00     0.074 A 
ATOM     41  C   UNL A   1      37.802  31.929  33.037  1.00  0.00     0.031 C 
ATOM     42  C   UNL A   1      39.636  28.080  27.612  1.00  0.00     0.029 A 
ATOM     43  C   UNL A   1      40.538  28.023  28.757  1.00  0.00     0.049 A 
ATOM     44  H   UNL A   1      40.304  28.972  30.598  1.00  0.00     0.167 HD
ATOM     45  C   UNL A   1      39.738  31.143  34.375  1.00  0.00     0.034 A 
ATOM     46  C   UNL A   1      41.694  27.332  28.804  1.00  0.00     0.034 A 
ATOM     47  C   UNL A   1      40.941  30.365  34.553  1.00  0.00     0.049 A 
ATOM     48  C   UNL A   1      42.508  27.363  30.075  1.00  0.00     0.074 A 
ATOM     49  C   UNL A   1      41.740  30.256  35.679  1.00  0.00     0.029 A 
ATOM     50  N   UNL A   1      41.525  29.568  33.576  1.00  0.00    -0.354 N 
ATOM     51  N   UNL A   1      42.269  28.010  31.193  1.00  0.00    -0.248 NA
ATOM     52  C   UNL A   1      43.736  26.559  30.094  1.00  0.00     0.031 C 
ATOM     53  C   UNL A   1      42.840  29.452  35.361  1.00  0.00     0.029 A 
ATOM     54  C   UNL A   1      42.687  28.988  34.065  1.00  0.00     0.049 A 
ATOM     55  H   UNL A   1      41.167  29.433  32.669  1.00  0.00     0.167 HD
ATOM     56  C   UNL A   1      43.304  27.663  32.059  1.00  0.00     0.074 A 
ATOM     57  C   UNL A   1      44.152  26.736  31.338  1.00  0.00     0.031 C 
ATOM     58  C   UNL A   1      43.533  28.073  33.333  1.00  0.00     0.034 A 
BRANCH  45  59
ATOM     59  C   UNL A   1      39.259  32.018  35.512  1.00  0.00     0.023 A 
ATOM     60  C   UNL A   1      39.642  33.367  35.613  1.00  0.00     0.031 A 
ATOM     61  C   UNL A   1      38.428  31.495  36.518  1.00  0.00     0.131 A 
ATOM     62  C   UNL A   1      39.264  34.123  36.733  1.00  0.00     0.055 A 
ATOM     63  C   UNL A   1      37.982  32.278  37.587  1.00  0.00     0.041 A 
ATOM     64  F   UNL A   1      38.045  30.210  36.490  1.00  0.00    -0.206 F 
ATOM     65  C   UNL A   1      38.413  33.595  37.707  1.00  0.00     0.022 A 
BRANCH  62  66
ATOM     66  S   UNL A   1      40.021  35.753  36.974  1.00  0.00     0.124 S 
ATOM     67  O   UNL A   1      39.278  36.255  38.127  1.00  0.00    -0.237 OA
ATOM     68  O   UNL A   1      41.420  35.420  37.212  1.00  0.00    -0.237 OA
ATOM     69  O   UNL A   1      39.748  36.447  35.717  1.00  0.00    -0.744 OA
ENDBRANCH  62  66
ENDBRANCH  45  59
BRANCH  46  70
ATOM     70  C   UNL A   1      42.166  26.563  27.616  1.00  0.00     0.023 A 
ATOM     71  C   UNL A   1      41.836  25.209  27.446  1.00  0.00     0.031 A 
ATOM     72  C   UNL A   1      43.001  27.162  26.655  1.00  0.00     0.131 A 
ATOM     73  C   UNL A   1      42.381  24.484  26.375  1.00  0.00     0.055 A 
ATOM     74  C   UNL A   1      43.491  26.452  25.557  1.00  0.00     0.041 A 
ATOM     75  F   UNL A   1      43.347  28.454  26.764  1.00  0.00    -0.206 F 
ATOM     76  C   UNL A   1      43.193  25.100  25.421  1.00  0.00     0.022 A 
BRANCH  73  77
ATOM     77  S   UNL A   1      42.094  22.694  26.301  1.00  0.00     0.124 S 
ATOM     78  O   UNL A   1      42.850  22.226  27.458  1.00  0.00    -0.237 OA
ATOM     79  O   UNL A   1      40.641  22.617  26.409  1.00  0.00    -0.237 OA
ATOM     80  O   UNL A   1      42.643  22.316  25.001  1.00  0.00    -0.744 OA
ENDBRANCH  73  77
ENDBRANCH  46  70
BRANCH  58  81
ATOM     81  C   UNL A   1      44.727  27.478  34.041  1.00  0.00     0.023 A 
ATOM     82  C   UNL A   1      44.632  26.287  34.783  1.00  0.00     0.031 A 
ATOM     83  C   UNL A   1      45.975  28.126  33.990  1.00  0.00     0.131 A 
ATOM     84  C   UNL A   1      45.745  25.819  35.498  1.00  0.00     0.055 A 
ATOM     85  C   UNL A   1      47.096  27.617  34.647  1.00  0.00     0.041 A 
ATOM     86  F   UNL A   1      46.125  29.268  33.301  1.00  0.00    -0.206 F 
ATOM     87  C   UNL A   1      46.981  26.465  35.420  1.00  0.00     0.022 A 
BRANCH  84  88
ATOM     88  S   UNL A   1      45.526  24.414  36.626  1.00  0.00     0.124 S 
ATOM     89  O   UNL A   1      45.384  25.079  37.917  1.00  0.00    -0.237 OA
ATOM     90  O   UNL A   1      44.321  23.778  36.101  1.00  0.00    -0.237 OA
ATOM     91  O   UNL A   1      46.756  23.643  36.456  1.00  0.00    -0.744 OA
ENDBRANCH  84  88
ENDBRANCH  58  81
ENDBRANCH  32  33
ENDBRANCH  24  27
ENDBRANCH  22  23
ENDBRANCH   1  22
TORSDOF 16
ENDMDL
