MODEL 1
REMARK VINA RESULT:     -11.7      0.000      0.000
REMARK SMILES Cc1ccc(C(F)(F)F)cc1/C=C/C(=O)NCCCNC(=O)c1ccc(-c2c3nc(c(-c4cc(S(=O)(=O)[O-])ccc4F)c4ccc([nH]4)c(-c4cc(S(=O)(=O)[O-])ccc4F)c4nc(c(-c5cc(S(=O)(=O)[O-])ccc5F)c5ccc2[nH]5)C=C4)C=C3)cc1
REMARK SMILES IDX 18 1 17 2 16 3 14 4 15 5 13 7 12 8 11 9 1 10 2 11 3 12 4 13
REMARK SMILES IDX 10 14 5 15 6 16 7 17 8 18 9 19 19 20 20 21 21 22 22 24 23 25
REMARK SMILES IDX 24 26 85 27 25 28 84 29 26 30 27 31 28 32 78 33 29 34 83 35
REMARK SMILES IDX 77 36 79 37 30 38 82 39 76 40 75 41 31 43 63 44 43 45 62 46
REMARK SMILES IDX 44 47 47 48 61 49 80 50 45 51 46 52 60 54 81 55 48 56 32 57
REMARK SMILES IDX 33 58 41 59 34 60 40 61 42 62 39 63 35 64 36 65 37 66 38 67
REMARK SMILES IDX 64 68 65 69 73 70 66 71 72 72 74 73 71 74 67 75 68 76 69 77
REMARK SMILES IDX 70 78 49 79 50 80 58 81 51 82 57 83 59 84 56 85 52 86 53 87
REMARK SMILES IDX 54 88 55 89
REMARK H PARENT 16 6 20 23 79 42 47 53
REMARK Flexibility Score: inf
ROOT
ATOM      1  C   UNL A   1      33.758  36.380  32.456  1.00  0.00     0.042 C 
ENDROOT
BRANCH   1   2
ATOM      2  C   UNL A   1      32.788  36.531  31.311  1.00  0.00     0.118 C 
BRANCH   2   3
ATOM      3  N   UNL A   1      33.270  37.242  30.139  1.00  0.00    -0.352 N 
ATOM      4  C   UNL A   1      33.607  36.692  28.930  1.00  0.00     0.244 C 
ATOM      5  O   UNL A   1      34.014  37.365  27.985  1.00  0.00    -0.270 OA
ATOM      6  H   UNL A   1      33.363  38.219  30.220  1.00  0.00     0.163 HD
BRANCH   4   7
ATOM      7  C   UNL A   1      33.632  35.213  28.842  1.00  0.00     0.072 C 
ATOM      8  C   UNL A   1      34.788  34.541  28.699  1.00  0.00     0.014 C 
BRANCH   8   9
ATOM      9  C   UNL A   1      34.830  33.140  28.257  1.00  0.00    -0.022 A 
ATOM     10  C   UNL A   1      37.393  32.942  28.578  1.00  0.00     0.045 C 
ATOM     11  C   UNL A   1      36.035  32.404  28.202  1.00  0.00    -0.044 A 
ATOM     12  C   UNL A   1      36.005  31.076  27.743  1.00  0.00     0.004 A 
ATOM     13  C   UNL A   1      34.812  30.485  27.335  1.00  0.00     0.013 A 
ATOM     14  C   UNL A   1      33.634  32.529  27.850  1.00  0.00     0.021 A 
ATOM     15  C   UNL A   1      33.616  31.210  27.374  1.00  0.00     0.056 A 
BRANCH  15  16
ATOM     16  C   UNL A   1      32.331  30.571  26.921  1.00  0.00     0.416 C 
ATOM     17  F   UNL A   1      31.283  31.444  26.931  1.00  0.00    -0.166 F 
ATOM     18  F   UNL A   1      32.405  30.102  25.643  1.00  0.00    -0.166 F 
ATOM     19  F   UNL A   1      31.936  29.515  27.685  1.00  0.00    -0.166 F 
ENDBRANCH  15  16
ENDBRANCH   8   9
ENDBRANCH   4   7
ENDBRANCH   2   3
ENDBRANCH   1   2
BRANCH   1  20
ATOM     20  C   UNL A   1      33.650  35.072  33.205  1.00  0.00     0.118 C 
BRANCH  20  21
ATOM     21  N   UNL A   1      33.738  33.882  32.344  1.00  0.00    -0.352 N 
ATOM     22  C   UNL A   1      34.819  33.064  32.034  1.00  0.00     0.251 C 
ATOM     23  H   UNL A   1      32.891  33.621  31.917  1.00  0.00     0.163 HD
ATOM     24  O   UNL A   1      34.689  32.062  31.337  1.00  0.00    -0.269 OA
BRANCH  22  25
ATOM     25  C   UNL A   1      36.129  33.313  32.691  1.00  0.00     0.039 A 
ATOM     26  C   UNL A   1      37.012  34.133  31.978  1.00  0.00     0.014 A 
ATOM     27  C   UNL A   1      36.610  32.367  33.576  1.00  0.00     0.014 A 
ATOM     28  C   UNL A   1      38.320  33.705  31.811  1.00  0.00     0.010 A 
ATOM     29  C   UNL A   1      37.841  31.834  33.274  1.00  0.00     0.010 A 
ATOM     30  C   UNL A   1      38.656  32.461  32.326  1.00  0.00    -0.014 A 
BRANCH  30  31
ATOM     31  C   UNL A   1      39.885  31.761  32.011  1.00  0.00     0.031 A 
ATOM     32  C   UNL A   1      39.737  30.561  31.180  1.00  0.00     0.074 A 
ATOM     33  C   UNL A   1      41.085  32.220  32.423  1.00  0.00     0.049 A 
ATOM     34  N   UNL A   1      40.522  29.549  31.213  1.00  0.00    -0.248 NA
ATOM     35  C   UNL A   1      38.590  30.377  30.295  1.00  0.00     0.031 C 
ATOM     36  C   UNL A   1      42.409  31.745  32.032  1.00  0.00     0.029 A 
ATOM     37  N   UNL A   1      41.336  33.106  33.468  1.00  0.00    -0.354 N 
ATOM     38  C   UNL A   1      40.173  28.733  30.161  1.00  0.00     0.074 A 
ATOM     39  C   UNL A   1      38.896  29.219  29.714  1.00  0.00     0.031 C 
ATOM     40  C   UNL A   1      43.301  32.122  32.966  1.00  0.00     0.029 A 
ATOM     41  C   UNL A   1      42.561  32.726  34.059  1.00  0.00     0.049 A 
ATOM     42  H   UNL A   1      40.764  33.859  33.744  1.00  0.00     0.167 HD
ATOM     43  C   UNL A   1      41.097  27.847  29.695  1.00  0.00     0.034 A 
ATOM     44  C   UNL A   1      42.575  32.293  35.357  1.00  0.00     0.034 A 
ATOM     45  C   UNL A   1      42.295  27.878  30.544  1.00  0.00     0.049 A 
ATOM     46  C   UNL A   1      42.842  30.798  35.474  1.00  0.00     0.074 A 
ATOM     47  C   UNL A   1      43.524  28.509  30.440  1.00  0.00     0.029 A 
ATOM     48  N   UNL A   1      42.174  27.511  31.877  1.00  0.00    -0.354 N 
ATOM     49  N   UNL A   1      43.025  29.988  34.465  1.00  0.00    -0.248 NA
ATOM     50  C   UNL A   1      42.840  30.094  36.752  1.00  0.00     0.031 C 
ATOM     51  C   UNL A   1      44.107  28.563  31.743  1.00  0.00     0.029 A 
ATOM     52  C   UNL A   1      43.264  27.919  32.629  1.00  0.00     0.049 A 
ATOM     53  H   UNL A   1      41.404  27.020  32.245  1.00  0.00     0.167 HD
ATOM     54  C   UNL A   1      43.115  28.691  34.909  1.00  0.00     0.074 A 
ATOM     55  C   UNL A   1      42.963  28.817  36.354  1.00  0.00     0.031 C 
ATOM     56  C   UNL A   1      43.276  27.624  34.059  1.00  0.00     0.034 A 
BRANCH  43  57
ATOM     57  C   UNL A   1      41.041  27.200  28.326  1.00  0.00     0.023 A 
ATOM     58  C   UNL A   1      41.027  25.793  28.256  1.00  0.00     0.031 A 
ATOM     59  C   UNL A   1      41.058  27.855  27.075  1.00  0.00     0.131 A 
ATOM     60  C   UNL A   1      41.123  25.113  27.027  1.00  0.00     0.055 A 
ATOM     61  C   UNL A   1      41.204  27.183  25.854  1.00  0.00     0.041 A 
ATOM     62  F   UNL A   1      40.876  29.173  26.951  1.00  0.00    -0.206 F 
ATOM     63  C   UNL A   1      41.245  25.801  25.825  1.00  0.00     0.022 A 
BRANCH  60  64
ATOM     64  S   UNL A   1      41.082  23.303  27.023  1.00  0.00     0.124 S 
ATOM     65  O   UNL A   1      41.486  22.985  28.388  1.00  0.00    -0.237 OA
ATOM     66  O   UNL A   1      39.693  23.028  26.675  1.00  0.00    -0.237 OA
ATOM     67  O   UNL A   1      42.057  22.946  25.992  1.00  0.00    -0.744 OA
ENDBRANCH  60  64
ENDBRANCH  43  57
BRANCH  44  68
ATOM     68  C   UNL A   1      41.613  33.087  36.195  1.00  0.00     0.023 A 
ATOM     69  C   UNL A   1      40.260  32.666  36.171  1.00  0.00     0.031 A 
ATOM     70  C   UNL A   1      42.070  33.758  37.336  1.00  0.00     0.131 A 
ATOM     71  C   UNL A   1      39.515  32.662  37.361  1.00  0.00     0.055 A 
ATOM     72  C   UNL A   1      41.290  33.817  38.493  1.00  0.00     0.041 A 
ATOM     73  F   UNL A   1      43.331  34.210  37.409  1.00  0.00    -0.206 F 
ATOM     74  C   UNL A   1      40.044  33.194  38.536  1.00  0.00     0.022 A 
BRANCH  71  75
ATOM     75  S   UNL A   1      37.985  31.684  37.436  1.00  0.00     0.124 S 
ATOM     76  O   UNL A   1      37.819  31.475  38.869  1.00  0.00    -0.237 OA
ATOM     77  O   UNL A   1      37.016  32.568  36.796  1.00  0.00    -0.237 OA
ATOM     78  O   UNL A   1      38.298  30.485  36.657  1.00  0.00    -0.744 OA
ENDBRANCH  71  75
ENDBRANCH  44  68
BRANCH  56  79
ATOM     79  C   UNL A   1      43.419  26.175  34.506  1.00  0.00     0.023 A 
ATOM     80  C   UNL A   1      44.623  25.472  34.397  1.00  0.00     0.031 A 
ATOM     81  C   UNL A   1      42.331  25.419  35.018  1.00  0.00     0.131 A 
ATOM     82  C   UNL A   1      44.772  24.182  34.934  1.00  0.00     0.055 A 
ATOM     83  C   UNL A   1      42.459  24.107  35.483  1.00  0.00     0.041 A 
ATOM     84  F   UNL A   1      41.088  25.908  35.102  1.00  0.00    -0.206 F 
ATOM     85  C   UNL A   1      43.695  23.489  35.476  1.00  0.00     0.022 A 
BRANCH  82  86
ATOM     86  S   UNL A   1      46.428  23.458  34.963  1.00  0.00     0.124 S 
ATOM     87  O   UNL A   1      47.219  24.455  34.239  1.00  0.00    -0.237 OA
ATOM     88  O   UNL A   1      46.688  23.377  36.401  1.00  0.00    -0.237 OA
ATOM     89  O   UNL A   1      46.262  22.182  34.287  1.00  0.00    -0.744 OA
ENDBRANCH  82  86
ENDBRANCH  56  79
ENDBRANCH  30  31
ENDBRANCH  22  25
ENDBRANCH  20  21
ENDBRANCH   1  20
TORSDOF 15
ENDMDL
MODEL 2
REMARK VINA RESULT:     -11.2      3.369      5.286
REMARK SMILES Cc1ccc(C(F)(F)F)cc1/C=C/C(=O)NCCCNC(=O)c1ccc(-c2c3nc(c(-c4cc(S(=O)(=O)[O-])ccc4F)c4ccc([nH]4)c(-c4cc(S(=O)(=O)[O-])ccc4F)c4nc(c(-c5cc(S(=O)(=O)[O-])ccc5F)c5ccc2[nH]5)C=C4)C=C3)cc1
REMARK SMILES IDX 18 1 17 2 16 3 14 4 15 5 13 7 12 8 11 9 1 10 2 11 3 12 4 13
REMARK SMILES IDX 10 14 5 15 6 16 7 17 8 18 9 19 19 20 20 21 21 22 22 24 23 25
REMARK SMILES IDX 24 26 85 27 25 28 84 29 26 30 27 31 28 32 78 33 29 34 83 35
REMARK SMILES IDX 77 36 79 37 30 38 82 39 76 40 75 41 31 43 63 44 43 45 62 46
REMARK SMILES IDX 44 47 47 48 61 49 80 50 45 51 46 52 60 54 81 55 48 56 32 57
REMARK SMILES IDX 33 58 41 59 34 60 40 61 42 62 39 63 35 64 36 65 37 66 38 67
REMARK SMILES IDX 64 68 65 69 73 70 66 71 72 72 74 73 71 74 67 75 68 76 69 77
REMARK SMILES IDX 70 78 49 79 50 80 58 81 51 82 57 83 59 84 56 85 52 86 53 87
REMARK SMILES IDX 54 88 55 89
REMARK H PARENT 16 6 20 23 79 42 47 53
REMARK Flexibility Score: inf
ROOT
ATOM      1  C   UNL A   1      33.366  31.271  27.653  1.00  0.00     0.042 C 
ENDROOT
BRANCH   1   2
ATOM      2  C   UNL A   1      33.122  30.409  26.440  1.00  0.00     0.118 C 
BRANCH   2   3
ATOM      3  N   UNL A   1      33.845  29.149  26.381  1.00  0.00    -0.352 N 
ATOM      4  C   UNL A   1      33.388  27.967  25.861  1.00  0.00     0.244 C 
ATOM      5  O   UNL A   1      34.063  26.939  25.853  1.00  0.00    -0.270 OA
ATOM      6  H   UNL A   1      34.758  29.144  26.751  1.00  0.00     0.163 HD
BRANCH   4   7
ATOM      7  C   UNL A   1      31.964  27.912  25.451  1.00  0.00     0.072 C 
ATOM      8  C   UNL A   1      31.594  28.140  24.179  1.00  0.00     0.014 C 
BRANCH   8   9
ATOM      9  C   UNL A   1      30.204  28.444  23.811  1.00  0.00    -0.022 A 
ATOM     10  C   UNL A   1      29.503  25.951  23.746  1.00  0.00     0.045 C 
ATOM     11  C   UNL A   1      29.240  27.430  23.611  1.00  0.00    -0.044 A 
ATOM     12  C   UNL A   1      27.936  27.791  23.233  1.00  0.00     0.004 A 
ATOM     13  C   UNL A   1      27.588  29.126  23.044  1.00  0.00     0.013 A 
ATOM     14  C   UNL A   1      29.836  29.785  23.623  1.00  0.00     0.021 A 
ATOM     15  C   UNL A   1      28.538  30.136  23.226  1.00  0.00     0.056 A 
BRANCH  15  16
ATOM     16  C   UNL A   1      28.160  31.576  23.010  1.00  0.00     0.416 C 
ATOM     17  F   UNL A   1      27.862  31.845  21.706  1.00  0.00    -0.166 F 
ATOM     18  F   UNL A   1      27.054  31.937  23.720  1.00  0.00    -0.166 F 
ATOM     19  F   UNL A   1      29.133  32.464  23.355  1.00  0.00    -0.166 F 
ENDBRANCH  15  16
ENDBRANCH   8   9
ENDBRANCH   4   7
ENDBRANCH   2   3
ENDBRANCH   1   2
BRANCH   1  20
ATOM     20  C   UNL A   1      34.730  31.921  27.700  1.00  0.00     0.118 C 
BRANCH  20  21
ATOM     21  N   UNL A   1      35.219  32.186  29.063  1.00  0.00    -0.352 N 
ATOM     22  C   UNL A   1      35.969  31.395  29.927  1.00  0.00     0.251 C 
ATOM     23  H   UNL A   1      34.973  33.068  29.423  1.00  0.00     0.163 HD
ATOM     24  O   UNL A   1      36.345  31.813  31.018  1.00  0.00    -0.269 OA
BRANCH  22  25
ATOM     25  C   UNL A   1      36.468  30.077  29.455  1.00  0.00     0.039 A 
ATOM     26  C   UNL A   1      36.936  29.218  30.458  1.00  0.00     0.014 A 
ATOM     27  C   UNL A   1      36.957  29.983  28.167  1.00  0.00     0.014 A 
ATOM     28  C   UNL A   1      38.170  28.612  30.284  1.00  0.00     0.010 A 
ATOM     29  C   UNL A   1      38.256  29.544  28.049  1.00  0.00     0.010 A 
ATOM     30  C   UNL A   1      38.886  28.937  29.139  1.00  0.00    -0.014 A 
BRANCH  30  31
ATOM     31  C   UNL A   1      40.282  28.606  28.938  1.00  0.00     0.031 A 
ATOM     32  C   UNL A   1      40.564  27.199  28.636  1.00  0.00     0.074 A 
ATOM     33  C   UNL A   1      41.245  29.550  28.983  1.00  0.00     0.049 A 
ATOM     34  N   UNL A   1      41.654  26.593  28.932  1.00  0.00    -0.248 NA
ATOM     35  C   UNL A   1      39.555  26.323  28.048  1.00  0.00     0.031 C 
ATOM     36  C   UNL A   1      42.652  29.414  28.617  1.00  0.00     0.029 A 
ATOM     37  N   UNL A   1      41.169  30.805  29.583  1.00  0.00    -0.354 N 
ATOM     38  C   UNL A   1      41.614  25.364  28.313  1.00  0.00     0.074 A 
ATOM     39  C   UNL A   1      40.248  25.196  27.897  1.00  0.00     0.031 C 
ATOM     40  C   UNL A   1      43.354  30.394  29.215  1.00  0.00     0.029 A 
ATOM     41  C   UNL A   1      42.449  31.105  30.099  1.00  0.00     0.049 A 
ATOM     42  H   UNL A   1      40.369  31.377  29.639  1.00  0.00     0.167 HD
ATOM     43  C   UNL A   1      42.790  24.716  28.084  1.00  0.00     0.034 A 
ATOM     44  C   UNL A   1      42.612  31.246  31.450  1.00  0.00     0.034 A 
ATOM     45  C   UNL A   1      43.900  25.463  28.689  1.00  0.00     0.049 A 
ATOM     46  C   UNL A   1      43.386  30.091  32.072  1.00  0.00     0.074 A 
ATOM     47  C   UNL A   1      44.830  26.362  28.192  1.00  0.00     0.029 A 
ATOM     48  N   UNL A   1      43.915  25.632  30.067  1.00  0.00    -0.354 N 
ATOM     49  N   UNL A   1      43.843  29.056  31.417  1.00  0.00    -0.248 NA
ATOM     50  C   UNL A   1      43.630  29.987  33.507  1.00  0.00     0.031 C 
ATOM     51  C   UNL A   1      45.357  27.109  29.291  1.00  0.00     0.029 A 
ATOM     52  C   UNL A   1      44.792  26.630  30.458  1.00  0.00     0.049 A 
ATOM     53  H   UNL A   1      43.365  25.105  30.691  1.00  0.00     0.167 HD
ATOM     54  C   UNL A   1      44.380  28.143  32.291  1.00  0.00     0.074 A 
ATOM     55  C   UNL A   1      44.193  28.770  33.594  1.00  0.00     0.031 C 
ATOM     56  C   UNL A   1      44.906  26.942  31.881  1.00  0.00     0.034 A 
BRANCH  43  57
ATOM     57  C   UNL A   1      42.965  23.603  27.071  1.00  0.00     0.023 A 
ATOM     58  C   UNL A   1      42.327  22.372  27.320  1.00  0.00     0.031 A 
ATOM     59  C   UNL A   1      43.759  23.633  25.905  1.00  0.00     0.131 A 
ATOM     60  C   UNL A   1      42.555  21.244  26.509  1.00  0.00     0.055 A 
ATOM     61  C   UNL A   1      44.028  22.500  25.125  1.00  0.00     0.041 A 
ATOM     62  F   UNL A   1      44.274  24.765  25.414  1.00  0.00    -0.206 F 
ATOM     63  C   UNL A   1      43.430  21.291  25.429  1.00  0.00     0.022 A 
BRANCH  60  64
ATOM     64  S   UNL A   1      41.682  19.703  26.887  1.00  0.00     0.124 S 
ATOM     65  O   UNL A   1      40.866  20.087  28.034  1.00  0.00    -0.237 OA
ATOM     66  O   UNL A   1      40.971  19.439  25.642  1.00  0.00    -0.237 OA
ATOM     67  O   UNL A   1      42.766  18.767  27.187  1.00  0.00    -0.744 OA
ENDBRANCH  60  64
ENDBRANCH  43  57
BRANCH  44  68
ATOM     68  C   UNL A   1      41.432  31.949  32.060  1.00  0.00     0.023 A 
ATOM     69  C   UNL A   1      40.590  31.166  32.886  1.00  0.00     0.031 A 
ATOM     70  C   UNL A   1      41.489  33.328  32.302  1.00  0.00     0.131 A 
ATOM     71  C   UNL A   1      40.080  31.714  34.074  1.00  0.00     0.055 A 
ATOM     72  C   UNL A   1      40.913  33.878  33.449  1.00  0.00     0.041 A 
ATOM     73  F   UNL A   1      42.244  34.130  31.536  1.00  0.00    -0.206 F 
ATOM     74  C   UNL A   1      40.280  33.059  34.382  1.00  0.00     0.022 A 
BRANCH  71  75
ATOM     75  S   UNL A   1      39.430  30.595  35.350  1.00  0.00     0.124 S 
ATOM     76  O   UNL A   1      39.427  31.442  36.536  1.00  0.00    -0.237 OA
ATOM     77  O   UNL A   1      38.122  30.232  34.812  1.00  0.00    -0.237 OA
ATOM     78  O   UNL A   1      40.390  29.490  35.368  1.00  0.00    -0.744 OA
ENDBRANCH  71  75
ENDBRANCH  44  68
BRANCH  56  79
ATOM     79  C   UNL A   1      45.547  25.916  32.806  1.00  0.00     0.023 A 
ATOM     80  C   UNL A   1      44.795  25.111  33.669  1.00  0.00     0.031 A 
ATOM     81  C   UNL A   1      46.952  25.737  32.898  1.00  0.00     0.131 A 
ATOM     82  C   UNL A   1      45.389  24.082  34.417  1.00  0.00     0.055 A 
ATOM     83  C   UNL A   1      47.552  24.763  33.702  1.00  0.00     0.041 A 
ATOM     84  F   UNL A   1      47.822  26.490  32.213  1.00  0.00    -0.206 F 
ATOM     85  C   UNL A   1      46.768  23.901  34.444  1.00  0.00     0.022 A 
BRANCH  82  86
ATOM     86  S   UNL A   1      44.304  22.941  35.308  1.00  0.00     0.124 S 
ATOM     87  O   UNL A   1      43.018  23.640  35.272  1.00  0.00    -0.237 OA
ATOM     88  O   UNL A   1      44.390  21.743  34.472  1.00  0.00    -0.237 OA
ATOM     89  O   UNL A   1      44.918  22.831  36.620  1.00  0.00    -0.744 OA
ENDBRANCH  82  86
ENDBRANCH  56  79
ENDBRANCH  30  31
ENDBRANCH  22  25
ENDBRANCH  20  21
ENDBRANCH   1  20
TORSDOF 15
ENDMDL
MODEL 3
REMARK VINA RESULT:     -11.2      3.706      5.584
REMARK SMILES Cc1ccc(C(F)(F)F)cc1/C=C/C(=O)NCCCNC(=O)c1ccc(-c2c3nc(c(-c4cc(S(=O)(=O)[O-])ccc4F)c4ccc([nH]4)c(-c4cc(S(=O)(=O)[O-])ccc4F)c4nc(c(-c5cc(S(=O)(=O)[O-])ccc5F)c5ccc2[nH]5)C=C4)C=C3)cc1
REMARK SMILES IDX 18 1 17 2 16 3 14 4 15 5 13 7 12 8 11 9 1 10 2 11 3 12 4 13
REMARK SMILES IDX 10 14 5 15 6 16 7 17 8 18 9 19 19 20 20 21 21 22 22 24 23 25
REMARK SMILES IDX 24 26 85 27 25 28 84 29 26 30 27 31 28 32 78 33 29 34 83 35
REMARK SMILES IDX 77 36 79 37 30 38 82 39 76 40 75 41 31 43 63 44 43 45 62 46
REMARK SMILES IDX 44 47 47 48 61 49 80 50 45 51 46 52 60 54 81 55 48 56 32 57
REMARK SMILES IDX 33 58 41 59 34 60 40 61 42 62 39 63 35 64 36 65 37 66 38 67
REMARK SMILES IDX 64 68 65 69 73 70 66 71 72 72 74 73 71 74 67 75 68 76 69 77
REMARK SMILES IDX 70 78 49 79 50 80 58 81 51 82 57 83 59 84 56 85 52 86 53 87
REMARK SMILES IDX 54 88 55 89
REMARK H PARENT 16 6 20 23 79 42 47 53
REMARK Flexibility Score: inf
ROOT
ATOM      1  C   UNL A   1      33.286  30.683  27.528  1.00  0.00     0.042 C 
ENDROOT
BRANCH   1   2
ATOM      2  C   UNL A   1      33.422  29.595  26.492  1.00  0.00     0.118 C 
BRANCH   2   3
ATOM      3  N   UNL A   1      32.223  29.255  25.744  1.00  0.00    -0.352 N 
ATOM      4  C   UNL A   1      31.832  28.002  25.350  1.00  0.00     0.244 C 
ATOM      5  O   UNL A   1      30.801  27.798  24.712  1.00  0.00    -0.270 OA
ATOM      6  H   UNL A   1      31.630  30.001  25.494  1.00  0.00     0.163 HD
BRANCH   4   7
ATOM      7  C   UNL A   1      32.790  26.893  25.571  1.00  0.00     0.072 C 
ATOM      8  C   UNL A   1      32.469  25.622  25.268  1.00  0.00     0.014 C 
BRANCH   8   9
ATOM      9  C   UNL A   1      33.229  24.478  25.790  1.00  0.00    -0.022 A 
ATOM     10  C   UNL A   1      31.143  23.368  26.855  1.00  0.00     0.045 C 
ATOM     11  C   UNL A   1      32.613  23.438  26.523  1.00  0.00    -0.044 A 
ATOM     12  C   UNL A   1      33.406  22.388  27.017  1.00  0.00     0.004 A 
ATOM     13  C   UNL A   1      34.781  22.366  26.803  1.00  0.00     0.013 A 
ATOM     14  C   UNL A   1      34.615  24.438  25.576  1.00  0.00     0.021 A 
ATOM     15  C   UNL A   1      35.402  23.396  26.089  1.00  0.00     0.056 A 
BRANCH  15  16
ATOM     16  C   UNL A   1      36.890  23.374  25.870  1.00  0.00     0.416 C 
ATOM     17  F   UNL A   1      37.574  23.989  26.878  1.00  0.00    -0.166 F 
ATOM     18  F   UNL A   1      37.388  22.107  25.810  1.00  0.00    -0.166 F 
ATOM     19  F   UNL A   1      37.292  23.989  24.724  1.00  0.00    -0.166 F 
ENDBRANCH  15  16
ENDBRANCH   8   9
ENDBRANCH   4   7
ENDBRANCH   2   3
ENDBRANCH   1   2
BRANCH   1  20
ATOM     20  C   UNL A   1      34.373  31.733  27.484  1.00  0.00     0.118 C 
BRANCH  20  21
ATOM     21  N   UNL A   1      34.902  32.099  28.807  1.00  0.00    -0.352 N 
ATOM     22  C   UNL A   1      35.741  31.405  29.673  1.00  0.00     0.251 C 
ATOM     23  H   UNL A   1      34.616  32.982  29.134  1.00  0.00     0.163 HD
ATOM     24  O   UNL A   1      36.136  31.902  30.724  1.00  0.00    -0.269 OA
BRANCH  22  25
ATOM     25  C   UNL A   1      36.304  30.098  29.244  1.00  0.00     0.039 A 
ATOM     26  C   UNL A   1      36.786  29.284  30.277  1.00  0.00     0.014 A 
ATOM     27  C   UNL A   1      36.824  29.994  27.968  1.00  0.00     0.014 A 
ATOM     28  C   UNL A   1      38.048  28.727  30.143  1.00  0.00     0.010 A 
ATOM     29  C   UNL A   1      38.142  29.607  27.888  1.00  0.00     0.010 A 
ATOM     30  C   UNL A   1      38.773  29.053  29.005  1.00  0.00    -0.014 A 
BRANCH  30  31
ATOM     31  C   UNL A   1      40.186  28.777  28.840  1.00  0.00     0.031 A 
ATOM     32  C   UNL A   1      40.528  27.392  28.502  1.00  0.00     0.074 A 
ATOM     33  C   UNL A   1      41.114  29.751  28.949  1.00  0.00     0.049 A 
ATOM     34  N   UNL A   1      41.628  26.813  28.815  1.00  0.00    -0.248 NA
ATOM     35  C   UNL A   1      39.570  26.502  27.852  1.00  0.00     0.031 C 
ATOM     36  C   UNL A   1      42.535  29.676  28.626  1.00  0.00     0.029 A 
ATOM     37  N   UNL A   1      40.974  30.982  29.587  1.00  0.00    -0.354 N 
ATOM     38  C   UNL A   1      41.651  25.606  28.154  1.00  0.00     0.074 A 
ATOM     39  C   UNL A   1      40.306  25.405  27.688  1.00  0.00     0.031 C 
ATOM     40  C   UNL A   1      43.183  30.658  29.278  1.00  0.00     0.029 A 
ATOM     41  C   UNL A   1      42.226  31.308  30.155  1.00  0.00     0.049 A 
ATOM     42  H   UNL A   1      40.153  31.525  29.634  1.00  0.00     0.167 HD
ATOM     43  C   UNL A   1      42.855  25.006  27.944  1.00  0.00     0.034 A 
ATOM     44  C   UNL A   1      42.340  31.409  31.514  1.00  0.00     0.034 A 
ATOM     45  C   UNL A   1      43.919  25.770  28.610  1.00  0.00     0.049 A 
ATOM     46  C   UNL A   1      43.133  30.261  32.124  1.00  0.00     0.074 A 
ATOM     47  C   UNL A   1      44.833  26.716  28.175  1.00  0.00     0.029 A 
ATOM     48  N   UNL A   1      43.883  25.892  29.993  1.00  0.00    -0.354 N 
ATOM     49  N   UNL A   1      43.647  29.264  31.451  1.00  0.00    -0.248 NA
ATOM     50  C   UNL A   1      43.334  30.116  33.562  1.00  0.00     0.031 C 
ATOM     51  C   UNL A   1      45.297  27.443  29.314  1.00  0.00     0.029 A 
ATOM     52  C   UNL A   1      44.711  26.906  30.446  1.00  0.00     0.049 A 
ATOM     53  H   UNL A   1      43.332  25.327  30.581  1.00  0.00     0.167 HD
ATOM     54  C   UNL A   1      44.187  28.341  32.312  1.00  0.00     0.074 A 
ATOM     55  C   UNL A   1      43.936  28.917  33.628  1.00  0.00     0.031 C 
ATOM     56  C   UNL A   1      44.768  27.173  31.881  1.00  0.00     0.034 A 
BRANCH  43  57
ATOM     57  C   UNL A   1      43.102  23.934  26.902  1.00  0.00     0.023 A 
ATOM     58  C   UNL A   1      42.421  22.709  27.035  1.00  0.00     0.031 A 
ATOM     59  C   UNL A   1      44.002  23.997  25.816  1.00  0.00     0.131 A 
ATOM     60  C   UNL A   1      42.701  21.613  26.198  1.00  0.00     0.055 A 
ATOM     61  C   UNL A   1      44.320  22.894  25.013  1.00  0.00     0.041 A 
ATOM     62  F   UNL A   1      44.581  25.137  25.427  1.00  0.00    -0.206 F 
ATOM     63  C   UNL A   1      43.673  21.687  25.206  1.00  0.00     0.022 A 
BRANCH  60  64
ATOM     64  S   UNL A   1      41.768  20.078  26.424  1.00  0.00     0.124 S 
ATOM     65  O   UNL A   1      42.216  19.638  27.741  1.00  0.00    -0.237 OA
ATOM     66  O   UNL A   1      40.389  20.539  26.327  1.00  0.00    -0.237 OA
ATOM     67  O   UNL A   1      42.217  19.243  25.309  1.00  0.00    -0.744 OA
ENDBRANCH  60  64
ENDBRANCH  43  57
BRANCH  44  68
ATOM     68  C   UNL A   1      41.117  32.050  32.107  1.00  0.00     0.023 A 
ATOM     69  C   UNL A   1      40.208  31.186  32.765  1.00  0.00     0.031 A 
ATOM     70  C   UNL A   1      41.158  33.391  32.513  1.00  0.00     0.131 A 
ATOM     71  C   UNL A   1      39.606  31.598  33.966  1.00  0.00     0.055 A 
ATOM     72  C   UNL A   1      40.493  33.810  33.667  1.00  0.00     0.041 A 
ATOM     73  F   UNL A   1      41.974  34.267  31.909  1.00  0.00    -0.206 F 
ATOM     74  C   UNL A   1      39.784  32.895  34.444  1.00  0.00     0.022 A 
BRANCH  71  75
ATOM     75  S   UNL A   1      38.853  30.346  35.045  1.00  0.00     0.124 S 
ATOM     76  O   UNL A   1      38.258  29.424  34.085  1.00  0.00    -0.237 OA
ATOM     77  O   UNL A   1      40.001  29.845  35.795  1.00  0.00    -0.237 OA
ATOM     78  O   UNL A   1      37.903  31.109  35.856  1.00  0.00    -0.744 OA
ENDBRANCH  71  75
ENDBRANCH  44  68
BRANCH  56  79
ATOM     79  C   UNL A   1      45.414  26.139  32.793  1.00  0.00     0.023 A 
ATOM     80  C   UNL A   1      44.666  25.317  33.643  1.00  0.00     0.031 A 
ATOM     81  C   UNL A   1      46.820  25.968  32.885  1.00  0.00     0.131 A 
ATOM     82  C   UNL A   1      45.266  24.282  34.379  1.00  0.00     0.055 A 
ATOM     83  C   UNL A   1      47.426  24.988  33.677  1.00  0.00     0.041 A 
ATOM     84  F   UNL A   1      47.687  26.736  32.212  1.00  0.00    -0.206 F 
ATOM     85  C   UNL A   1      46.646  24.110  34.405  1.00  0.00     0.022 A 
BRANCH  82  86
ATOM     86  S   UNL A   1      44.187  23.121  35.251  1.00  0.00     0.124 S 
ATOM     87  O   UNL A   1      44.520  23.378  36.653  1.00  0.00    -0.237 OA
ATOM     88  O   UNL A   1      42.863  23.578  34.827  1.00  0.00    -0.237 OA
ATOM     89  O   UNL A   1      44.591  21.821  34.741  1.00  0.00    -0.744 OA
ENDBRANCH  82  86
ENDBRANCH  56  79
ENDBRANCH  30  31
ENDBRANCH  22  25
ENDBRANCH  20  21
ENDBRANCH   1  20
TORSDOF 15
ENDMDL
