MODEL 1
REMARK VINA RESULT:     -11.3      0.000      0.000
REMARK SMILES C[C@H](NC(=O)NCCc1ccccc1F)C(=O)NCCCNC(=O)c1ccc(-c2c3nc(c(-c4cc(S(=O)(=O)[O-])ccc4F)c4ccc([nH]4)c(-c4cc(S(=O)(=O)[O-])ccc4F)c4nc(c(-c5cc(S(=O)(=O)[O-])ccc5F)c5ccc2[nH]5)C=C4)C=C3)cc1
REMARK SMILES IDX 19 1 18 2 16 3 17 4 2 6 1 7 3 8 4 9 5 11 6 12 7 14 8 15 9 16
REMARK SMILES IDX 10 17 14 18 11 19 13 20 15 21 12 22 20 23 21 24 22 25 23 26
REMARK SMILES IDX 24 28 25 29 26 30 87 31 27 32 86 33 28 34 29 35 30 36 80 37
REMARK SMILES IDX 31 38 85 39 79 40 81 41 32 42 84 43 78 44 77 45 33 47 65 48
REMARK SMILES IDX 45 49 64 50 46 51 49 52 63 53 82 54 47 55 48 56 62 58 83 59
REMARK SMILES IDX 50 60 34 61 35 62 43 63 36 64 42 65 44 66 41 67 37 68 38 69
REMARK SMILES IDX 39 70 40 71 66 72 67 73 75 74 68 75 74 76 76 77 73 78 69 79
REMARK SMILES IDX 70 80 71 81 72 82 51 83 52 84 60 85 53 86 59 87 61 88 58 89
REMARK SMILES IDX 54 90 55 91 56 92 57 93
REMARK H PARENT 18 5 3 10 6 13 22 27 81 46 49 57
REMARK Flexibility Score: inf
ROOT
ATOM      1  C   UNL A   1      31.194  28.497  24.660  1.00  0.00     0.117 C 
ENDROOT
BRANCH   1   2
ATOM      2  N   UNL A   1      30.817  27.273  24.003  1.00  0.00    -0.354 N 
ATOM      3  C   UNL A   1      30.819  25.997  24.474  1.00  0.00     0.242 C 
ATOM      4  O   UNL A   1      30.199  25.164  23.801  1.00  0.00    -0.273 OA
ATOM      5  H   UNL A   1      30.512  27.373  23.072  1.00  0.00     0.163 HD
BRANCH   3   6
ATOM      6  C   UNL A   1      31.404  25.584  25.851  1.00  0.00     0.170 C 
ATOM      7  C   UNL A   1      32.921  25.457  25.803  1.00  0.00     0.041 C 
BRANCH   6   8
ATOM      8  N   UNL A   1      30.659  24.618  26.671  1.00  0.00    -0.327 N 
ATOM      9  C   UNL A   1      30.361  23.332  26.793  1.00  0.00     0.315 C 
ATOM     10  H   UNL A   1      30.217  25.109  27.400  1.00  0.00     0.166 HD
ATOM     11  O   UNL A   1      29.571  23.037  27.695  1.00  0.00    -0.249 OA
ATOM     12  N   UNL A   1      30.808  22.331  26.045  1.00  0.00    -0.338 N 
ATOM     13  H   UNL A   1      30.403  21.472  26.304  1.00  0.00     0.165 HD
BRANCH  12  14
ATOM     14  C   UNL A   1      31.738  22.177  24.943  1.00  0.00     0.122 C 
BRANCH  14  15
ATOM     15  C   UNL A   1      32.925  21.285  25.304  1.00  0.00     0.060 C 
BRANCH  15  16
ATOM     16  C   UNL A   1      34.211  22.051  25.134  1.00  0.00    -0.010 A 
ATOM     17  C   UNL A   1      34.626  22.487  23.869  1.00  0.00     0.007 A 
ATOM     18  C   UNL A   1      34.948  22.443  26.256  1.00  0.00     0.126 A 
ATOM     19  C   UNL A   1      35.726  23.336  23.744  1.00  0.00     0.000 A 
ATOM     20  C   UNL A   1      36.056  23.274  26.135  1.00  0.00     0.039 A 
ATOM     21  F   UNL A   1      34.569  22.046  27.479  1.00  0.00    -0.207 F 
ATOM     22  C   UNL A   1      36.437  23.734  24.876  1.00  0.00     0.003 A 
ENDBRANCH  15  16
ENDBRANCH  14  15
ENDBRANCH  12  14
ENDBRANCH   6   8
ENDBRANCH   3   6
ENDBRANCH   1   2
BRANCH   1  23
ATOM     23  C   UNL A   1      32.624  28.928  24.394  1.00  0.00     0.042 C 
BRANCH  23  24
ATOM     24  C   UNL A   1      33.384  29.274  25.666  1.00  0.00     0.118 C 
BRANCH  24  25
ATOM     25  N   UNL A   1      33.048  30.600  26.172  1.00  0.00    -0.352 N 
ATOM     26  C   UNL A   1      33.632  31.347  27.160  1.00  0.00     0.251 C 
ATOM     27  H   UNL A   1      32.278  31.027  25.732  1.00  0.00     0.163 HD
ATOM     28  O   UNL A   1      33.059  32.366  27.550  1.00  0.00    -0.269 OA
BRANCH  26  29
ATOM     29  C   UNL A   1      34.915  30.933  27.765  1.00  0.00     0.039 A 
ATOM     30  C   UNL A   1      35.955  31.861  27.834  1.00  0.00     0.014 A 
ATOM     31  C   UNL A   1      35.107  29.634  28.243  1.00  0.00     0.014 A 
ATOM     32  C   UNL A   1      37.165  31.498  28.426  1.00  0.00     0.010 A 
ATOM     33  C   UNL A   1      36.271  29.308  28.929  1.00  0.00     0.010 A 
ATOM     34  C   UNL A   1      37.321  30.230  29.011  1.00  0.00    -0.014 A 
BRANCH  34  35
ATOM     35  C   UNL A   1      38.587  29.860  29.692  1.00  0.00     0.031 A 
ATOM     36  C   UNL A   1      38.903  30.410  31.056  1.00  0.00     0.074 A 
ATOM     37  C   UNL A   1      39.452  29.034  29.071  1.00  0.00     0.049 A 
ATOM     38  N   UNL A   1      39.945  30.183  31.812  1.00  0.00    -0.248 NA
ATOM     39  C   UNL A   1      37.939  31.358  31.642  1.00  0.00     0.031 C 
ATOM     40  C   UNL A   1      39.271  28.481  27.725  1.00  0.00     0.029 A 
ATOM     41  N   UNL A   1      40.644  28.498  29.488  1.00  0.00    -0.354 N 
ATOM     42  C   UNL A   1      39.764  30.957  32.953  1.00  0.00     0.074 A 
ATOM     43  C   UNL A   1      38.548  31.713  32.763  1.00  0.00     0.031 C 
ATOM     44  C   UNL A   1      40.279  27.637  27.457  1.00  0.00     0.029 A 
ATOM     45  C   UNL A   1      41.203  27.622  28.586  1.00  0.00     0.049 A 
ATOM     46  H   UNL A   1      41.061  28.719  30.353  1.00  0.00     0.167 HD
ATOM     47  C   UNL A   1      40.525  31.004  34.071  1.00  0.00     0.034 A 
ATOM     48  C   UNL A   1      42.330  26.886  28.660  1.00  0.00     0.034 A 
ATOM     49  C   UNL A   1      41.716  30.219  34.258  1.00  0.00     0.049 A 
ATOM     50  C   UNL A   1      43.172  26.970  29.905  1.00  0.00     0.074 A 
ATOM     51  C   UNL A   1      42.527  30.146  35.375  1.00  0.00     0.029 A 
ATOM     52  N   UNL A   1      42.267  29.373  33.305  1.00  0.00    -0.354 N 
ATOM     53  N   UNL A   1      42.964  27.683  30.988  1.00  0.00    -0.248 NA
ATOM     54  C   UNL A   1      44.395  26.157  29.943  1.00  0.00     0.031 C 
ATOM     55  C   UNL A   1      43.605  29.311  35.076  1.00  0.00     0.029 A 
ATOM     56  C   UNL A   1      43.426  28.802  33.798  1.00  0.00     0.049 A 
ATOM     57  H   UNL A   1      41.890  29.206  32.411  1.00  0.00     0.167 HD
ATOM     58  C   UNL A   1      44.018  27.388  31.844  1.00  0.00     0.074 A 
ATOM     59  C   UNL A   1      44.863  26.434  31.155  1.00  0.00     0.031 C 
ATOM     60  C   UNL A   1      44.258  27.859  33.093  1.00  0.00     0.034 A 
BRANCH  47  61
ATOM     61  C   UNL A   1      40.097  31.928  35.179  1.00  0.00     0.023 A 
ATOM     62  C   UNL A   1      39.201  31.511  36.178  1.00  0.00     0.031 A 
ATOM     63  C   UNL A   1      40.623  33.228  35.263  1.00  0.00     0.131 A 
ATOM     64  C   UNL A   1      38.829  32.398  37.198  1.00  0.00     0.055 A 
ATOM     65  C   UNL A   1      40.300  34.085  36.317  1.00  0.00     0.041 A 
ATOM     66  F   UNL A   1      41.469  33.684  34.326  1.00  0.00    -0.206 F 
ATOM     67  C   UNL A   1      39.392  33.673  37.289  1.00  0.00     0.022 A 
BRANCH  64  68
ATOM     68  S   UNL A   1      37.541  31.888  38.368  1.00  0.00     0.124 S 
ATOM     69  O   UNL A   1      37.237  30.538  37.900  1.00  0.00    -0.237 OA
ATOM     70  O   UNL A   1      38.225  31.979  39.652  1.00  0.00    -0.237 OA
ATOM     71  O   UNL A   1      36.479  32.869  38.157  1.00  0.00    -0.744 OA
ENDBRANCH  64  68
ENDBRANCH  47  61
BRANCH  48  72
ATOM     72  C   UNL A   1      42.712  26.003  27.523  1.00  0.00     0.023 A 
ATOM     73  C   UNL A   1      42.260  24.676  27.452  1.00  0.00     0.031 A 
ATOM     74  C   UNL A   1      43.513  26.487  26.472  1.00  0.00     0.131 A 
ATOM     75  C   UNL A   1      42.623  23.873  26.359  1.00  0.00     0.055 A 
ATOM     76  C   UNL A   1      43.839  25.696  25.369  1.00  0.00     0.041 A 
ATOM     77  F   UNL A   1      43.961  27.753  26.489  1.00  0.00    -0.206 F 
ATOM     78  C   UNL A   1      43.397  24.378  25.311  1.00  0.00     0.022 A 
BRANCH  75  79
ATOM     79  S   UNL A   1      42.088  22.139  26.334  1.00  0.00     0.124 S 
ATOM     80  O   UNL A   1      40.647  22.277  26.157  1.00  0.00    -0.237 OA
ATOM     81  O   UNL A   1      42.829  21.608  25.194  1.00  0.00    -0.237 OA
ATOM     82  O   UNL A   1      42.512  21.633  27.638  1.00  0.00    -0.744 OA
ENDBRANCH  75  79
ENDBRANCH  48  72
BRANCH  60  83
ATOM     83  C   UNL A   1      45.465  27.338  33.823  1.00  0.00     0.023 A 
ATOM     84  C   UNL A   1      46.687  28.027  33.798  1.00  0.00     0.031 A 
ATOM     85  C   UNL A   1      45.349  26.204  34.646  1.00  0.00     0.131 A 
ATOM     86  C   UNL A   1      47.755  27.572  34.586  1.00  0.00     0.055 A 
ATOM     87  C   UNL A   1      46.400  25.779  35.458  1.00  0.00     0.041 A 
ATOM     88  F   UNL A   1      44.195  25.520  34.707  1.00  0.00    -0.206 F 
ATOM     89  C   UNL A   1      47.611  26.466  35.431  1.00  0.00     0.022 A 
BRANCH  86  90
ATOM     90  S   UNL A   1      49.338  28.451  34.506  1.00  0.00     0.124 S 
ATOM     91  O   UNL A   1      49.701  28.288  33.101  1.00  0.00    -0.237 OA
ATOM     92  O   UNL A   1      48.974  29.802  34.918  1.00  0.00    -0.237 OA
ATOM     93  O   UNL A   1      50.182  27.723  35.453  1.00  0.00    -0.744 OA
ENDBRANCH  86  90
ENDBRANCH  60  83
ENDBRANCH  34  35
ENDBRANCH  26  29
ENDBRANCH  24  25
ENDBRANCH  23  24
ENDBRANCH   1  23
TORSDOF 17
ENDMDL
MODEL 2
REMARK VINA RESULT:     -11.2      2.667      3.857
REMARK SMILES C[C@H](NC(=O)NCCc1ccccc1F)C(=O)NCCCNC(=O)c1ccc(-c2c3nc(c(-c4cc(S(=O)(=O)[O-])ccc4F)c4ccc([nH]4)c(-c4cc(S(=O)(=O)[O-])ccc4F)c4nc(c(-c5cc(S(=O)(=O)[O-])ccc5F)c5ccc2[nH]5)C=C4)C=C3)cc1
REMARK SMILES IDX 19 1 18 2 16 3 17 4 2 6 1 7 3 8 4 9 5 11 6 12 7 14 8 15 9 16
REMARK SMILES IDX 10 17 14 18 11 19 13 20 15 21 12 22 20 23 21 24 22 25 23 26
REMARK SMILES IDX 24 28 25 29 26 30 87 31 27 32 86 33 28 34 29 35 30 36 80 37
REMARK SMILES IDX 31 38 85 39 79 40 81 41 32 42 84 43 78 44 77 45 33 47 65 48
REMARK SMILES IDX 45 49 64 50 46 51 49 52 63 53 82 54 47 55 48 56 62 58 83 59
REMARK SMILES IDX 50 60 34 61 35 62 43 63 36 64 42 65 44 66 41 67 37 68 38 69
REMARK SMILES IDX 39 70 40 71 66 72 67 73 75 74 68 75 74 76 76 77 73 78 69 79
REMARK SMILES IDX 70 80 71 81 72 82 51 83 52 84 60 85 53 86 59 87 61 88 58 89
REMARK SMILES IDX 54 90 55 91 56 92 57 93
REMARK H PARENT 18 5 3 10 6 13 22 27 81 46 49 57
REMARK Flexibility Score: inf
ROOT
ATOM      1  C   UNL A   1      31.283  30.322  25.692  1.00  0.00     0.117 C 
ENDROOT
BRANCH   1   2
ATOM      2  N   UNL A   1      32.323  29.949  24.767  1.00  0.00    -0.354 N 
ATOM      3  C   UNL A   1      33.312  29.025  24.897  1.00  0.00     0.242 C 
ATOM      4  O   UNL A   1      33.907  28.711  23.859  1.00  0.00    -0.273 OA
ATOM      5  H   UNL A   1      32.316  30.435  23.912  1.00  0.00     0.163 HD
BRANCH   3   6
ATOM      6  C   UNL A   1      33.611  28.256  26.212  1.00  0.00     0.170 C 
ATOM      7  C   UNL A   1      34.603  29.005  27.090  1.00  0.00     0.041 C 
BRANCH   6   8
ATOM      8  N   UNL A   1      33.706  26.790  26.163  1.00  0.00    -0.327 N 
ATOM      9  C   UNL A   1      33.004  25.684  25.956  1.00  0.00     0.315 C 
ATOM     10  H   UNL A   1      34.637  26.534  26.357  1.00  0.00     0.166 HD
ATOM     11  O   UNL A   1      33.605  24.618  26.117  1.00  0.00    -0.249 OA
ATOM     12  N   UNL A   1      31.727  25.599  25.608  1.00  0.00    -0.338 N 
ATOM     13  H   UNL A   1      31.422  24.664  25.561  1.00  0.00     0.165 HD
BRANCH  12  14
ATOM     14  C   UNL A   1      30.663  26.529  25.279  1.00  0.00     0.122 C 
BRANCH  14  15
ATOM     15  C   UNL A   1      30.117  26.312  23.869  1.00  0.00     0.060 C 
BRANCH  15  16
ATOM     16  C   UNL A   1      29.377  27.543  23.413  1.00  0.00    -0.010 A 
ATOM     17  C   UNL A   1      30.033  28.551  22.695  1.00  0.00     0.007 A 
ATOM     18  C   UNL A   1      27.994  27.639  23.596  1.00  0.00     0.126 A 
ATOM     19  C   UNL A   1      29.307  29.602  22.134  1.00  0.00     0.000 A 
ATOM     20  C   UNL A   1      27.268  28.693  23.054  1.00  0.00     0.039 A 
ATOM     21  F   UNL A   1      27.340  26.684  24.272  1.00  0.00    -0.207 F 
ATOM     22  C   UNL A   1      27.924  29.670  22.308  1.00  0.00     0.003 A 
ENDBRANCH  15  16
ENDBRANCH  14  15
ENDBRANCH  12  14
ENDBRANCH   6   8
ENDBRANCH   3   6
ENDBRANCH   1   2
BRANCH   1  23
ATOM     23  C   UNL A   1      31.338  31.773  26.132  1.00  0.00     0.042 C 
BRANCH  23  24
ATOM     24  C   UNL A   1      32.462  32.050  27.119  1.00  0.00     0.118 C 
BRANCH  24  25
ATOM     25  N   UNL A   1      32.576  33.466  27.449  1.00  0.00    -0.352 N 
ATOM     26  C   UNL A   1      33.458  34.117  28.271  1.00  0.00     0.251 C 
ATOM     27  H   UNL A   1      31.914  34.047  27.011  1.00  0.00     0.163 HD
ATOM     28  O   UNL A   1      33.246  35.298  28.550  1.00  0.00    -0.269 OA
BRANCH  26  29
ATOM     29  C   UNL A   1      34.631  33.415  28.833  1.00  0.00     0.039 A 
ATOM     30  C   UNL A   1      35.905  33.912  28.557  1.00  0.00     0.014 A 
ATOM     31  C   UNL A   1      34.485  32.261  29.607  1.00  0.00     0.014 A 
ATOM     32  C   UNL A   1      37.024  33.281  29.100  1.00  0.00     0.010 A 
ATOM     33  C   UNL A   1      35.590  31.698  30.234  1.00  0.00     0.010 A 
ATOM     34  C   UNL A   1      36.875  32.190  29.973  1.00  0.00    -0.014 A 
BRANCH  34  35
ATOM     35  C   UNL A   1      38.060  31.549  30.596  1.00  0.00     0.031 A 
ATOM     36  C   UNL A   1      38.458  31.904  32.003  1.00  0.00     0.074 A 
ATOM     37  C   UNL A   1      38.777  30.657  29.887  1.00  0.00     0.049 A 
ATOM     38  N   UNL A   1      39.447  31.434  32.720  1.00  0.00    -0.248 NA
ATOM     39  C   UNL A   1      37.664  32.937  32.691  1.00  0.00     0.031 C 
ATOM     40  C   UNL A   1      38.510  30.276  28.496  1.00  0.00     0.029 A 
ATOM     41  N   UNL A   1      39.862  29.892  30.234  1.00  0.00    -0.354 N 
ATOM     42  C   UNL A   1      39.393  32.111  33.932  1.00  0.00     0.074 A 
ATOM     43  C   UNL A   1      38.320  33.074  33.834  1.00  0.00     0.031 C 
ATOM     44  C   UNL A   1      39.364  29.307  28.134  1.00  0.00     0.029 A 
ATOM     45  C   UNL A   1      40.270  29.028  29.243  1.00  0.00     0.049 A 
ATOM     46  H   UNL A   1      40.307  29.955  31.110  1.00  0.00     0.167 HD
ATOM     47  C   UNL A   1      40.148  31.921  35.040  1.00  0.00     0.034 A 
ATOM     48  C   UNL A   1      41.258  28.112  29.230  1.00  0.00     0.034 A 
ATOM     49  C   UNL A   1      41.192  30.935  35.133  1.00  0.00     0.049 A 
ATOM     50  C   UNL A   1      42.098  27.932  30.466  1.00  0.00     0.074 A 
ATOM     51  C   UNL A   1      41.976  30.620  36.227  1.00  0.00     0.029 A 
ATOM     52  N   UNL A   1      41.597  30.107  34.095  1.00  0.00    -0.354 N 
ATOM     53  N   UNL A   1      42.009  28.561  31.615  1.00  0.00    -0.248 NA
ATOM     54  C   UNL A   1      43.169  26.928  30.409  1.00  0.00     0.031 C 
ATOM     55  C   UNL A   1      42.901  29.651  35.834  1.00  0.00     0.029 A 
ATOM     56  C   UNL A   1      42.644  29.306  34.515  1.00  0.00     0.049 A 
ATOM     57  H   UNL A   1      41.200  30.094  33.194  1.00  0.00     0.167 HD
ATOM     58  C   UNL A   1      42.997  28.012  32.425  1.00  0.00     0.074 A 
ATOM     59  C   UNL A   1      43.674  27.004  31.635  1.00  0.00     0.031 C 
ATOM     60  C   UNL A   1      43.309  28.312  33.710  1.00  0.00     0.034 A 
BRANCH  47  61
ATOM     61  C   UNL A   1      39.877  32.791  36.238  1.00  0.00     0.023 A 
ATOM     62  C   UNL A   1      38.993  32.387  37.253  1.00  0.00     0.031 A 
ATOM     63  C   UNL A   1      40.542  34.020  36.390  1.00  0.00     0.131 A 
ATOM     64  C   UNL A   1      38.769  33.221  38.357  1.00  0.00     0.055 A 
ATOM     65  C   UNL A   1      40.365  34.816  37.523  1.00  0.00     0.041 A 
ATOM     66  F   UNL A   1      41.384  34.462  35.442  1.00  0.00    -0.206 F 
ATOM     67  C   UNL A   1      39.468  34.420  38.512  1.00  0.00     0.022 A 
BRANCH  64  68
ATOM     68  S   UNL A   1      37.494  32.751  39.558  1.00  0.00     0.124 S 
ATOM     69  O   UNL A   1      37.965  31.436  39.987  1.00  0.00    -0.237 OA
ATOM     70  O   UNL A   1      37.584  33.816  40.549  1.00  0.00    -0.237 OA
ATOM     71  O   UNL A   1      36.266  32.739  38.766  1.00  0.00    -0.744 OA
ENDBRANCH  64  68
ENDBRANCH  47  61
BRANCH  48  72
ATOM     72  C   UNL A   1      41.491  27.293  28.008  1.00  0.00     0.023 A 
ATOM     73  C   UNL A   1      41.139  25.935  27.967  1.00  0.00     0.031 A 
ATOM     74  C   UNL A   1      42.043  27.870  26.849  1.00  0.00     0.131 A 
ATOM     75  C   UNL A   1      41.355  25.193  26.795  1.00  0.00     0.055 A 
ATOM     76  C   UNL A   1      42.220  27.137  25.674  1.00  0.00     0.041 A 
ATOM     77  F   UNL A   1      42.385  29.168  26.835  1.00  0.00    -0.206 F 
ATOM     78  C   UNL A   1      41.879  25.789  25.644  1.00  0.00     0.022 A 
BRANCH  75  79
ATOM     79  S   UNL A   1      40.963  23.422  26.797  1.00  0.00     0.124 S 
ATOM     80  O   UNL A   1      41.851  22.921  25.754  1.00  0.00    -0.237 OA
ATOM     81  O   UNL A   1      41.296  23.037  28.165  1.00  0.00    -0.237 OA
ATOM     82  O   UNL A   1      39.538  23.389  26.474  1.00  0.00    -0.744 OA
ENDBRANCH  75  79
ENDBRANCH  48  72
BRANCH  60  83
ATOM     83  C   UNL A   1      44.410  27.529  34.370  1.00  0.00     0.023 A 
ATOM     84  C   UNL A   1      44.146  26.335  35.058  1.00  0.00     0.031 A 
ATOM     85  C   UNL A   1      45.748  27.927  34.202  1.00  0.00     0.131 A 
ATOM     86  C   UNL A   1      45.213  25.575  35.559  1.00  0.00     0.055 A 
ATOM     87  C   UNL A   1      46.807  27.147  34.667  1.00  0.00     0.041 A 
ATOM     88  F   UNL A   1      46.046  29.058  33.542  1.00  0.00    -0.206 F 
ATOM     89  C   UNL A   1      46.541  25.963  35.349  1.00  0.00     0.022 A 
BRANCH  86  90
ATOM     90  S   UNL A   1      44.849  24.059  36.483  1.00  0.00     0.124 S 
ATOM     91  O   UNL A   1      44.316  24.590  37.734  1.00  0.00    -0.237 OA
ATOM     92  O   UNL A   1      43.888  23.382  35.618  1.00  0.00    -0.237 OA
ATOM     93  O   UNL A   1      46.150  23.402  36.592  1.00  0.00    -0.744 OA
ENDBRANCH  86  90
ENDBRANCH  60  83
ENDBRANCH  34  35
ENDBRANCH  26  29
ENDBRANCH  24  25
ENDBRANCH  23  24
ENDBRANCH   1  23
TORSDOF 17
ENDMDL
MODEL 3
REMARK VINA RESULT:     -11.2      2.411      2.857
REMARK SMILES C[C@H](NC(=O)NCCc1ccccc1F)C(=O)NCCCNC(=O)c1ccc(-c2c3nc(c(-c4cc(S(=O)(=O)[O-])ccc4F)c4ccc([nH]4)c(-c4cc(S(=O)(=O)[O-])ccc4F)c4nc(c(-c5cc(S(=O)(=O)[O-])ccc5F)c5ccc2[nH]5)C=C4)C=C3)cc1
REMARK SMILES IDX 19 1 18 2 16 3 17 4 2 6 1 7 3 8 4 9 5 11 6 12 7 14 8 15 9 16
REMARK SMILES IDX 10 17 14 18 11 19 13 20 15 21 12 22 20 23 21 24 22 25 23 26
REMARK SMILES IDX 24 28 25 29 26 30 87 31 27 32 86 33 28 34 29 35 30 36 80 37
REMARK SMILES IDX 31 38 85 39 79 40 81 41 32 42 84 43 78 44 77 45 33 47 65 48
REMARK SMILES IDX 45 49 64 50 46 51 49 52 63 53 82 54 47 55 48 56 62 58 83 59
REMARK SMILES IDX 50 60 34 61 35 62 43 63 36 64 42 65 44 66 41 67 37 68 38 69
REMARK SMILES IDX 39 70 40 71 66 72 67 73 75 74 68 75 74 76 76 77 73 78 69 79
REMARK SMILES IDX 70 80 71 81 72 82 51 83 52 84 60 85 53 86 59 87 61 88 58 89
REMARK SMILES IDX 54 90 55 91 56 92 57 93
REMARK H PARENT 18 5 3 10 6 13 22 27 81 46 49 57
REMARK Flexibility Score: inf
ROOT
ATOM      1  C   UNL A   1      31.210  27.452  25.327  1.00  0.00     0.117 C 
ENDROOT
BRANCH   1   2
ATOM      2  N   UNL A   1      30.737  28.179  24.178  1.00  0.00    -0.354 N 
ATOM      3  C   UNL A   1      31.230  28.220  22.911  1.00  0.00     0.242 C 
ATOM      4  O   UNL A   1      30.488  28.708  22.050  1.00  0.00    -0.273 OA
ATOM      5  H   UNL A   1      29.935  28.730  24.331  1.00  0.00     0.163 HD
BRANCH   3   6
ATOM      6  C   UNL A   1      32.568  27.561  22.482  1.00  0.00     0.170 C 
ATOM      7  C   UNL A   1      33.760  28.459  22.780  1.00  0.00     0.041 C 
BRANCH   6   8
ATOM      8  N   UNL A   1      32.597  26.769  21.244  1.00  0.00    -0.327 N 
ATOM      9  C   UNL A   1      32.763  25.543  20.768  1.00  0.00     0.315 C 
ATOM     10  H   UNL A   1      32.432  27.375  20.485  1.00  0.00     0.166 HD
ATOM     11  O   UNL A   1      32.758  25.427  19.539  1.00  0.00    -0.249 OA
ATOM     12  N   UNL A   1      32.947  24.430  21.468  1.00  0.00    -0.338 N 
ATOM     13  H   UNL A   1      33.094  23.651  20.884  1.00  0.00     0.165 HD
BRANCH  12  14
ATOM     14  C   UNL A   1      32.990  24.067  22.872  1.00  0.00     0.122 C 
BRANCH  14  15
ATOM     15  C   UNL A   1      33.430  22.620  23.085  1.00  0.00     0.060 C 
BRANCH  15  16
ATOM     16  C   UNL A   1      34.679  22.584  23.927  1.00  0.00    -0.010 A 
ATOM     17  C   UNL A   1      35.469  23.729  24.090  1.00  0.00     0.007 A 
ATOM     18  C   UNL A   1      35.000  21.436  24.658  1.00  0.00     0.126 A 
ATOM     19  C   UNL A   1      36.524  23.731  25.003  1.00  0.00     0.000 A 
ATOM     20  C   UNL A   1      36.061  21.427  25.555  1.00  0.00     0.039 A 
ATOM     21  F   UNL A   1      34.255  20.328  24.526  1.00  0.00    -0.207 F 
ATOM     22  C   UNL A   1      36.817  22.583  25.740  1.00  0.00     0.003 A 
ENDBRANCH  15  16
ENDBRANCH  14  15
ENDBRANCH  12  14
ENDBRANCH   6   8
ENDBRANCH   3   6
ENDBRANCH   1   2
BRANCH   1  23
ATOM     23  C   UNL A   1      31.769  28.332  26.429  1.00  0.00     0.042 C 
BRANCH  23  24
ATOM     24  C   UNL A   1      32.883  29.249  25.947  1.00  0.00     0.118 C 
BRANCH  24  25
ATOM     25  N   UNL A   1      32.621  30.651  26.251  1.00  0.00    -0.352 N 
ATOM     26  C   UNL A   1      33.261  31.509  27.107  1.00  0.00     0.251 C 
ATOM     27  H   UNL A   1      31.864  31.045  25.761  1.00  0.00     0.163 HD
ATOM     28  O   UNL A   1      32.745  32.602  27.345  1.00  0.00    -0.269 OA
BRANCH  26  29
ATOM     29  C   UNL A   1      34.534  31.126  27.751  1.00  0.00     0.039 A 
ATOM     30  C   UNL A   1      35.440  32.131  28.094  1.00  0.00     0.014 A 
ATOM     31  C   UNL A   1      34.851  29.788  27.996  1.00  0.00     0.014 A 
ATOM     32  C   UNL A   1      36.636  31.794  28.729  1.00  0.00     0.010 A 
ATOM     33  C   UNL A   1      35.991  29.463  28.723  1.00  0.00     0.010 A 
ATOM     34  C   UNL A   1      36.906  30.461  29.081  1.00  0.00    -0.014 A 
BRANCH  34  35
ATOM     35  C   UNL A   1      38.152  30.104  29.805  1.00  0.00     0.031 A 
ATOM     36  C   UNL A   1      38.400  30.635  31.191  1.00  0.00     0.074 A 
ATOM     37  C   UNL A   1      39.059  29.309  29.204  1.00  0.00     0.049 A 
ATOM     38  N   UNL A   1      39.417  30.417  31.983  1.00  0.00    -0.248 NA
ATOM     39  C   UNL A   1      37.393  31.551  31.754  1.00  0.00     0.031 C 
ATOM     40  C   UNL A   1      38.944  28.778  27.843  1.00  0.00     0.029 A 
ATOM     41  N   UNL A   1      40.245  28.791  29.659  1.00  0.00    -0.354 N 
ATOM     42  C   UNL A   1      39.173  31.164  33.130  1.00  0.00     0.074 A 
ATOM     43  C   UNL A   1      37.949  31.898  32.905  1.00  0.00     0.031 C 
ATOM     44  C   UNL A   1      39.980  27.961  27.600  1.00  0.00     0.029 A 
ATOM     45  C   UNL A   1      40.859  27.945  28.765  1.00  0.00     0.049 A 
ATOM     46  H   UNL A   1      40.621  29.005  30.544  1.00  0.00     0.167 HD
ATOM     47  C   UNL A   1      39.887  31.206  34.278  1.00  0.00     0.034 A 
ATOM     48  C   UNL A   1      41.998  27.232  28.871  1.00  0.00     0.034 A 
ATOM     49  C   UNL A   1      41.088  30.444  34.499  1.00  0.00     0.049 A 
ATOM     50  C   UNL A   1      42.787  27.310  30.150  1.00  0.00     0.074 A 
ATOM     51  C   UNL A   1      41.855  30.368  35.646  1.00  0.00     0.029 A 
ATOM     52  N   UNL A   1      41.695  29.629  33.554  1.00  0.00    -0.354 N 
ATOM     53  N   UNL A   1      42.521  27.998  31.236  1.00  0.00    -0.248 NA
ATOM     54  C   UNL A   1      44.025  26.524  30.223  1.00  0.00     0.031 C 
ATOM     55  C   UNL A   1      42.962  29.561  35.376  1.00  0.00     0.029 A 
ATOM     56  C   UNL A   1      42.846  29.073  34.083  1.00  0.00     0.049 A 
ATOM     57  H   UNL A   1      41.357  29.470  32.642  1.00  0.00     0.167 HD
ATOM     58  C   UNL A   1      43.547  27.710  32.129  1.00  0.00     0.074 A 
ATOM     59  C   UNL A   1      44.439  26.788  31.456  1.00  0.00     0.031 C 
ATOM     60  C   UNL A   1      43.726  28.162  33.394  1.00  0.00     0.034 A 
BRANCH  47  61
ATOM     61  C   UNL A   1      39.395  32.100  35.385  1.00  0.00     0.023 A 
ATOM     62  C   UNL A   1      39.818  33.436  35.491  1.00  0.00     0.031 A 
ATOM     63  C   UNL A   1      38.461  31.625  36.320  1.00  0.00     0.131 A 
ATOM     64  C   UNL A   1      39.335  34.241  36.533  1.00  0.00     0.055 A 
ATOM     65  C   UNL A   1      37.934  32.449  37.316  1.00  0.00     0.041 A 
ATOM     66  F   UNL A   1      38.037  30.352  36.276  1.00  0.00    -0.206 F 
ATOM     67  C   UNL A   1      38.376  33.765  37.430  1.00  0.00     0.022 A 
BRANCH  64  68
ATOM     68  S   UNL A   1      40.032  35.901  36.744  1.00  0.00     0.124 S 
ATOM     69  O   UNL A   1      39.628  36.550  35.499  1.00  0.00    -0.237 OA
ATOM     70  O   UNL A   1      39.368  36.373  37.954  1.00  0.00    -0.237 OA
ATOM     71  O   UNL A   1      41.466  35.656  36.875  1.00  0.00    -0.744 OA
ENDBRANCH  64  68
ENDBRANCH  47  61
BRANCH  48  72
ATOM     72  C   UNL A   1      42.445  26.379  27.734  1.00  0.00     0.023 A 
ATOM     73  C   UNL A   1      42.005  25.052  27.607  1.00  0.00     0.031 A 
ATOM     74  C   UNL A   1      43.296  26.893  26.739  1.00  0.00     0.131 A 
ATOM     75  C   UNL A   1      42.430  24.278  26.516  1.00  0.00     0.055 A 
ATOM     76  C   UNL A   1      43.685  26.130  25.636  1.00  0.00     0.041 A 
ATOM     77  F   UNL A   1      43.735  28.160  26.810  1.00  0.00    -0.206 F 
ATOM     78  C   UNL A   1      43.254  24.813  25.522  1.00  0.00     0.022 A 
BRANCH  75  79
ATOM     79  S   UNL A   1      41.908  22.543  26.420  1.00  0.00     0.124 S 
ATOM     80  O   UNL A   1      40.456  22.668  26.465  1.00  0.00    -0.237 OA
ATOM     81  O   UNL A   1      42.478  22.122  25.144  1.00  0.00    -0.237 OA
ATOM     82  O   UNL A   1      42.520  21.938  27.601  1.00  0.00    -0.744 OA
ENDBRANCH  75  79
ENDBRANCH  48  72
BRANCH  60  83
ATOM     83  C   UNL A   1      44.914  27.653  34.163  1.00  0.00     0.023 A 
ATOM     84  C   UNL A   1      44.850  26.464  34.904  1.00  0.00     0.031 A 
ATOM     85  C   UNL A   1      46.153  28.310  34.050  1.00  0.00     0.131 A 
ATOM     86  C   UNL A   1      46.011  25.963  35.511  1.00  0.00     0.055 A 
ATOM     87  C   UNL A   1      47.312  27.786  34.622  1.00  0.00     0.041 A 
ATOM     88  F   UNL A   1      46.261  29.446  33.343  1.00  0.00    -0.206 F 
ATOM     89  C   UNL A   1      47.244  26.605  35.356  1.00  0.00     0.022 A 
BRANCH  86  90
ATOM     90  S   UNL A   1      45.897  24.449  36.501  1.00  0.00     0.124 S 
ATOM     91  O   UNL A   1      47.233  23.883  36.341  1.00  0.00    -0.237 OA
ATOM     92  O   UNL A   1      45.576  24.960  37.830  1.00  0.00    -0.237 OA
ATOM     93  O   UNL A   1      44.823  23.697  35.854  1.00  0.00    -0.744 OA
ENDBRANCH  86  90
ENDBRANCH  60  83
ENDBRANCH  34  35
ENDBRANCH  26  29
ENDBRANCH  24  25
ENDBRANCH  23  24
ENDBRANCH   1  23
TORSDOF 17
ENDMDL
