MODEL 1
REMARK VINA RESULT:     -12.7      0.000      0.000
REMARK SMILES O=C(COc1ccccc1/C=C1/SC(=S)N(c2ccc(F)c(Cl)c2)C1=O)NCCCNC(=O)c1ccc(-c2c3nc(c(-c4cc(S(=O)(=O)[O-])ccc4F)c4ccc([nH]4)c(-c4cc(S(=O)(=O)[O-])ccc4F)c4nc(c(-c5cc(S(=O)(=O)[O-])ccc5F)c5ccc2[nH]5)C=C4)C=C3)cc1
REMARK SMILES IDX 28 1 27 2 1 3 2 4 3 6 4 7 5 8 6 9 10 10 7 11 9 12 8 13 11 14
REMARK SMILES IDX 12 15 13 16 25 17 14 18 16 19 26 20 15 21 17 22 18 23 24 24
REMARK SMILES IDX 19 25 22 26 20 27 23 28 21 29 29 30 30 31 31 32 32 33 33 35
REMARK SMILES IDX 34 36 35 37 96 38 36 39 95 40 37 41 38 42 39 43 89 44 40 45
REMARK SMILES IDX 94 46 88 47 90 48 41 49 93 50 87 51 86 52 42 54 74 55 54 56
REMARK SMILES IDX 73 57 55 58 58 59 72 60 91 61 56 62 57 63 71 65 92 66 59 67
REMARK SMILES IDX 43 68 44 69 52 70 45 71 51 72 53 73 50 74 46 75 47 76 48 77
REMARK SMILES IDX 49 78 75 79 76 80 84 81 77 82 83 83 85 84 82 85 78 86 79 87
REMARK SMILES IDX 80 88 81 89 60 90 61 91 69 92 62 93 68 94 70 95 67 96 63 97
REMARK SMILES IDX 64 98 65 99 66 100
REMARK H PARENT 27 5 31 34 90 53 58 64
REMARK Flexibility Score: inf
ROOT
ATOM      1  C   UNL A   1      34.941  32.469  28.144  1.00  0.00     0.117 C 
ENDROOT
BRANCH   1   2
ATOM      2  N   UNL A   1      34.203  30.959  26.877  1.00  0.00    -0.353 N 
ATOM      3  O   UNL A   1      33.832  28.560  27.272  1.00  0.00    -0.271 OA
ATOM      4  C   UNL A   1      33.646  29.602  26.650  1.00  0.00     0.257 C 
ATOM      5  H   UNL A   1      34.252  31.353  25.976  1.00  0.00     0.163 HD
BRANCH   4   6
ATOM      6  C   UNL A   1      32.675  29.579  25.463  1.00  0.00     0.329 C 
BRANCH   6   7
ATOM      7  O   UNL A   1      32.070  28.319  25.239  1.00  0.00    -0.483 OA
BRANCH   7   8
ATOM      8  C   UNL A   1      32.526  27.592  24.162  1.00  0.00     0.127 A 
ATOM      9  C   UNL A   1      33.247  28.372  23.251  1.00  0.00     0.047 A 
ATOM     10  C   UNL A   1      32.144  26.270  23.819  1.00  0.00     0.018 A 
ATOM     11  C   UNL A   1      33.584  27.868  21.998  1.00  0.00     0.004 A 
ATOM     12  C   UNL A   1      32.489  25.784  22.548  1.00  0.00     0.012 A 
ATOM     13  C   UNL A   1      33.192  26.582  21.641  1.00  0.00     0.001 A 
BRANCH  10  14
ATOM     14  C   UNL A   1      31.353  25.360  24.663  1.00  0.00     0.033 C 
ATOM     15  C   UNL A   1      31.972  24.501  25.492  1.00  0.00     0.081 C 
ATOM     16  S   UNL A   1      30.957  22.473  25.767  1.00  0.00    -0.054 SA
ATOM     17  C   UNL A   1      33.932  24.309  25.504  1.00  0.00     0.270 C 
ATOM     18  C   UNL A   1      32.998  21.327  25.595  1.00  0.00     0.152 C 
ATOM     19  N   UNL A   1      34.358  22.535  25.582  1.00  0.00    -0.261 N 
ATOM     20  O   UNL A   1      34.714  25.249  25.515  1.00  0.00    -0.268 OA
ATOM     21  S   UNL A   1      32.965  19.663  25.322  1.00  0.00    -0.051 S 
BRANCH  19  22
ATOM     22  C   UNL A   1      35.756  22.201  25.591  1.00  0.00     0.052 A 
ATOM     23  C   UNL A   1      36.169  20.985  25.016  1.00  0.00     0.030 A 
ATOM     24  C   UNL A   1      36.737  23.034  26.130  1.00  0.00     0.050 A 
ATOM     25  C   UNL A   1      37.514  20.612  24.966  1.00  0.00     0.043 A 
ATOM     26  C   UNL A   1      38.088  22.653  26.094  1.00  0.00     0.078 A 
ATOM     27  C   UNL A   1      38.471  21.449  25.512  1.00  0.00     0.141 A 
ATOM     28  Cl  UNL A   1      39.272  23.696  26.784  1.00  0.00    -0.081 Cl
ATOM     29  F   UNL A   1      39.756  21.074  25.469  1.00  0.00    -0.205 F 
ENDBRANCH  19  22
ENDBRANCH  10  14
ENDBRANCH   7   8
ENDBRANCH   6   7
ENDBRANCH   4   6
ENDBRANCH   1   2
BRANCH   1  30
ATOM     30  C   UNL A   1      34.309  33.194  29.541  1.00  0.00     0.042 C 
BRANCH  30  31
ATOM     31  C   UNL A   1      33.902  34.667  29.465  1.00  0.00     0.118 C 
BRANCH  31  32
ATOM     32  N   UNL A   1      32.927  35.096  30.449  1.00  0.00    -0.352 N 
ATOM     33  C   UNL A   1      33.095  35.090  31.818  1.00  0.00     0.251 C 
ATOM     34  H   UNL A   1      32.061  35.421  30.108  1.00  0.00     0.163 HD
ATOM     35  O   UNL A   1      32.184  35.450  32.555  1.00  0.00    -0.269 OA
BRANCH  33  36
ATOM     36  C   UNL A   1      34.358  34.553  32.365  1.00  0.00     0.039 A 
ATOM     37  C   UNL A   1      34.355  33.257  32.878  1.00  0.00     0.014 A 
ATOM     38  C   UNL A   1      35.552  35.271  32.253  1.00  0.00     0.014 A 
ATOM     39  C   UNL A   1      35.566  32.653  33.217  1.00  0.00     0.010 A 
ATOM     40  C   UNL A   1      36.764  34.641  32.521  1.00  0.00     0.010 A 
ATOM     41  C   UNL A   1      36.783  33.324  33.004  1.00  0.00    -0.014 A 
BRANCH  41  42
ATOM     42  C   UNL A   1      38.070  32.642  33.289  1.00  0.00     0.031 A 
ATOM     43  C   UNL A   1      38.798  32.908  34.576  1.00  0.00     0.074 A 
ATOM     44  C   UNL A   1      38.583  31.789  32.379  1.00  0.00     0.049 A 
ATOM     45  N   UNL A   1      39.891  32.357  35.036  1.00  0.00    -0.248 NA
ATOM     46  C   UNL A   1      38.235  33.947  35.452  1.00  0.00     0.031 C 
ATOM     47  C   UNL A   1      37.996  31.502  31.067  1.00  0.00     0.029 A 
ATOM     48  N   UNL A   1      39.701  30.994  32.420  1.00  0.00    -0.354 N 
ATOM     49  C   UNL A   1      40.143  32.975  36.256  1.00  0.00     0.074 A 
ATOM     50  C   UNL A   1      39.132  33.996  36.425  1.00  0.00     0.031 C 
ATOM     51  C   UNL A   1      38.733  30.565  30.449  1.00  0.00     0.029 A 
ATOM     52  C   UNL A   1      39.861  30.205  31.303  1.00  0.00     0.049 A 
ATOM     53  H   UNL A   1      40.330  30.989  33.177  1.00  0.00     0.167 HD
ATOM     54  C   UNL A   1      41.109  32.695  37.166  1.00  0.00     0.034 A 
ATOM     55  C   UNL A   1      40.805  29.289  31.007  1.00  0.00     0.034 A 
ATOM     56  C   UNL A   1      42.112  31.676  36.974  1.00  0.00     0.049 A 
ATOM     57  C   UNL A   1      41.876  29.003  32.029  1.00  0.00     0.074 A 
ATOM     58  C   UNL A   1      43.113  31.275  37.842  1.00  0.00     0.029 A 
ATOM     59  N   UNL A   1      42.251  30.903  35.827  1.00  0.00    -0.354 N 
ATOM     60  N   UNL A   1      42.054  29.541  33.213  1.00  0.00    -0.248 NA
ATOM     61  C   UNL A   1      42.859  27.969  31.682  1.00  0.00     0.031 C 
ATOM     62  C   UNL A   1      43.898  30.314  37.195  1.00  0.00     0.029 A 
ATOM     63  C   UNL A   1      43.339  30.051  35.954  1.00  0.00     0.049 A 
ATOM     64  H   UNL A   1      41.664  30.952  35.039  1.00  0.00     0.167 HD
ATOM     65  C   UNL A   1      43.154  28.889  33.766  1.00  0.00     0.074 A 
ATOM     66  C   UNL A   1      43.579  27.902  32.792  1.00  0.00     0.031 C 
ATOM     67  C   UNL A   1      43.758  29.083  34.966  1.00  0.00     0.034 A 
BRANCH  54  68
ATOM     68  C   UNL A   1      41.130  33.522  38.429  1.00  0.00     0.023 A 
ATOM     69  C   UNL A   1      40.372  33.162  39.560  1.00  0.00     0.031 A 
ATOM     70  C   UNL A   1      41.889  34.704  38.499  1.00  0.00     0.131 A 
ATOM     71  C   UNL A   1      40.327  34.011  40.675  1.00  0.00     0.055 A 
ATOM     72  C   UNL A   1      41.904  35.503  39.644  1.00  0.00     0.041 A 
ATOM     73  F   UNL A   1      42.615  35.112  37.447  1.00  0.00    -0.206 F 
ATOM     74  C   UNL A   1      41.108  35.167  40.736  1.00  0.00     0.022 A 
BRANCH  71  75
ATOM     75  S   UNL A   1      39.120  33.661  41.983  1.00  0.00     0.124 S 
ATOM     76  O   UNL A   1      37.906  34.259  41.434  1.00  0.00    -0.237 OA
ATOM     77  O   UNL A   1      39.141  32.204  42.049  1.00  0.00    -0.237 OA
ATOM     78  O   UNL A   1      39.670  34.346  43.151  1.00  0.00    -0.744 OA
ENDBRANCH  71  75
ENDBRANCH  54  68
BRANCH  55  79
ATOM     79  C   UNL A   1      40.780  28.567  29.701  1.00  0.00     0.023 A 
ATOM     80  C   UNL A   1      41.712  28.854  28.691  1.00  0.00     0.031 A 
ATOM     81  C   UNL A   1      39.789  27.607  29.426  1.00  0.00     0.131 A 
ATOM     82  C   UNL A   1      41.605  28.229  27.438  1.00  0.00     0.055 A 
ATOM     83  C   UNL A   1      39.720  26.947  28.197  1.00  0.00     0.041 A 
ATOM     84  F   UNL A   1      38.876  27.287  30.356  1.00  0.00    -0.206 F 
ATOM     85  C   UNL A   1      40.624  27.267  27.190  1.00  0.00     0.022 A 
BRANCH  82  86
ATOM     86  S   UNL A   1      42.717  28.755  26.104  1.00  0.00     0.124 S 
ATOM     87  O   UNL A   1      43.029  30.124  26.500  1.00  0.00    -0.237 OA
ATOM     88  O   UNL A   1      43.805  27.790  26.220  1.00  0.00    -0.237 OA
ATOM     89  O   UNL A   1      41.895  28.623  24.904  1.00  0.00    -0.744 OA
ENDBRANCH  82  86
ENDBRANCH  55  79
BRANCH  67  90
ATOM     90  C   UNL A   1      44.921  28.178  35.299  1.00  0.00     0.023 A 
ATOM     91  C   UNL A   1      44.746  26.979  36.012  1.00  0.00     0.031 A 
ATOM     92  C   UNL A   1      46.228  28.536  34.922  1.00  0.00     0.131 A 
ATOM     93  C   UNL A   1      45.863  26.220  36.388  1.00  0.00     0.055 A 
ATOM     94  C   UNL A   1      47.329  27.739  35.237  1.00  0.00     0.041 A 
ATOM     95  F   UNL A   1      46.457  29.671  34.241  1.00  0.00    -0.206 F 
ATOM     96  C   UNL A   1      47.152  26.583  35.990  1.00  0.00     0.022 A 
BRANCH  93  97
ATOM     97  S   UNL A   1      45.621  24.814  37.508  1.00  0.00     0.124 S 
ATOM     98  O   UNL A   1      46.319  25.260  38.710  1.00  0.00    -0.237 OA
ATOM     99  O   UNL A   1      44.167  24.739  37.606  1.00  0.00    -0.237 OA
ATOM    100  O   UNL A   1      46.253  23.700  36.803  1.00  0.00    -0.744 OA
ENDBRANCH  93  97
ENDBRANCH  67  90
ENDBRANCH  41  42
ENDBRANCH  33  36
ENDBRANCH  31  32
ENDBRANCH  30  31
ENDBRANCH   1  30
TORSDOF 17
ENDMDL
MODEL 2
REMARK VINA RESULT:     -12.4      8.286     14.226
REMARK SMILES O=C(COc1ccccc1/C=C1/SC(=S)N(c2ccc(F)c(Cl)c2)C1=O)NCCCNC(=O)c1ccc(-c2c3nc(c(-c4cc(S(=O)(=O)[O-])ccc4F)c4ccc([nH]4)c(-c4cc(S(=O)(=O)[O-])ccc4F)c4nc(c(-c5cc(S(=O)(=O)[O-])ccc5F)c5ccc2[nH]5)C=C4)C=C3)cc1
REMARK SMILES IDX 28 1 27 2 1 3 2 4 3 6 4 7 5 8 6 9 10 10 7 11 9 12 8 13 11 14
REMARK SMILES IDX 12 15 13 16 25 17 14 18 16 19 26 20 15 21 17 22 18 23 24 24
REMARK SMILES IDX 19 25 22 26 20 27 23 28 21 29 29 30 30 31 31 32 32 33 33 35
REMARK SMILES IDX 34 36 35 37 96 38 36 39 95 40 37 41 38 42 39 43 89 44 40 45
REMARK SMILES IDX 94 46 88 47 90 48 41 49 93 50 87 51 86 52 42 54 74 55 54 56
REMARK SMILES IDX 73 57 55 58 58 59 72 60 91 61 56 62 57 63 71 65 92 66 59 67
REMARK SMILES IDX 43 68 44 69 52 70 45 71 51 72 53 73 50 74 46 75 47 76 48 77
REMARK SMILES IDX 49 78 75 79 76 80 84 81 77 82 83 83 85 84 82 85 78 86 79 87
REMARK SMILES IDX 80 88 81 89 60 90 61 91 69 92 62 93 68 94 70 95 67 96 63 97
REMARK SMILES IDX 64 98 65 99 66 100
REMARK H PARENT 27 5 31 34 90 53 58 64
REMARK Flexibility Score: inf
ROOT
ATOM      1  C   UNL A   1      45.876  37.864  26.909  1.00  0.00     0.117 C 
ENDROOT
BRANCH   1   2
ATOM      2  N   UNL A   1      46.217  38.305  28.939  1.00  0.00    -0.353 N 
ATOM      3  O   UNL A   1      47.916  39.716  30.020  1.00  0.00    -0.271 OA
ATOM      4  C   UNL A   1      46.844  39.117  30.011  1.00  0.00     0.257 C 
ATOM      5  H   UNL A   1      45.694  37.626  29.425  1.00  0.00     0.163 HD
BRANCH   4   6
ATOM      6  C   UNL A   1      45.949  39.204  31.254  1.00  0.00     0.329 C 
BRANCH   6   7
ATOM      7  O   UNL A   1      44.563  39.172  30.967  1.00  0.00    -0.483 OA
BRANCH   7   8
ATOM      8  C   UNL A   1      43.896  40.377  30.981  1.00  0.00     0.127 A 
ATOM      9  C   UNL A   1      44.331  41.222  32.008  1.00  0.00     0.047 A 
ATOM     10  C   UNL A   1      42.731  40.701  30.241  1.00  0.00     0.018 A 
ATOM     11  C   UNL A   1      43.622  42.378  32.323  1.00  0.00     0.004 A 
ATOM     12  C   UNL A   1      42.028  41.867  30.580  1.00  0.00     0.012 A 
ATOM     13  C   UNL A   1      42.463  42.691  31.620  1.00  0.00     0.001 A 
BRANCH  10  14
ATOM     14  C   UNL A   1      42.143  39.883  29.168  1.00  0.00     0.033 C 
ATOM     15  C   UNL A   1      42.691  39.889  27.939  1.00  0.00     0.081 C 
ATOM     16  S   UNL A   1      41.228  39.709  26.194  1.00  0.00    -0.054 SA
ATOM     17  C   UNL A   1      44.183  41.090  27.480  1.00  0.00     0.270 C 
ATOM     18  C   UNL A   1      42.329  41.388  24.980  1.00  0.00     0.152 C 
ATOM     19  N   UNL A   1      43.872  41.827  25.837  1.00  0.00    -0.261 N 
ATOM     20  O   UNL A   1      45.172  41.254  28.178  1.00  0.00    -0.268 OA
ATOM     21  S   UNL A   1      41.533  42.084  23.666  1.00  0.00    -0.051 S 
BRANCH  19  22
ATOM     22  C   UNL A   1      44.861  42.744  25.339  1.00  0.00     0.052 A 
ATOM     23  C   UNL A   1      44.894  44.053  25.853  1.00  0.00     0.030 A 
ATOM     24  C   UNL A   1      45.807  42.397  24.375  1.00  0.00     0.050 A 
ATOM     25  C   UNL A   1      45.846  44.985  25.433  1.00  0.00     0.043 A 
ATOM     26  C   UNL A   1      46.754  43.338  23.940  1.00  0.00     0.078 A 
ATOM     27  C   UNL A   1      46.772  44.624  24.472  1.00  0.00     0.141 A 
ATOM     28  Cl  UNL A   1      47.898  42.883  22.736  1.00  0.00    -0.081 Cl
ATOM     29  F   UNL A   1      47.671  45.532  24.069  1.00  0.00    -0.205 F 
ENDBRANCH  19  22
ENDBRANCH  10  14
ENDBRANCH   7   8
ENDBRANCH   6   7
ENDBRANCH   4   6
ENDBRANCH   1   2
BRANCH   1  30
ATOM     30  C   UNL A   1      46.724  36.910  25.792  1.00  0.00     0.042 C 
BRANCH  30  31
ATOM     31  C   UNL A   1      46.623  35.389  25.924  1.00  0.00     0.118 C 
BRANCH  31  32
ATOM     32  N   UNL A   1      45.863  34.723  24.883  1.00  0.00    -0.352 N 
ATOM     33  C   UNL A   1      44.584  34.220  25.004  1.00  0.00     0.251 C 
ATOM     34  H   UNL A   1      46.301  34.619  24.007  1.00  0.00     0.163 HD
ATOM     35  O   UNL A   1      44.051  33.649  24.060  1.00  0.00    -0.269 OA
BRANCH  33  36
ATOM     36  C   UNL A   1      43.921  34.306  26.322  1.00  0.00     0.039 A 
ATOM     37  C   UNL A   1      44.144  33.281  27.240  1.00  0.00     0.014 A 
ATOM     38  C   UNL A   1      43.197  35.444  26.689  1.00  0.00     0.014 A 
ATOM     39  C   UNL A   1      43.696  33.430  28.553  1.00  0.00     0.010 A 
ATOM     40  C   UNL A   1      42.818  35.623  28.016  1.00  0.00     0.010 A 
ATOM     41  C   UNL A   1      43.066  34.618  28.962  1.00  0.00    -0.014 A 
BRANCH  41  42
ATOM     42  C   UNL A   1      42.669  34.800  30.381  1.00  0.00     0.031 A 
ATOM     43  C   UNL A   1      41.252  34.541  30.809  1.00  0.00     0.074 A 
ATOM     44  C   UNL A   1      43.589  35.208  31.279  1.00  0.00     0.049 A 
ATOM     45  N   UNL A   1      40.732  34.573  32.008  1.00  0.00    -0.248 NA
ATOM     46  C   UNL A   1      40.286  34.225  29.745  1.00  0.00     0.031 C 
ATOM     47  C   UNL A   1      44.979  35.552  30.965  1.00  0.00     0.029 A 
ATOM     48  N   UNL A   1      43.504  35.388  32.636  1.00  0.00    -0.354 N 
ATOM     49  C   UNL A   1      39.384  34.276  31.846  1.00  0.00     0.074 A 
ATOM     50  C   UNL A   1      39.153  34.144  30.424  1.00  0.00     0.031 C 
ATOM     51  C   UNL A   1      45.624  35.857  32.102  1.00  0.00     0.029 A 
ATOM     52  C   UNL A   1      44.692  35.763  33.222  1.00  0.00     0.049 A 
ATOM     53  H   UNL A   1      42.669  35.264  33.144  1.00  0.00     0.167 HD
ATOM     54  C   UNL A   1      38.433  34.098  32.797  1.00  0.00     0.034 A 
ATOM     55  C   UNL A   1      44.997  35.992  34.515  1.00  0.00     0.034 A 
ATOM     56  C   UNL A   1      38.684  34.241  34.210  1.00  0.00     0.049 A 
ATOM     57  C   UNL A   1      43.921  35.800  35.553  1.00  0.00     0.074 A 
ATOM     58  C   UNL A   1      37.811  34.044  35.266  1.00  0.00     0.029 A 
ATOM     59  N   UNL A   1      39.897  34.630  34.767  1.00  0.00    -0.354 N 
ATOM     60  N   UNL A   1      42.668  35.440  35.389  1.00  0.00    -0.248 NA
ATOM     61  C   UNL A   1      44.306  36.022  36.952  1.00  0.00     0.031 C 
ATOM     62  C   UNL A   1      38.473  34.382  36.452  1.00  0.00     0.029 A 
ATOM     63  C   UNL A   1      39.785  34.709  36.147  1.00  0.00     0.049 A 
ATOM     64  H   UNL A   1      40.716  34.822  34.256  1.00  0.00     0.167 HD
ATOM     65  C   UNL A   1      42.124  35.364  36.669  1.00  0.00     0.074 A 
ATOM     66  C   UNL A   1      43.194  35.691  37.591  1.00  0.00     0.031 C 
ATOM     67  C   UNL A   1      40.859  35.052  37.051  1.00  0.00     0.034 A 
BRANCH  54  68
ATOM     68  C   UNL A   1      37.040  33.753  32.325  1.00  0.00     0.023 A 
ATOM     69  C   UNL A   1      36.062  34.746  32.127  1.00  0.00     0.031 A 
ATOM     70  C   UNL A   1      36.670  32.415  32.102  1.00  0.00     0.131 A 
ATOM     71  C   UNL A   1      34.748  34.381  31.797  1.00  0.00     0.055 A 
ATOM     72  C   UNL A   1      35.381  32.065  31.694  1.00  0.00     0.041 A 
ATOM     73  F   UNL A   1      37.552  31.422  32.295  1.00  0.00    -0.206 F 
ATOM     74  C   UNL A   1      34.406  33.049  31.554  1.00  0.00     0.022 A 
BRANCH  71  75
ATOM     75  S   UNL A   1      33.458  35.657  31.836  1.00  0.00     0.124 S 
ATOM     76  O   UNL A   1      32.361  34.949  32.490  1.00  0.00    -0.237 OA
ATOM     77  O   UNL A   1      34.088  36.717  32.615  1.00  0.00    -0.237 OA
ATOM     78  O   UNL A   1      33.238  35.966  30.425  1.00  0.00    -0.744 OA
ENDBRANCH  71  75
ENDBRANCH  54  68
BRANCH  55  79
ATOM     79  C   UNL A   1      46.373  36.417  34.907  1.00  0.00     0.023 A 
ATOM     80  C   UNL A   1      46.734  37.773  34.947  1.00  0.00     0.031 A 
ATOM     81  C   UNL A   1      47.364  35.464  35.205  1.00  0.00     0.131 A 
ATOM     82  C   UNL A   1      48.061  38.139  35.226  1.00  0.00     0.055 A 
ATOM     83  C   UNL A   1      48.669  35.835  35.536  1.00  0.00     0.041 A 
ATOM     84  F   UNL A   1      47.074  34.154  35.189  1.00  0.00    -0.206 F 
ATOM     85  C   UNL A   1      49.027  37.179  35.534  1.00  0.00     0.022 A 
BRANCH  82  86
ATOM     86  S   UNL A   1      48.529  39.887  35.095  1.00  0.00     0.124 S 
ATOM     87  O   UNL A   1      48.642  40.271  36.497  1.00  0.00    -0.237 OA
ATOM     88  O   UNL A   1      49.780  39.809  34.348  1.00  0.00    -0.237 OA
ATOM     89  O   UNL A   1      47.410  40.485  34.371  1.00  0.00    -0.744 OA
ENDBRANCH  82  86
ENDBRANCH  55  79
BRANCH  67  90
ATOM     90  C   UNL A   1      40.584  35.015  38.536  1.00  0.00     0.023 A 
ATOM     91  C   UNL A   1      40.256  36.175  39.258  1.00  0.00     0.031 A 
ATOM     92  C   UNL A   1      40.679  33.803  39.243  1.00  0.00     0.131 A 
ATOM     93  C   UNL A   1      40.107  36.113  40.651  1.00  0.00     0.055 A 
ATOM     94  C   UNL A   1      40.459  33.734  40.619  1.00  0.00     0.041 A 
ATOM     95  F   UNL A   1      40.991  32.662  38.606  1.00  0.00    -0.206 F 
ATOM     96  C   UNL A   1      40.189  34.897  41.334  1.00  0.00     0.022 A 
BRANCH  93  97
ATOM     97  S   UNL A   1      39.924  37.663  41.576  1.00  0.00     0.124 S 
ATOM     98  O   UNL A   1      41.272  38.219  41.507  1.00  0.00    -0.237 OA
ATOM     99  O   UNL A   1      38.904  38.366  40.807  1.00  0.00    -0.237 OA
ATOM    100  O   UNL A   1      39.504  37.222  42.905  1.00  0.00    -0.744 OA
ENDBRANCH  93  97
ENDBRANCH  67  90
ENDBRANCH  41  42
ENDBRANCH  33  36
ENDBRANCH  31  32
ENDBRANCH  30  31
ENDBRANCH   1  30
TORSDOF 17
ENDMDL
MODEL 3
REMARK VINA RESULT:     -12.3      8.526     13.046
REMARK SMILES O=C(COc1ccccc1/C=C1/SC(=S)N(c2ccc(F)c(Cl)c2)C1=O)NCCCNC(=O)c1ccc(-c2c3nc(c(-c4cc(S(=O)(=O)[O-])ccc4F)c4ccc([nH]4)c(-c4cc(S(=O)(=O)[O-])ccc4F)c4nc(c(-c5cc(S(=O)(=O)[O-])ccc5F)c5ccc2[nH]5)C=C4)C=C3)cc1
REMARK SMILES IDX 28 1 27 2 1 3 2 4 3 6 4 7 5 8 6 9 10 10 7 11 9 12 8 13 11 14
REMARK SMILES IDX 12 15 13 16 25 17 14 18 16 19 26 20 15 21 17 22 18 23 24 24
REMARK SMILES IDX 19 25 22 26 20 27 23 28 21 29 29 30 30 31 31 32 32 33 33 35
REMARK SMILES IDX 34 36 35 37 96 38 36 39 95 40 37 41 38 42 39 43 89 44 40 45
REMARK SMILES IDX 94 46 88 47 90 48 41 49 93 50 87 51 86 52 42 54 74 55 54 56
REMARK SMILES IDX 73 57 55 58 58 59 72 60 91 61 56 62 57 63 71 65 92 66 59 67
REMARK SMILES IDX 43 68 44 69 52 70 45 71 51 72 53 73 50 74 46 75 47 76 48 77
REMARK SMILES IDX 49 78 75 79 76 80 84 81 77 82 83 83 85 84 82 85 78 86 79 87
REMARK SMILES IDX 80 88 81 89 60 90 61 91 69 92 62 93 68 94 70 95 67 96 63 97
REMARK SMILES IDX 64 98 65 99 66 100
REMARK H PARENT 27 5 31 34 90 53 58 64
REMARK Flexibility Score: inf
ROOT
ATOM      1  C   UNL A   1      41.574  40.750  29.551  1.00  0.00     0.117 C 
ENDROOT
BRANCH   1   2
ATOM      2  N   UNL A   1      42.192  40.744  27.539  1.00  0.00    -0.353 N 
ATOM      3  O   UNL A   1      40.934  41.148  25.465  1.00  0.00    -0.271 OA
ATOM      4  C   UNL A   1      41.977  41.070  26.107  1.00  0.00     0.257 C 
ATOM      5  H   UNL A   1      43.070  40.299  27.556  1.00  0.00     0.163 HD
BRANCH   4   6
ATOM      6  C   UNL A   1      43.300  41.375  25.391  1.00  0.00     0.329 C 
BRANCH   6   7
ATOM      7  O   UNL A   1      43.480  42.743  25.074  1.00  0.00    -0.483 OA
BRANCH   7   8
ATOM      8  C   UNL A   1      43.908  43.036  23.798  1.00  0.00     0.127 A 
ATOM      9  C   UNL A   1      42.995  42.632  22.818  1.00  0.00     0.047 A 
ATOM     10  C   UNL A   1      45.207  43.465  23.426  1.00  0.00     0.018 A 
ATOM     11  C   UNL A   1      43.353  42.633  21.473  1.00  0.00     0.004 A 
ATOM     12  C   UNL A   1      45.549  43.451  22.064  1.00  0.00     0.012 A 
ATOM     13  C   UNL A   1      44.633  43.027  21.098  1.00  0.00     0.001 A 
BRANCH  10  14
ATOM     14  C   UNL A   1      46.273  43.874  24.354  1.00  0.00     0.033 C 
ATOM     15  C   UNL A   1      47.046  42.944  24.943  1.00  0.00     0.081 C 
ATOM     16  S   UNL A   1      47.710  43.406  27.080  1.00  0.00    -0.054 SA
ATOM     17  C   UNL A   1      46.697  41.019  24.721  1.00  0.00     0.270 C 
ATOM     18  C   UNL A   1      47.258  41.216  27.789  1.00  0.00     0.152 C 
ATOM     19  N   UNL A   1      46.863  40.191  26.340  1.00  0.00    -0.261 N 
ATOM     20  O   UNL A   1      46.464  40.483  23.647  1.00  0.00    -0.268 OA
ATOM     21  S   UNL A   1      47.161  40.911  29.446  1.00  0.00    -0.051 S 
BRANCH  19  22
ATOM     22  C   UNL A   1      46.634  38.772  26.371  1.00  0.00     0.052 A 
ATOM     23  C   UNL A   1      45.421  38.291  26.898  1.00  0.00     0.030 A 
ATOM     24  C   UNL A   1      47.551  37.838  25.888  1.00  0.00     0.050 A 
ATOM     25  C   UNL A   1      45.122  36.927  26.933  1.00  0.00     0.043 A 
ATOM     26  C   UNL A   1      47.258  36.466  25.937  1.00  0.00     0.078 A 
ATOM     27  C   UNL A   1      46.047  36.017  26.455  1.00  0.00     0.141 A 
ATOM     28  Cl  UNL A   1      48.419  35.339  25.348  1.00  0.00    -0.081 Cl
ATOM     29  F   UNL A   1      45.753  34.711  26.506  1.00  0.00    -0.205 F 
ENDBRANCH  19  22
ENDBRANCH  10  14
ENDBRANCH   7   8
ENDBRANCH   6   7
ENDBRANCH   4   6
ENDBRANCH   1   2
BRANCH   1  30
ATOM     30  C   UNL A   1      42.025  41.702  30.879  1.00  0.00     0.042 C 
BRANCH  30  31
ATOM     31  C   UNL A   1      42.333  40.994  32.201  1.00  0.00     0.118 C 
BRANCH  31  32
ATOM     32  N   UNL A   1      43.709  41.083  32.649  1.00  0.00    -0.352 N 
ATOM     33  C   UNL A   1      44.633  40.059  32.649  1.00  0.00     0.251 C 
ATOM     34  H   UNL A   1      44.013  41.957  32.987  1.00  0.00     0.163 HD
ATOM     35  O   UNL A   1      45.765  40.246  33.082  1.00  0.00    -0.269 OA
BRANCH  33  36
ATOM     36  C   UNL A   1      44.193  38.720  32.205  1.00  0.00     0.039 A 
ATOM     37  C   UNL A   1      44.166  38.456  30.837  1.00  0.00     0.014 A 
ATOM     38  C   UNL A   1      43.937  37.705  33.130  1.00  0.00     0.014 A 
ATOM     39  C   UNL A   1      43.947  37.150  30.396  1.00  0.00     0.010 A 
ATOM     40  C   UNL A   1      43.795  36.392  32.692  1.00  0.00     0.010 A 
ATOM     41  C   UNL A   1      43.801  36.101  31.320  1.00  0.00    -0.014 A 
BRANCH  41  42
ATOM     42  C   UNL A   1      43.653  34.703  30.842  1.00  0.00     0.031 A 
ATOM     43  C   UNL A   1      42.319  34.015  30.918  1.00  0.00     0.074 A 
ATOM     44  C   UNL A   1      44.728  34.056  30.348  1.00  0.00     0.049 A 
ATOM     45  N   UNL A   1      41.977  32.829  30.486  1.00  0.00    -0.248 NA
ATOM     46  C   UNL A   1      41.234  34.747  31.588  1.00  0.00     0.031 C 
ATOM     47  C   UNL A   1      46.087  34.602  30.285  1.00  0.00     0.029 A 
ATOM     48  N   UNL A   1      44.850  32.808  29.791  1.00  0.00    -0.354 N 
ATOM     49  C   UNL A   1      40.636  32.676  30.823  1.00  0.00     0.074 A 
ATOM     50  C   UNL A   1      40.254  33.857  31.564  1.00  0.00     0.031 C 
ATOM     51  C   UNL A   1      46.892  33.713  29.682  1.00  0.00     0.029 A 
ATOM     52  C   UNL A   1      46.120  32.522  29.342  1.00  0.00     0.049 A 
ATOM     53  H   UNL A   1      44.099  32.175  29.720  1.00  0.00     0.167 HD
ATOM     54  C   UNL A   1      39.795  31.658  30.516  1.00  0.00     0.034 A 
ATOM     55  C   UNL A   1      46.602  31.428  28.719  1.00  0.00     0.034 A 
ATOM     56  C   UNL A   1      40.199  30.484  29.781  1.00  0.00     0.049 A 
ATOM     57  C   UNL A   1      45.651  30.303  28.398  1.00  0.00     0.074 A 
ATOM     58  C   UNL A   1      39.427  29.410  29.375  1.00  0.00     0.029 A 
ATOM     59  N   UNL A   1      41.496  30.223  29.351  1.00  0.00    -0.354 N 
ATOM     60  N   UNL A   1      44.366  30.208  28.655  1.00  0.00    -0.248 NA
ATOM     61  C   UNL A   1      46.210  29.150  27.683  1.00  0.00     0.031 C 
ATOM     62  C   UNL A   1      40.265  28.470  28.765  1.00  0.00     0.029 A 
ATOM     63  C   UNL A   1      41.548  28.993  28.713  1.00  0.00     0.049 A 
ATOM     64  H   UNL A   1      42.264  30.824  29.480  1.00  0.00     0.167 HD
ATOM     65  C   UNL A   1      43.958  28.995  28.105  1.00  0.00     0.074 A 
ATOM     66  C   UNL A   1      45.129  28.410  27.483  1.00  0.00     0.031 C 
ATOM     67  C   UNL A   1      42.730  28.417  28.111  1.00  0.00     0.034 A 
BRANCH  54  68
ATOM     68  C   UNL A   1      38.368  31.770  30.999  1.00  0.00     0.023 A 
ATOM     69  C   UNL A   1      37.348  32.284  30.176  1.00  0.00     0.031 A 
ATOM     70  C   UNL A   1      38.024  31.391  32.309  1.00  0.00     0.131 A 
ATOM     71  C   UNL A   1      36.059  32.478  30.693  1.00  0.00     0.055 A 
ATOM     72  C   UNL A   1      36.718  31.511  32.792  1.00  0.00     0.041 A 
ATOM     73  F   UNL A   1      38.956  30.914  33.149  1.00  0.00    -0.206 F 
ATOM     74  C   UNL A   1      35.730  32.072  31.987  1.00  0.00     0.022 A 
BRANCH  71  75
ATOM     75  S   UNL A   1      34.858  33.406  29.699  1.00  0.00     0.124 S 
ATOM     76  O   UNL A   1      34.017  34.004  30.733  1.00  0.00    -0.237 OA
ATOM     77  O   UNL A   1      35.709  34.328  28.956  1.00  0.00    -0.237 OA
ATOM     78  O   UNL A   1      34.206  32.374  28.896  1.00  0.00    -0.744 OA
ENDBRANCH  71  75
ENDBRANCH  54  68
BRANCH  55  79
ATOM     79  C   UNL A   1      48.045  31.341  28.346  1.00  0.00     0.023 A 
ATOM     80  C   UNL A   1      48.985  30.748  29.204  1.00  0.00     0.031 A 
ATOM     81  C   UNL A   1      48.513  31.894  27.140  1.00  0.00     0.131 A 
ATOM     82  C   UNL A   1      50.349  30.766  28.870  1.00  0.00     0.055 A 
ATOM     83  C   UNL A   1      49.863  31.860  26.786  1.00  0.00     0.041 A 
ATOM     84  F   UNL A   1      47.659  32.467  26.279  1.00  0.00    -0.206 F 
ATOM     85  C   UNL A   1      50.792  31.306  27.661  1.00  0.00     0.022 A 
BRANCH  82  86
ATOM     86  S   UNL A   1      51.551  30.149  30.082  1.00  0.00     0.124 S 
ATOM     87  O   UNL A   1      51.380  31.095  31.179  1.00  0.00    -0.237 OA
ATOM     88  O   UNL A   1      51.068  28.793  30.322  1.00  0.00    -0.237 OA
ATOM     89  O   UNL A   1      52.825  30.238  29.373  1.00  0.00    -0.744 OA
ENDBRANCH  82  86
ENDBRANCH  55  79
BRANCH  67  90
ATOM     90  C   UNL A   1      42.593  27.098  27.386  1.00  0.00     0.023 A 
ATOM     91  C   UNL A   1      42.832  25.871  28.029  1.00  0.00     0.031 A 
ATOM     92  C   UNL A   1      42.244  27.073  26.024  1.00  0.00     0.131 A 
ATOM     93  C   UNL A   1      42.792  24.678  27.293  1.00  0.00     0.055 A 
ATOM     94  C   UNL A   1      42.136  25.876  25.314  1.00  0.00     0.041 A 
ATOM     95  F   UNL A   1      42.006  28.214  25.357  1.00  0.00    -0.206 F 
ATOM     96  C   UNL A   1      42.428  24.671  25.944  1.00  0.00     0.022 A 
BRANCH  93  97
ATOM     97  S   UNL A   1      43.340  23.145  28.094  1.00  0.00     0.124 S 
ATOM     98  O   UNL A   1      43.157  22.164  27.029  1.00  0.00    -0.237 OA
ATOM     99  O   UNL A   1      44.721  23.454  28.446  1.00  0.00    -0.237 OA
ATOM    100  O   UNL A   1      42.428  23.005  29.227  1.00  0.00    -0.744 OA
ENDBRANCH  93  97
ENDBRANCH  67  90
ENDBRANCH  41  42
ENDBRANCH  33  36
ENDBRANCH  31  32
ENDBRANCH  30  31
ENDBRANCH   1  30
TORSDOF 17
ENDMDL
