MODEL 1
REMARK VINA RESULT:     -11.8      0.000      0.000
REMARK SMILES COc1ncccc1C[C@H](C(=O)NCCCNC(=O)c1ccc(-c2c3nc(c(-c4cc(S(=O)(=O)[O-])ccc4F)c4ccc([nH]4)c(-c4cc(S(=O)(=O)[O-])ccc4F)c4nc(c(-c5cc(S(=O)(=O)[O-])ccc5F)c5ccc2[nH]5)C=C4)C=C3)cc1)c1ccc(F)cc1
REMARK SMILES IDX 15 1 14 2 13 3 11 4 12 5 10 7 9 8 8 9 3 10 4 11 5 12 7 13
REMARK SMILES IDX 6 14 2 15 1 16 83 17 84 18 89 19 85 20 88 21 86 22 87 23
REMARK SMILES IDX 16 24 17 25 18 26 19 28 20 29 21 30 82 31 22 32 81 33 23 34
REMARK SMILES IDX 24 35 25 36 75 37 26 38 80 39 74 40 76 41 27 42 79 43 73 44
REMARK SMILES IDX 72 45 28 47 60 48 40 49 59 50 41 51 44 52 58 53 77 54 42 55
REMARK SMILES IDX 43 56 57 58 78 59 45 60 29 61 30 62 38 63 31 64 37 65 39 66
REMARK SMILES IDX 36 67 32 68 33 69 34 70 35 71 61 72 62 73 70 74 63 75 69 76
REMARK SMILES IDX 71 77 68 78 64 79 65 80 66 81 67 82 46 83 47 84 55 85 48 86
REMARK SMILES IDX 54 87 56 88 53 89 49 90 50 91 51 92 52 93
REMARK H PARENT 13 6 17 27 76 46 44 57
REMARK Flexibility Score: inf
ROOT
ATOM      1  C   UNL A   1      33.038  27.897  26.852  1.00  0.00     0.042 C 
ENDROOT
BRANCH   1   2
ATOM      2  C   UNL A   1      31.569  27.567  26.688  1.00  0.00     0.117 C 
BRANCH   2   3
ATOM      3  N   UNL A   1      31.162  26.174  26.727  1.00  0.00    -0.355 N 
ATOM      4  C   UNL A   1      31.942  25.044  26.746  1.00  0.00     0.227 C 
ATOM      5  O   UNL A   1      31.408  24.043  27.250  1.00  0.00    -0.274 OA
ATOM      6  H   UNL A   1      30.191  26.018  26.740  1.00  0.00     0.163 HD
BRANCH   4   7
ATOM      7  C   UNL A   1      33.306  24.861  26.008  1.00  0.00     0.113 C 
BRANCH   7   8
ATOM      8  C   UNL A   1      33.913  23.595  26.761  1.00  0.00     0.059 C 
BRANCH   8   9
ATOM      9  C   UNL A   1      35.117  22.875  26.217  1.00  0.00     0.015 A 
ATOM     10  C   UNL A   1      35.063  21.575  25.701  1.00  0.00     0.216 A 
ATOM     11  N   UNL A   1      36.072  21.009  25.002  1.00  0.00    -0.222 NA
ATOM     12  C   UNL A   1      37.201  21.731  24.845  1.00  0.00     0.115 A 
ATOM     13  C   UNL A   1      36.347  23.550  26.121  1.00  0.00     0.011 A 
ATOM     14  C   UNL A   1      37.403  22.973  25.419  1.00  0.00     0.021 A 
BRANCH  10  15
ATOM     15  O   UNL A   1      34.072  20.700  26.045  1.00  0.00    -0.481 OA
ATOM     16  C   UNL A   1      33.144  20.446  25.004  1.00  0.00     0.280 C 
ENDBRANCH  10  15
ENDBRANCH   8   9
ENDBRANCH   7   8
BRANCH   7  17
ATOM     17  C   UNL A   1      33.325  24.995  24.473  1.00  0.00    -0.035 A 
ATOM     18  C   UNL A   1      33.985  26.047  23.819  1.00  0.00     0.007 A 
ATOM     19  C   UNL A   1      32.711  24.070  23.621  1.00  0.00     0.007 A 
ATOM     20  C   UNL A   1      33.652  26.386  22.496  1.00  0.00     0.039 A 
ATOM     21  C   UNL A   1      32.379  24.376  22.301  1.00  0.00     0.039 A 
ATOM     22  C   UNL A   1      32.787  25.579  21.773  1.00  0.00     0.123 A 
ATOM     23  F   UNL A   1      32.369  25.950  20.558  1.00  0.00    -0.207 F 
ENDBRANCH   7  17
ENDBRANCH   4   7
ENDBRANCH   2   3
ENDBRANCH   1   2
BRANCH   1  24
ATOM     24  C   UNL A   1      33.590  28.965  25.931  1.00  0.00     0.118 C 
BRANCH  24  25
ATOM     25  N   UNL A   1      33.573  30.306  26.499  1.00  0.00    -0.352 N 
ATOM     26  C   UNL A   1      34.378  30.948  27.417  1.00  0.00     0.251 C 
ATOM     27  H   UNL A   1      32.840  30.868  26.160  1.00  0.00     0.163 HD
ATOM     28  O   UNL A   1      34.033  32.059  27.805  1.00  0.00    -0.269 OA
BRANCH  26  29
ATOM     29  C   UNL A   1      35.609  30.324  27.973  1.00  0.00     0.039 A 
ATOM     30  C   UNL A   1      36.790  30.370  27.222  1.00  0.00     0.014 A 
ATOM     31  C   UNL A   1      35.620  29.655  29.194  1.00  0.00     0.014 A 
ATOM     32  C   UNL A   1      37.970  29.813  27.730  1.00  0.00     0.010 A 
ATOM     33  C   UNL A   1      36.820  29.240  29.764  1.00  0.00     0.010 A 
ATOM     34  C   UNL A   1      38.009  29.280  29.028  1.00  0.00    -0.014 A 
BRANCH  34  35
ATOM     35  C   UNL A   1      39.259  28.711  29.606  1.00  0.00     0.031 A 
ATOM     36  C   UNL A   1      39.829  29.274  30.887  1.00  0.00     0.074 A 
ATOM     37  C   UNL A   1      39.906  27.720  28.961  1.00  0.00     0.049 A 
ATOM     38  N   UNL A   1      40.922  28.942  31.527  1.00  0.00    -0.248 NA
ATOM     39  C   UNL A   1      39.093  30.386  31.510  1.00  0.00     0.031 C 
ATOM     40  C   UNL A   1      39.493  27.128  27.686  1.00  0.00     0.029 A 
ATOM     41  N   UNL A   1      41.045  27.026  29.290  1.00  0.00    -0.354 N 
ATOM     42  C   UNL A   1      41.008  29.811  32.612  1.00  0.00     0.074 A 
ATOM     43  C   UNL A   1      39.910  30.743  32.487  1.00  0.00     0.031 C 
ATOM     44  C   UNL A   1      40.330  26.129  27.370  1.00  0.00     0.029 A 
ATOM     45  C   UNL A   1      41.370  26.037  28.389  1.00  0.00     0.049 A 
ATOM     46  H   UNL A   1      41.579  27.220  30.093  1.00  0.00     0.167 HD
ATOM     47  C   UNL A   1      41.894  29.812  33.640  1.00  0.00     0.034 A 
ATOM     48  C   UNL A   1      42.389  25.154  28.388  1.00  0.00     0.034 A 
ATOM     49  C   UNL A   1      42.976  28.865  33.759  1.00  0.00     0.049 A 
ATOM     50  C   UNL A   1      43.369  25.179  29.534  1.00  0.00     0.074 A 
ATOM     51  C   UNL A   1      43.909  28.742  34.773  1.00  0.00     0.029 A 
ATOM     52  N   UNL A   1      43.272  27.876  32.827  1.00  0.00    -0.354 N 
ATOM     53  N   UNL A   1      43.403  25.975  30.579  1.00  0.00    -0.248 NA
ATOM     54  C   UNL A   1      44.435  24.172  29.508  1.00  0.00     0.031 C 
ATOM     55  C   UNL A   1      44.810  27.732  34.421  1.00  0.00     0.029 A 
ATOM     56  C   UNL A   1      44.387  27.159  33.232  1.00  0.00     0.049 A 
ATOM     57  H   UNL A   1      42.763  27.710  32.001  1.00  0.00     0.167 HD
ATOM     58  C   UNL A   1      44.475  25.535  31.354  1.00  0.00     0.074 A 
ATOM     59  C   UNL A   1      45.038  24.391  30.665  1.00  0.00     0.031 C 
ATOM     60  C   UNL A   1      44.949  26.029  32.528  1.00  0.00     0.034 A 
BRANCH  47  61
ATOM     61  C   UNL A   1      41.729  30.881  34.699  1.00  0.00     0.023 A 
ATOM     62  C   UNL A   1      40.619  30.902  35.563  1.00  0.00     0.031 A 
ATOM     63  C   UNL A   1      42.670  31.918  34.821  1.00  0.00     0.131 A 
ATOM     64  C   UNL A   1      40.430  31.980  36.440  1.00  0.00     0.055 A 
ATOM     65  C   UNL A   1      42.525  32.939  35.765  1.00  0.00     0.041 A 
ATOM     66  F   UNL A   1      43.739  31.971  34.012  1.00  0.00    -0.206 F 
ATOM     67  C   UNL A   1      41.390  32.984  36.569  1.00  0.00     0.022 A 
BRANCH  64  68
ATOM     68  S   UNL A   1      38.831  32.137  37.285  1.00  0.00     0.124 S 
ATOM     69  O   UNL A   1      38.205  30.855  36.971  1.00  0.00    -0.237 OA
ATOM     70  O   UNL A   1      39.225  32.333  38.675  1.00  0.00    -0.237 OA
ATOM     71  O   UNL A   1      38.216  33.296  36.640  1.00  0.00    -0.744 OA
ENDBRANCH  64  68
ENDBRANCH  47  61
BRANCH  48  72
ATOM     72  C   UNL A   1      42.535  24.162  27.282  1.00  0.00     0.023 A 
ATOM     73  C   UNL A   1      41.896  22.913  27.341  1.00  0.00     0.031 A 
ATOM     74  C   UNL A   1      43.354  24.429  26.170  1.00  0.00     0.131 A 
ATOM     75  C   UNL A   1      42.130  21.956  26.341  1.00  0.00     0.055 A 
ATOM     76  C   UNL A   1      43.535  23.496  25.146  1.00  0.00     0.041 A 
ATOM     77  F   UNL A   1      43.985  25.607  26.058  1.00  0.00    -0.206 F 
ATOM     78  C   UNL A   1      42.933  22.245  25.235  1.00  0.00     0.022 A 
BRANCH  75  79
ATOM     79  S   UNL A   1      41.446  20.289  26.555  1.00  0.00     0.124 S 
ATOM     80  O   UNL A   1      42.064  19.874  27.809  1.00  0.00    -0.237 OA
ATOM     81  O   UNL A   1      40.012  20.554  26.603  1.00  0.00    -0.237 OA
ATOM     82  O   UNL A   1      41.906  19.578  25.365  1.00  0.00    -0.744 OA
ENDBRANCH  75  79
ENDBRANCH  48  72
BRANCH  60  83
ATOM     83  C   UNL A   1      46.106  25.289  33.159  1.00  0.00     0.023 A 
ATOM     84  C   UNL A   1      45.907  24.239  34.072  1.00  0.00     0.031 A 
ATOM     85  C   UNL A   1      47.430  25.677  32.881  1.00  0.00     0.131 A 
ATOM     86  C   UNL A   1      47.003  23.678  34.744  1.00  0.00     0.055 A 
ATOM     87  C   UNL A   1      48.522  25.056  33.490  1.00  0.00     0.041 A 
ATOM     88  F   UNL A   1      47.686  26.674  32.019  1.00  0.00    -0.206 F 
ATOM     89  C   UNL A   1      48.311  24.067  34.445  1.00  0.00     0.022 A 
BRANCH  86  90
ATOM     90  S   UNL A   1      46.686  22.545  36.125  1.00  0.00     0.124 S 
ATOM     91  O   UNL A   1      45.294  22.169  35.894  1.00  0.00    -0.237 OA
ATOM     92  O   UNL A   1      47.675  21.496  35.900  1.00  0.00    -0.237 OA
ATOM     93  O   UNL A   1      46.917  23.373  37.307  1.00  0.00    -0.744 OA
ENDBRANCH  86  90
ENDBRANCH  60  83
ENDBRANCH  34  35
ENDBRANCH  26  29
ENDBRANCH  24  25
ENDBRANCH   1  24
TORSDOF 17
ENDMDL
MODEL 2
REMARK VINA RESULT:     -11.7      2.045      2.279
REMARK SMILES COc1ncccc1C[C@H](C(=O)NCCCNC(=O)c1ccc(-c2c3nc(c(-c4cc(S(=O)(=O)[O-])ccc4F)c4ccc([nH]4)c(-c4cc(S(=O)(=O)[O-])ccc4F)c4nc(c(-c5cc(S(=O)(=O)[O-])ccc5F)c5ccc2[nH]5)C=C4)C=C3)cc1)c1ccc(F)cc1
REMARK SMILES IDX 15 1 14 2 13 3 11 4 12 5 10 7 9 8 8 9 3 10 4 11 5 12 7 13
REMARK SMILES IDX 6 14 2 15 1 16 83 17 84 18 89 19 85 20 88 21 86 22 87 23
REMARK SMILES IDX 16 24 17 25 18 26 19 28 20 29 21 30 82 31 22 32 81 33 23 34
REMARK SMILES IDX 24 35 25 36 75 37 26 38 80 39 74 40 76 41 27 42 79 43 73 44
REMARK SMILES IDX 72 45 28 47 60 48 40 49 59 50 41 51 44 52 58 53 77 54 42 55
REMARK SMILES IDX 43 56 57 58 78 59 45 60 29 61 30 62 38 63 31 64 37 65 39 66
REMARK SMILES IDX 36 67 32 68 33 69 34 70 35 71 61 72 62 73 70 74 63 75 69 76
REMARK SMILES IDX 71 77 68 78 64 79 65 80 66 81 67 82 46 83 47 84 55 85 48 86
REMARK SMILES IDX 54 87 56 88 53 89 49 90 50 91 51 92 52 93
REMARK H PARENT 13 6 17 27 76 46 44 57
REMARK Flexibility Score: inf
ROOT
ATOM      1  C   UNL A   1      32.313  28.125  27.199  1.00  0.00     0.042 C 
ENDROOT
BRANCH   1   2
ATOM      2  C   UNL A   1      31.287  27.463  26.303  1.00  0.00     0.117 C 
BRANCH   2   3
ATOM      3  N   UNL A   1      31.027  26.045  26.477  1.00  0.00    -0.355 N 
ATOM      4  C   UNL A   1      31.920  25.010  26.609  1.00  0.00     0.227 C 
ATOM      5  O   UNL A   1      31.487  24.013  27.207  1.00  0.00    -0.274 OA
ATOM      6  H   UNL A   1      30.077  25.789  26.502  1.00  0.00     0.163 HD
BRANCH   4   7
ATOM      7  C   UNL A   1      33.306  24.901  25.896  1.00  0.00     0.113 C 
BRANCH   7   8
ATOM      8  C   UNL A   1      33.938  23.626  26.612  1.00  0.00     0.059 C 
BRANCH   8   9
ATOM      9  C   UNL A   1      35.221  23.016  26.116  1.00  0.00     0.015 A 
ATOM     10  C   UNL A   1      35.300  21.720  25.593  1.00  0.00     0.216 A 
ATOM     11  N   UNL A   1      36.382  21.248  24.935  1.00  0.00    -0.222 NA
ATOM     12  C   UNL A   1      37.450  22.065  24.828  1.00  0.00     0.115 A 
ATOM     13  C   UNL A   1      36.390  23.794  26.074  1.00  0.00     0.011 A 
ATOM     14  C   UNL A   1      37.520  23.316  25.414  1.00  0.00     0.021 A 
BRANCH  10  15
ATOM     15  O   UNL A   1      34.374  20.760  25.892  1.00  0.00    -0.481 OA
ATOM     16  C   UNL A   1      33.863  20.082  24.757  1.00  0.00     0.280 C 
ENDBRANCH  10  15
ENDBRANCH   8   9
ENDBRANCH   7   8
BRANCH   7  17
ATOM     17  C   UNL A   1      33.354  25.098  24.368  1.00  0.00    -0.035 A 
ATOM     18  C   UNL A   1      33.685  26.328  23.779  1.00  0.00     0.007 A 
ATOM     19  C   UNL A   1      33.098  24.064  23.460  1.00  0.00     0.007 A 
ATOM     20  C   UNL A   1      33.325  26.602  22.448  1.00  0.00     0.039 A 
ATOM     21  C   UNL A   1      32.749  24.307  22.131  1.00  0.00     0.039 A 
ATOM     22  C   UNL A   1      32.789  25.598  21.657  1.00  0.00     0.123 A 
ATOM     23  F   UNL A   1      32.334  25.871  20.430  1.00  0.00    -0.207 F 
ENDBRANCH   7  17
ENDBRANCH   4   7
ENDBRANCH   2   3
ENDBRANCH   1   2
BRANCH   1  24
ATOM     24  C   UNL A   1      33.399  28.916  26.499  1.00  0.00     0.118 C 
BRANCH  24  25
ATOM     25  N   UNL A   1      33.479  30.310  26.910  1.00  0.00    -0.352 N 
ATOM     26  C   UNL A   1      34.387  31.016  27.671  1.00  0.00     0.251 C 
ATOM     27  H   UNL A   1      32.733  30.862  26.578  1.00  0.00     0.163 HD
ATOM     28  O   UNL A   1      34.115  32.176  27.961  1.00  0.00    -0.269 OA
BRANCH  26  29
ATOM     29  C   UNL A   1      35.646  30.407  28.179  1.00  0.00     0.039 A 
ATOM     30  C   UNL A   1      36.804  30.495  27.396  1.00  0.00     0.014 A 
ATOM     31  C   UNL A   1      35.705  29.710  29.382  1.00  0.00     0.014 A 
ATOM     32  C   UNL A   1      38.010  29.953  27.859  1.00  0.00     0.010 A 
ATOM     33  C   UNL A   1      36.930  29.309  29.910  1.00  0.00     0.010 A 
ATOM     34  C   UNL A   1      38.097  29.392  29.143  1.00  0.00    -0.014 A 
BRANCH  34  35
ATOM     35  C   UNL A   1      39.374  28.838  29.673  1.00  0.00     0.031 A 
ATOM     36  C   UNL A   1      40.025  29.457  30.887  1.00  0.00     0.074 A 
ATOM     37  C   UNL A   1      39.972  27.808  29.041  1.00  0.00     0.049 A 
ATOM     38  N   UNL A   1      41.153  29.145  31.476  1.00  0.00    -0.248 NA
ATOM     39  C   UNL A   1      39.339  30.608  31.495  1.00  0.00     0.031 C 
ATOM     40  C   UNL A   1      39.477  27.158  27.825  1.00  0.00     0.029 A 
ATOM     41  N   UNL A   1      41.123  27.118  29.336  1.00  0.00    -0.354 N 
ATOM     42  C   UNL A   1      41.312  30.067  32.508  1.00  0.00     0.074 A 
ATOM     43  C   UNL A   1      40.217  31.004  32.403  1.00  0.00     0.031 C 
ATOM     44  C   UNL A   1      40.285  26.134  27.511  1.00  0.00     0.029 A 
ATOM     45  C   UNL A   1      41.384  26.081  28.468  1.00  0.00     0.049 A 
ATOM     46  H   UNL A   1      41.706  27.346  30.095  1.00  0.00     0.167 HD
ATOM     47  C   UNL A   1      42.258  30.109  33.480  1.00  0.00     0.034 A 
ATOM     48  C   UNL A   1      42.393  25.187  28.451  1.00  0.00     0.034 A 
ATOM     49  C   UNL A   1      43.337  29.155  33.582  1.00  0.00     0.049 A 
ATOM     50  C   UNL A   1      43.441  25.258  29.533  1.00  0.00     0.074 A 
ATOM     51  C   UNL A   1      44.329  29.072  34.543  1.00  0.00     0.029 A 
ATOM     52  N   UNL A   1      43.567  28.118  32.685  1.00  0.00    -0.354 N 
ATOM     53  N   UNL A   1      43.545  26.105  30.533  1.00  0.00    -0.248 NA
ATOM     54  C   UNL A   1      44.494  24.238  29.494  1.00  0.00     0.031 C 
ATOM     55  C   UNL A   1      45.197  28.035  34.189  1.00  0.00     0.029 A 
ATOM     56  C   UNL A   1      44.699  27.408  33.058  1.00  0.00     0.049 A 
ATOM     57  H   UNL A   1      43.007  27.916  31.901  1.00  0.00     0.167 HD
ATOM     58  C   UNL A   1      44.657  25.691  31.263  1.00  0.00     0.074 A 
ATOM     59  C   UNL A   1      45.168  24.508  30.601  1.00  0.00     0.031 C 
ATOM     60  C   UNL A   1      45.206  26.237  32.380  1.00  0.00     0.034 A 
BRANCH  47  61
ATOM     61  C   UNL A   1      42.168  31.231  34.491  1.00  0.00     0.023 A 
ATOM     62  C   UNL A   1      42.865  32.441  34.318  1.00  0.00     0.031 A 
ATOM     63  C   UNL A   1      41.411  31.077  35.665  1.00  0.00     0.131 A 
ATOM     64  C   UNL A   1      42.866  33.405  35.337  1.00  0.00     0.055 A 
ATOM     65  C   UNL A   1      41.338  32.082  36.634  1.00  0.00     0.041 A 
ATOM     66  F   UNL A   1      40.741  29.939  35.904  1.00  0.00    -0.206 F 
ATOM     67  C   UNL A   1      42.084  33.247  36.481  1.00  0.00     0.022 A 
BRANCH  64  68
ATOM     68  S   UNL A   1      44.037  34.786  35.220  1.00  0.00     0.124 S 
ATOM     69  O   UNL A   1      44.913  34.339  34.138  1.00  0.00    -0.237 OA
ATOM     70  O   UNL A   1      43.167  35.915  34.912  1.00  0.00    -0.237 OA
ATOM     71  O   UNL A   1      44.661  34.819  36.541  1.00  0.00    -0.744 OA
ENDBRANCH  64  68
ENDBRANCH  47  61
BRANCH  48  72
ATOM     72  C   UNL A   1      42.462  24.139  27.390  1.00  0.00     0.023 A 
ATOM     73  C   UNL A   1      41.777  22.921  27.529  1.00  0.00     0.031 A 
ATOM     74  C   UNL A   1      43.254  24.319  26.242  1.00  0.00     0.131 A 
ATOM     75  C   UNL A   1      41.940  21.910  26.570  1.00  0.00     0.055 A 
ATOM     76  C   UNL A   1      43.363  23.333  25.259  1.00  0.00     0.041 A 
ATOM     77  F   UNL A   1      43.927  25.464  26.053  1.00  0.00    -0.206 F 
ATOM     78  C   UNL A   1      42.716  22.113  25.427  1.00  0.00     0.022 A 
BRANCH  75  79
ATOM     79  S   UNL A   1      41.198  20.284  26.886  1.00  0.00     0.124 S 
ATOM     80  O   UNL A   1      40.936  20.351  28.318  1.00  0.00    -0.237 OA
ATOM     81  O   UNL A   1      40.026  20.312  26.017  1.00  0.00    -0.237 OA
ATOM     82  O   UNL A   1      42.246  19.349  26.484  1.00  0.00    -0.744 OA
ENDBRANCH  75  79
ENDBRANCH  48  72
BRANCH  60  83
ATOM     83  C   UNL A   1      46.393  25.517  32.977  1.00  0.00     0.023 A 
ATOM     84  C   UNL A   1      47.704  25.744  32.525  1.00  0.00     0.031 A 
ATOM     85  C   UNL A   1      46.202  24.549  33.980  1.00  0.00     0.131 A 
ATOM     86  C   UNL A   1      48.758  24.952  33.003  1.00  0.00     0.055 A 
ATOM     87  C   UNL A   1      47.268  23.822  34.514  1.00  0.00     0.041 A 
ATOM     88  F   UNL A   1      44.974  24.285  34.454  1.00  0.00    -0.206 F 
ATOM     89  C   UNL A   1      48.551  24.005  34.009  1.00  0.00     0.022 A 
BRANCH  86  90
ATOM     90  S   UNL A   1      50.372  25.067  32.182  1.00  0.00     0.124 S 
ATOM     91  O   UNL A   1      50.028  25.736  30.932  1.00  0.00    -0.237 OA
ATOM     92  O   UNL A   1      51.149  25.855  33.133  1.00  0.00    -0.237 OA
ATOM     93  O   UNL A   1      50.787  23.672  32.046  1.00  0.00    -0.744 OA
ENDBRANCH  86  90
ENDBRANCH  60  83
ENDBRANCH  34  35
ENDBRANCH  26  29
ENDBRANCH  24  25
ENDBRANCH   1  24
TORSDOF 17
ENDMDL
MODEL 3
REMARK VINA RESULT:     -11.6      1.740      2.249
REMARK SMILES COc1ncccc1C[C@H](C(=O)NCCCNC(=O)c1ccc(-c2c3nc(c(-c4cc(S(=O)(=O)[O-])ccc4F)c4ccc([nH]4)c(-c4cc(S(=O)(=O)[O-])ccc4F)c4nc(c(-c5cc(S(=O)(=O)[O-])ccc5F)c5ccc2[nH]5)C=C4)C=C3)cc1)c1ccc(F)cc1
REMARK SMILES IDX 15 1 14 2 13 3 11 4 12 5 10 7 9 8 8 9 3 10 4 11 5 12 7 13
REMARK SMILES IDX 6 14 2 15 1 16 83 17 84 18 89 19 85 20 88 21 86 22 87 23
REMARK SMILES IDX 16 24 17 25 18 26 19 28 20 29 21 30 82 31 22 32 81 33 23 34
REMARK SMILES IDX 24 35 25 36 75 37 26 38 80 39 74 40 76 41 27 42 79 43 73 44
REMARK SMILES IDX 72 45 28 47 60 48 40 49 59 50 41 51 44 52 58 53 77 54 42 55
REMARK SMILES IDX 43 56 57 58 78 59 45 60 29 61 30 62 38 63 31 64 37 65 39 66
REMARK SMILES IDX 36 67 32 68 33 69 34 70 35 71 61 72 62 73 70 74 63 75 69 76
REMARK SMILES IDX 71 77 68 78 64 79 65 80 66 81 67 82 46 83 47 84 55 85 48 86
REMARK SMILES IDX 54 87 56 88 53 89 49 90 50 91 51 92 52 93
REMARK H PARENT 13 6 17 27 76 46 44 57
REMARK Flexibility Score: inf
ROOT
ATOM      1  C   UNL A   1      32.086  28.151  26.553  1.00  0.00     0.042 C 
ENDROOT
BRANCH   1   2
ATOM      2  C   UNL A   1      31.044  27.328  25.825  1.00  0.00     0.117 C 
BRANCH   2   3
ATOM      3  N   UNL A   1      30.862  25.940  26.210  1.00  0.00    -0.355 N 
ATOM      4  C   UNL A   1      31.810  24.994  26.513  1.00  0.00     0.227 C 
ATOM      5  O   UNL A   1      31.422  24.075  27.251  1.00  0.00    -0.274 OA
ATOM      6  H   UNL A   1      29.929  25.634  26.261  1.00  0.00     0.163 HD
BRANCH   4   7
ATOM      7  C   UNL A   1      33.217  24.862  25.845  1.00  0.00     0.113 C 
BRANCH   7   8
ATOM      8  C   UNL A   1      33.806  23.580  26.586  1.00  0.00     0.059 C 
BRANCH   8   9
ATOM      9  C   UNL A   1      35.091  22.945  26.129  1.00  0.00     0.015 A 
ATOM     10  C   UNL A   1      35.164  21.642  25.622  1.00  0.00     0.216 A 
ATOM     11  N   UNL A   1      36.254  21.146  24.997  1.00  0.00    -0.222 NA
ATOM     12  C   UNL A   1      37.337  21.945  24.907  1.00  0.00     0.115 A 
ATOM     13  C   UNL A   1      36.274  23.705  26.107  1.00  0.00     0.011 A 
ATOM     14  C   UNL A   1      37.411  23.202  25.481  1.00  0.00     0.021 A 
BRANCH  10  15
ATOM     15  O   UNL A   1      34.216  20.700  25.909  1.00  0.00    -0.481 OA
ATOM     16  C   UNL A   1      33.362  20.395  24.820  1.00  0.00     0.280 C 
ENDBRANCH  10  15
ENDBRANCH   8   9
ENDBRANCH   7   8
BRANCH   7  17
ATOM     17  C   UNL A   1      33.317  25.051  24.319  1.00  0.00    -0.035 A 
ATOM     18  C   UNL A   1      33.763  26.249  23.739  1.00  0.00     0.007 A 
ATOM     19  C   UNL A   1      32.995  24.041  23.405  1.00  0.00     0.007 A 
ATOM     20  C   UNL A   1      33.458  26.550  22.400  1.00  0.00     0.039 A 
ATOM     21  C   UNL A   1      32.700  24.310  22.068  1.00  0.00     0.039 A 
ATOM     22  C   UNL A   1      32.858  25.593  21.596  1.00  0.00     0.123 A 
ATOM     23  F   UNL A   1      32.456  25.902  20.359  1.00  0.00    -0.207 F 
ENDBRANCH   7  17
ENDBRANCH   4   7
ENDBRANCH   2   3
ENDBRANCH   1   2
BRANCH   1  24
ATOM     24  C   UNL A   1      32.807  29.197  25.727  1.00  0.00     0.118 C 
BRANCH  24  25
ATOM     25  N   UNL A   1      32.599  30.563  26.186  1.00  0.00    -0.352 N 
ATOM     26  C   UNL A   1      33.275  31.368  27.079  1.00  0.00     0.251 C 
ATOM     27  H   UNL A   1      31.818  31.001  25.776  1.00  0.00     0.163 HD
ATOM     28  O   UNL A   1      32.778  32.452  27.365  1.00  0.00    -0.269 OA
BRANCH  26  29
ATOM     29  C   UNL A   1      34.545  30.948  27.729  1.00  0.00     0.039 A 
ATOM     30  C   UNL A   1      35.578  31.885  27.866  1.00  0.00     0.014 A 
ATOM     31  C   UNL A   1      34.766  29.644  28.164  1.00  0.00     0.014 A 
ATOM     32  C   UNL A   1      36.776  31.526  28.495  1.00  0.00     0.010 A 
ATOM     33  C   UNL A   1      35.890  29.330  28.922  1.00  0.00     0.010 A 
ATOM     34  C   UNL A   1      36.929  30.255  29.072  1.00  0.00    -0.014 A 
BRANCH  34  35
ATOM     35  C   UNL A   1      38.181  29.857  29.775  1.00  0.00     0.031 A 
ATOM     36  C   UNL A   1      38.496  30.421  31.141  1.00  0.00     0.074 A 
ATOM     37  C   UNL A   1      39.055  29.026  29.173  1.00  0.00     0.049 A 
ATOM     38  N   UNL A   1      39.548  30.229  31.897  1.00  0.00    -0.248 NA
ATOM     39  C   UNL A   1      37.518  31.358  31.715  1.00  0.00     0.031 C 
ATOM     40  C   UNL A   1      38.897  28.459  27.831  1.00  0.00     0.029 A 
ATOM     41  N   UNL A   1      40.248  28.504  29.610  1.00  0.00    -0.354 N 
ATOM     42  C   UNL A   1      39.361  31.029  33.021  1.00  0.00     0.074 A 
ATOM     43  C   UNL A   1      38.145  31.778  32.802  1.00  0.00     0.031 C 
ATOM     44  C   UNL A   1      39.920  27.628  27.579  1.00  0.00     0.029 A 
ATOM     45  C   UNL A   1      40.836  27.640  28.714  1.00  0.00     0.049 A 
ATOM     46  H   UNL A   1      40.645  28.729  30.482  1.00  0.00     0.167 HD
ATOM     47  C   UNL A   1      40.109  31.106  34.151  1.00  0.00     0.034 A 
ATOM     48  C   UNL A   1      41.981  26.934  28.801  1.00  0.00     0.034 A 
ATOM     49  C   UNL A   1      41.313  30.338  34.363  1.00  0.00     0.049 A 
ATOM     50  C   UNL A   1      42.803  27.042  30.061  1.00  0.00     0.074 A 
ATOM     51  C   UNL A   1      42.130  30.302  35.479  1.00  0.00     0.029 A 
ATOM     52  N   UNL A   1      41.876  29.472  33.432  1.00  0.00    -0.354 N 
ATOM     53  N   UNL A   1      42.583  27.764  31.136  1.00  0.00    -0.248 NA
ATOM     54  C   UNL A   1      44.018  26.223  30.123  1.00  0.00     0.031 C 
ATOM     55  C   UNL A   1      43.221  29.474  35.197  1.00  0.00     0.029 A 
ATOM     56  C   UNL A   1      43.041  28.918  33.941  1.00  0.00     0.049 A 
ATOM     57  H   UNL A   1      41.501  29.279  32.542  1.00  0.00     0.167 HD
ATOM     58  C   UNL A   1      43.615  27.453  32.018  1.00  0.00     0.074 A 
ATOM     59  C   UNL A   1      44.438  26.461  31.356  1.00  0.00     0.031 C 
ATOM     60  C   UNL A   1      43.861  27.940  33.263  1.00  0.00     0.034 A 
BRANCH  47  61
ATOM     61  C   UNL A   1      39.647  32.064  35.227  1.00  0.00     0.023 A 
ATOM     62  C   UNL A   1      40.117  33.390  35.290  1.00  0.00     0.031 A 
ATOM     63  C   UNL A   1      38.759  31.639  36.231  1.00  0.00     0.131 A 
ATOM     64  C   UNL A   1      39.772  34.208  36.376  1.00  0.00     0.055 A 
ATOM     65  C   UNL A   1      38.343  32.491  37.258  1.00  0.00     0.041 A 
ATOM     66  F   UNL A   1      38.292  30.382  36.244  1.00  0.00    -0.206 F 
ATOM     67  C   UNL A   1      38.865  33.779  37.345  1.00  0.00     0.022 A 
BRANCH  64  68
ATOM     68  S   UNL A   1      40.660  35.776  36.592  1.00  0.00     0.124 S 
ATOM     69  O   UNL A   1      41.810  35.587  35.711  1.00  0.00    -0.237 OA
ATOM     70  O   UNL A   1      39.676  36.760  36.156  1.00  0.00    -0.237 OA
ATOM     71  O   UNL A   1      40.975  35.797  38.019  1.00  0.00    -0.744 OA
ENDBRANCH  64  68
ENDBRANCH  47  61
BRANCH  48  72
ATOM     72  C   UNL A   1      42.417  26.050  27.679  1.00  0.00     0.023 A 
ATOM     73  C   UNL A   1      41.961  24.726  27.581  1.00  0.00     0.031 A 
ATOM     74  C   UNL A   1      43.335  26.503  26.715  1.00  0.00     0.131 A 
ATOM     75  C   UNL A   1      42.465  23.882  26.578  1.00  0.00     0.055 A 
ATOM     76  C   UNL A   1      43.786  25.677  25.681  1.00  0.00     0.041 A 
ATOM     77  F   UNL A   1      43.801  27.760  26.756  1.00  0.00    -0.206 F 
ATOM     78  C   UNL A   1      43.363  24.354  25.618  1.00  0.00     0.022 A 
BRANCH  75  79
ATOM     79  S   UNL A   1      42.002  22.128  26.606  1.00  0.00     0.124 S 
ATOM     80  O   UNL A   1      42.670  21.664  27.816  1.00  0.00    -0.237 OA
ATOM     81  O   UNL A   1      40.547  22.199  26.663  1.00  0.00    -0.237 OA
ATOM     82  O   UNL A   1      42.550  21.613  25.352  1.00  0.00    -0.744 OA
ENDBRANCH  75  79
ENDBRANCH  48  72
BRANCH  60  83
ATOM     83  C   UNL A   1      45.045  27.357  34.001  1.00  0.00     0.023 A 
ATOM     84  C   UNL A   1      44.937  26.184  34.767  1.00  0.00     0.031 A 
ATOM     85  C   UNL A   1      46.288  28.015  33.977  1.00  0.00     0.131 A 
ATOM     86  C   UNL A   1      46.019  25.757  35.552  1.00  0.00     0.055 A 
ATOM     87  C   UNL A   1      47.387  27.538  34.693  1.00  0.00     0.041 A 
ATOM     88  F   UNL A   1      46.454  29.141  33.264  1.00  0.00    -0.206 F 
ATOM     89  C   UNL A   1      47.250  26.417  35.505  1.00  0.00     0.022 A 
BRANCH  86  90
ATOM     90  S   UNL A   1      45.748  24.424  36.752  1.00  0.00     0.124 S 
ATOM     91  O   UNL A   1      45.548  25.169  37.991  1.00  0.00    -0.237 OA
ATOM     92  O   UNL A   1      44.568  23.756  36.213  1.00  0.00    -0.237 OA
ATOM     93  O   UNL A   1      46.985  23.649  36.687  1.00  0.00    -0.744 OA
ENDBRANCH  86  90
ENDBRANCH  60  83
ENDBRANCH  34  35
ENDBRANCH  26  29
ENDBRANCH  24  25
ENDBRANCH   1  24
TORSDOF 17
ENDMDL
