MODEL 1
REMARK VINA RESULT:      -9.7      0.000      0.000
REMARK SMILES O=C(CSC(=S)N1CCCC1)NCCCNC(=O)c1ccc(-c2c3nc(c(-c4cc(S(=O)(=O)[O-])ccc4F)c4ccc([nH]4)c(-c4cc(S(=O)(=O)[O-])ccc4F)c4nc(c(-c5cc(S(=O)(=O)[O-])ccc5F)c5ccc2[nH]5)C=C4)C=C3)cc1
REMARK SMILES IDX 14 1 13 2 12 3 1 4 2 5 3 7 4 8 5 9 6 10 7 11 8 12 11 13 9 14
REMARK SMILES IDX 10 15 15 16 16 17 17 18 18 20 19 21 20 22 81 23 21 24 80 25
REMARK SMILES IDX 22 26 23 27 24 28 74 29 25 30 79 31 73 32 75 33 26 34 78 35
REMARK SMILES IDX 72 36 71 37 27 39 59 40 39 41 58 42 40 43 43 44 57 45 76 46
REMARK SMILES IDX 41 47 42 48 56 50 77 51 44 52 28 53 29 54 37 55 30 56 36 57
REMARK SMILES IDX 38 58 35 59 31 60 32 61 33 62 34 63 60 64 61 65 69 66 62 67
REMARK SMILES IDX 68 68 70 69 67 70 63 71 64 72 65 73 66 74 45 75 46 76 54 77
REMARK SMILES IDX 47 78 53 79 55 80 52 81 48 82 49 83 50 84 51 85
REMARK H PARENT 12 6 16 19 75 38 43 49
REMARK Flexibility Score: inf
ROOT
ATOM      1  C   UNL A   1      33.725  34.498  28.062  1.00  0.00     0.042 C 
ENDROOT
BRANCH   1   2
ATOM      2  C   UNL A   1      33.159  35.287  29.237  1.00  0.00     0.117 C 
BRANCH   2   3
ATOM      3  N   UNL A   1      34.066  35.383  30.364  1.00  0.00    -0.355 N 
ATOM      4  O   UNL A   1      32.427  35.332  31.962  1.00  0.00    -0.274 OA
ATOM      5  C   UNL A   1      33.621  35.304  31.666  1.00  0.00     0.230 C 
ATOM      6  H   UNL A   1      35.028  35.508  30.194  1.00  0.00     0.163 HD
BRANCH   5   7
ATOM      7  C   UNL A   1      34.693  35.272  32.746  1.00  0.00     0.177 C 
BRANCH   7   8
ATOM      8  S   UNL A   1      35.482  33.665  33.006  1.00  0.00    -0.087 SA
BRANCH   8   9
ATOM      9  C   UNL A   1      37.225  33.952  33.038  1.00  0.00     0.136 C 
ATOM     10  S   UNL A   1      38.158  34.114  34.424  1.00  0.00    -0.053 S 
BRANCH   9  11
ATOM     11  N   UNL A   1      37.792  33.954  31.765  1.00  0.00    -0.358 N 
ATOM     12  C   UNL A   1      39.061  34.560  31.373  1.00  0.00     0.118 C 
ATOM     13  C   UNL A   1      37.171  33.307  30.608  1.00  0.00     0.118 C 
ATOM     14  C   UNL A   1      38.911  34.806  29.884  1.00  0.00     0.023 C 
ATOM     15  C   UNL A   1      38.074  33.624  29.419  1.00  0.00     0.023 C 
ENDBRANCH   9  11
ENDBRANCH   8   9
ENDBRANCH   7   8
ENDBRANCH   5   7
ENDBRANCH   2   3
ENDBRANCH   1   2
BRANCH   1  16
ATOM     16  C   UNL A   1      34.468  33.221  28.446  1.00  0.00     0.118 C 
BRANCH  16  17
ATOM     17  N   UNL A   1      33.883  32.018  27.867  1.00  0.00    -0.352 N 
ATOM     18  C   UNL A   1      34.401  30.759  27.696  1.00  0.00     0.251 C 
ATOM     19  H   UNL A   1      32.959  32.127  27.547  1.00  0.00     0.163 HD
ATOM     20  O   UNL A   1      33.748  29.937  27.049  1.00  0.00    -0.269 OA
BRANCH  18  21
ATOM     21  C   UNL A   1      35.727  30.384  28.239  1.00  0.00     0.039 A 
ATOM     22  C   UNL A   1      35.781  29.736  29.479  1.00  0.00     0.014 A 
ATOM     23  C   UNL A   1      36.916  30.683  27.569  1.00  0.00     0.014 A 
ATOM     24  C   UNL A   1      37.010  29.327  30.003  1.00  0.00     0.010 A 
ATOM     25  C   UNL A   1      38.134  30.208  28.056  1.00  0.00     0.010 A 
ATOM     26  C   UNL A   1      38.196  29.518  29.276  1.00  0.00    -0.014 A 
BRANCH  26  27
ATOM     27  C   UNL A   1      39.492  28.970  29.769  1.00  0.00     0.031 A 
ATOM     28  C   UNL A   1      40.222  29.625  30.911  1.00  0.00     0.074 A 
ATOM     29  C   UNL A   1      40.035  27.900  29.152  1.00  0.00     0.049 A 
ATOM     30  N   UNL A   1      41.374  29.309  31.448  1.00  0.00    -0.248 NA
ATOM     31  C   UNL A   1      39.587  30.807  31.511  1.00  0.00     0.031 C 
ATOM     32  C   UNL A   1      39.447  27.200  28.007  1.00  0.00     0.029 A 
ATOM     33  N   UNL A   1      41.198  27.213  29.394  1.00  0.00    -0.354 N 
ATOM     34  C   UNL A   1      41.604  30.251  32.444  1.00  0.00     0.074 A 
ATOM     35  C   UNL A   1      40.501  31.188  32.391  1.00  0.00     0.031 C 
ATOM     36  C   UNL A   1      40.235  26.167  27.671  1.00  0.00     0.029 A 
ATOM     37  C   UNL A   1      41.408  26.157  28.536  1.00  0.00     0.049 A 
ATOM     38  H   UNL A   1      41.825  27.454  30.115  1.00  0.00     0.167 HD
ATOM     39  C   UNL A   1      42.628  30.318  33.333  1.00  0.00     0.034 A 
ATOM     40  C   UNL A   1      42.433  25.286  28.446  1.00  0.00     0.034 A 
ATOM     41  C   UNL A   1      43.722  29.376  33.373  1.00  0.00     0.049 A 
ATOM     42  C   UNL A   1      43.575  25.400  29.424  1.00  0.00     0.074 A 
ATOM     43  C   UNL A   1      44.783  29.325  34.262  1.00  0.00     0.029 A 
ATOM     44  N   UNL A   1      43.907  28.327  32.481  1.00  0.00    -0.354 N 
ATOM     45  N   UNL A   1      43.749  26.268  30.396  1.00  0.00    -0.248 NA
ATOM     46  C   UNL A   1      44.650  24.408  29.302  1.00  0.00     0.031 C 
ATOM     47  C   UNL A   1      45.647  28.299  33.861  1.00  0.00     0.029 A 
ATOM     48  C   UNL A   1      45.081  27.648  32.776  1.00  0.00     0.049 A 
ATOM     49  H   UNL A   1      43.295  28.098  31.744  1.00  0.00     0.167 HD
ATOM     50  C   UNL A   1      44.939  25.902  31.020  1.00  0.00     0.074 A 
ATOM     51  C   UNL A   1      45.425  24.725  30.329  1.00  0.00     0.031 C 
ATOM     52  C   UNL A   1      45.570  26.484  32.073  1.00  0.00     0.034 A 
BRANCH  39  53
ATOM     53  C   UNL A   1      42.624  31.467  34.316  1.00  0.00     0.023 A 
ATOM     54  C   UNL A   1      41.776  31.481  35.437  1.00  0.00     0.031 A 
ATOM     55  C   UNL A   1      43.472  32.574  34.125  1.00  0.00     0.131 A 
ATOM     56  C   UNL A   1      41.737  32.604  36.277  1.00  0.00     0.055 A 
ATOM     57  C   UNL A   1      43.491  33.651  35.013  1.00  0.00     0.041 A 
ATOM     58  F   UNL A   1      44.291  32.632  33.063  1.00  0.00    -0.206 F 
ATOM     59  C   UNL A   1      42.610  33.678  36.089  1.00  0.00     0.022 A 
BRANCH  56  60
ATOM     60  S   UNL A   1      40.428  32.707  37.528  1.00  0.00     0.124 S 
ATOM     61  O   UNL A   1      41.145  32.311  38.739  1.00  0.00    -0.237 OA
ATOM     62  O   UNL A   1      40.026  34.106  37.452  1.00  0.00    -0.237 OA
ATOM     63  O   UNL A   1      39.432  31.743  37.062  1.00  0.00    -0.744 OA
ENDBRANCH  56  60
ENDBRANCH  39  53
BRANCH  40  64
ATOM     64  C   UNL A   1      42.440  24.233  27.390  1.00  0.00     0.023 A 
ATOM     65  C   UNL A   1      41.815  22.993  27.597  1.00  0.00     0.031 A 
ATOM     66  C   UNL A   1      43.115  24.434  26.171  1.00  0.00     0.131 A 
ATOM     67  C   UNL A   1      41.922  21.983  26.626  1.00  0.00     0.055 A 
ATOM     68  C   UNL A   1      43.165  23.449  25.183  1.00  0.00     0.041 A 
ATOM     69  F   UNL A   1      43.728  25.601  25.920  1.00  0.00    -0.206 F 
ATOM     70  C   UNL A   1      42.578  22.208  25.415  1.00  0.00     0.022 A 
BRANCH  67  71
ATOM     71  S   UNL A   1      41.270  20.335  27.013  1.00  0.00     0.124 S 
ATOM     72  O   UNL A   1      42.459  19.504  26.864  1.00  0.00    -0.237 OA
ATOM     73  O   UNL A   1      40.778  20.515  28.374  1.00  0.00    -0.237 OA
ATOM     74  O   UNL A   1      40.235  20.133  26.000  1.00  0.00    -0.744 OA
ENDBRANCH  67  71
ENDBRANCH  40  64
BRANCH  52  75
ATOM     75  C   UNL A   1      46.836  25.819  32.566  1.00  0.00     0.023 A 
ATOM     76  C   UNL A   1      48.083  26.053  31.961  1.00  0.00     0.031 A 
ATOM     77  C   UNL A   1      46.784  24.910  33.639  1.00  0.00     0.131 A 
ATOM     78  C   UNL A   1      49.212  25.334  32.382  1.00  0.00     0.055 A 
ATOM     79  C   UNL A   1      47.926  24.252  34.101  1.00  0.00     0.041 A 
ATOM     80  F   UNL A   1      45.622  24.642  34.254  1.00  0.00    -0.206 F 
ATOM     81  C   UNL A   1      49.145  24.449  33.461  1.00  0.00     0.022 A 
BRANCH  78  82
ATOM     82  S   UNL A   1      50.744  25.476  31.421  1.00  0.00     0.124 S 
ATOM     83  O   UNL A   1      51.010  26.910  31.485  1.00  0.00    -0.237 OA
ATOM     84  O   UNL A   1      51.662  24.623  32.168  1.00  0.00    -0.237 OA
ATOM     85  O   UNL A   1      50.369  24.974  30.100  1.00  0.00    -0.744 OA
ENDBRANCH  78  82
ENDBRANCH  52  75
ENDBRANCH  26  27
ENDBRANCH  18  21
ENDBRANCH  16  17
ENDBRANCH   1  16
TORSDOF 16
ENDMDL
MODEL 2
REMARK VINA RESULT:      -9.6      1.352      1.570
REMARK SMILES O=C(CSC(=S)N1CCCC1)NCCCNC(=O)c1ccc(-c2c3nc(c(-c4cc(S(=O)(=O)[O-])ccc4F)c4ccc([nH]4)c(-c4cc(S(=O)(=O)[O-])ccc4F)c4nc(c(-c5cc(S(=O)(=O)[O-])ccc5F)c5ccc2[nH]5)C=C4)C=C3)cc1
REMARK SMILES IDX 14 1 13 2 12 3 1 4 2 5 3 7 4 8 5 9 6 10 7 11 8 12 11 13 9 14
REMARK SMILES IDX 10 15 15 16 16 17 17 18 18 20 19 21 20 22 81 23 21 24 80 25
REMARK SMILES IDX 22 26 23 27 24 28 74 29 25 30 79 31 73 32 75 33 26 34 78 35
REMARK SMILES IDX 72 36 71 37 27 39 59 40 39 41 58 42 40 43 43 44 57 45 76 46
REMARK SMILES IDX 41 47 42 48 56 50 77 51 44 52 28 53 29 54 37 55 30 56 36 57
REMARK SMILES IDX 38 58 35 59 31 60 32 61 33 62 34 63 60 64 61 65 69 66 62 67
REMARK SMILES IDX 68 68 70 69 67 70 63 71 64 72 65 73 66 74 45 75 46 76 54 77
REMARK SMILES IDX 47 78 53 79 55 80 52 81 48 82 49 83 50 84 51 85
REMARK H PARENT 12 6 16 19 75 38 43 49
REMARK Flexibility Score: inf
ROOT
ATOM      1  C   UNL A   1      33.802  34.515  28.090  1.00  0.00     0.042 C 
ENDROOT
BRANCH   1   2
ATOM      2  C   UNL A   1      33.207  35.274  29.270  1.00  0.00     0.117 C 
BRANCH   2   3
ATOM      3  N   UNL A   1      34.112  35.403  30.395  1.00  0.00    -0.355 N 
ATOM      4  O   UNL A   1      32.477  35.322  31.996  1.00  0.00    -0.274 OA
ATOM      5  C   UNL A   1      33.670  35.322  31.698  1.00  0.00     0.230 C 
ATOM      6  H   UNL A   1      35.070  35.552  30.223  1.00  0.00     0.163 HD
BRANCH   5   7
ATOM      7  C   UNL A   1      34.744  35.328  32.777  1.00  0.00     0.177 C 
BRANCH   7   8
ATOM      8  S   UNL A   1      35.569  33.742  33.056  1.00  0.00    -0.087 SA
BRANCH   8   9
ATOM      9  C   UNL A   1      37.307  34.061  33.042  1.00  0.00     0.136 C 
ATOM     10  S   UNL A   1      38.258  34.320  34.401  1.00  0.00    -0.053 S 
BRANCH   9  11
ATOM     11  N   UNL A   1      37.853  34.000  31.762  1.00  0.00    -0.358 N 
ATOM     12  C   UNL A   1      39.133  34.554  31.330  1.00  0.00     0.118 C 
ATOM     13  C   UNL A   1      37.197  33.329  30.639  1.00  0.00     0.118 C 
ATOM     14  C   UNL A   1      38.968  34.749  29.835  1.00  0.00     0.023 C 
ATOM     15  C   UNL A   1      38.090  33.575  29.427  1.00  0.00     0.023 C 
ENDBRANCH   9  11
ENDBRANCH   8   9
ENDBRANCH   7   8
ENDBRANCH   5   7
ENDBRANCH   2   3
ENDBRANCH   1   2
BRANCH   1  16
ATOM     16  C   UNL A   1      34.544  33.234  28.461  1.00  0.00     0.118 C 
BRANCH  16  17
ATOM     17  N   UNL A   1      33.949  32.036  27.883  1.00  0.00    -0.352 N 
ATOM     18  C   UNL A   1      34.460  30.774  27.707  1.00  0.00     0.251 C 
ATOM     19  H   UNL A   1      33.024  32.151  27.567  1.00  0.00     0.163 HD
ATOM     20  O   UNL A   1      33.799  29.957  27.062  1.00  0.00    -0.269 OA
BRANCH  18  21
ATOM     21  C   UNL A   1      35.787  30.390  28.243  1.00  0.00     0.039 A 
ATOM     22  C   UNL A   1      35.845  29.776  29.500  1.00  0.00     0.014 A 
ATOM     23  C   UNL A   1      36.971  30.650  27.550  1.00  0.00     0.014 A 
ATOM     24  C   UNL A   1      37.075  29.360  30.019  1.00  0.00     0.010 A 
ATOM     25  C   UNL A   1      38.188  30.167  28.033  1.00  0.00     0.010 A 
ATOM     26  C   UNL A   1      38.254  29.509  29.271  1.00  0.00    -0.014 A 
BRANCH  26  27
ATOM     27  C   UNL A   1      39.547  28.953  29.762  1.00  0.00     0.031 A 
ATOM     28  C   UNL A   1      40.288  29.608  30.897  1.00  0.00     0.074 A 
ATOM     29  C   UNL A   1      40.077  27.875  29.149  1.00  0.00     0.049 A 
ATOM     30  N   UNL A   1      41.438  29.284  31.432  1.00  0.00    -0.248 NA
ATOM     31  C   UNL A   1      39.666  30.800  31.493  1.00  0.00     0.031 C 
ATOM     32  C   UNL A   1      39.478  27.173  28.011  1.00  0.00     0.029 A 
ATOM     33  N   UNL A   1      41.235  27.178  29.392  1.00  0.00    -0.354 N 
ATOM     34  C   UNL A   1      41.682  30.231  32.421  1.00  0.00     0.074 A 
ATOM     35  C   UNL A   1      40.587  31.178  32.367  1.00  0.00     0.031 C 
ATOM     36  C   UNL A   1      40.255  26.131  27.678  1.00  0.00     0.029 A 
ATOM     37  C   UNL A   1      41.432  26.115  28.539  1.00  0.00     0.049 A 
ATOM     38  H   UNL A   1      41.867  27.418  30.108  1.00  0.00     0.167 HD
ATOM     39  C   UNL A   1      42.709  30.293  33.306  1.00  0.00     0.034 A 
ATOM     40  C   UNL A   1      42.448  25.234  28.450  1.00  0.00     0.034 A 
ATOM     41  C   UNL A   1      43.795  29.341  33.347  1.00  0.00     0.049 A 
ATOM     42  C   UNL A   1      43.595  25.343  29.423  1.00  0.00     0.074 A 
ATOM     43  C   UNL A   1      44.859  29.286  34.232  1.00  0.00     0.029 A 
ATOM     44  N   UNL A   1      43.967  28.285  32.460  1.00  0.00    -0.354 N 
ATOM     45  N   UNL A   1      43.781  26.215  30.388  1.00  0.00    -0.248 NA
ATOM     46  C   UNL A   1      44.661  24.341  29.302  1.00  0.00     0.031 C 
ATOM     47  C   UNL A   1      45.711  28.250  33.834  1.00  0.00     0.029 A 
ATOM     48  C   UNL A   1      45.136  27.597  32.755  1.00  0.00     0.049 A 
ATOM     49  H   UNL A   1      43.349  28.058  31.727  1.00  0.00     0.167 HD
ATOM     50  C   UNL A   1      44.970  25.843  31.010  1.00  0.00     0.074 A 
ATOM     51  C   UNL A   1      45.442  24.657  30.324  1.00  0.00     0.031 C 
ATOM     52  C   UNL A   1      45.611  26.425  32.057  1.00  0.00     0.034 A 
BRANCH  39  53
ATOM     53  C   UNL A   1      42.721  31.448  34.282  1.00  0.00     0.023 A 
ATOM     54  C   UNL A   1      41.895  31.465  35.420  1.00  0.00     0.031 A 
ATOM     55  C   UNL A   1      43.559  32.558  34.067  1.00  0.00     0.131 A 
ATOM     56  C   UNL A   1      41.868  32.593  36.254  1.00  0.00     0.055 A 
ATOM     57  C   UNL A   1      43.591  33.640  34.948  1.00  0.00     0.041 A 
ATOM     58  F   UNL A   1      44.356  32.613  32.988  1.00  0.00    -0.206 F 
ATOM     59  C   UNL A   1      42.732  33.669  36.041  1.00  0.00     0.022 A 
BRANCH  56  60
ATOM     60  S   UNL A   1      40.585  32.697  37.531  1.00  0.00     0.124 S 
ATOM     61  O   UNL A   1      41.321  32.282  38.724  1.00  0.00    -0.237 OA
ATOM     62  O   UNL A   1      40.196  34.101  37.476  1.00  0.00    -0.237 OA
ATOM     63  O   UNL A   1      39.569  31.748  37.075  1.00  0.00    -0.744 OA
ENDBRANCH  56  60
ENDBRANCH  39  53
BRANCH  40  64
ATOM     64  C   UNL A   1      42.441  24.174  27.400  1.00  0.00     0.023 A 
ATOM     65  C   UNL A   1      41.832  22.930  27.629  1.00  0.00     0.031 A 
ATOM     66  C   UNL A   1      43.086  24.374  26.165  1.00  0.00     0.131 A 
ATOM     67  C   UNL A   1      41.927  21.915  26.662  1.00  0.00     0.055 A 
ATOM     68  C   UNL A   1      43.123  23.384  25.182  1.00  0.00     0.041 A 
ATOM     69  F   UNL A   1      43.682  25.546  25.893  1.00  0.00    -0.206 F 
ATOM     70  C   UNL A   1      42.554  22.139  25.434  1.00  0.00     0.022 A 
BRANCH  67  71
ATOM     71  S   UNL A   1      41.300  20.264  27.073  1.00  0.00     0.124 S 
ATOM     72  O   UNL A   1      42.515  19.460  27.003  1.00  0.00    -0.237 OA
ATOM     73  O   UNL A   1      40.744  20.473  28.405  1.00  0.00    -0.237 OA
ATOM     74  O   UNL A   1      40.316  20.003  26.024  1.00  0.00    -0.744 OA
ENDBRANCH  67  71
ENDBRANCH  40  64
BRANCH  52  75
ATOM     75  C   UNL A   1      46.873  25.751  32.548  1.00  0.00     0.023 A 
ATOM     76  C   UNL A   1      46.860  24.833  33.613  1.00  0.00     0.031 A 
ATOM     77  C   UNL A   1      48.113  26.061  31.961  1.00  0.00     0.131 A 
ATOM     78  C   UNL A   1      48.067  24.314  34.105  1.00  0.00     0.055 A 
ATOM     79  C   UNL A   1      49.304  25.484  32.408  1.00  0.00     0.041 A 
ATOM     80  F   UNL A   1      48.191  26.934  30.943  1.00  0.00    -0.206 F 
ATOM     81  C   UNL A   1      49.287  24.619  33.497  1.00  0.00     0.022 A 
BRANCH  78  82
ATOM     82  S   UNL A   1      48.035  23.332  35.630  1.00  0.00     0.124 S 
ATOM     83  O   UNL A   1      47.063  22.293  35.301  1.00  0.00    -0.237 OA
ATOM     84  O   UNL A   1      49.421  22.893  35.748  1.00  0.00    -0.237 OA
ATOM     85  O   UNL A   1      47.599  24.289  36.646  1.00  0.00    -0.744 OA
ENDBRANCH  78  82
ENDBRANCH  52  75
ENDBRANCH  26  27
ENDBRANCH  18  21
ENDBRANCH  16  17
ENDBRANCH   1  16
TORSDOF 16
ENDMDL
MODEL 3
REMARK VINA RESULT:      -9.3      5.625     10.922
REMARK SMILES O=C(CSC(=S)N1CCCC1)NCCCNC(=O)c1ccc(-c2c3nc(c(-c4cc(S(=O)(=O)[O-])ccc4F)c4ccc([nH]4)c(-c4cc(S(=O)(=O)[O-])ccc4F)c4nc(c(-c5cc(S(=O)(=O)[O-])ccc5F)c5ccc2[nH]5)C=C4)C=C3)cc1
REMARK SMILES IDX 14 1 13 2 12 3 1 4 2 5 3 7 4 8 5 9 6 10 7 11 8 12 11 13 9 14
REMARK SMILES IDX 10 15 15 16 16 17 17 18 18 20 19 21 20 22 81 23 21 24 80 25
REMARK SMILES IDX 22 26 23 27 24 28 74 29 25 30 79 31 73 32 75 33 26 34 78 35
REMARK SMILES IDX 72 36 71 37 27 39 59 40 39 41 58 42 40 43 43 44 57 45 76 46
REMARK SMILES IDX 41 47 42 48 56 50 77 51 44 52 28 53 29 54 37 55 30 56 36 57
REMARK SMILES IDX 38 58 35 59 31 60 32 61 33 62 34 63 60 64 61 65 69 66 62 67
REMARK SMILES IDX 68 68 70 69 67 70 63 71 64 72 65 73 66 74 45 75 46 76 54 77
REMARK SMILES IDX 47 78 53 79 55 80 52 81 48 82 49 83 50 84 51 85
REMARK H PARENT 12 6 16 19 75 38 43 49
REMARK Flexibility Score: inf
ROOT
ATOM      1  C   UNL A   1      35.722  21.582  25.386  1.00  0.00     0.042 C 
ENDROOT
BRANCH   1   2
ATOM      2  C   UNL A   1      34.506  21.668  24.471  1.00  0.00     0.117 C 
BRANCH   2   3
ATOM      3  N   UNL A   1      33.774  22.913  24.592  1.00  0.00    -0.355 N 
ATOM      4  O   UNL A   1      34.132  23.583  22.432  1.00  0.00    -0.274 OA
ATOM      5  C   UNL A   1      33.565  23.743  23.511  1.00  0.00     0.230 C 
ATOM      6  H   UNL A   1      33.415  23.173  25.471  1.00  0.00     0.163 HD
BRANCH   5   7
ATOM      7  C   UNL A   1      32.657  24.942  23.746  1.00  0.00     0.177 C 
BRANCH   7   8
ATOM      8  S   UNL A   1      33.084  26.431  22.813  1.00  0.00    -0.087 SA
BRANCH   8   9
ATOM      9  C   UNL A   1      32.104  27.746  23.471  1.00  0.00     0.136 C 
ATOM     10  S   UNL A   1      30.901  28.570  22.641  1.00  0.00    -0.053 S 
BRANCH   9  11
ATOM     11  N   UNL A   1      32.375  27.996  24.815  1.00  0.00    -0.358 N 
ATOM     12  C   UNL A   1      33.605  28.551  25.371  1.00  0.00     0.118 C 
ATOM     13  C   UNL A   1      31.415  27.740  25.890  1.00  0.00     0.118 C 
ATOM     14  C   UNL A   1      33.617  28.064  26.807  1.00  0.00     0.023 C 
ATOM     15  C   UNL A   1      32.144  28.071  27.188  1.00  0.00     0.023 C 
ENDBRANCH   9  11
ENDBRANCH   8   9
ENDBRANCH   7   8
ENDBRANCH   5   7
ENDBRANCH   2   3
ENDBRANCH   1   2
BRANCH   1  16
ATOM     16  C   UNL A   1      37.067  21.552  24.664  1.00  0.00     0.118 C 
BRANCH  16  17
ATOM     17  N   UNL A   1      37.987  20.558  25.202  1.00  0.00    -0.352 N 
ATOM     18  C   UNL A   1      39.159  20.703  25.901  1.00  0.00     0.251 C 
ATOM     19  H   UNL A   1      37.722  19.625  25.037  1.00  0.00     0.163 HD
ATOM     20  O   UNL A   1      39.835  19.698  26.131  1.00  0.00    -0.269 OA
BRANCH  18  21
ATOM     21  C   UNL A   1      39.637  22.031  26.350  1.00  0.00     0.039 A 
ATOM     22  C   UNL A   1      40.801  22.094  27.125  1.00  0.00     0.014 A 
ATOM     23  C   UNL A   1      38.948  23.209  26.050  1.00  0.00     0.014 A 
ATOM     24  C   UNL A   1      41.308  23.332  27.529  1.00  0.00     0.010 A 
ATOM     25  C   UNL A   1      39.494  24.447  26.389  1.00  0.00     0.010 A 
ATOM     26  C   UNL A   1      40.685  24.525  27.127  1.00  0.00    -0.014 A 
BRANCH  26  27
ATOM     27  C   UNL A   1      41.290  25.849  27.447  1.00  0.00     0.031 A 
ATOM     28  C   UNL A   1      42.664  26.210  26.949  1.00  0.00     0.074 A 
ATOM     29  C   UNL A   1      40.612  26.714  28.229  1.00  0.00     0.049 A 
ATOM     30  N   UNL A   1      43.361  27.299  27.156  1.00  0.00    -0.248 NA
ATOM     31  C   UNL A   1      43.357  25.204  26.131  1.00  0.00     0.031 C 
ATOM     32  C   UNL A   1      39.290  26.466  28.810  1.00  0.00     0.029 A 
ATOM     33  N   UNL A   1      40.935  27.972  28.674  1.00  0.00    -0.354 N 
ATOM     34  C   UNL A   1      44.573  27.110  26.501  1.00  0.00     0.074 A 
ATOM     35  C   UNL A   1      44.538  25.774  25.944  1.00  0.00     0.031 C 
ATOM     36  C   UNL A   1      38.904  27.548  29.503  1.00  0.00     0.029 A 
ATOM     37  C   UNL A   1      39.965  28.547  29.464  1.00  0.00     0.049 A 
ATOM     38  H   UNL A   1      41.782  28.421  28.449  1.00  0.00     0.167 HD
ATOM     39  C   UNL A   1      45.609  27.976  26.360  1.00  0.00     0.034 A 
ATOM     40  C   UNL A   1      39.936  29.738  30.096  1.00  0.00     0.034 A 
ATOM     41  C   UNL A   1      45.629  29.306  26.923  1.00  0.00     0.049 A 
ATOM     42  C   UNL A   1      41.113  30.669  29.951  1.00  0.00     0.074 A 
ATOM     43  C   UNL A   1      46.606  30.280  26.799  1.00  0.00     0.029 A 
ATOM     44  N   UNL A   1      44.634  29.849  27.727  1.00  0.00    -0.354 N 
ATOM     45  N   UNL A   1      42.229  30.494  29.281  1.00  0.00    -0.248 NA
ATOM     46  C   UNL A   1      41.017  31.965  30.634  1.00  0.00     0.031 C 
ATOM     47  C   UNL A   1      46.242  31.376  27.589  1.00  0.00     0.029 A 
ATOM     48  C   UNL A   1      44.992  31.127  28.134  1.00  0.00     0.049 A 
ATOM     49  H   UNL A   1      43.797  29.393  27.974  1.00  0.00     0.167 HD
ATOM     50  C   UNL A   1      42.954  31.673  29.438  1.00  0.00     0.074 A 
ATOM     51  C   UNL A   1      42.137  32.556  30.246  1.00  0.00     0.031 C 
ATOM     52  C   UNL A   1      44.181  31.997  28.954  1.00  0.00     0.034 A 
BRANCH  39  53
ATOM     53  C   UNL A   1      46.818  27.497  25.588  1.00  0.00     0.023 A 
ATOM     54  C   UNL A   1      47.074  27.923  24.272  1.00  0.00     0.031 A 
ATOM     55  C   UNL A   1      47.723  26.590  26.169  1.00  0.00     0.131 A 
ATOM     56  C   UNL A   1      48.156  27.389  23.558  1.00  0.00     0.055 A 
ATOM     57  C   UNL A   1      48.848  26.128  25.482  1.00  0.00     0.041 A 
ATOM     58  F   UNL A   1      47.524  26.128  27.414  1.00  0.00    -0.206 F 
ATOM     59  C   UNL A   1      49.062  26.515  24.163  1.00  0.00     0.022 A 
BRANCH  56  60
ATOM     60  S   UNL A   1      48.278  27.735  21.782  1.00  0.00     0.124 S 
ATOM     61  O   UNL A   1      48.550  26.404  21.240  1.00  0.00    -0.237 OA
ATOM     62  O   UNL A   1      46.967  28.293  21.477  1.00  0.00    -0.237 OA
ATOM     63  O   UNL A   1      49.395  28.674  21.691  1.00  0.00    -0.744 OA
ENDBRANCH  56  60
ENDBRANCH  39  53
BRANCH  40  64
ATOM     64  C   UNL A   1      38.762  30.121  30.933  1.00  0.00     0.023 A 
ATOM     65  C   UNL A   1      37.703  30.871  30.397  1.00  0.00     0.031 A 
ATOM     66  C   UNL A   1      38.705  29.782  32.298  1.00  0.00     0.131 A 
ATOM     67  C   UNL A   1      36.659  31.304  31.231  1.00  0.00     0.055 A 
ATOM     68  C   UNL A   1      37.633  30.162  33.109  1.00  0.00     0.041 A 
ATOM     69  F   UNL A   1      39.689  29.065  32.861  1.00  0.00    -0.206 F 
ATOM     70  C   UNL A   1      36.609  30.941  32.579  1.00  0.00     0.022 A 
BRANCH  67  71
ATOM     71  S   UNL A   1      35.414  32.432  30.549  1.00  0.00     0.124 S 
ATOM     72  O   UNL A   1      35.122  31.809  29.263  1.00  0.00    -0.237 OA
ATOM     73  O   UNL A   1      34.357  32.361  31.551  1.00  0.00    -0.237 OA
ATOM     74  O   UNL A   1      36.117  33.711  30.477  1.00  0.00    -0.744 OA
ENDBRANCH  67  71
ENDBRANCH  40  64
BRANCH  52  75
ATOM     75  C   UNL A   1      44.688  33.391  29.253  1.00  0.00     0.023 A 
ATOM     76  C   UNL A   1      44.499  34.459  28.359  1.00  0.00     0.031 A 
ATOM     77  C   UNL A   1      45.403  33.643  30.438  1.00  0.00     0.131 A 
ATOM     78  C   UNL A   1      45.079  35.708  28.628  1.00  0.00     0.055 A 
ATOM     79  C   UNL A   1      45.915  34.907  30.735  1.00  0.00     0.041 A 
ATOM     80  F   UNL A   1      45.621  32.661  31.329  1.00  0.00    -0.206 F 
ATOM     81  C   UNL A   1      45.770  35.944  29.819  1.00  0.00     0.022 A 
BRANCH  78  82
ATOM     82  S   UNL A   1      45.025  36.988  27.343  1.00  0.00     0.124 S 
ATOM     83  O   UNL A   1      45.457  38.174  28.077  1.00  0.00    -0.237 OA
ATOM     84  O   UNL A   1      45.964  36.474  26.351  1.00  0.00    -0.237 OA
ATOM     85  O   UNL A   1      43.624  36.995  26.923  1.00  0.00    -0.744 OA
ENDBRANCH  78  82
ENDBRANCH  52  75
ENDBRANCH  26  27
ENDBRANCH  18  21
ENDBRANCH  16  17
ENDBRANCH   1  16
TORSDOF 16
ENDMDL
