MODEL 1
REMARK VINA RESULT:     -12.4      0.000      0.000
REMARK SMILES O=C(NCCCNC(=O)[C@H]1[C@H]2CC[C@H](C2)[C@H]1NC(=O)c1ccncc1Cl)c1ccc(-c2c3nc(c(-c4cc(S(=O)(=O)[O-])ccc4F)c4ccc([nH]4)c(-c4cc(S(=O)(=O)[O-])ccc4F)c4nc(c(-c5cc(S(=O)(=O)[O-])ccc5F)c5ccc2[nH]5)C=C4)C=C3)cc1
REMARK SMILES IDX 4 1 3 2 1 3 2 4 27 6 28 7 89 8 29 9 88 10 30 11 31 12 32 13
REMARK SMILES IDX 82 14 33 15 87 16 81 17 83 18 34 19 86 20 80 21 79 22 35 24
REMARK SMILES IDX 67 25 47 26 66 27 48 28 51 29 65 30 84 31 49 32 50 33 64 35
REMARK SMILES IDX 85 36 52 37 36 38 37 39 45 40 38 41 44 42 46 43 43 44 39 45
REMARK SMILES IDX 40 46 41 47 42 48 68 49 69 50 77 51 70 52 76 53 78 54 75 55
REMARK SMILES IDX 71 56 72 57 73 58 74 59 53 60 54 61 62 62 55 63 61 64 63 65
REMARK SMILES IDX 60 66 56 67 57 68 58 69 59 70 5 71 6 72 7 73 8 74 9 76 10 77
REMARK SMILES IDX 11 78 16 79 12 80 15 81 14 82 13 83 17 84 18 85 19 87 20 88
REMARK SMILES IDX 21 89 25 90 22 91 24 92 26 93 23 94
REMARK H PARENT 3 5 83 23 51 34 7 75 17 86
REMARK Flexibility Score: inf
ROOT
ATOM      1  C   UNL A   1      36.378  22.037  25.303  1.00  0.00     0.118 C 
ENDROOT
BRANCH   1   2
ATOM      2  N   UNL A   1      37.321  20.930  25.385  1.00  0.00    -0.352 N 
ATOM      3  O   UNL A   1      39.335  19.947  25.694  1.00  0.00    -0.269 OA
ATOM      4  C   UNL A   1      38.639  20.955  25.784  1.00  0.00     0.251 C 
ATOM      5  H   UNL A   1      36.970  20.048  25.120  1.00  0.00     0.163 HD
BRANCH   4   6
ATOM      6  C   UNL A   1      39.215  22.220  26.291  1.00  0.00     0.039 A 
ATOM      7  C   UNL A   1      38.693  23.446  25.874  1.00  0.00     0.014 A 
ATOM      8  C   UNL A   1      40.323  22.178  27.141  1.00  0.00     0.014 A 
ATOM      9  C   UNL A   1      39.378  24.619  26.169  1.00  0.00     0.010 A 
ATOM     10  C   UNL A   1      40.956  23.369  27.513  1.00  0.00     0.010 A 
ATOM     11  C   UNL A   1      40.513  24.598  26.997  1.00  0.00    -0.014 A 
BRANCH  11  12
ATOM     12  C   UNL A   1      41.195  25.878  27.334  1.00  0.00     0.031 A 
ATOM     13  C   UNL A   1      40.530  26.913  28.203  1.00  0.00     0.074 A 
ATOM     14  C   UNL A   1      42.444  26.085  26.873  1.00  0.00     0.049 A 
ATOM     15  N   UNL A   1      40.977  28.083  28.583  1.00  0.00    -0.248 NA
ATOM     16  C   UNL A   1      39.183  26.597  28.701  1.00  0.00     0.031 C 
ATOM     17  C   UNL A   1      43.191  25.151  26.026  1.00  0.00     0.029 A 
ATOM     18  N   UNL A   1      43.316  27.125  27.064  1.00  0.00    -0.354 N 
ATOM     19  C   UNL A   1      39.964  28.655  29.347  1.00  0.00     0.074 A 
ATOM     20  C   UNL A   1      38.866  27.711  29.348  1.00  0.00     0.031 C 
ATOM     21  C   UNL A   1      44.421  25.636  25.811  1.00  0.00     0.029 A 
ATOM     22  C   UNL A   1      44.527  26.950  26.436  1.00  0.00     0.049 A 
ATOM     23  H   UNL A   1      43.095  27.923  27.598  1.00  0.00     0.167 HD
ATOM     24  C   UNL A   1      39.957  29.852  29.988  1.00  0.00     0.034 A 
ATOM     25  C   UNL A   1      45.596  27.763  26.344  1.00  0.00     0.034 A 
ATOM     26  C   UNL A   1      41.067  30.776  29.978  1.00  0.00     0.049 A 
ATOM     27  C   UNL A   1      45.547  29.100  27.030  1.00  0.00     0.074 A 
ATOM     28  C   UNL A   1      41.178  32.002  30.616  1.00  0.00     0.029 A 
ATOM     29  N   UNL A   1      42.260  30.585  29.290  1.00  0.00    -0.354 N 
ATOM     30  N   UNL A   1      44.579  29.623  27.748  1.00  0.00    -0.248 NA
ATOM     31  C   UNL A   1      46.729  29.957  26.890  1.00  0.00     0.031 C 
ATOM     32  C   UNL A   1      42.403  32.577  30.260  1.00  0.00     0.029 A 
ATOM     33  C   UNL A   1      43.095  31.681  29.462  1.00  0.00     0.049 A 
ATOM     34  H   UNL A   1      42.481  29.787  28.759  1.00  0.00     0.167 HD
ATOM     35  C   UNL A   1      45.046  30.867  28.158  1.00  0.00     0.074 A 
ATOM     36  C   UNL A   1      46.388  31.003  27.628  1.00  0.00     0.031 C 
ATOM     37  C   UNL A   1      44.421  31.812  28.906  1.00  0.00     0.034 A 
BRANCH  24  38
ATOM     38  C   UNL A   1      38.690  30.250  30.711  1.00  0.00     0.023 A 
ATOM     39  C   UNL A   1      37.644  30.933  30.063  1.00  0.00     0.031 A 
ATOM     40  C   UNL A   1      38.530  29.950  32.076  1.00  0.00     0.131 A 
ATOM     41  C   UNL A   1      36.520  31.352  30.794  1.00  0.00     0.055 A 
ATOM     42  C   UNL A   1      37.375  30.302  32.780  1.00  0.00     0.041 A 
ATOM     43  F   UNL A   1      39.500  29.318  32.755  1.00  0.00    -0.206 F 
ATOM     44  C   UNL A   1      36.368  31.019  32.142  1.00  0.00     0.022 A 
BRANCH  41  45
ATOM     45  S   UNL A   1      35.323  32.454  29.992  1.00  0.00     0.124 S 
ATOM     46  O   UNL A   1      34.374  32.701  31.076  1.00  0.00    -0.237 OA
ATOM     47  O   UNL A   1      36.151  33.587  29.598  1.00  0.00    -0.237 OA
ATOM     48  O   UNL A   1      34.800  31.649  28.890  1.00  0.00    -0.744 OA
ENDBRANCH  41  45
ENDBRANCH  24  38
BRANCH  25  49
ATOM     49  C   UNL A   1      46.781  27.351  25.539  1.00  0.00     0.023 A 
ATOM     50  C   UNL A   1      46.958  27.802  24.223  1.00  0.00     0.031 A 
ATOM     51  C   UNL A   1      47.749  26.482  26.077  1.00  0.00     0.131 A 
ATOM     52  C   UNL A   1      48.060  27.357  23.477  1.00  0.00     0.055 A 
ATOM     53  C   UNL A   1      48.872  26.087  25.350  1.00  0.00     0.041 A 
ATOM     54  F   UNL A   1      47.628  26.024  27.334  1.00  0.00    -0.206 F 
ATOM     55  C   UNL A   1      49.026  26.516  24.036  1.00  0.00     0.022 A 
BRANCH  52  56
ATOM     56  S   UNL A   1      48.174  27.833  21.731  1.00  0.00     0.124 S 
ATOM     57  O   UNL A   1      48.363  26.541  21.082  1.00  0.00    -0.237 OA
ATOM     58  O   UNL A   1      46.887  28.482  21.509  1.00  0.00    -0.237 OA
ATOM     59  O   UNL A   1      49.333  28.724  21.698  1.00  0.00    -0.744 OA
ENDBRANCH  52  56
ENDBRANCH  25  49
BRANCH  37  60
ATOM     60  C   UNL A   1      45.210  33.062  29.211  1.00  0.00     0.023 A 
ATOM     61  C   UNL A   1      45.148  34.194  28.380  1.00  0.00     0.031 A 
ATOM     62  C   UNL A   1      46.062  33.105  30.329  1.00  0.00     0.131 A 
ATOM     63  C   UNL A   1      45.970  35.300  28.645  1.00  0.00     0.055 A 
ATOM     64  C   UNL A   1      46.833  34.232  30.620  1.00  0.00     0.041 A 
ATOM     65  F   UNL A   1      46.164  32.050  31.153  1.00  0.00    -0.206 F 
ATOM     66  C   UNL A   1      46.800  35.332  29.768  1.00  0.00     0.022 A 
BRANCH  63  67
ATOM     67  S   UNL A   1      46.011  36.661  27.446  1.00  0.00     0.124 S 
ATOM     68  O   UNL A   1      46.558  37.752  28.246  1.00  0.00    -0.237 OA
ATOM     69  O   UNL A   1      46.887  36.133  26.404  1.00  0.00    -0.237 OA
ATOM     70  O   UNL A   1      44.612  36.819  27.057  1.00  0.00    -0.744 OA
ENDBRANCH  63  67
ENDBRANCH  37  60
ENDBRANCH  11  12
ENDBRANCH   4   6
ENDBRANCH   1   2
BRANCH   1  71
ATOM     71  C   UNL A   1      35.353  22.065  26.432  1.00  0.00     0.042 C 
BRANCH  71  72
ATOM     72  C   UNL A   1      34.558  23.361  26.577  1.00  0.00     0.117 C 
BRANCH  72  73
ATOM     73  N   UNL A   1      34.677  24.195  25.404  1.00  0.00    -0.356 N 
ATOM     74  C   UNL A   1      34.177  25.396  25.060  1.00  0.00     0.225 C 
ATOM     75  H   UNL A   1      35.246  23.799  24.704  1.00  0.00     0.163 HD
ATOM     76  O   UNL A   1      34.187  25.631  23.846  1.00  0.00    -0.275 OA
BRANCH  74  77
ATOM     77  C   UNL A   1      33.487  26.340  26.016  1.00  0.00     0.104 C 
ATOM     78  C   UNL A   1      33.786  27.835  26.264  1.00  0.00     0.004 C 
ATOM     79  C   UNL A   1      31.935  26.354  25.893  1.00  0.00     0.098 C 
ATOM     80  C   UNL A   1      33.291  28.776  25.147  1.00  0.00     0.005 C 
ATOM     81  C   UNL A   1      32.725  28.107  27.349  1.00  0.00     0.010 C 
ATOM     82  C   UNL A   1      31.549  27.767  26.416  1.00  0.00     0.013 C 
ATOM     83  C   UNL A   1      31.774  28.846  25.375  1.00  0.00     0.006 C 
BRANCH  79  84
ATOM     84  N   UNL A   1      31.271  25.819  24.681  1.00  0.00    -0.348 N 
ATOM     85  C   UNL A   1      30.885  24.634  24.096  1.00  0.00     0.253 C 
ATOM     86  H   UNL A   1      31.020  26.566  24.092  1.00  0.00     0.164 HD
ATOM     87  O   UNL A   1      30.117  24.682  23.131  1.00  0.00    -0.269 OA
BRANCH  85  88
ATOM     88  C   UNL A   1      31.433  23.308  24.396  1.00  0.00     0.061 A 
ATOM     89  C   UNL A   1      32.034  22.648  23.317  1.00  0.00     0.035 A 
ATOM     90  C   UNL A   1      31.182  22.584  25.559  1.00  0.00     0.072 A 
ATOM     91  C   UNL A   1      32.533  21.372  23.503  1.00  0.00     0.112 A 
ATOM     92  C   UNL A   1      31.747  21.316  25.659  1.00  0.00     0.132 A 
ATOM     93  Cl  UNL A   1      30.138  23.082  26.825  1.00  0.00    -0.082 Cl
ATOM     94  N   UNL A   1      32.444  20.705  24.669  1.00  0.00    -0.263 NA
ENDBRANCH  85  88
ENDBRANCH  79  84
ENDBRANCH  74  77
ENDBRANCH  72  73
ENDBRANCH  71  72
ENDBRANCH   1  71
TORSDOF 15
ENDMDL
MODEL 2
REMARK VINA RESULT:     -12.3      5.135     10.104
REMARK SMILES O=C(NCCCNC(=O)[C@H]1[C@H]2CC[C@H](C2)[C@H]1NC(=O)c1ccncc1Cl)c1ccc(-c2c3nc(c(-c4cc(S(=O)(=O)[O-])ccc4F)c4ccc([nH]4)c(-c4cc(S(=O)(=O)[O-])ccc4F)c4nc(c(-c5cc(S(=O)(=O)[O-])ccc5F)c5ccc2[nH]5)C=C4)C=C3)cc1
REMARK SMILES IDX 4 1 3 2 1 3 2 4 27 6 28 7 89 8 29 9 88 10 30 11 31 12 32 13
REMARK SMILES IDX 82 14 33 15 87 16 81 17 83 18 34 19 86 20 80 21 79 22 35 24
REMARK SMILES IDX 67 25 47 26 66 27 48 28 51 29 65 30 84 31 49 32 50 33 64 35
REMARK SMILES IDX 85 36 52 37 36 38 37 39 45 40 38 41 44 42 46 43 43 44 39 45
REMARK SMILES IDX 40 46 41 47 42 48 68 49 69 50 77 51 70 52 76 53 78 54 75 55
REMARK SMILES IDX 71 56 72 57 73 58 74 59 53 60 54 61 62 62 55 63 61 64 63 65
REMARK SMILES IDX 60 66 56 67 57 68 58 69 59 70 5 71 6 72 7 73 8 74 9 76 10 77
REMARK SMILES IDX 11 78 16 79 12 80 15 81 14 82 13 83 17 84 18 85 19 87 20 88
REMARK SMILES IDX 21 89 25 90 22 91 24 92 26 93 23 94
REMARK H PARENT 3 5 83 23 51 34 7 75 17 86
REMARK Flexibility Score: inf
ROOT
ATOM      1  C   UNL A   1      32.581  29.441  26.044  1.00  0.00     0.118 C 
ENDROOT
BRANCH   1   2
ATOM      2  N   UNL A   1      32.270  30.834  26.334  1.00  0.00    -0.352 N 
ATOM      3  O   UNL A   1      32.511  32.837  27.357  1.00  0.00    -0.269 OA
ATOM      4  C   UNL A   1      32.967  31.721  27.125  1.00  0.00     0.251 C 
ATOM      5  H   UNL A   1      31.454  31.187  25.910  1.00  0.00     0.163 HD
BRANCH   4   6
ATOM      6  C   UNL A   1      34.255  31.299  27.719  1.00  0.00     0.039 A 
ATOM      7  C   UNL A   1      34.468  29.960  28.054  1.00  0.00     0.014 A 
ATOM      8  C   UNL A   1      35.231  32.260  27.997  1.00  0.00     0.014 A 
ATOM      9  C   UNL A   1      35.579  29.613  28.816  1.00  0.00     0.010 A 
ATOM     10  C   UNL A   1      36.392  31.888  28.682  1.00  0.00     0.010 A 
ATOM     11  C   UNL A   1      36.558  30.569  29.134  1.00  0.00    -0.014 A 
BRANCH  11  12
ATOM     12  C   UNL A   1      37.759  30.153  29.909  1.00  0.00     0.031 A 
ATOM     13  C   UNL A   1      38.794  29.236  29.314  1.00  0.00     0.074 A 
ATOM     14  C   UNL A   1      37.926  30.644  31.153  1.00  0.00     0.049 A 
ATOM     15  N   UNL A   1      39.891  28.768  29.854  1.00  0.00    -0.248 NA
ATOM     16  C   UNL A   1      38.563  28.776  27.936  1.00  0.00     0.031 C 
ATOM     17  C   UNL A   1      36.991  31.544  31.833  1.00  0.00     0.029 A 
ATOM     18  N   UNL A   1      38.941  30.478  32.060  1.00  0.00    -0.354 N 
ATOM     19  C   UNL A   1      40.473  27.943  28.896  1.00  0.00     0.074 A 
ATOM     20  C   UNL A   1      39.586  27.952  27.750  1.00  0.00     0.031 C 
ATOM     21  C   UNL A   1      37.497  31.890  33.024  1.00  0.00     0.029 A 
ATOM     22  C   UNL A   1      38.752  31.176  33.230  1.00  0.00     0.049 A 
ATOM     23  H   UNL A   1      39.729  29.913  31.889  1.00  0.00     0.167 HD
ATOM     24  C   UNL A   1      41.637  27.249  28.967  1.00  0.00     0.034 A 
ATOM     25  C   UNL A   1      39.486  31.218  34.357  1.00  0.00     0.034 A 
ATOM     26  C   UNL A   1      42.511  27.258  30.118  1.00  0.00     0.049 A 
ATOM     27  C   UNL A   1      40.751  30.408  34.425  1.00  0.00     0.074 A 
ATOM     28  C   UNL A   1      43.726  26.616  30.286  1.00  0.00     0.029 A 
ATOM     29  N   UNL A   1      42.261  27.939  31.304  1.00  0.00    -0.354 N 
ATOM     30  N   UNL A   1      41.285  29.633  33.508  1.00  0.00    -0.248 NA
ATOM     31  C   UNL A   1      41.510  30.474  35.679  1.00  0.00     0.031 C 
ATOM     32  C   UNL A   1      44.175  26.852  31.590  1.00  0.00     0.029 A 
ATOM     33  C   UNL A   1      43.282  27.705  32.216  1.00  0.00     0.049 A 
ATOM     34  H   UNL A   1      41.474  28.506  31.473  1.00  0.00     0.167 HD
ATOM     35  C   UNL A   1      42.452  29.132  34.072  1.00  0.00     0.074 A 
ATOM     36  C   UNL A   1      42.557  29.712  35.396  1.00  0.00     0.031 C 
ATOM     37  C   UNL A   1      43.358  28.270  33.543  1.00  0.00     0.034 A 
BRANCH  24  38
ATOM     38  C   UNL A   1      42.008  26.381  27.785  1.00  0.00     0.023 A 
ATOM     39  C   UNL A   1      41.643  25.024  27.711  1.00  0.00     0.031 A 
ATOM     40  C   UNL A   1      42.749  26.919  26.717  1.00  0.00     0.131 A 
ATOM     41  C   UNL A   1      42.077  24.238  26.631  1.00  0.00     0.055 A 
ATOM     42  C   UNL A   1      43.112  26.151  25.607  1.00  0.00     0.041 A 
ATOM     43  F   UNL A   1      43.144  28.202  26.737  1.00  0.00    -0.206 F 
ATOM     44  C   UNL A   1      42.787  24.799  25.566  1.00  0.00     0.022 A 
BRANCH  41  45
ATOM     45  S   UNL A   1      41.815  22.445  26.701  1.00  0.00     0.124 S 
ATOM     46  O   UNL A   1      42.272  22.025  25.377  1.00  0.00    -0.237 OA
ATOM     47  O   UNL A   1      42.657  22.046  27.822  1.00  0.00    -0.237 OA
ATOM     48  O   UNL A   1      40.376  22.315  26.924  1.00  0.00    -0.744 OA
ENDBRANCH  41  45
ENDBRANCH  24  38
BRANCH  25  49
ATOM     49  C   UNL A   1      39.020  32.021  35.523  1.00  0.00     0.023 A 
ATOM     50  C   UNL A   1      38.364  31.417  36.605  1.00  0.00     0.031 A 
ATOM     51  C   UNL A   1      39.213  33.415  35.560  1.00  0.00     0.131 A 
ATOM     52  C   UNL A   1      37.895  32.209  37.665  1.00  0.00     0.055 A 
ATOM     53  C   UNL A   1      38.795  34.189  36.642  1.00  0.00     0.041 A 
ATOM     54  F   UNL A   1      39.839  34.041  34.550  1.00  0.00    -0.206 F 
ATOM     55  C   UNL A   1      38.121  33.587  37.699  1.00  0.00     0.022 A 
BRANCH  52  56
ATOM     56  S   UNL A   1      36.915  31.419  38.970  1.00  0.00     0.124 S 
ATOM     57  O   UNL A   1      36.768  30.063  38.452  1.00  0.00    -0.237 OA
ATOM     58  O   UNL A   1      37.780  31.571  40.134  1.00  0.00    -0.237 OA
ATOM     59  O   UNL A   1      35.687  32.212  38.999  1.00  0.00    -0.744 OA
ENDBRANCH  52  56
ENDBRANCH  25  49
BRANCH  37  60
ATOM     60  C   UNL A   1      44.552  27.935  34.402  1.00  0.00     0.023 A 
ATOM     61  C   UNL A   1      44.539  26.842  35.287  1.00  0.00     0.031 A 
ATOM     62  C   UNL A   1      45.704  28.740  34.358  1.00  0.00     0.131 A 
ATOM     63  C   UNL A   1      45.633  26.620  36.138  1.00  0.00     0.055 A 
ATOM     64  C   UNL A   1      46.812  28.478  35.165  1.00  0.00     0.041 A 
ATOM     65  F   UNL A   1      45.768  29.798  33.534  1.00  0.00    -0.206 F 
ATOM     66  C   UNL A   1      46.775  27.422  36.071  1.00  0.00     0.022 A 
BRANCH  63  67
ATOM     67  S   UNL A   1      45.504  25.327  37.402  1.00  0.00     0.124 S 
ATOM     68  O   UNL A   1      44.199  25.607  37.991  1.00  0.00    -0.237 OA
ATOM     69  O   UNL A   1      45.597  24.104  36.610  1.00  0.00    -0.237 OA
ATOM     70  O   UNL A   1      46.647  25.586  38.276  1.00  0.00    -0.744 OA
ENDBRANCH  63  67
ENDBRANCH  37  60
ENDBRANCH  11  12
ENDBRANCH   4   6
ENDBRANCH   1   2
BRANCH   1  71
ATOM     71  C   UNL A   1      33.270  29.227  24.699  1.00  0.00     0.042 C 
BRANCH  71  72
ATOM     72  C   UNL A   1      33.893  27.849  24.484  1.00  0.00     0.117 C 
BRANCH  72  73
ATOM     73  N   UNL A   1      33.488  26.913  25.506  1.00  0.00    -0.356 N 
ATOM     74  C   UNL A   1      33.734  25.608  25.725  1.00  0.00     0.225 C 
ATOM     75  H   UNL A   1      32.907  27.317  26.191  1.00  0.00     0.163 HD
ATOM     76  O   UNL A   1      32.931  25.052  26.484  1.00  0.00    -0.275 OA
BRANCH  74  77
ATOM     77  C   UNL A   1      34.779  24.801  24.993  1.00  0.00     0.104 C 
ATOM     78  C   UNL A   1      35.877  23.894  25.592  1.00  0.00     0.004 C 
ATOM     79  C   UNL A   1      34.210  23.889  23.866  1.00  0.00     0.098 C 
ATOM     80  C   UNL A   1      35.364  22.543  26.128  1.00  0.00     0.005 C 
ATOM     81  C   UNL A   1      36.543  23.438  24.277  1.00  0.00     0.010 C 
ATOM     82  C   UNL A   1      35.266  22.753  23.759  1.00  0.00     0.013 C 
ATOM     83  C   UNL A   1      35.110  21.719  24.858  1.00  0.00     0.006 C 
BRANCH  79  84
ATOM     84  N   UNL A   1      32.768  23.550  23.828  1.00  0.00    -0.348 N 
ATOM     85  C   UNL A   1      31.551  24.051  23.424  1.00  0.00     0.253 C 
ATOM     86  H   UNL A   1      32.633  22.662  24.231  1.00  0.00     0.164 HD
ATOM     87  O   UNL A   1      30.587  23.281  23.385  1.00  0.00    -0.269 OA
BRANCH  85  88
ATOM     88  C   UNL A   1      31.237  25.464  23.193  1.00  0.00     0.061 A 
ATOM     89  C   UNL A   1      30.254  26.005  24.031  1.00  0.00     0.035 A 
ATOM     90  C   UNL A   1      31.641  26.202  22.083  1.00  0.00     0.072 A 
ATOM     91  C   UNL A   1      29.863  27.319  23.847  1.00  0.00     0.112 A 
ATOM     92  C   UNL A   1      31.212  27.523  22.002  1.00  0.00     0.132 A 
ATOM     93  Cl  UNL A   1      32.528  25.579  20.754  1.00  0.00    -0.082 Cl
ATOM     94  N   UNL A   1      30.357  28.109  22.875  1.00  0.00    -0.263 NA
ENDBRANCH  85  88
ENDBRANCH  79  84
ENDBRANCH  74  77
ENDBRANCH  72  73
ENDBRANCH  71  72
ENDBRANCH   1  71
TORSDOF 15
ENDMDL
MODEL 3
REMARK VINA RESULT:     -12.3      4.998      7.496
REMARK SMILES O=C(NCCCNC(=O)[C@H]1[C@H]2CC[C@H](C2)[C@H]1NC(=O)c1ccncc1Cl)c1ccc(-c2c3nc(c(-c4cc(S(=O)(=O)[O-])ccc4F)c4ccc([nH]4)c(-c4cc(S(=O)(=O)[O-])ccc4F)c4nc(c(-c5cc(S(=O)(=O)[O-])ccc5F)c5ccc2[nH]5)C=C4)C=C3)cc1
REMARK SMILES IDX 4 1 3 2 1 3 2 4 27 6 28 7 89 8 29 9 88 10 30 11 31 12 32 13
REMARK SMILES IDX 82 14 33 15 87 16 81 17 83 18 34 19 86 20 80 21 79 22 35 24
REMARK SMILES IDX 67 25 47 26 66 27 48 28 51 29 65 30 84 31 49 32 50 33 64 35
REMARK SMILES IDX 85 36 52 37 36 38 37 39 45 40 38 41 44 42 46 43 43 44 39 45
REMARK SMILES IDX 40 46 41 47 42 48 68 49 69 50 77 51 70 52 76 53 78 54 75 55
REMARK SMILES IDX 71 56 72 57 73 58 74 59 53 60 54 61 62 62 55 63 61 64 63 65
REMARK SMILES IDX 60 66 56 67 57 68 58 69 59 70 5 71 6 72 7 73 8 74 9 76 10 77
REMARK SMILES IDX 11 78 16 79 12 80 15 81 14 82 13 83 17 84 18 85 19 87 20 88
REMARK SMILES IDX 21 89 25 90 22 91 24 92 26 93 23 94
REMARK H PARENT 3 5 83 23 51 34 7 75 17 86
REMARK Flexibility Score: inf
ROOT
ATOM      1  C   UNL A   1      32.538  29.511  26.238  1.00  0.00     0.118 C 
ENDROOT
BRANCH   1   2
ATOM      2  N   UNL A   1      32.283  30.927  26.466  1.00  0.00    -0.352 N 
ATOM      3  O   UNL A   1      32.631  32.972  27.371  1.00  0.00    -0.269 OA
ATOM      4  C   UNL A   1      33.041  31.830  27.180  1.00  0.00     0.251 C 
ATOM      5  H   UNL A   1      31.463  31.286  26.056  1.00  0.00     0.163 HD
BRANCH   4   6
ATOM      6  C   UNL A   1      34.338  31.396  27.745  1.00  0.00     0.039 A 
ATOM      7  C   UNL A   1      34.540  30.058  28.092  1.00  0.00     0.014 A 
ATOM      8  C   UNL A   1      35.336  32.344  27.981  1.00  0.00     0.014 A 
ATOM      9  C   UNL A   1      35.665  29.703  28.828  1.00  0.00     0.010 A 
ATOM     10  C   UNL A   1      36.510  31.964  28.640  1.00  0.00     0.010 A 
ATOM     11  C   UNL A   1      36.668  30.648  29.105  1.00  0.00    -0.014 A 
BRANCH  11  12
ATOM     12  C   UNL A   1      37.883  30.224  29.853  1.00  0.00     0.031 A 
ATOM     13  C   UNL A   1      38.128  30.676  31.268  1.00  0.00     0.074 A 
ATOM     14  C   UNL A   1      38.754  29.391  29.250  1.00  0.00     0.049 A 
ATOM     15  N   UNL A   1      39.138  30.409  32.058  1.00  0.00    -0.248 NA
ATOM     16  C   UNL A   1      37.112  31.549  31.873  1.00  0.00     0.031 C 
ATOM     17  C   UNL A   1      38.620  28.884  27.881  1.00  0.00     0.029 A 
ATOM     18  N   UNL A   1      39.908  28.807  29.705  1.00  0.00    -0.354 N 
ATOM     19  C   UNL A   1      38.894  31.094  33.244  1.00  0.00     0.074 A 
ATOM     20  C   UNL A   1      37.651  31.816  33.055  1.00  0.00     0.031 C 
ATOM     21  C   UNL A   1      39.620  28.029  27.627  1.00  0.00     0.029 A 
ATOM     22  C   UNL A   1      40.511  27.987  28.780  1.00  0.00     0.049 A 
ATOM     23  H   UNL A   1      40.271  28.961  30.607  1.00  0.00     0.167 HD
ATOM     24  C   UNL A   1      39.635  31.115  34.381  1.00  0.00     0.034 A 
ATOM     25  C   UNL A   1      41.667  27.299  28.836  1.00  0.00     0.034 A 
ATOM     26  C   UNL A   1      40.869  30.383  34.550  1.00  0.00     0.049 A 
ATOM     27  C   UNL A   1      42.490  27.371  30.092  1.00  0.00     0.074 A 
ATOM     28  C   UNL A   1      41.685  30.309  35.667  1.00  0.00     0.029 A 
ATOM     29  N   UNL A   1      41.474  29.601  33.572  1.00  0.00    -0.354 N 
ATOM     30  N   UNL A   1      42.242  28.025  31.204  1.00  0.00    -0.248 NA
ATOM     31  C   UNL A   1      43.748  26.616  30.101  1.00  0.00     0.031 C 
ATOM     32  C   UNL A   1      42.810  29.543  35.344  1.00  0.00     0.029 A 
ATOM     33  C   UNL A   1      42.665  29.070  34.051  1.00  0.00     0.049 A 
ATOM     34  H   UNL A   1      41.110  29.445  32.671  1.00  0.00     0.167 HD
ATOM     35  C   UNL A   1      43.309  27.747  32.050  1.00  0.00     0.074 A 
ATOM     36  C   UNL A   1      44.187  26.846  31.329  1.00  0.00     0.031 C 
ATOM     37  C   UNL A   1      43.542  28.194  33.310  1.00  0.00     0.034 A 
BRANCH  24  38
ATOM     38  C   UNL A   1      39.156  31.997  35.512  1.00  0.00     0.023 A 
ATOM     39  C   UNL A   1      39.592  33.326  35.658  1.00  0.00     0.031 A 
ATOM     40  C   UNL A   1      38.255  31.494  36.469  1.00  0.00     0.131 A 
ATOM     41  C   UNL A   1      39.181  34.082  36.769  1.00  0.00     0.055 A 
ATOM     42  C   UNL A   1      37.790  32.276  37.529  1.00  0.00     0.041 A 
ATOM     43  F   UNL A   1      37.818  30.227  36.395  1.00  0.00    -0.206 F 
ATOM     44  C   UNL A   1      38.263  33.574  37.691  1.00  0.00     0.022 A 
BRANCH  41  45
ATOM     45  S   UNL A   1      39.966  35.690  37.064  1.00  0.00     0.124 S 
ATOM     46  O   UNL A   1      39.276  36.141  38.272  1.00  0.00    -0.237 OA
ATOM     47  O   UNL A   1      41.369  35.332  37.228  1.00  0.00    -0.237 OA
ATOM     48  O   UNL A   1      39.653  36.453  35.857  1.00  0.00    -0.744 OA
ENDBRANCH  41  45
ENDBRANCH  24  38
BRANCH  25  49
ATOM     49  C   UNL A   1      42.131  26.521  27.652  1.00  0.00     0.023 A 
ATOM     50  C   UNL A   1      41.823  25.160  27.510  1.00  0.00     0.031 A 
ATOM     51  C   UNL A   1      42.909  27.131  26.650  1.00  0.00     0.131 A 
ATOM     52  C   UNL A   1      42.316  24.446  26.407  1.00  0.00     0.055 A 
ATOM     53  C   UNL A   1      43.350  26.430  25.529  1.00  0.00     0.041 A 
ATOM     54  F   UNL A   1      43.230  28.433  26.738  1.00  0.00    -0.206 F 
ATOM     55  C   UNL A   1      43.063  25.075  25.408  1.00  0.00     0.022 A 
BRANCH  52  56
ATOM     56  S   UNL A   1      42.031  22.657  26.336  1.00  0.00     0.124 S 
ATOM     57  O   UNL A   1      42.653  22.307  25.064  1.00  0.00    -0.237 OA
ATOM     58  O   UNL A   1      42.717  22.192  27.536  1.00  0.00    -0.237 OA
ATOM     59  O   UNL A   1      40.574  22.544  26.369  1.00  0.00    -0.744 OA
ENDBRANCH  52  56
ENDBRANCH  25  49
BRANCH  37  60
ATOM     60  C   UNL A   1      44.790  27.683  33.988  1.00  0.00     0.023 A 
ATOM     61  C   UNL A   1      44.787  26.492  34.735  1.00  0.00     0.031 A 
ATOM     62  C   UNL A   1      45.987  28.416  33.913  1.00  0.00     0.131 A 
ATOM     63  C   UNL A   1      45.942  26.100  35.429  1.00  0.00     0.055 A 
ATOM     64  C   UNL A   1      47.150  27.990  34.557  1.00  0.00     0.041 A 
ATOM     65  F   UNL A   1      46.045  29.563  33.217  1.00  0.00    -0.206 F 
ATOM     66  C   UNL A   1      47.128  26.834  35.332  1.00  0.00     0.022 A 
BRANCH  63  67
ATOM     67  S   UNL A   1      45.848  24.670  36.540  1.00  0.00     0.124 S 
ATOM     68  O   UNL A   1      46.622  23.670  35.812  1.00  0.00    -0.237 OA
ATOM     69  O   UNL A   1      46.459  25.183  37.763  1.00  0.00    -0.237 OA
ATOM     70  O   UNL A   1      44.415  24.399  36.631  1.00  0.00    -0.744 OA
ENDBRANCH  63  67
ENDBRANCH  37  60
ENDBRANCH  11  12
ENDBRANCH   4   6
ENDBRANCH   1   2
BRANCH   1  71
ATOM     71  C   UNL A   1      32.937  29.176  24.805  1.00  0.00     0.042 C 
BRANCH  71  72
ATOM     72  C   UNL A   1      33.733  27.885  24.621  1.00  0.00     0.117 C 
BRANCH  72  73
ATOM     73  N   UNL A   1      33.358  26.883  25.592  1.00  0.00    -0.356 N 
ATOM     74  C   UNL A   1      33.660  25.581  25.751  1.00  0.00     0.225 C 
ATOM     75  H   UNL A   1      32.751  27.227  26.287  1.00  0.00     0.163 HD
ATOM     76  O   UNL A   1      32.874  24.954  26.471  1.00  0.00    -0.275 OA
BRANCH  74  77
ATOM     77  C   UNL A   1      34.749  24.858  24.996  1.00  0.00     0.104 C 
ATOM     78  C   UNL A   1      35.894  23.993  25.567  1.00  0.00     0.004 C 
ATOM     79  C   UNL A   1      34.233  23.956  23.836  1.00  0.00     0.098 C 
ATOM     80  C   UNL A   1      35.454  22.597  26.055  1.00  0.00     0.005 C 
ATOM     81  C   UNL A   1      36.586  23.619  24.241  1.00  0.00     0.010 C 
ATOM     82  C   UNL A   1      35.350  22.883  23.694  1.00  0.00     0.013 C 
ATOM     83  C   UNL A   1      35.249  21.805  24.756  1.00  0.00     0.006 C 
BRANCH  79  84
ATOM     84  N   UNL A   1      32.812  23.540  23.780  1.00  0.00    -0.348 N 
ATOM     85  C   UNL A   1      31.573  23.981  23.372  1.00  0.00     0.253 C 
ATOM     86  H   UNL A   1      32.722  22.641  24.170  1.00  0.00     0.164 HD
ATOM     87  O   UNL A   1      30.652  23.161  23.314  1.00  0.00    -0.269 OA
BRANCH  85  88
ATOM     88  C   UNL A   1      31.186  25.378  23.157  1.00  0.00     0.061 A 
ATOM     89  C   UNL A   1      30.152  25.847  23.979  1.00  0.00     0.035 A 
ATOM     90  C   UNL A   1      31.575  26.158  22.071  1.00  0.00     0.072 A 
ATOM     91  C   UNL A   1      29.692  27.140  23.807  1.00  0.00     0.112 A 
ATOM     92  C   UNL A   1      31.073  27.454  22.001  1.00  0.00     0.132 A 
ATOM     93  Cl  UNL A   1      32.528  25.611  20.755  1.00  0.00    -0.082 Cl
ATOM     94  N   UNL A   1      30.165  27.975  22.862  1.00  0.00    -0.263 NA
ENDBRANCH  85  88
ENDBRANCH  79  84
ENDBRANCH  74  77
ENDBRANCH  72  73
ENDBRANCH  71  72
ENDBRANCH   1  71
TORSDOF 15
ENDMDL
