MODEL 1
REMARK VINA RESULT:     -12.2      0.000      0.000
REMARK SMILES C[C@H]1C[NH+](CC[C@@H]2CCC[C@]2([NH3+])C(=O)NCCCNC(=O)c2ccc(-c3c4nc(c(-c5cc(S(=O)(=O)[O-])ccc5F)c5ccc([nH]5)c(-c5cc(S(=O)(=O)[O-])ccc5F)c5nc(c(-c6cc(S(=O)(=O)[O-])ccc6F)c6ccc3[nH]6)C=C5)C=C4)cc2)C[C@H](C)O1
REMARK SMILES IDX 17 1 16 2 15 3 13 4 14 5 11 7 7 8 8 9 9 10 10 11 6 12 5 13
REMARK SMILES IDX 4 14 1 15 2 16 3 17 88 18 86 19 85 20 87 22 12 23 18 27
REMARK SMILES IDX 19 28 20 29 21 31 22 32 23 33 84 34 24 35 83 36 25 37 26 38
REMARK SMILES IDX 27 39 77 40 28 41 82 42 76 43 78 44 29 45 81 46 75 47 74 48
REMARK SMILES IDX 30 50 62 51 42 52 61 53 43 54 46 55 60 56 79 57 44 58 45 59
REMARK SMILES IDX 59 61 80 62 47 63 31 64 32 65 40 66 33 67 39 68 41 69 38 70
REMARK SMILES IDX 34 71 35 72 36 73 37 74 63 75 64 76 72 77 65 78 71 79 73 80
REMARK SMILES IDX 70 81 66 82 67 83 68 84 69 85 48 86 49 87 57 88 50 89 56 90
REMARK SMILES IDX 58 91 55 92 51 93 52 94 53 95 54 96
REMARK H PARENT 15 6 4 21 12 24 12 25 12 26 19 30 78 49 46 60
REMARK Flexibility Score: inf
ROOT
ATOM      1  C   UNL A   1      31.568  27.977  26.840  1.00  0.00     0.042 C 
ENDROOT
BRANCH   1   2
ATOM      2  C   UNL A   1      30.889  26.836  26.060  1.00  0.00     0.118 C 
BRANCH   2   3
ATOM      3  N   UNL A   1      31.094  25.495  26.642  1.00  0.00    -0.351 N 
ATOM      4  C   UNL A   1      31.696  24.293  26.484  1.00  0.00     0.281 C 
ATOM      5  O   UNL A   1      31.592  23.656  27.554  1.00  0.00    -0.268 OA
ATOM      6  H   UNL A   1      30.588  25.461  27.485  1.00  0.00     0.163 HD
BRANCH   4   7
ATOM      7  C   UNL A   1      32.534  23.608  25.277  1.00  0.00     0.177 C 
ATOM      8  C   UNL A   1      33.899  22.849  25.475  1.00  0.00     0.066 C 
ATOM      9  C   UNL A   1      34.847  23.975  25.944  1.00  0.00     0.011 C 
ATOM     10  C   UNL A   1      34.417  25.219  25.178  1.00  0.00     0.008 C 
ATOM     11  C   UNL A   1      33.140  24.819  24.458  1.00  0.00     0.079 C 
BRANCH   8  12
ATOM     12  C   UNL A   1      34.220  21.518  26.203  1.00  0.00     0.072 C 
BRANCH  12  13
ATOM     13  C   UNL A   1      33.180  20.420  26.263  1.00  0.00     0.262 C 
BRANCH  13  14
ATOM     14  N   UNL A   1      33.279  19.224  25.423  1.00  0.00    -0.331 N 
ATOM     15  C   UNL A   1      32.301  18.116  21.917  1.00  0.00     0.045 C 
ATOM     16  C   UNL A   1      32.966  18.056  23.281  1.00  0.00     0.170 C 
ATOM     17  C   UNL A   1      32.636  19.320  24.113  1.00  0.00     0.294 C 
ATOM     18  O   UNL A   1      32.493  16.858  23.923  1.00  0.00    -0.364 OA
ATOM     19  C   UNL A   1      33.052  16.687  25.226  1.00  0.00     0.170 C 
ATOM     20  C   UNL A   1      32.914  17.971  26.062  1.00  0.00     0.294 C 
ATOM     21  H   UNL A   1      34.287  19.196  25.267  1.00  0.00     0.348 HD
ATOM     22  C   UNL A   1      34.480  16.140  25.177  1.00  0.00     0.045 C 
ENDBRANCH  13  14
ENDBRANCH  12  13
ENDBRANCH   8  12
BRANCH   7  23
ATOM     23  N   UNL A   1      31.629  23.090  24.227  1.00  0.00    -0.345 N 
ATOM     24  H   UNL A   1      31.371  23.849  23.596  1.00  0.00     0.345 HD
ATOM     25  H   UNL A   1      30.789  22.707  24.660  1.00  0.00     0.345 HD
ATOM     26  H   UNL A   1      32.104  22.357  23.700  1.00  0.00     0.345 HD
ENDBRANCH   7  23
ENDBRANCH   4   7
ENDBRANCH   2   3
ENDBRANCH   1   2
BRANCH   1  27
ATOM     27  C   UNL A   1      32.479  28.907  26.050  1.00  0.00     0.118 C 
BRANCH  27  28
ATOM     28  N   UNL A   1      32.127  30.317  26.173  1.00  0.00    -0.352 N 
ATOM     29  C   UNL A   1      32.727  31.339  26.887  1.00  0.00     0.251 C 
ATOM     30  H   UNL A   1      31.328  30.587  25.664  1.00  0.00     0.163 HD
ATOM     31  O   UNL A   1      32.158  32.421  26.968  1.00  0.00    -0.269 OA
BRANCH  29  32
ATOM     32  C   UNL A   1      34.030  31.134  27.577  1.00  0.00     0.039 A 
ATOM     33  C   UNL A   1      34.866  32.232  27.825  1.00  0.00     0.014 A 
ATOM     34  C   UNL A   1      34.450  29.863  27.960  1.00  0.00     0.014 A 
ATOM     35  C   UNL A   1      36.070  32.059  28.525  1.00  0.00     0.010 A 
ATOM     36  C   UNL A   1      35.580  29.711  28.756  1.00  0.00     0.010 A 
ATOM     37  C   UNL A   1      36.420  30.801  29.033  1.00  0.00    -0.014 A 
BRANCH  37  38
ATOM     38  C   UNL A   1      37.679  30.542  29.790  1.00  0.00     0.031 A 
ATOM     39  C   UNL A   1      38.728  29.652  29.171  1.00  0.00     0.074 A 
ATOM     40  C   UNL A   1      37.838  30.993  31.051  1.00  0.00     0.049 A 
ATOM     41  N   UNL A   1      39.769  29.081  29.719  1.00  0.00    -0.248 NA
ATOM     42  C   UNL A   1      38.538  29.310  27.752  1.00  0.00     0.031 C 
ATOM     43  C   UNL A   1      36.893  31.849  31.771  1.00  0.00     0.029 A 
ATOM     44  N   UNL A   1      38.841  30.771  31.963  1.00  0.00    -0.354 N 
ATOM     45  C   UNL A   1      40.325  28.277  28.727  1.00  0.00     0.074 A 
ATOM     46  C   UNL A   1      39.461  28.380  27.572  1.00  0.00     0.031 C 
ATOM     47  C   UNL A   1      37.371  32.093  33.004  1.00  0.00     0.029 A 
ATOM     48  C   UNL A   1      38.621  31.362  33.187  1.00  0.00     0.049 A 
ATOM     49  H   UNL A   1      39.645  30.239  31.759  1.00  0.00     0.167 HD
ATOM     50  C   UNL A   1      41.465  27.542  28.766  1.00  0.00     0.034 A 
ATOM     51  C   UNL A   1      39.331  31.299  34.333  1.00  0.00     0.034 A 
ATOM     52  C   UNL A   1      42.333  27.491  29.915  1.00  0.00     0.049 A 
ATOM     53  C   UNL A   1      40.590  30.464  34.364  1.00  0.00     0.074 A 
ATOM     54  C   UNL A   1      43.542  26.831  30.053  1.00  0.00     0.029 A 
ATOM     55  N   UNL A   1      42.088  28.130  31.123  1.00  0.00    -0.354 N 
ATOM     56  N   UNL A   1      41.112  29.722  33.414  1.00  0.00    -0.248 NA
ATOM     57  C   UNL A   1      41.359  30.462  35.617  1.00  0.00     0.031 C 
ATOM     58  C   UNL A   1      43.990  27.011  31.364  1.00  0.00     0.029 A 
ATOM     59  C   UNL A   1      43.111  27.861  32.018  1.00  0.00     0.049 A 
ATOM     60  H   UNL A   1      41.303  28.691  31.316  1.00  0.00     0.167 HD
ATOM     61  C   UNL A   1      42.295  29.207  33.941  1.00  0.00     0.074 A 
ATOM     62  C   UNL A   1      42.406  29.718  35.290  1.00  0.00     0.031 C 
ATOM     63  C   UNL A   1      43.212  28.395  33.356  1.00  0.00     0.034 A 
BRANCH  50  64
ATOM     64  C   UNL A   1      41.815  26.728  27.541  1.00  0.00     0.023 A 
ATOM     65  C   UNL A   1      41.470  25.369  27.432  1.00  0.00     0.031 A 
ATOM     66  C   UNL A   1      42.539  27.305  26.482  1.00  0.00     0.131 A 
ATOM     67  C   UNL A   1      41.932  24.612  26.346  1.00  0.00     0.055 A 
ATOM     68  C   UNL A   1      42.909  26.569  25.354  1.00  0.00     0.041 A 
ATOM     69  F   UNL A   1      42.918  28.591  26.533  1.00  0.00    -0.206 F 
ATOM     70  C   UNL A   1      42.624  25.209  25.290  1.00  0.00     0.022 A 
BRANCH  67  71
ATOM     71  S   UNL A   1      41.766  22.808  26.420  1.00  0.00     0.124 S 
ATOM     72  O   UNL A   1      40.313  22.647  26.430  1.00  0.00    -0.237 OA
ATOM     73  O   UNL A   1      42.447  22.377  25.207  1.00  0.00    -0.237 OA
ATOM     74  O   UNL A   1      42.432  22.453  27.672  1.00  0.00    -0.744 OA
ENDBRANCH  67  71
ENDBRANCH  50  64
BRANCH  51  75
ATOM     75  C   UNL A   1      38.877  32.036  35.550  1.00  0.00     0.023 A 
ATOM     76  C   UNL A   1      38.290  31.354  36.629  1.00  0.00     0.031 A 
ATOM     77  C   UNL A   1      38.985  33.436  35.641  1.00  0.00     0.131 A 
ATOM     78  C   UNL A   1      37.788  32.074  37.726  1.00  0.00     0.055 A 
ATOM     79  C   UNL A   1      38.540  34.142  36.761  1.00  0.00     0.041 A 
ATOM     80  F   UNL A   1      39.540  34.141  34.640  1.00  0.00    -0.206 F 
ATOM     81  C   UNL A   1      37.924  33.462  37.806  1.00  0.00     0.022 A 
BRANCH  78  82
ATOM     82  S   UNL A   1      36.867  31.177  39.005  1.00  0.00     0.124 S 
ATOM     83  O   UNL A   1      35.666  31.994  39.131  1.00  0.00    -0.237 OA
ATOM     84  O   UNL A   1      36.692  29.866  38.388  1.00  0.00    -0.237 OA
ATOM     85  O   UNL A   1      37.767  31.208  40.156  1.00  0.00    -0.744 OA
ENDBRANCH  78  82
ENDBRANCH  51  75
BRANCH  63  86
ATOM     86  C   UNL A   1      44.463  28.077  34.137  1.00  0.00     0.023 A 
ATOM     87  C   UNL A   1      44.570  26.939  34.952  1.00  0.00     0.031 A 
ATOM     88  C   UNL A   1      45.585  28.920  34.022  1.00  0.00     0.131 A 
ATOM     89  C   UNL A   1      45.763  26.693  35.651  1.00  0.00     0.055 A 
ATOM     90  C   UNL A   1      46.787  28.638  34.670  1.00  0.00     0.041 A 
ATOM     91  F   UNL A   1      45.535  30.023  33.258  1.00  0.00    -0.206 F 
ATOM     92  C   UNL A   1      46.878  27.523  35.497  1.00  0.00     0.022 A 
BRANCH  89  93
ATOM     93  S   UNL A   1      45.821  25.307  36.819  1.00  0.00     0.124 S 
ATOM     94  O   UNL A   1      47.042  24.618  36.412  1.00  0.00    -0.237 OA
ATOM     95  O   UNL A   1      45.872  25.986  38.109  1.00  0.00    -0.237 OA
ATOM     96  O   UNL A   1      44.580  24.581  36.551  1.00  0.00    -0.744 OA
ENDBRANCH  89  93
ENDBRANCH  63  86
ENDBRANCH  37  38
ENDBRANCH  29  32
ENDBRANCH  27  28
ENDBRANCH   1  27
TORSDOF 17
ENDMDL
MODEL 2
REMARK VINA RESULT:     -12.1      1.349      1.946
REMARK SMILES C[C@H]1C[NH+](CC[C@@H]2CCC[C@]2([NH3+])C(=O)NCCCNC(=O)c2ccc(-c3c4nc(c(-c5cc(S(=O)(=O)[O-])ccc5F)c5ccc([nH]5)c(-c5cc(S(=O)(=O)[O-])ccc5F)c5nc(c(-c6cc(S(=O)(=O)[O-])ccc6F)c6ccc3[nH]6)C=C5)C=C4)cc2)C[C@H](C)O1
REMARK SMILES IDX 17 1 16 2 15 3 13 4 14 5 11 7 7 8 8 9 9 10 10 11 6 12 5 13
REMARK SMILES IDX 4 14 1 15 2 16 3 17 88 18 86 19 85 20 87 22 12 23 18 27
REMARK SMILES IDX 19 28 20 29 21 31 22 32 23 33 84 34 24 35 83 36 25 37 26 38
REMARK SMILES IDX 27 39 77 40 28 41 82 42 76 43 78 44 29 45 81 46 75 47 74 48
REMARK SMILES IDX 30 50 62 51 42 52 61 53 43 54 46 55 60 56 79 57 44 58 45 59
REMARK SMILES IDX 59 61 80 62 47 63 31 64 32 65 40 66 33 67 39 68 41 69 38 70
REMARK SMILES IDX 34 71 35 72 36 73 37 74 63 75 64 76 72 77 65 78 71 79 73 80
REMARK SMILES IDX 70 81 66 82 67 83 68 84 69 85 48 86 49 87 57 88 50 89 56 90
REMARK SMILES IDX 58 91 55 92 51 93 52 94 53 95 54 96
REMARK H PARENT 15 6 4 21 12 24 12 25 12 26 19 30 78 49 46 60
REMARK Flexibility Score: inf
ROOT
ATOM      1  C   UNL A   1      32.047  27.910  26.219  1.00  0.00     0.042 C 
ENDROOT
BRANCH   1   2
ATOM      2  C   UNL A   1      30.857  27.240  25.507  1.00  0.00     0.118 C 
BRANCH   2   3
ATOM      3  N   UNL A   1      30.743  27.567  24.073  1.00  0.00    -0.351 N 
ATOM      4  C   UNL A   1      31.046  27.174  22.814  1.00  0.00     0.281 C 
ATOM      5  O   UNL A   1      30.401  27.884  22.012  1.00  0.00    -0.268 OA
ATOM      6  H   UNL A   1      30.244  28.413  24.004  1.00  0.00     0.163 HD
BRANCH   4   7
ATOM      7  C   UNL A   1      31.965  25.989  22.199  1.00  0.00     0.177 C 
ATOM      8  C   UNL A   1      32.319  24.662  22.969  1.00  0.00     0.066 C 
ATOM      9  C   UNL A   1      33.175  25.173  24.150  1.00  0.00     0.011 C 
ATOM     10  C   UNL A   1      33.988  26.334  23.594  1.00  0.00     0.008 C 
ATOM     11  C   UNL A   1      33.438  26.570  22.196  1.00  0.00     0.079 C 
BRANCH   8  12
ATOM     12  C   UNL A   1      31.418  23.479  23.412  1.00  0.00     0.072 C 
BRANCH  12  13
ATOM     13  C   UNL A   1      31.775  22.065  23.007  1.00  0.00     0.262 C 
BRANCH  13  14
ATOM     14  N   UNL A   1      32.596  21.206  23.865  1.00  0.00    -0.331 N 
ATOM     15  C   UNL A   1      36.086  21.192  25.379  1.00  0.00     0.045 C 
ATOM     16  C   UNL A   1      34.653  20.755  25.136  1.00  0.00     0.170 C 
ATOM     17  C   UNL A   1      33.967  21.663  24.085  1.00  0.00     0.294 C 
ATOM     18  O   UNL A   1      34.703  19.383  24.702  1.00  0.00    -0.364 OA
ATOM     19  C   UNL A   1      33.404  18.852  24.438  1.00  0.00     0.170 C 
ATOM     20  C   UNL A   1      32.593  19.792  23.531  1.00  0.00     0.294 C 
ATOM     21  H   UNL A   1      32.096  21.305  24.749  1.00  0.00     0.348 HD
ATOM     22  C   UNL A   1      32.669  18.456  25.721  1.00  0.00     0.045 C 
ENDBRANCH  13  14
ENDBRANCH  12  13
ENDBRANCH   8  12
BRANCH   7  23
ATOM     23  N   UNL A   1      31.790  25.883  20.734  1.00  0.00    -0.345 N 
ATOM     24  H   UNL A   1      30.830  26.127  20.488  1.00  0.00     0.345 HD
ATOM     25  H   UNL A   1      31.985  24.928  20.436  1.00  0.00     0.345 HD
ATOM     26  H   UNL A   1      32.434  26.523  20.267  1.00  0.00     0.345 HD
ENDBRANCH   7  23
ENDBRANCH   4   7
ENDBRANCH   2   3
ENDBRANCH   1   2
BRANCH   1  27
ATOM     27  C   UNL A   1      32.709  29.082  25.504  1.00  0.00     0.118 C 
BRANCH  27  28
ATOM     28  N   UNL A   1      32.179  30.383  25.896  1.00  0.00    -0.352 N 
ATOM     29  C   UNL A   1      32.632  31.298  26.829  1.00  0.00     0.251 C 
ATOM     30  H   UNL A   1      31.363  30.655  25.417  1.00  0.00     0.163 HD
ATOM     31  O   UNL A   1      31.929  32.264  27.103  1.00  0.00    -0.269 OA
BRANCH  29  32
ATOM     32  C   UNL A   1      33.937  31.112  27.520  1.00  0.00     0.039 A 
ATOM     33  C   UNL A   1      34.743  32.226  27.798  1.00  0.00     0.014 A 
ATOM     34  C   UNL A   1      34.389  29.844  27.876  1.00  0.00     0.014 A 
ATOM     35  C   UNL A   1      35.948  32.069  28.499  1.00  0.00     0.010 A 
ATOM     36  C   UNL A   1      35.519  29.703  28.675  1.00  0.00     0.010 A 
ATOM     37  C   UNL A   1      36.329  30.808  28.980  1.00  0.00    -0.014 A 
BRANCH  37  38
ATOM     38  C   UNL A   1      37.591  30.566  29.737  1.00  0.00     0.031 A 
ATOM     39  C   UNL A   1      38.653  29.692  29.117  1.00  0.00     0.074 A 
ATOM     40  C   UNL A   1      37.742  31.016  30.999  1.00  0.00     0.049 A 
ATOM     41  N   UNL A   1      39.701  29.134  29.665  1.00  0.00    -0.248 NA
ATOM     42  C   UNL A   1      38.468  29.350  27.697  1.00  0.00     0.031 C 
ATOM     43  C   UNL A   1      36.785  31.857  31.721  1.00  0.00     0.029 A 
ATOM     44  N   UNL A   1      38.748  30.806  31.911  1.00  0.00    -0.354 N 
ATOM     45  C   UNL A   1      40.268  28.340  28.671  1.00  0.00     0.074 A 
ATOM     46  C   UNL A   1      39.404  28.434  27.516  1.00  0.00     0.031 C 
ATOM     47  C   UNL A   1      37.259  32.105  32.954  1.00  0.00     0.029 A 
ATOM     48  C   UNL A   1      38.520  31.391  33.137  1.00  0.00     0.049 A 
ATOM     49  H   UNL A   1      39.559  30.286  31.707  1.00  0.00     0.167 HD
ATOM     50  C   UNL A   1      41.418  27.621  28.709  1.00  0.00     0.034 A 
ATOM     51  C   UNL A   1      39.229  31.336  34.283  1.00  0.00     0.034 A 
ATOM     52  C   UNL A   1      42.287  27.579  29.858  1.00  0.00     0.049 A 
ATOM     53  C   UNL A   1      40.500  30.518  34.313  1.00  0.00     0.074 A 
ATOM     54  C   UNL A   1      43.504  26.936  29.995  1.00  0.00     0.029 A 
ATOM     55  N   UNL A   1      42.032  28.212  31.068  1.00  0.00    -0.354 N 
ATOM     56  N   UNL A   1      41.033  29.785  33.361  1.00  0.00    -0.248 NA
ATOM     57  C   UNL A   1      41.268  30.524  35.566  1.00  0.00     0.031 C 
ATOM     58  C   UNL A   1      43.949  27.120  31.308  1.00  0.00     0.029 A 
ATOM     59  C   UNL A   1      43.058  27.955  31.963  1.00  0.00     0.049 A 
ATOM     60  H   UNL A   1      41.239  28.762  31.261  1.00  0.00     0.167 HD
ATOM     61  C   UNL A   1      42.222  29.286  33.888  1.00  0.00     0.074 A 
ATOM     62  C   UNL A   1      42.326  29.796  35.238  1.00  0.00     0.031 C 
ATOM     63  C   UNL A   1      43.151  28.488  33.302  1.00  0.00     0.034 A 
BRANCH  50  64
ATOM     64  C   UNL A   1      41.780  26.814  27.483  1.00  0.00     0.023 A 
ATOM     65  C   UNL A   1      41.480  25.444  27.383  1.00  0.00     0.031 A 
ATOM     66  C   UNL A   1      42.471  27.411  26.412  1.00  0.00     0.131 A 
ATOM     67  C   UNL A   1      41.954  24.699  26.293  1.00  0.00     0.055 A 
ATOM     68  C   UNL A   1      42.851  26.684  25.282  1.00  0.00     0.041 A 
ATOM     69  F   UNL A   1      42.805  28.711  26.454  1.00  0.00    -0.206 F 
ATOM     70  C   UNL A   1      42.612  25.315  25.227  1.00  0.00     0.022 A 
BRANCH  67  71
ATOM     71  S   UNL A   1      41.851  22.890  26.377  1.00  0.00     0.124 S 
ATOM     72  O   UNL A   1      42.533  22.501  25.143  1.00  0.00    -0.237 OA
ATOM     73  O   UNL A   1      42.555  22.590  27.617  1.00  0.00    -0.237 OA
ATOM     74  O   UNL A   1      40.413  22.629  26.394  1.00  0.00    -0.744 OA
ENDBRANCH  67  71
ENDBRANCH  50  64
BRANCH  51  75
ATOM     75  C   UNL A   1      38.765  32.063  35.502  1.00  0.00     0.023 A 
ATOM     76  C   UNL A   1      38.234  31.367  36.600  1.00  0.00     0.031 A 
ATOM     77  C   UNL A   1      38.805  33.468  35.575  1.00  0.00     0.131 A 
ATOM     78  C   UNL A   1      37.720  32.074  37.699  1.00  0.00     0.055 A 
ATOM     79  C   UNL A   1      38.349  34.164  36.696  1.00  0.00     0.041 A 
ATOM     80  F   UNL A   1      39.304  34.188  34.556  1.00  0.00    -0.206 F 
ATOM     81  C   UNL A   1      37.789  33.467  37.762  1.00  0.00     0.022 A 
BRANCH  78  82
ATOM     82  S   UNL A   1      36.870  31.148  39.006  1.00  0.00     0.124 S 
ATOM     83  O   UNL A   1      36.763  29.823  38.407  1.00  0.00    -0.237 OA
ATOM     84  O   UNL A   1      37.801  31.276  40.123  1.00  0.00    -0.237 OA
ATOM     85  O   UNL A   1      35.607  31.865  39.165  1.00  0.00    -0.744 OA
ENDBRANCH  78  82
ENDBRANCH  51  75
BRANCH  63  86
ATOM     86  C   UNL A   1      44.406  28.186  34.083  1.00  0.00     0.023 A 
ATOM     87  C   UNL A   1      44.513  27.071  34.929  1.00  0.00     0.031 A 
ATOM     88  C   UNL A   1      45.531  29.020  33.937  1.00  0.00     0.131 A 
ATOM     89  C   UNL A   1      45.710  26.839  35.626  1.00  0.00     0.055 A 
ATOM     90  C   UNL A   1      46.736  28.750  34.584  1.00  0.00     0.041 A 
ATOM     91  F   UNL A   1      45.481  30.102  33.143  1.00  0.00    -0.206 F 
ATOM     92  C   UNL A   1      46.828  27.658  35.441  1.00  0.00     0.022 A 
BRANCH  89  93
ATOM     93  S   UNL A   1      45.770  25.485  36.832  1.00  0.00     0.124 S 
ATOM     94  O   UNL A   1      46.822  25.933  37.738  1.00  0.00    -0.237 OA
ATOM     95  O   UNL A   1      44.415  25.489  37.375  1.00  0.00    -0.237 OA
ATOM     96  O   UNL A   1      46.107  24.317  36.019  1.00  0.00    -0.744 OA
ENDBRANCH  89  93
ENDBRANCH  63  86
ENDBRANCH  37  38
ENDBRANCH  29  32
ENDBRANCH  27  28
ENDBRANCH   1  27
TORSDOF 17
ENDMDL
MODEL 3
REMARK VINA RESULT:     -12.1      3.009      8.287
REMARK SMILES C[C@H]1C[NH+](CC[C@@H]2CCC[C@]2([NH3+])C(=O)NCCCNC(=O)c2ccc(-c3c4nc(c(-c5cc(S(=O)(=O)[O-])ccc5F)c5ccc([nH]5)c(-c5cc(S(=O)(=O)[O-])ccc5F)c5nc(c(-c6cc(S(=O)(=O)[O-])ccc6F)c6ccc3[nH]6)C=C5)C=C4)cc2)C[C@H](C)O1
REMARK SMILES IDX 17 1 16 2 15 3 13 4 14 5 11 7 7 8 8 9 9 10 10 11 6 12 5 13
REMARK SMILES IDX 4 14 1 15 2 16 3 17 88 18 86 19 85 20 87 22 12 23 18 27
REMARK SMILES IDX 19 28 20 29 21 31 22 32 23 33 84 34 24 35 83 36 25 37 26 38
REMARK SMILES IDX 27 39 77 40 28 41 82 42 76 43 78 44 29 45 81 46 75 47 74 48
REMARK SMILES IDX 30 50 62 51 42 52 61 53 43 54 46 55 60 56 79 57 44 58 45 59
REMARK SMILES IDX 59 61 80 62 47 63 31 64 32 65 40 66 33 67 39 68 41 69 38 70
REMARK SMILES IDX 34 71 35 72 36 73 37 74 63 75 64 76 72 77 65 78 71 79 73 80
REMARK SMILES IDX 70 81 66 82 67 83 68 84 69 85 48 86 49 87 57 88 50 89 56 90
REMARK SMILES IDX 58 91 55 92 51 93 52 94 53 95 54 96
REMARK H PARENT 15 6 4 21 12 24 12 25 12 26 19 30 78 49 46 60
REMARK Flexibility Score: inf
ROOT
ATOM      1  C   UNL A   1      33.224  27.855  26.850  1.00  0.00     0.042 C 
ENDROOT
BRANCH   1   2
ATOM      2  C   UNL A   1      31.703  28.060  26.985  1.00  0.00     0.118 C 
BRANCH   2   3
ATOM      3  N   UNL A   1      30.910  26.821  26.870  1.00  0.00    -0.351 N 
ATOM      4  C   UNL A   1      30.512  25.827  26.041  1.00  0.00     0.281 C 
ATOM      5  O   UNL A   1      29.976  24.931  26.729  1.00  0.00    -0.268 OA
ATOM      6  H   UNL A   1      30.508  26.647  27.751  1.00  0.00     0.163 HD
BRANCH   4   7
ATOM      7  C   UNL A   1      30.659  25.568  24.448  1.00  0.00     0.177 C 
ATOM      8  C   UNL A   1      31.718  26.291  23.534  1.00  0.00     0.066 C 
ATOM      9  C   UNL A   1      31.264  27.767  23.593  1.00  0.00     0.011 C 
ATOM     10  C   UNL A   1      29.743  27.726  23.639  1.00  0.00     0.008 C 
ATOM     11  C   UNL A   1      29.390  26.256  23.801  1.00  0.00     0.079 C 
BRANCH   8  12
ATOM     12  C   UNL A   1      33.265  26.190  23.504  1.00  0.00     0.072 C 
BRANCH  12  13
ATOM     13  C   UNL A   1      33.931  24.957  22.932  1.00  0.00     0.262 C 
BRANCH  13  14
ATOM     14  N   UNL A   1      34.680  24.027  23.780  1.00  0.00    -0.331 N 
ATOM     15  C   UNL A   1      34.497  20.386  24.870  1.00  0.00     0.045 C 
ATOM     16  C   UNL A   1      35.077  21.778  24.696  1.00  0.00     0.170 C 
ATOM     17  C   UNL A   1      34.097  22.693  23.917  1.00  0.00     0.294 C 
ATOM     18  O   UNL A   1      35.344  22.287  26.016  1.00  0.00    -0.364 OA
ATOM     19  C   UNL A   1      35.897  23.603  25.986  1.00  0.00     0.170 C 
ATOM     20  C   UNL A   1      35.067  24.534  25.086  1.00  0.00     0.294 C 
ATOM     21  H   UNL A   1      35.535  23.931  23.232  1.00  0.00     0.348 HD
ATOM     22  C   UNL A   1      37.389  23.596  25.648  1.00  0.00     0.045 C 
ENDBRANCH  13  14
ENDBRANCH  12  13
ENDBRANCH   8  12
BRANCH   7  23
ATOM     23  N   UNL A   1      30.325  24.168  24.102  1.00  0.00    -0.345 N 
ATOM     24  H   UNL A   1      31.006  23.812  23.430  1.00  0.00     0.345 HD
ATOM     25  H   UNL A   1      29.392  24.133  23.692  1.00  0.00     0.345 HD
ATOM     26  H   UNL A   1      30.348  23.594  24.945  1.00  0.00     0.345 HD
ENDBRANCH   7  23
ENDBRANCH   4   7
ENDBRANCH   2   3
ENDBRANCH   1   2
BRANCH   1  27
ATOM     27  C   UNL A   1      33.989  28.881  26.023  1.00  0.00     0.118 C 
BRANCH  27  28
ATOM     28  N   UNL A   1      33.845  30.250  26.507  1.00  0.00    -0.352 N 
ATOM     29  C   UNL A   1      34.557  30.947  27.466  1.00  0.00     0.251 C 
ATOM     30  H   UNL A   1      33.120  30.761  26.080  1.00  0.00     0.163 HD
ATOM     31  O   UNL A   1      34.153  32.047  27.822  1.00  0.00    -0.269 OA
BRANCH  29  32
ATOM     32  C   UNL A   1      35.782  30.372  28.086  1.00  0.00     0.039 A 
ATOM     33  C   UNL A   1      35.699  29.740  29.335  1.00  0.00     0.014 A 
ATOM     34  C   UNL A   1      37.021  30.473  27.459  1.00  0.00     0.014 A 
ATOM     35  C   UNL A   1      36.836  29.145  29.903  1.00  0.00     0.010 A 
ATOM     36  C   UNL A   1      38.118  29.781  27.963  1.00  0.00     0.010 A 
ATOM     37  C   UNL A   1      38.050  29.125  29.202  1.00  0.00    -0.014 A 
BRANCH  37  38
ATOM     38  C   UNL A   1      39.297  28.508  29.739  1.00  0.00     0.031 A 
ATOM     39  C   UNL A   1      39.938  29.113  30.963  1.00  0.00     0.074 A 
ATOM     40  C   UNL A   1      39.913  27.503  29.083  1.00  0.00     0.049 A 
ATOM     41  N   UNL A   1      41.132  28.925  31.461  1.00  0.00    -0.248 NA
ATOM     42  C   UNL A   1      39.140  30.115  31.688  1.00  0.00     0.031 C 
ATOM     43  C   UNL A   1      39.409  26.839  27.880  1.00  0.00     0.029 A 
ATOM     44  N   UNL A   1      41.115  26.881  29.322  1.00  0.00    -0.354 N 
ATOM     45  C   UNL A   1      41.244  29.819  32.522  1.00  0.00     0.074 A 
ATOM     46  C   UNL A   1      40.025  30.596  32.545  1.00  0.00     0.031 C 
ATOM     47  C   UNL A   1      40.284  25.893  27.499  1.00  0.00     0.029 A 
ATOM     48  C   UNL A   1      41.442  25.924  28.388  1.00  0.00     0.049 A 
ATOM     49  H   UNL A   1      41.689  27.099  30.092  1.00  0.00     0.167 HD
ATOM     50  C   UNL A   1      42.257  29.961  33.413  1.00  0.00     0.034 A 
ATOM     51  C   UNL A   1      42.557  25.176  28.248  1.00  0.00     0.034 A 
ATOM     52  C   UNL A   1      43.444  29.143  33.398  1.00  0.00     0.049 A 
ATOM     53  C   UNL A   1      43.682  25.357  29.241  1.00  0.00     0.074 A 
ATOM     54  C   UNL A   1      44.509  29.153  34.281  1.00  0.00     0.029 A 
ATOM     55  N   UNL A   1      43.720  28.164  32.452  1.00  0.00    -0.354 N 
ATOM     56  N   UNL A   1      43.768  26.195  30.249  1.00  0.00    -0.248 NA
ATOM     57  C   UNL A   1      44.858  24.489  29.081  1.00  0.00     0.031 C 
ATOM     58  C   UNL A   1      45.459  28.233  33.829  1.00  0.00     0.029 A 
ATOM     59  C   UNL A   1      44.947  27.580  32.718  1.00  0.00     0.049 A 
ATOM     60  H   UNL A   1      43.129  27.920  31.703  1.00  0.00     0.167 HD
ATOM     61  C   UNL A   1      44.983  25.919  30.870  1.00  0.00     0.074 A 
ATOM     62  C   UNL A   1      45.597  24.842  30.123  1.00  0.00     0.031 C 
ATOM     63  C   UNL A   1      45.535  26.494  31.968  1.00  0.00     0.034 A 
BRANCH  50  64
ATOM     64  C   UNL A   1      42.127  31.049  34.455  1.00  0.00     0.023 A 
ATOM     65  C   UNL A   1      42.579  32.359  34.218  1.00  0.00     0.031 A 
ATOM     66  C   UNL A   1      41.579  30.766  35.720  1.00  0.00     0.131 A 
ATOM     67  C   UNL A   1      42.569  33.304  35.254  1.00  0.00     0.055 A 
ATOM     68  C   UNL A   1      41.478  31.741  36.715  1.00  0.00     0.041 A 
ATOM     69  F   UNL A   1      41.147  29.530  36.017  1.00  0.00    -0.206 F 
ATOM     70  C   UNL A   1      41.994  33.013  36.493  1.00  0.00     0.022 A 
BRANCH  67  71
ATOM     71  S   UNL A   1      43.475  34.856  35.014  1.00  0.00     0.124 S 
ATOM     72  O   UNL A   1      43.401  35.017  33.562  1.00  0.00    -0.237 OA
ATOM     73  O   UNL A   1      42.696  35.803  35.801  1.00  0.00    -0.237 OA
ATOM     74  O   UNL A   1      44.809  34.559  35.532  1.00  0.00    -0.744 OA
ENDBRANCH  67  71
ENDBRANCH  50  64
BRANCH  51  75
ATOM     75  C   UNL A   1      42.678  24.193  27.131  1.00  0.00     0.023 A 
ATOM     76  C   UNL A   1      42.052  22.938  27.203  1.00  0.00     0.031 A 
ATOM     77  C   UNL A   1      43.455  24.474  25.991  1.00  0.00     0.131 A 
ATOM     78  C   UNL A   1      42.252  21.993  26.182  1.00  0.00     0.055 A 
ATOM     79  C   UNL A   1      43.601  23.553  24.950  1.00  0.00     0.041 A 
ATOM     80  F   UNL A   1      44.076  25.658  25.867  1.00  0.00    -0.206 F 
ATOM     81  C   UNL A   1      43.009  22.299  25.049  1.00  0.00     0.022 A 
BRANCH  78  82
ATOM     82  S   UNL A   1      41.585  20.322  26.405  1.00  0.00     0.124 S 
ATOM     83  O   UNL A   1      42.252  19.593  25.332  1.00  0.00    -0.237 OA
ATOM     84  O   UNL A   1      42.015  20.003  27.763  1.00  0.00    -0.237 OA
ATOM     85  O   UNL A   1      40.145  20.505  26.236  1.00  0.00    -0.744 OA
ENDBRANCH  78  82
ENDBRANCH  51  75
BRANCH  63  86
ATOM     86  C   UNL A   1      46.830  25.917  32.486  1.00  0.00     0.023 A 
ATOM     87  C   UNL A   1      46.864  24.926  33.480  1.00  0.00     0.031 A 
ATOM     88  C   UNL A   1      48.051  26.347  31.934  1.00  0.00     0.131 A 
ATOM     89  C   UNL A   1      48.100  24.423  33.918  1.00  0.00     0.055 A 
ATOM     90  C   UNL A   1      49.270  25.799  32.329  1.00  0.00     0.041 A 
ATOM     91  F   UNL A   1      48.074  27.294  30.982  1.00  0.00    -0.206 F 
ATOM     92  C   UNL A   1      49.300  24.837  33.333  1.00  0.00     0.022 A 
BRANCH  89  93
ATOM     93  S   UNL A   1      48.126  23.262  35.312  1.00  0.00     0.124 S 
ATOM     94  O   UNL A   1      46.982  22.406  35.014  1.00  0.00    -0.237 OA
ATOM     95  O   UNL A   1      49.439  22.641  35.179  1.00  0.00    -0.237 OA
ATOM     96  O   UNL A   1      47.966  24.127  36.480  1.00  0.00    -0.744 OA
ENDBRANCH  89  93
ENDBRANCH  63  86
ENDBRANCH  37  38
ENDBRANCH  29  32
ENDBRANCH  27  28
ENDBRANCH   1  27
TORSDOF 17
ENDMDL
