MODEL 1
REMARK VINA RESULT:     -11.9      0.000      0.000
REMARK SMILES CC[C@@](C)(NC(=O)Nc1c(C)cccc1Cl)C(=O)NCCCNC(=O)c1ccc(-c2c3nc(c(-c4cc(S(=O)(=O)[O-])ccc4F)c4ccc([nH]4)c(-c4cc(S(=O)(=O)[O-])ccc4F)c4nc(c(-c5cc(S(=O)(=O)[O-])ccc5F)c5ccc2[nH]5)C=C4)C=C3)cc1
REMARK SMILES IDX 21 1 20 2 19 3 17 4 18 5 3 7 4 8 2 9 1 10 5 11 6 12 7 14
REMARK SMILES IDX 8 15 9 17 10 18 15 19 11 20 12 21 14 22 16 23 13 24 22 25
REMARK SMILES IDX 23 26 24 27 25 29 26 30 27 31 88 32 28 33 87 34 29 35 30 36
REMARK SMILES IDX 31 37 81 38 32 39 86 40 80 41 82 42 33 43 85 44 79 45 78 46
REMARK SMILES IDX 34 48 66 49 46 50 65 51 47 52 50 53 64 54 83 55 48 56 49 57
REMARK SMILES IDX 63 59 84 60 51 61 35 62 36 63 44 64 37 65 43 66 45 67 42 68
REMARK SMILES IDX 38 69 39 70 40 71 41 72 67 73 68 74 76 75 69 76 75 77 77 78
REMARK SMILES IDX 74 79 70 80 71 81 72 82 73 83 52 84 53 85 61 86 54 87 60 88
REMARK SMILES IDX 62 89 59 90 55 91 56 92 57 93 58 94
REMARK H PARENT 19 6 5 13 8 16 23 28 82 47 50 58
REMARK Flexibility Score: inf
ROOT
ATOM      1  C   UNL A   1      31.797  31.585  26.538  1.00  0.00     0.042 C 
ENDROOT
BRANCH   1   2
ATOM      2  C   UNL A   1      31.939  30.069  26.256  1.00  0.00     0.117 C 
BRANCH   2   3
ATOM      3  N   UNL A   1      33.080  29.692  25.428  1.00  0.00    -0.354 N 
ATOM      4  C   UNL A   1      33.160  28.892  24.288  1.00  0.00     0.245 C 
ATOM      5  O   UNL A   1      33.461  29.356  23.189  1.00  0.00    -0.272 OA
ATOM      6  H   UNL A   1      33.941  30.065  25.724  1.00  0.00     0.163 HD
BRANCH   4   7
ATOM      7  C   UNL A   1      32.788  27.408  24.466  1.00  0.00     0.117 C 
ATOM      8  C   UNL A   1      33.755  27.024  25.630  1.00  0.00     0.045 C 
BRANCH   7   9
ATOM      9  C   UNL A   1      31.383  26.903  24.881  1.00  0.00     0.035 C 
ATOM     10  C   UNL A   1      30.213  27.120  23.951  1.00  0.00     0.007 C 
ENDBRANCH   7   9
BRANCH   7  11
ATOM     11  N   UNL A   1      33.115  26.741  23.205  1.00  0.00    -0.324 N 
ATOM     12  C   UNL A   1      33.457  25.490  22.874  1.00  0.00     0.320 C 
ATOM     13  H   UNL A   1      33.078  27.346  22.430  1.00  0.00     0.166 HD
ATOM     14  O   UNL A   1      33.837  25.356  21.703  1.00  0.00    -0.248 OA
ATOM     15  N   UNL A   1      33.270  24.332  23.565  1.00  0.00    -0.306 N 
ATOM     16  H   UNL A   1      32.902  23.638  22.972  1.00  0.00     0.171 HD
BRANCH  15  17
ATOM     17  C   UNL A   1      33.445  23.806  24.900  1.00  0.00     0.064 A 
ATOM     18  C   UNL A   1      32.455  23.466  25.872  1.00  0.00    -0.026 A 
ATOM     19  C   UNL A   1      34.701  23.175  25.116  1.00  0.00     0.064 A 
ATOM     20  C   UNL A   1      30.964  23.231  25.690  1.00  0.00     0.046 C 
ATOM     21  C   UNL A   1      32.856  22.977  27.141  1.00  0.00     0.005 A 
ATOM     22  C   UNL A   1      35.027  22.502  26.303  1.00  0.00     0.023 A 
ATOM     23  Cl  UNL A   1      35.881  23.068  23.840  1.00  0.00    -0.082 Cl
ATOM     24  C   UNL A   1      34.128  22.479  27.351  1.00  0.00     0.002 A 
ENDBRANCH  15  17
ENDBRANCH   7  11
ENDBRANCH   4   7
ENDBRANCH   2   3
ENDBRANCH   1   2
BRANCH   1  25
ATOM     25  C   UNL A   1      32.923  32.349  27.244  1.00  0.00     0.118 C 
BRANCH  25  26
ATOM     26  N   UNL A   1      32.578  33.688  27.674  1.00  0.00    -0.352 N 
ATOM     27  C   UNL A   1      33.202  34.541  28.558  1.00  0.00     0.251 C 
ATOM     28  H   UNL A   1      31.759  34.050  27.265  1.00  0.00     0.163 HD
ATOM     29  O   UNL A   1      32.725  35.645  28.756  1.00  0.00    -0.269 OA
BRANCH  27  30
ATOM     30  C   UNL A   1      34.394  34.103  29.325  1.00  0.00     0.039 A 
ATOM     31  C   UNL A   1      34.174  33.380  30.501  1.00  0.00     0.014 A 
ATOM     32  C   UNL A   1      35.700  34.394  28.924  1.00  0.00     0.014 A 
ATOM     33  C   UNL A   1      35.257  32.875  31.225  1.00  0.00     0.010 A 
ATOM     34  C   UNL A   1      36.780  33.832  29.613  1.00  0.00     0.010 A 
ATOM     35  C   UNL A   1      36.571  33.051  30.762  1.00  0.00    -0.014 A 
BRANCH  35  36
ATOM     36  C   UNL A   1      37.718  32.397  31.457  1.00  0.00     0.031 A 
ATOM     37  C   UNL A   1      38.453  31.250  30.816  1.00  0.00     0.074 A 
ATOM     38  C   UNL A   1      38.072  32.811  32.693  1.00  0.00     0.049 A 
ATOM     39  N   UNL A   1      39.431  30.522  31.293  1.00  0.00    -0.248 NA
ATOM     40  C   UNL A   1      38.011  30.855  29.471  1.00  0.00     0.031 C 
ATOM     41  C   UNL A   1      37.423  33.890  33.439  1.00  0.00     0.029 A 
ATOM     42  N   UNL A   1      39.059  32.372  33.543  1.00  0.00    -0.354 N 
ATOM     43  C   UNL A   1      39.715  29.576  30.313  1.00  0.00     0.074 A 
ATOM     44  C   UNL A   1      38.763  29.788  29.244  1.00  0.00     0.031 C 
ATOM     45  C   UNL A   1      38.044  34.049  34.618  1.00  0.00     0.029 A 
ATOM     46  C   UNL A   1      39.101  33.050  34.742  1.00  0.00     0.049 A 
ATOM     47  H   UNL A   1      39.679  31.641  33.318  1.00  0.00     0.167 HD
ATOM     48  C   UNL A   1      40.692  28.633  30.297  1.00  0.00     0.034 A 
ATOM     49  C   UNL A   1      39.886  32.878  35.826  1.00  0.00     0.034 A 
ATOM     50  C   UNL A   1      41.639  28.436  31.370  1.00  0.00     0.049 A 
ATOM     51  C   UNL A   1      40.935  31.794  35.802  1.00  0.00     0.074 A 
ATOM     52  C   UNL A   1      42.697  27.545  31.432  1.00  0.00     0.029 A 
ATOM     53  N   UNL A   1      41.638  29.131  32.574  1.00  0.00    -0.354 N 
ATOM     54  N   UNL A   1      41.221  30.940  34.846  1.00  0.00    -0.248 NA
ATOM     55  C   UNL A   1      41.772  31.655  37.002  1.00  0.00     0.031 C 
ATOM     56  C   UNL A   1      43.281  27.643  32.699  1.00  0.00     0.029 A 
ATOM     57  C   UNL A   1      42.651  28.660  33.397  1.00  0.00     0.049 A 
ATOM     58  H   UNL A   1      41.010  29.851  32.809  1.00  0.00     0.167 HD
ATOM     59  C   UNL A   1      42.293  30.188  35.318  1.00  0.00     0.074 A 
ATOM     60  C   UNL A   1      42.613  30.699  36.635  1.00  0.00     0.031 C 
ATOM     61  C   UNL A   1      42.958  29.170  34.714  1.00  0.00     0.034 A 
BRANCH  48  62
ATOM     62  C   UNL A   1      40.764  27.724  29.091  1.00  0.00     0.023 A 
ATOM     63  C   UNL A   1      41.717  27.918  28.075  1.00  0.00     0.031 A 
ATOM     64  C   UNL A   1      39.856  26.661  28.942  1.00  0.00     0.131 A 
ATOM     65  C   UNL A   1      41.688  27.118  26.923  1.00  0.00     0.055 A 
ATOM     66  C   UNL A   1      39.890  25.812  27.835  1.00  0.00     0.041 A 
ATOM     67  F   UNL A   1      38.910  26.435  29.868  1.00  0.00    -0.206 F 
ATOM     68  C   UNL A   1      40.799  26.048  26.808  1.00  0.00     0.022 A 
BRANCH  65  69
ATOM     69  S   UNL A   1      42.724  27.595  25.513  1.00  0.00     0.124 S 
ATOM     70  O   UNL A   1      44.000  27.875  26.166  1.00  0.00    -0.237 OA
ATOM     71  O   UNL A   1      42.682  26.404  24.673  1.00  0.00    -0.237 OA
ATOM     72  O   UNL A   1      42.041  28.768  24.968  1.00  0.00    -0.744 OA
ENDBRANCH  65  69
ENDBRANCH  48  62
BRANCH  49  73
ATOM     73  C   UNL A   1      39.707  33.735  37.037  1.00  0.00     0.023 A 
ATOM     74  C   UNL A   1      40.549  34.833  37.279  1.00  0.00     0.031 A 
ATOM     75  C   UNL A   1      38.726  33.435  37.998  1.00  0.00     0.131 A 
ATOM     76  C   UNL A   1      40.429  35.558  38.475  1.00  0.00     0.055 A 
ATOM     77  C   UNL A   1      38.570  34.198  39.157  1.00  0.00     0.041 A 
ATOM     78  F   UNL A   1      37.894  32.397  37.820  1.00  0.00    -0.206 F 
ATOM     79  C   UNL A   1      39.435  35.258  39.408  1.00  0.00     0.022 A 
BRANCH  76  80
ATOM     80  S   UNL A   1      41.658  36.840  38.842  1.00  0.00     0.124 S 
ATOM     81  O   UNL A   1      40.812  37.950  39.262  1.00  0.00    -0.237 OA
ATOM     82  O   UNL A   1      42.454  36.206  39.888  1.00  0.00    -0.237 OA
ATOM     83  O   UNL A   1      42.346  37.027  37.566  1.00  0.00    -0.744 OA
ENDBRANCH  76  80
ENDBRANCH  49  73
BRANCH  61  84
ATOM     84  C   UNL A   1      44.132  28.574  35.456  1.00  0.00     0.023 A 
ATOM     85  C   UNL A   1      43.976  27.529  36.384  1.00  0.00     0.031 A 
ATOM     86  C   UNL A   1      45.431  29.068  35.233  1.00  0.00     0.131 A 
ATOM     87  C   UNL A   1      45.088  27.052  37.095  1.00  0.00     0.055 A 
ATOM     88  C   UNL A   1      46.543  28.542  35.892  1.00  0.00     0.041 A 
ATOM     89  F   UNL A   1      45.642  30.068  34.362  1.00  0.00    -0.206 F 
ATOM     90  C   UNL A   1      46.373  27.538  36.840  1.00  0.00     0.022 A 
BRANCH  87  91
ATOM     91  S   UNL A   1      44.821  25.856  38.432  1.00  0.00     0.124 S 
ATOM     92  O   UNL A   1      44.105  24.786  37.743  1.00  0.00    -0.237 OA
ATOM     93  O   UNL A   1      46.183  25.544  38.851  1.00  0.00    -0.237 OA
ATOM     94  O   UNL A   1      44.028  26.602  39.408  1.00  0.00    -0.744 OA
ENDBRANCH  87  91
ENDBRANCH  61  84
ENDBRANCH  35  36
ENDBRANCH  27  30
ENDBRANCH  25  26
ENDBRANCH   1  25
TORSDOF 16
ENDMDL
MODEL 2
REMARK VINA RESULT:     -11.8      5.728      8.952
REMARK SMILES CC[C@@](C)(NC(=O)Nc1c(C)cccc1Cl)C(=O)NCCCNC(=O)c1ccc(-c2c3nc(c(-c4cc(S(=O)(=O)[O-])ccc4F)c4ccc([nH]4)c(-c4cc(S(=O)(=O)[O-])ccc4F)c4nc(c(-c5cc(S(=O)(=O)[O-])ccc5F)c5ccc2[nH]5)C=C4)C=C3)cc1
REMARK SMILES IDX 21 1 20 2 19 3 17 4 18 5 3 7 4 8 2 9 1 10 5 11 6 12 7 14
REMARK SMILES IDX 8 15 9 17 10 18 15 19 11 20 12 21 14 22 16 23 13 24 22 25
REMARK SMILES IDX 23 26 24 27 25 29 26 30 27 31 88 32 28 33 87 34 29 35 30 36
REMARK SMILES IDX 31 37 81 38 32 39 86 40 80 41 82 42 33 43 85 44 79 45 78 46
REMARK SMILES IDX 34 48 66 49 46 50 65 51 47 52 50 53 64 54 83 55 48 56 49 57
REMARK SMILES IDX 63 59 84 60 51 61 35 62 36 63 44 64 37 65 43 66 45 67 42 68
REMARK SMILES IDX 38 69 39 70 40 71 41 72 67 73 68 74 76 75 69 76 75 77 77 78
REMARK SMILES IDX 74 79 70 80 71 81 72 82 73 83 52 84 53 85 61 86 54 87 60 88
REMARK SMILES IDX 62 89 59 90 55 91 56 92 57 93 58 94
REMARK H PARENT 19 6 5 13 8 16 23 28 82 47 50 58
REMARK Flexibility Score: inf
ROOT
ATOM      1  C   UNL A   1      36.677  20.555  24.719  1.00  0.00     0.042 C 
ENDROOT
BRANCH   1   2
ATOM      2  C   UNL A   1      35.327  20.685  25.468  1.00  0.00     0.117 C 
BRANCH   2   3
ATOM      3  N   UNL A   1      35.250  21.779  26.430  1.00  0.00    -0.354 N 
ATOM      4  C   UNL A   1      34.176  22.575  26.828  1.00  0.00     0.245 C 
ATOM      5  O   UNL A   1      33.721  22.525  27.970  1.00  0.00    -0.272 OA
ATOM      6  H   UNL A   1      36.102  21.994  26.873  1.00  0.00     0.163 HD
BRANCH   4   7
ATOM      7  C   UNL A   1      33.550  23.472  25.745  1.00  0.00     0.117 C 
ATOM      8  C   UNL A   1      34.608  24.618  25.697  1.00  0.00     0.045 C 
BRANCH   7   9
ATOM      9  C   UNL A   1      33.315  23.034  24.277  1.00  0.00     0.035 C 
ATOM     10  C   UNL A   1      34.335  23.395  23.223  1.00  0.00     0.007 C 
ENDBRANCH   7   9
BRANCH   7  11
ATOM     11  N   UNL A   1      32.253  23.909  26.263  1.00  0.00    -0.324 N 
ATOM     12  C   UNL A   1      31.469  24.970  26.035  1.00  0.00     0.320 C 
ATOM     13  H   UNL A   1      31.875  23.287  26.924  1.00  0.00     0.166 HD
ATOM     14  O   UNL A   1      30.513  25.076  26.816  1.00  0.00    -0.248 OA
ATOM     15  N   UNL A   1      31.458  25.826  24.977  1.00  0.00    -0.306 N 
ATOM     16  H   UNL A   1      30.537  25.962  24.659  1.00  0.00     0.171 HD
BRANCH  15  17
ATOM     17  C   UNL A   1      32.381  26.597  24.174  1.00  0.00     0.064 A 
ATOM     18  C   UNL A   1      32.652  26.508  22.776  1.00  0.00    -0.026 A 
ATOM     19  C   UNL A   1      32.753  27.842  24.752  1.00  0.00     0.064 A 
ATOM     20  C   UNL A   1      31.839  25.844  21.675  1.00  0.00     0.046 C 
ATOM     21  C   UNL A   1      33.623  27.360  22.192  1.00  0.00     0.005 A 
ATOM     22  C   UNL A   1      33.547  28.789  24.088  1.00  0.00     0.023 A 
ATOM     23  Cl  UNL A   1      32.109  28.344  26.290  1.00  0.00    -0.082 Cl
ATOM     24  C   UNL A   1      34.053  28.505  22.835  1.00  0.00     0.002 A 
ENDBRANCH  15  17
ENDBRANCH   7  11
ENDBRANCH   4   7
ENDBRANCH   2   3
ENDBRANCH   1   2
BRANCH   1  25
ATOM     25  C   UNL A   1      37.916  21.302  25.225  1.00  0.00     0.118 C 
BRANCH  25  26
ATOM     26  N   UNL A   1      38.954  20.459  25.781  1.00  0.00    -0.352 N 
ATOM     27  C   UNL A   1      40.022  20.763  26.598  1.00  0.00     0.251 C 
ATOM     28  H   UNL A   1      38.886  19.510  25.533  1.00  0.00     0.163 HD
ATOM     29  O   UNL A   1      40.770  19.868  26.955  1.00  0.00    -0.269 OA
BRANCH  27  30
ATOM     30  C   UNL A   1      40.313  22.166  26.981  1.00  0.00     0.039 A 
ATOM     31  C   UNL A   1      41.306  22.378  27.941  1.00  0.00     0.014 A 
ATOM     32  C   UNL A   1      39.635  23.256  26.432  1.00  0.00     0.014 A 
ATOM     33  C   UNL A   1      41.679  23.680  28.287  1.00  0.00     0.010 A 
ATOM     34  C   UNL A   1      40.055  24.557  26.729  1.00  0.00     0.010 A 
ATOM     35  C   UNL A   1      41.094  24.785  27.647  1.00  0.00    -0.014 A 
BRANCH  35  36
ATOM     36  C   UNL A   1      41.586  26.168  27.913  1.00  0.00     0.031 A 
ATOM     37  C   UNL A   1      42.966  26.589  27.484  1.00  0.00     0.074 A 
ATOM     38  C   UNL A   1      40.800  27.038  28.583  1.00  0.00     0.049 A 
ATOM     39  N   UNL A   1      43.584  27.726  27.681  1.00  0.00    -0.248 NA
ATOM     40  C   UNL A   1      43.763  25.589  26.760  1.00  0.00     0.031 C 
ATOM     41  C   UNL A   1      39.454  26.746  29.082  1.00  0.00     0.029 A 
ATOM     42  N   UNL A   1      41.017  28.339  28.968  1.00  0.00    -0.354 N 
ATOM     43  C   UNL A   1      44.847  27.576  27.116  1.00  0.00     0.074 A 
ATOM     44  C   UNL A   1      44.922  26.217  26.625  1.00  0.00     0.031 C 
ATOM     45  C   UNL A   1      38.956  27.841  29.677  1.00  0.00     0.029 A 
ATOM     46  C   UNL A   1      39.963  28.899  29.656  1.00  0.00     0.049 A 
ATOM     47  H   UNL A   1      41.849  28.827  28.771  1.00  0.00     0.167 HD
ATOM     48  C   UNL A   1      45.842  28.493  26.999  1.00  0.00     0.034 A 
ATOM     49  C   UNL A   1      39.824  30.116  30.223  1.00  0.00     0.034 A 
ATOM     50  C   UNL A   1      45.751  29.848  27.490  1.00  0.00     0.049 A 
ATOM     51  C   UNL A   1      40.962  31.101  30.119  1.00  0.00     0.074 A 
ATOM     52  C   UNL A   1      46.680  30.869  27.379  1.00  0.00     0.029 A 
ATOM     53  N   UNL A   1      44.674  30.371  28.197  1.00  0.00    -0.354 N 
ATOM     54  N   UNL A   1      42.131  30.958  29.537  1.00  0.00    -0.248 NA
ATOM     55  C   UNL A   1      40.758  32.417  30.742  1.00  0.00     0.031 C 
ATOM     56  C   UNL A   1      46.202  31.978  28.085  1.00  0.00     0.029 A 
ATOM     57  C   UNL A   1      44.934  31.685  28.559  1.00  0.00     0.049 A 
ATOM     58  H   UNL A   1      43.848  29.880  28.409  1.00  0.00     0.167 HD
ATOM     59  C   UNL A   1      42.785  32.177  29.696  1.00  0.00     0.074 A 
ATOM     60  C   UNL A   1      41.876  33.047  30.411  1.00  0.00     0.031 C 
ATOM     61  C   UNL A   1      44.024  32.545  29.281  1.00  0.00     0.034 A 
BRANCH  48  62
ATOM     62  C   UNL A   1      47.127  28.047  26.338  1.00  0.00     0.023 A 
ATOM     63  C   UNL A   1      47.328  28.175  24.952  1.00  0.00     0.031 A 
ATOM     64  C   UNL A   1      48.158  27.466  27.097  1.00  0.00     0.131 A 
ATOM     65  C   UNL A   1      48.490  27.657  24.360  1.00  0.00     0.055 A 
ATOM     66  C   UNL A   1      49.350  27.034  26.515  1.00  0.00     0.041 A 
ATOM     67  F   UNL A   1      48.019  27.298  28.422  1.00  0.00    -0.206 F 
ATOM     68  C   UNL A   1      49.515  27.112  25.135  1.00  0.00     0.022 A 
BRANCH  65  69
ATOM     69  S   UNL A   1      48.571  27.565  22.550  1.00  0.00     0.124 S 
ATOM     70  O   UNL A   1      49.811  28.286  22.274  1.00  0.00    -0.237 OA
ATOM     71  O   UNL A   1      48.600  26.128  22.309  1.00  0.00    -0.237 OA
ATOM     72  O   UNL A   1      47.353  28.248  22.118  1.00  0.00    -0.744 OA
ENDBRANCH  65  69
ENDBRANCH  48  62
BRANCH  49  73
ATOM     73  C   UNL A   1      38.574  30.474  30.957  1.00  0.00     0.023 A 
ATOM     74  C   UNL A   1      37.528  31.159  30.317  1.00  0.00     0.031 A 
ATOM     75  C   UNL A   1      38.429  30.185  32.326  1.00  0.00     0.131 A 
ATOM     76  C   UNL A   1      36.409  31.577  31.054  1.00  0.00     0.055 A 
ATOM     77  C   UNL A   1      37.286  30.549  33.041  1.00  0.00     0.041 A 
ATOM     78  F   UNL A   1      39.397  29.534  32.989  1.00  0.00    -0.206 F 
ATOM     79  C   UNL A   1      36.274  31.263  32.408  1.00  0.00     0.022 A 
BRANCH  76  80
ATOM     80  S   UNL A   1      35.175  32.629  30.241  1.00  0.00     0.124 S 
ATOM     81  O   UNL A   1      34.274  32.935  31.345  1.00  0.00    -0.237 OA
ATOM     82  O   UNL A   1      35.994  33.734  29.752  1.00  0.00    -0.237 OA
ATOM     83  O   UNL A   1      34.621  31.761  29.203  1.00  0.00    -0.744 OA
ENDBRANCH  76  80
ENDBRANCH  49  73
BRANCH  61  84
ATOM     84  C   UNL A   1      44.448  33.970  29.549  1.00  0.00     0.023 A 
ATOM     85  C   UNL A   1      44.206  35.006  28.629  1.00  0.00     0.031 A 
ATOM     86  C   UNL A   1      45.113  34.295  30.746  1.00  0.00     0.131 A 
ATOM     87  C   UNL A   1      44.675  36.302  28.894  1.00  0.00     0.055 A 
ATOM     88  C   UNL A   1      45.516  35.600  31.035  1.00  0.00     0.041 A 
ATOM     89  F   UNL A   1      45.378  33.348  31.660  1.00  0.00    -0.206 F 
ATOM     90  C   UNL A   1      45.310  36.609  30.100  1.00  0.00     0.022 A 
BRANCH  87  91
ATOM     91  S   UNL A   1      44.532  37.563  27.598  1.00  0.00     0.124 S 
ATOM     92  O   UNL A   1      43.291  37.177  26.935  1.00  0.00    -0.237 OA
ATOM     93  O   UNL A   1      44.486  38.801  28.369  1.00  0.00    -0.237 OA
ATOM     94  O   UNL A   1      45.744  37.375  26.801  1.00  0.00    -0.744 OA
ENDBRANCH  87  91
ENDBRANCH  61  84
ENDBRANCH  35  36
ENDBRANCH  27  30
ENDBRANCH  25  26
ENDBRANCH   1  25
TORSDOF 16
ENDMDL
MODEL 3
REMARK VINA RESULT:     -11.8      1.294      1.530
REMARK SMILES CC[C@@](C)(NC(=O)Nc1c(C)cccc1Cl)C(=O)NCCCNC(=O)c1ccc(-c2c3nc(c(-c4cc(S(=O)(=O)[O-])ccc4F)c4ccc([nH]4)c(-c4cc(S(=O)(=O)[O-])ccc4F)c4nc(c(-c5cc(S(=O)(=O)[O-])ccc5F)c5ccc2[nH]5)C=C4)C=C3)cc1
REMARK SMILES IDX 21 1 20 2 19 3 17 4 18 5 3 7 4 8 2 9 1 10 5 11 6 12 7 14
REMARK SMILES IDX 8 15 9 17 10 18 15 19 11 20 12 21 14 22 16 23 13 24 22 25
REMARK SMILES IDX 23 26 24 27 25 29 26 30 27 31 88 32 28 33 87 34 29 35 30 36
REMARK SMILES IDX 31 37 81 38 32 39 86 40 80 41 82 42 33 43 85 44 79 45 78 46
REMARK SMILES IDX 34 48 66 49 46 50 65 51 47 52 50 53 64 54 83 55 48 56 49 57
REMARK SMILES IDX 63 59 84 60 51 61 35 62 36 63 44 64 37 65 43 66 45 67 42 68
REMARK SMILES IDX 38 69 39 70 40 71 41 72 67 73 68 74 76 75 69 76 75 77 77 78
REMARK SMILES IDX 74 79 70 80 71 81 72 82 73 83 52 84 53 85 61 86 54 87 60 88
REMARK SMILES IDX 62 89 59 90 55 91 56 92 57 93 58 94
REMARK H PARENT 19 6 5 13 8 16 23 28 82 47 50 58
REMARK Flexibility Score: inf
ROOT
ATOM      1  C   UNL A   1      31.753  31.571  26.501  1.00  0.00     0.042 C 
ENDROOT
BRANCH   1   2
ATOM      2  C   UNL A   1      31.866  30.056  26.198  1.00  0.00     0.117 C 
BRANCH   2   3
ATOM      3  N   UNL A   1      33.004  29.668  25.370  1.00  0.00    -0.354 N 
ATOM      4  C   UNL A   1      33.076  28.867  24.230  1.00  0.00     0.245 C 
ATOM      5  O   UNL A   1      33.384  29.329  23.132  1.00  0.00    -0.272 OA
ATOM      6  H   UNL A   1      33.868  30.033  25.668  1.00  0.00     0.163 HD
BRANCH   4   7
ATOM      7  C   UNL A   1      32.690  27.388  24.408  1.00  0.00     0.117 C 
ATOM      8  C   UNL A   1      33.683  26.981  25.542  1.00  0.00     0.045 C 
BRANCH   7   9
ATOM      9  C   UNL A   1      31.290  26.899  24.859  1.00  0.00     0.035 C 
ATOM     10  C   UNL A   1      30.107  27.089  23.939  1.00  0.00     0.007 C 
ENDBRANCH   7   9
BRANCH   7  11
ATOM     11  N   UNL A   1      32.972  26.726  23.133  1.00  0.00    -0.324 N 
ATOM     12  C   UNL A   1      33.291  25.474  22.784  1.00  0.00     0.320 C 
ATOM     13  H   UNL A   1      32.916  27.337  22.364  1.00  0.00     0.166 HD
ATOM     14  O   UNL A   1      33.634  25.345  21.601  1.00  0.00    -0.248 OA
ATOM     15  N   UNL A   1      33.114  24.314  23.473  1.00  0.00    -0.306 N 
ATOM     16  H   UNL A   1      32.722  23.627  22.887  1.00  0.00     0.171 HD
BRANCH  15  17
ATOM     17  C   UNL A   1      33.324  23.776  24.798  1.00  0.00     0.064 A 
ATOM     18  C   UNL A   1      32.363  23.456  25.804  1.00  0.00    -0.026 A 
ATOM     19  C   UNL A   1      34.572  23.114  24.966  1.00  0.00     0.064 A 
ATOM     20  C   UNL A   1      30.860  23.257  25.676  1.00  0.00     0.046 C 
ATOM     21  C   UNL A   1      32.797  22.951  27.055  1.00  0.00     0.005 A 
ATOM     22  C   UNL A   1      34.924  22.427  26.137  1.00  0.00     0.023 A 
ATOM     23  Cl  UNL A   1      35.702  22.985  23.648  1.00  0.00    -0.082 Cl
ATOM     24  C   UNL A   1      34.063  22.421  27.217  1.00  0.00     0.002 A 
ENDBRANCH  15  17
ENDBRANCH   7  11
ENDBRANCH   4   7
ENDBRANCH   2   3
ENDBRANCH   1   2
BRANCH   1  25
ATOM     25  C   UNL A   1      32.851  32.282  27.301  1.00  0.00     0.118 C 
BRANCH  25  26
ATOM     26  N   UNL A   1      32.538  33.640  27.696  1.00  0.00    -0.352 N 
ATOM     27  C   UNL A   1      33.191  34.505  28.546  1.00  0.00     0.251 C 
ATOM     28  H   UNL A   1      31.721  34.006  27.287  1.00  0.00     0.163 HD
ATOM     29  O   UNL A   1      32.738  35.625  28.717  1.00  0.00    -0.269 OA
BRANCH  27  30
ATOM     30  C   UNL A   1      34.385  34.067  29.310  1.00  0.00     0.039 A 
ATOM     31  C   UNL A   1      34.168  33.312  30.466  1.00  0.00     0.014 A 
ATOM     32  C   UNL A   1      35.688  34.388  28.925  1.00  0.00     0.014 A 
ATOM     33  C   UNL A   1      35.254  32.806  31.185  1.00  0.00     0.010 A 
ATOM     34  C   UNL A   1      36.772  33.825  29.607  1.00  0.00     0.010 A 
ATOM     35  C   UNL A   1      36.569  33.013  30.735  1.00  0.00    -0.014 A 
BRANCH  35  36
ATOM     36  C   UNL A   1      37.721  32.359  31.421  1.00  0.00     0.031 A 
ATOM     37  C   UNL A   1      38.451  31.212  30.774  1.00  0.00     0.074 A 
ATOM     38  C   UNL A   1      38.085  32.772  32.654  1.00  0.00     0.049 A 
ATOM     39  N   UNL A   1      39.432  30.484  31.243  1.00  0.00    -0.248 NA
ATOM     40  C   UNL A   1      37.998  30.817  29.433  1.00  0.00     0.031 C 
ATOM     41  C   UNL A   1      37.441  33.852  33.404  1.00  0.00     0.029 A 
ATOM     42  N   UNL A   1      39.078  32.335  33.496  1.00  0.00    -0.354 N 
ATOM     43  C   UNL A   1      39.709  29.538  30.262  1.00  0.00     0.074 A 
ATOM     44  C   UNL A   1      38.749  29.750  29.200  1.00  0.00     0.031 C 
ATOM     45  C   UNL A   1      38.071  34.011  34.579  1.00  0.00     0.029 A 
ATOM     46  C   UNL A   1      39.129  33.012  34.695  1.00  0.00     0.049 A 
ATOM     47  H   UNL A   1      39.696  31.603  33.267  1.00  0.00     0.167 HD
ATOM     48  C   UNL A   1      40.687  28.595  30.239  1.00  0.00     0.034 A 
ATOM     49  C   UNL A   1      39.923  32.841  35.773  1.00  0.00     0.034 A 
ATOM     50  C   UNL A   1      41.642  28.399  31.304  1.00  0.00     0.049 A 
ATOM     51  C   UNL A   1      40.971  31.757  35.741  1.00  0.00     0.074 A 
ATOM     52  C   UNL A   1      42.700  27.507  31.358  1.00  0.00     0.029 A 
ATOM     53  N   UNL A   1      41.650  29.093  32.508  1.00  0.00    -0.354 N 
ATOM     54  N   UNL A   1      41.250  30.903  34.783  1.00  0.00    -0.248 NA
ATOM     55  C   UNL A   1      41.817  31.618  36.934  1.00  0.00     0.031 C 
ATOM     56  C   UNL A   1      43.294  27.606  32.620  1.00  0.00     0.029 A 
ATOM     57  C   UNL A   1      42.669  28.623  33.323  1.00  0.00     0.049 A 
ATOM     58  H   UNL A   1      41.023  29.814  32.747  1.00  0.00     0.167 HD
ATOM     59  C   UNL A   1      42.326  30.151  35.247  1.00  0.00     0.074 A 
ATOM     60  C   UNL A   1      42.656  30.662  36.561  1.00  0.00     0.031 C 
ATOM     61  C   UNL A   1      42.986  29.132  34.638  1.00  0.00     0.034 A 
BRANCH  48  62
ATOM     62  C   UNL A   1      40.749  27.686  29.032  1.00  0.00     0.023 A 
ATOM     63  C   UNL A   1      41.684  27.890  28.001  1.00  0.00     0.031 A 
ATOM     64  C   UNL A   1      39.851  26.613  28.898  1.00  0.00     0.131 A 
ATOM     65  C   UNL A   1      41.645  27.088  26.850  1.00  0.00     0.055 A 
ATOM     66  C   UNL A   1      39.876  25.763  27.791  1.00  0.00     0.041 A 
ATOM     67  F   UNL A   1      38.922  26.377  29.839  1.00  0.00    -0.206 F 
ATOM     68  C   UNL A   1      40.766  26.008  26.749  1.00  0.00     0.022 A 
BRANCH  65  69
ATOM     69  S   UNL A   1      42.653  27.576  25.423  1.00  0.00     0.124 S 
ATOM     70  O   UNL A   1      43.909  27.955  26.065  1.00  0.00    -0.237 OA
ATOM     71  O   UNL A   1      42.685  26.355  24.627  1.00  0.00    -0.237 OA
ATOM     72  O   UNL A   1      41.903  28.685  24.837  1.00  0.00    -0.744 OA
ENDBRANCH  65  69
ENDBRANCH  48  62
BRANCH  49  73
ATOM     73  C   UNL A   1      39.753  33.697  36.985  1.00  0.00     0.023 A 
ATOM     74  C   UNL A   1      39.223  33.173  38.176  1.00  0.00     0.031 A 
ATOM     75  C   UNL A   1      40.067  35.068  36.954  1.00  0.00     0.131 A 
ATOM     76  C   UNL A   1      38.975  34.021  39.266  1.00  0.00     0.055 A 
ATOM     77  C   UNL A   1      39.877  35.895  38.062  1.00  0.00     0.041 A 
ATOM     78  F   UNL A   1      40.575  35.623  35.842  1.00  0.00    -0.206 F 
ATOM     79  C   UNL A   1      39.313  35.376  39.223  1.00  0.00     0.022 A 
BRANCH  76  80
ATOM     80  S   UNL A   1      38.109  33.349  40.711  1.00  0.00     0.124 S 
ATOM     81  O   UNL A   1      38.294  34.415  41.688  1.00  0.00    -0.237 OA
ATOM     82  O   UNL A   1      36.754  33.175  40.198  1.00  0.00    -0.237 OA
ATOM     83  O   UNL A   1      38.830  32.110  40.993  1.00  0.00    -0.744 OA
ENDBRANCH  76  80
ENDBRANCH  49  73
BRANCH  61  84
ATOM     84  C   UNL A   1      44.166  28.538  35.370  1.00  0.00     0.023 A 
ATOM     85  C   UNL A   1      44.013  27.518  36.327  1.00  0.00     0.031 A 
ATOM     86  C   UNL A   1      45.468  29.006  35.109  1.00  0.00     0.131 A 
ATOM     87  C   UNL A   1      45.132  27.041  37.027  1.00  0.00     0.055 A 
ATOM     88  C   UNL A   1      46.585  28.479  35.759  1.00  0.00     0.041 A 
ATOM     89  F   UNL A   1      45.675  29.981  34.210  1.00  0.00    -0.206 F 
ATOM     90  C   UNL A   1      46.419  27.501  36.735  1.00  0.00     0.022 A 
BRANCH  87  91
ATOM     91  S   UNL A   1      44.874  25.882  38.398  1.00  0.00     0.124 S 
ATOM     92  O   UNL A   1      44.150  26.706  39.360  1.00  0.00    -0.237 OA
ATOM     93  O   UNL A   1      44.105  24.815  37.765  1.00  0.00    -0.237 OA
ATOM     94  O   UNL A   1      46.232  25.513  38.796  1.00  0.00    -0.744 OA
ENDBRANCH  87  91
ENDBRANCH  61  84
ENDBRANCH  35  36
ENDBRANCH  27  30
ENDBRANCH  25  26
ENDBRANCH   1  25
TORSDOF 16
ENDMDL
