MODEL 1
REMARK VINA RESULT:     -13.7      0.000      0.000
REMARK SMILES CC1(C)[C@H](O)CC[C@@]2(C)[C@H]3Cc4c(oc(C(=O)NCCCNC(=O)c5ccc(-c6c7nc(c(-c8cc(S(=O)(=O)[O-])ccc8F)c8ccc([nH]8)c(-c8cc(S(=O)(=O)[O-])ccc8F)c8nc(c(-c9cc(S(=O)(=O)[O-])ccc9F)c9ccc6[nH]9)C=C8)C=C7)cc5)cc4=O)O[C@@]3(C)CC[C@@H]12
REMARK SMILES IDX 21 1 20 2 19 3 18 4 16 5 17 6 15 8 1 9 2 10 3 11 4 12 96 13
REMARK SMILES IDX 6 14 8 15 95 16 7 17 9 18 10 19 94 20 92 21 11 22 93 23
REMARK SMILES IDX 91 24 12 25 13 26 89 27 14 28 88 29 90 30 5 31 22 33 23 34
REMARK SMILES IDX 24 36 25 37 26 38 87 39 27 40 86 41 28 42 29 43 30 44 80 45
REMARK SMILES IDX 31 46 85 47 79 48 81 49 32 50 84 51 78 52 77 53 33 55 65 56
REMARK SMILES IDX 45 57 64 58 46 59 49 60 63 61 82 62 47 63 48 64 62 66 83 67
REMARK SMILES IDX 50 68 34 69 35 70 43 71 36 72 42 73 44 74 41 75 37 76 38 77
REMARK SMILES IDX 39 78 40 79 66 80 67 81 75 82 68 83 74 84 76 85 73 86 69 87
REMARK SMILES IDX 70 88 71 89 72 90 51 91 52 92 60 93 53 94 59 95 61 96 58 97
REMARK SMILES IDX 54 98 55 99 56 100 57 101
REMARK H PARENT 18 7 5 32 22 35 81 54 49 65
REMARK Flexibility Score: inf
ROOT
ATOM      1  C   UNL A   1      37.211  22.225  25.760  1.00  0.00     0.118 C 
ENDROOT
BRANCH   1   2
ATOM      2  C   UNL A   1      35.807  21.638  25.770  1.00  0.00     0.042 C 
BRANCH   2   3
ATOM      3  C   UNL A   1      35.663  20.309  24.996  1.00  0.00     0.118 C 
BRANCH   3   4
ATOM      4  N   UNL A   1      34.337  19.660  25.143  1.00  0.00    -0.349 N 
ATOM      5  C   UNL A   1      33.011  20.057  25.022  1.00  0.00     0.287 C 
ATOM      6  O   UNL A   1      32.153  19.173  25.034  1.00  0.00    -0.266 OA
ATOM      7  H   UNL A   1      34.416  18.710  25.387  1.00  0.00     0.163 HD
BRANCH   5   8
ATOM      8  C   UNL A   1      32.596  21.493  24.848  1.00  0.00     0.199 A 
ATOM      9  C   UNL A   1      31.709  30.659  26.481  1.00  0.00     0.014 C 
ATOM     10  C   UNL A   1      32.653  29.523  25.973  1.00  0.00    -0.006 C 
ATOM     11  C   UNL A   1      34.087  30.103  26.212  1.00  0.00     0.014 C 
ATOM     12  C   UNL A   1      32.558  28.349  27.151  1.00  0.00     0.120 C 
ATOM     13  C   UNL A   1      32.307  29.014  24.171  1.00  0.00     0.004 C 
ATOM     14  C   UNL A   1      31.221  27.694  27.047  1.00  0.00     0.033 C 
ATOM     15  C   UNL A   1      32.373  27.593  24.630  1.00  0.00    -0.022 C 
ATOM     16  C   UNL A   1      31.222  28.552  22.932  1.00  0.00     0.009 C 
ATOM     17  C   UNL A   1      31.001  27.749  25.572  1.00  0.00     0.010 C 
ATOM     18  C   UNL A   1      33.987  27.729  24.489  1.00  0.00     0.012 C 
ATOM     19  C   UNL A   1      32.321  26.175  24.073  1.00  0.00     0.044 C 
ATOM     20  C   UNL A   1      31.013  27.010  22.301  1.00  0.00     0.049 C 
ATOM     21  C   UNL A   1      32.144  25.944  22.591  1.00  0.00     0.113 C 
ATOM     22  C   UNL A   1      31.223  25.363  24.747  1.00  0.00     0.055 C 
ATOM     23  C   UNL A   1      33.277  26.285  21.607  1.00  0.00     0.057 C 
ATOM     24  O   UNL A   1      31.965  24.411  22.381  1.00  0.00    -0.458 OA
ATOM     25  C   UNL A   1      31.748  24.046  24.711  1.00  0.00     0.081 A 
ATOM     26  C   UNL A   1      32.121  23.535  23.547  1.00  0.00     0.292 A 
ATOM     27  C   UNL A   1      32.037  23.467  25.992  1.00  0.00     0.192 A 
ATOM     28  O   UNL A   1      32.687  22.212  23.583  1.00  0.00    -0.420 OA
ATOM     29  C   UNL A   1      32.101  22.054  25.953  1.00  0.00     0.105 A 
ATOM     30  O   UNL A   1      32.226  24.097  27.033  1.00  0.00    -0.289 OA
BRANCH  12  31
ATOM     31  O   UNL A   1      33.571  27.342  27.091  1.00  0.00    -0.393 OA
ATOM     32  H   UNL A   1      33.159  26.465  27.138  1.00  0.00     0.210 HD
ENDBRANCH  12  31
ENDBRANCH   5   8
ENDBRANCH   3   4
ENDBRANCH   2   3
ENDBRANCH   1   2
BRANCH   1  33
ATOM     33  N   UNL A   1      38.222  21.230  26.091  1.00  0.00    -0.352 N 
ATOM     34  C   UNL A   1      39.523  21.414  26.495  1.00  0.00     0.251 C 
ATOM     35  H   UNL A   1      37.933  20.293  26.015  1.00  0.00     0.163 HD
ATOM     36  O   UNL A   1      40.285  20.454  26.543  1.00  0.00    -0.269 OA
BRANCH  34  37
ATOM     37  C   UNL A   1      40.002  22.763  26.864  1.00  0.00     0.039 A 
ATOM     38  C   UNL A   1      39.563  23.868  26.130  1.00  0.00     0.014 A 
ATOM     39  C   UNL A   1      40.907  22.931  27.917  1.00  0.00     0.014 A 
ATOM     40  C   UNL A   1      39.997  25.148  26.479  1.00  0.00     0.010 A 
ATOM     41  C   UNL A   1      41.290  24.211  28.304  1.00  0.00     0.010 A 
ATOM     42  C   UNL A   1      40.853  25.328  27.577  1.00  0.00    -0.014 A 
BRANCH  42  43
ATOM     43  C   UNL A   1      41.347  26.673  27.955  1.00  0.00     0.031 A 
ATOM     44  C   UNL A   1      42.769  27.051  27.659  1.00  0.00     0.074 A 
ATOM     45  C   UNL A   1      40.535  27.528  28.602  1.00  0.00     0.049 A 
ATOM     46  N   UNL A   1      43.400  28.162  27.935  1.00  0.00    -0.248 NA
ATOM     47  C   UNL A   1      43.598  26.041  26.980  1.00  0.00     0.031 C 
ATOM     48  C   UNL A   1      39.147  27.252  28.970  1.00  0.00     0.029 A 
ATOM     49  N   UNL A   1      40.760  28.799  29.071  1.00  0.00    -0.354 N 
ATOM     50  C   UNL A   1      44.691  27.988  27.455  1.00  0.00     0.074 A 
ATOM     51  C   UNL A   1      44.778  26.640  26.943  1.00  0.00     0.031 C 
ATOM     52  C   UNL A   1      38.638  28.327  29.592  1.00  0.00     0.029 A 
ATOM     53  C   UNL A   1      39.670  29.358  29.694  1.00  0.00     0.049 A 
ATOM     54  H   UNL A   1      41.621  29.264  28.971  1.00  0.00     0.167 HD
ATOM     55  C   UNL A   1      45.702  28.887  27.413  1.00  0.00     0.034 A 
ATOM     56  C   UNL A   1      39.517  30.564  30.277  1.00  0.00     0.034 A 
ATOM     57  C   UNL A   1      45.602  30.227  27.925  1.00  0.00     0.049 A 
ATOM     58  C   UNL A   1      40.664  31.540  30.250  1.00  0.00     0.074 A 
ATOM     59  C   UNL A   1      46.561  31.224  27.905  1.00  0.00     0.029 A 
ATOM     60  N   UNL A   1      44.480  30.761  28.542  1.00  0.00    -0.354 N 
ATOM     61  N   UNL A   1      41.859  31.389  29.730  1.00  0.00    -0.248 NA
ATOM     62  C   UNL A   1      40.445  32.853  30.874  1.00  0.00     0.031 C 
ATOM     63  C   UNL A   1      46.039  32.341  28.557  1.00  0.00     0.029 A 
ATOM     64  C   UNL A   1      44.730  32.068  28.925  1.00  0.00     0.049 A 
ATOM     65  H   UNL A   1      43.633  30.281  28.687  1.00  0.00     0.167 HD
ATOM     66  C   UNL A   1      42.524  32.595  29.935  1.00  0.00     0.074 A 
ATOM     67  C   UNL A   1      41.594  33.470  30.619  1.00  0.00     0.031 C 
ATOM     68  C   UNL A   1      43.789  32.941  29.586  1.00  0.00     0.034 A 
BRANCH  55  69
ATOM     69  C   UNL A   1      46.995  28.473  26.760  1.00  0.00     0.023 A 
ATOM     70  C   UNL A   1      47.068  28.320  25.364  1.00  0.00     0.031 A 
ATOM     71  C   UNL A   1      48.121  28.127  27.530  1.00  0.00     0.131 A 
ATOM     72  C   UNL A   1      48.235  27.806  24.784  1.00  0.00     0.055 A 
ATOM     73  C   UNL A   1      49.294  27.655  26.943  1.00  0.00     0.041 A 
ATOM     74  F   UNL A   1      48.099  28.263  28.867  1.00  0.00    -0.206 F 
ATOM     75  C   UNL A   1      49.350  27.481  25.564  1.00  0.00     0.022 A 
BRANCH  72  76
ATOM     76  S   UNL A   1      48.337  27.500  23.000  1.00  0.00     0.124 S 
ATOM     77  O   UNL A   1      47.156  28.205  22.505  1.00  0.00    -0.237 OA
ATOM     78  O   UNL A   1      49.619  28.112  22.660  1.00  0.00    -0.237 OA
ATOM     79  O   UNL A   1      48.280  26.046  22.890  1.00  0.00    -0.744 OA
ENDBRANCH  72  76
ENDBRANCH  55  69
BRANCH  56  80
ATOM     80  C   UNL A   1      38.189  30.921  30.851  1.00  0.00     0.023 A 
ATOM     81  C   UNL A   1      37.231  31.612  30.087  1.00  0.00     0.031 A 
ATOM     82  C   UNL A   1      37.917  30.693  32.210  1.00  0.00     0.131 A 
ATOM     83  C   UNL A   1      36.078  32.112  30.706  1.00  0.00     0.055 A 
ATOM     84  C   UNL A   1      36.737  31.139  32.808  1.00  0.00     0.041 A 
ATOM     85  F   UNL A   1      38.807  30.047  32.978  1.00  0.00    -0.206 F 
ATOM     86  C   UNL A   1      35.817  31.867  32.058  1.00  0.00     0.022 A 
BRANCH  83  87
ATOM     87  S   UNL A   1      34.929  33.184  29.799  1.00  0.00     0.124 S 
ATOM     88  O   UNL A   1      34.029  33.636  30.855  1.00  0.00    -0.237 OA
ATOM     89  O   UNL A   1      35.835  34.199  29.265  1.00  0.00    -0.237 OA
ATOM     90  O   UNL A   1      34.337  32.294  28.806  1.00  0.00    -0.744 OA
ENDBRANCH  83  87
ENDBRANCH  56  80
BRANCH  68  91
ATOM     91  C   UNL A   1      44.277  34.332  29.908  1.00  0.00     0.023 A 
ATOM     92  C   UNL A   1      44.069  35.374  28.983  1.00  0.00     0.031 A 
ATOM     93  C   UNL A   1      45.094  34.581  31.022  1.00  0.00     0.131 A 
ATOM     94  C   UNL A   1      44.713  36.603  29.163  1.00  0.00     0.055 A 
ATOM     95  C   UNL A   1      45.696  35.825  31.223  1.00  0.00     0.041 A 
ATOM     96  F   UNL A   1      45.328  33.616  31.925  1.00  0.00    -0.206 F 
ATOM     97  C   UNL A   1      45.520  36.837  30.282  1.00  0.00     0.022 A 
BRANCH  94  98
ATOM     98  S   UNL A   1      44.595  37.913  27.914  1.00  0.00     0.124 S 
ATOM     99  O   UNL A   1      43.987  39.004  28.675  1.00  0.00    -0.237 OA
ATOM    100  O   UNL A   1      45.993  38.112  27.547  1.00  0.00    -0.237 OA
ATOM    101  O   UNL A   1      43.747  37.335  26.877  1.00  0.00    -0.744 OA
ENDBRANCH  94  98
ENDBRANCH  68  91
ENDBRANCH  42  43
ENDBRANCH  34  37
ENDBRANCH   1  33
TORSDOF 14
ENDMDL
MODEL 2
REMARK VINA RESULT:     -13.4      5.485      8.640
REMARK SMILES CC1(C)[C@H](O)CC[C@@]2(C)[C@H]3Cc4c(oc(C(=O)NCCCNC(=O)c5ccc(-c6c7nc(c(-c8cc(S(=O)(=O)[O-])ccc8F)c8ccc([nH]8)c(-c8cc(S(=O)(=O)[O-])ccc8F)c8nc(c(-c9cc(S(=O)(=O)[O-])ccc9F)c9ccc6[nH]9)C=C8)C=C7)cc5)cc4=O)O[C@@]3(C)CC[C@@H]12
REMARK SMILES IDX 21 1 20 2 19 3 18 4 16 5 17 6 15 8 1 9 2 10 3 11 4 12 96 13
REMARK SMILES IDX 6 14 8 15 95 16 7 17 9 18 10 19 94 20 92 21 11 22 93 23
REMARK SMILES IDX 91 24 12 25 13 26 89 27 14 28 88 29 90 30 5 31 22 33 23 34
REMARK SMILES IDX 24 36 25 37 26 38 87 39 27 40 86 41 28 42 29 43 30 44 80 45
REMARK SMILES IDX 31 46 85 47 79 48 81 49 32 50 84 51 78 52 77 53 33 55 65 56
REMARK SMILES IDX 45 57 64 58 46 59 49 60 63 61 82 62 47 63 48 64 62 66 83 67
REMARK SMILES IDX 50 68 34 69 35 70 43 71 36 72 42 73 44 74 41 75 37 76 38 77
REMARK SMILES IDX 39 78 40 79 66 80 67 81 75 82 68 83 74 84 76 85 73 86 69 87
REMARK SMILES IDX 70 88 71 89 72 90 51 91 52 92 60 93 53 94 59 95 61 96 58 97
REMARK SMILES IDX 54 98 55 99 56 100 57 101
REMARK H PARENT 18 7 5 32 22 35 81 54 49 65
REMARK Flexibility Score: inf
ROOT
ATOM      1  C   UNL A   1      32.649  32.230  27.240  1.00  0.00     0.118 C 
ENDROOT
BRANCH   1   2
ATOM      2  C   UNL A   1      31.416  31.724  26.508  1.00  0.00     0.042 C 
BRANCH   2   3
ATOM      3  C   UNL A   1      31.628  30.407  25.730  1.00  0.00     0.118 C 
BRANCH   3   4
ATOM      4  N   UNL A   1      30.790  30.278  24.512  1.00  0.00    -0.349 N 
ATOM      5  C   UNL A   1      30.369  29.237  23.694  1.00  0.00     0.287 C 
ATOM      6  O   UNL A   1      29.502  29.491  22.857  1.00  0.00    -0.266 OA
ATOM      7  H   UNL A   1      30.445  31.148  24.208  1.00  0.00     0.163 HD
BRANCH   5   8
ATOM      8  C   UNL A   1      30.900  27.834  23.811  1.00  0.00     0.199 A 
ATOM      9  C   UNL A   1      36.960  20.740  24.467  1.00  0.00     0.014 C 
ATOM     10  C   UNL A   1      36.266  21.920  25.220  1.00  0.00    -0.006 C 
ATOM     11  C   UNL A   1      37.264  22.255  26.377  1.00  0.00     0.014 C 
ATOM     12  C   UNL A   1      36.463  23.229  24.209  1.00  0.00     0.120 C 
ATOM     13  C   UNL A   1      34.504  21.498  25.806  1.00  0.00     0.004 C 
ATOM     14  C   UNL A   1      35.558  23.050  23.036  1.00  0.00     0.033 C 
ATOM     15  C   UNL A   1      34.076  22.820  25.256  1.00  0.00    -0.022 C 
ATOM     16  C   UNL A   1      32.938  20.879  25.505  1.00  0.00     0.009 C 
ATOM     17  C   UNL A   1      34.401  22.363  23.682  1.00  0.00     0.010 C 
ATOM     18  C   UNL A   1      34.601  23.458  26.657  1.00  0.00     0.012 C 
ATOM     19  C   UNL A   1      32.845  23.715  25.171  1.00  0.00     0.044 C 
ATOM     20  C   UNL A   1      31.527  21.766  25.303  1.00  0.00     0.049 C 
ATOM     21  C   UNL A   1      31.538  23.272  25.785  1.00  0.00     0.113 C 
ATOM     22  C   UNL A   1      32.519  24.060  23.724  1.00  0.00     0.055 C 
ATOM     23  C   UNL A   1      31.377  23.204  27.314  1.00  0.00     0.057 C 
ATOM     24  O   UNL A   1      30.459  24.319  25.379  1.00  0.00    -0.458 OA
ATOM     25  C   UNL A   1      31.935  25.348  23.838  1.00  0.00     0.081 A 
ATOM     26  C   UNL A   1      30.900  25.513  24.648  1.00  0.00     0.292 A 
ATOM     27  C   UNL A   1      32.675  26.412  23.224  1.00  0.00     0.192 A 
ATOM     28  O   UNL A   1      30.381  26.851  24.755  1.00  0.00    -0.420 OA
ATOM     29  C   UNL A   1      31.876  27.548  22.949  1.00  0.00     0.105 A 
ATOM     30  O   UNL A   1      33.877  26.385  22.960  1.00  0.00    -0.289 OA
BRANCH  12  31
ATOM     31  O   UNL A   1      36.202  24.503  24.803  1.00  0.00    -0.393 OA
ATOM     32  H   UNL A   1      37.040  24.962  24.966  1.00  0.00     0.210 HD
ENDBRANCH  12  31
ENDBRANCH   5   8
ENDBRANCH   3   4
ENDBRANCH   2   3
ENDBRANCH   1   2
BRANCH   1  33
ATOM     33  N   UNL A   1      32.541  33.640  27.585  1.00  0.00    -0.352 N 
ATOM     34  C   UNL A   1      33.214  34.355  28.547  1.00  0.00     0.251 C 
ATOM     35  H   UNL A   1      31.892  34.156  27.054  1.00  0.00     0.163 HD
ATOM     36  O   UNL A   1      32.851  35.494  28.823  1.00  0.00    -0.269 OA
BRANCH  34  37
ATOM     37  C   UNL A   1      34.366  33.751  29.249  1.00  0.00     0.039 A 
ATOM     38  C   UNL A   1      35.661  34.143  28.897  1.00  0.00     0.014 A 
ATOM     39  C   UNL A   1      34.167  32.778  30.233  1.00  0.00     0.014 A 
ATOM     40  C   UNL A   1      36.757  33.589  29.563  1.00  0.00     0.010 A 
ATOM     41  C   UNL A   1      35.255  32.274  30.940  1.00  0.00     0.010 A 
ATOM     42  C   UNL A   1      36.559  32.662  30.598  1.00  0.00    -0.014 A 
BRANCH  42  43
ATOM     43  C   UNL A   1      37.704  32.043  31.305  1.00  0.00     0.031 A 
ATOM     44  C   UNL A   1      38.418  30.878  30.683  1.00  0.00     0.074 A 
ATOM     45  C   UNL A   1      38.067  32.496  32.519  1.00  0.00     0.049 A 
ATOM     46  N   UNL A   1      39.419  30.180  31.152  1.00  0.00    -0.248 NA
ATOM     47  C   UNL A   1      37.932  30.424  29.369  1.00  0.00     0.031 C 
ATOM     48  C   UNL A   1      37.422  33.598  33.231  1.00  0.00     0.029 A 
ATOM     49  N   UNL A   1      39.061  32.082  33.370  1.00  0.00    -0.354 N 
ATOM     50  C   UNL A   1      39.687  29.216  30.189  1.00  0.00     0.074 A 
ATOM     51  C   UNL A   1      38.697  29.367  29.148  1.00  0.00     0.031 C 
ATOM     52  C   UNL A   1      38.047  33.785  34.403  1.00  0.00     0.029 A 
ATOM     53  C   UNL A   1      39.118  32.799  34.542  1.00  0.00     0.049 A 
ATOM     54  H   UNL A   1      39.674  31.341  33.162  1.00  0.00     0.167 HD
ATOM     55  C   UNL A   1      40.693  28.312  30.160  1.00  0.00     0.034 A 
ATOM     56  C   UNL A   1      39.940  32.679  35.604  1.00  0.00     0.034 A 
ATOM     57  C   UNL A   1      41.674  28.174  31.203  1.00  0.00     0.049 A 
ATOM     58  C   UNL A   1      41.034  31.644  35.569  1.00  0.00     0.074 A 
ATOM     59  C   UNL A   1      42.750  27.306  31.255  1.00  0.00     0.029 A 
ATOM     60  N   UNL A   1      41.705  28.922  32.371  1.00  0.00    -0.354 N 
ATOM     61  N   UNL A   1      41.322  30.784  34.620  1.00  0.00    -0.248 NA
ATOM     62  C   UNL A   1      41.924  31.566  36.736  1.00  0.00     0.031 C 
ATOM     63  C   UNL A   1      43.398  27.492  32.476  1.00  0.00     0.029 A 
ATOM     64  C   UNL A   1      42.770  28.523  33.158  1.00  0.00     0.049 A 
ATOM     65  H   UNL A   1      41.063  29.632  32.604  1.00  0.00     0.167 HD
ATOM     66  C   UNL A   1      42.442  30.086  35.060  1.00  0.00     0.074 A 
ATOM     67  C   UNL A   1      42.786  30.630  36.357  1.00  0.00     0.031 C 
ATOM     68  C   UNL A   1      43.120  29.086  34.441  1.00  0.00     0.034 A 
BRANCH  55  69
ATOM     69  C   UNL A   1      40.815  27.423  28.950  1.00  0.00     0.023 A 
ATOM     70  C   UNL A   1      41.750  27.719  27.943  1.00  0.00     0.031 A 
ATOM     71  C   UNL A   1      39.934  26.345  28.747  1.00  0.00     0.131 A 
ATOM     72  C   UNL A   1      41.761  26.963  26.764  1.00  0.00     0.055 A 
ATOM     73  C   UNL A   1      39.976  25.570  27.589  1.00  0.00     0.041 A 
ATOM     74  F   UNL A   1      39.028  26.021  29.685  1.00  0.00    -0.206 F 
ATOM     75  C   UNL A   1      40.885  25.886  26.585  1.00  0.00     0.022 A 
BRANCH  72  76
ATOM     76  S   UNL A   1      42.882  27.373  25.399  1.00  0.00     0.124 S 
ATOM     77  O   UNL A   1      44.085  27.795  26.114  1.00  0.00    -0.237 OA
ATOM     78  O   UNL A   1      42.986  26.096  24.699  1.00  0.00    -0.237 OA
ATOM     79  O   UNL A   1      42.185  28.435  24.681  1.00  0.00    -0.744 OA
ENDBRANCH  72  76
ENDBRANCH  55  69
BRANCH  56  80
ATOM     80  C   UNL A   1      39.792  33.634  36.737  1.00  0.00     0.023 A 
ATOM     81  C   UNL A   1      39.250  33.220  37.969  1.00  0.00     0.031 A 
ATOM     82  C   UNL A   1      40.064  35.000  36.557  1.00  0.00     0.131 A 
ATOM     83  C   UNL A   1      38.935  34.175  38.944  1.00  0.00     0.055 A 
ATOM     84  C   UNL A   1      39.805  35.940  37.557  1.00  0.00     0.041 A 
ATOM     85  F   UNL A   1      40.570  35.441  35.395  1.00  0.00    -0.206 F 
ATOM     86  C   UNL A   1      39.222  35.530  38.753  1.00  0.00     0.022 A 
BRANCH  83  87
ATOM     87  S   UNL A   1      38.046  33.699  40.452  1.00  0.00     0.124 S 
ATOM     88  O   UNL A   1      36.747  33.287  39.929  1.00  0.00    -0.237 OA
ATOM     89  O   UNL A   1      38.890  32.621  40.964  1.00  0.00    -0.237 OA
ATOM     90  O   UNL A   1      38.043  34.919  41.252  1.00  0.00    -0.744 OA
ENDBRANCH  83  87
ENDBRANCH  56  80
BRANCH  68  91
ATOM     91  C   UNL A   1      44.328  28.496  35.126  1.00  0.00     0.023 A 
ATOM     92  C   UNL A   1      44.155  27.514  36.121  1.00  0.00     0.031 A 
ATOM     93  C   UNL A   1      45.613  29.027  34.930  1.00  0.00     0.131 A 
ATOM     94  C   UNL A   1      45.240  27.131  36.918  1.00  0.00     0.055 A 
ATOM     95  C   UNL A   1      46.702  28.608  35.695  1.00  0.00     0.041 A 
ATOM     96  F   UNL A   1      45.825  29.973  34.000  1.00  0.00    -0.206 F 
ATOM     97  C   UNL A   1      46.515  27.668  36.705  1.00  0.00     0.022 A 
BRANCH  94  98
ATOM     98  S   UNL A   1      45.021  25.988  38.309  1.00  0.00     0.124 S 
ATOM     99  O   UNL A   1      44.612  24.759  37.630  1.00  0.00    -0.237 OA
ATOM    100  O   UNL A   1      46.357  25.962  38.896  1.00  0.00    -0.237 OA
ATOM    101  O   UNL A   1      43.987  26.618  39.123  1.00  0.00    -0.744 OA
ENDBRANCH  94  98
ENDBRANCH  68  91
ENDBRANCH  42  43
ENDBRANCH  34  37
ENDBRANCH   1  33
TORSDOF 14
ENDMDL
MODEL 3
REMARK VINA RESULT:     -13.4      5.117     10.349
REMARK SMILES CC1(C)[C@H](O)CC[C@@]2(C)[C@H]3Cc4c(oc(C(=O)NCCCNC(=O)c5ccc(-c6c7nc(c(-c8cc(S(=O)(=O)[O-])ccc8F)c8ccc([nH]8)c(-c8cc(S(=O)(=O)[O-])ccc8F)c8nc(c(-c9cc(S(=O)(=O)[O-])ccc9F)c9ccc6[nH]9)C=C8)C=C7)cc5)cc4=O)O[C@@]3(C)CC[C@@H]12
REMARK SMILES IDX 21 1 20 2 19 3 18 4 16 5 17 6 15 8 1 9 2 10 3 11 4 12 96 13
REMARK SMILES IDX 6 14 8 15 95 16 7 17 9 18 10 19 94 20 92 21 11 22 93 23
REMARK SMILES IDX 91 24 12 25 13 26 89 27 14 28 88 29 90 30 5 31 22 33 23 34
REMARK SMILES IDX 24 36 25 37 26 38 87 39 27 40 86 41 28 42 29 43 30 44 80 45
REMARK SMILES IDX 31 46 85 47 79 48 81 49 32 50 84 51 78 52 77 53 33 55 65 56
REMARK SMILES IDX 45 57 64 58 46 59 49 60 63 61 82 62 47 63 48 64 62 66 83 67
REMARK SMILES IDX 50 68 34 69 35 70 43 71 36 72 42 73 44 74 41 75 37 76 38 77
REMARK SMILES IDX 39 78 40 79 66 80 67 81 75 82 68 83 74 84 76 85 73 86 69 87
REMARK SMILES IDX 70 88 71 89 72 90 51 91 52 92 60 93 53 94 59 95 61 96 58 97
REMARK SMILES IDX 54 98 55 99 56 100 57 101
REMARK H PARENT 18 7 5 32 22 35 81 54 49 65
REMARK Flexibility Score: inf
ROOT
ATOM      1  C   UNL A   1      32.545  32.237  27.016  1.00  0.00     0.118 C 
ENDROOT
BRANCH   1   2
ATOM      2  C   UNL A   1      31.286  31.828  26.266  1.00  0.00     0.042 C 
BRANCH   2   3
ATOM      3  C   UNL A   1      31.360  30.435  25.604  1.00  0.00     0.118 C 
BRANCH   3   4
ATOM      4  N   UNL A   1      30.596  30.322  24.336  1.00  0.00    -0.349 N 
ATOM      5  C   UNL A   1      30.220  29.292  23.485  1.00  0.00     0.287 C 
ATOM      6  O   UNL A   1      29.406  29.559  22.600  1.00  0.00    -0.266 OA
ATOM      7  H   UNL A   1      30.276  31.198  24.020  1.00  0.00     0.163 HD
BRANCH   5   8
ATOM      8  C   UNL A   1      30.735  27.884  23.620  1.00  0.00     0.199 A 
ATOM      9  C   UNL A   1      36.707  20.743  24.516  1.00  0.00     0.014 C 
ATOM     10  C   UNL A   1      35.989  21.925  25.242  1.00  0.00    -0.006 C 
ATOM     11  C   UNL A   1      36.939  22.250  26.443  1.00  0.00     0.014 C 
ATOM     12  C   UNL A   1      36.241  23.236  24.245  1.00  0.00     0.120 C 
ATOM     13  C   UNL A   1      34.201  21.515  25.749  1.00  0.00     0.004 C 
ATOM     14  C   UNL A   1      35.386  23.068  23.033  1.00  0.00     0.033 C 
ATOM     15  C   UNL A   1      33.807  22.842  25.186  1.00  0.00    -0.022 C 
ATOM     16  C   UNL A   1      32.645  20.909  25.377  1.00  0.00     0.009 C 
ATOM     17  C   UNL A   1      34.197  22.388  23.626  1.00  0.00     0.010 C 
ATOM     18  C   UNL A   1      34.275  23.472  26.610  1.00  0.00     0.012 C 
ATOM     19  C   UNL A   1      32.587  23.746  25.049  1.00  0.00     0.044 C 
ATOM     20  C   UNL A   1      31.250  21.807  25.118  1.00  0.00     0.049 C 
ATOM     21  C   UNL A   1      31.251  23.312  25.605  1.00  0.00     0.113 C 
ATOM     22  C   UNL A   1      32.328  24.098  23.591  1.00  0.00     0.055 C 
ATOM     23  C   UNL A   1      31.023  23.240  27.125  1.00  0.00     0.057 C 
ATOM     24  O   UNL A   1      30.199  24.368  25.156  1.00  0.00    -0.458 OA
ATOM     25  C   UNL A   1      31.749  25.390  23.684  1.00  0.00     0.081 A 
ATOM     26  C   UNL A   1      30.681  25.561  24.449  1.00  0.00     0.292 A 
ATOM     27  C   UNL A   1      32.523  26.451  23.107  1.00  0.00     0.192 A 
ATOM     28  O   UNL A   1      30.167  26.902  24.537  1.00  0.00    -0.420 OA
ATOM     29  C   UNL A   1      31.745  27.593  22.801  1.00  0.00     0.105 A 
ATOM     30  O   UNL A   1      33.735  26.416  22.895  1.00  0.00    -0.289 OA
BRANCH  12  31
ATOM     31  O   UNL A   1      35.963  24.510  24.831  1.00  0.00    -0.393 OA
ATOM     32  H   UNL A   1      35.473  24.386  25.659  1.00  0.00     0.210 HD
ENDBRANCH  12  31
ENDBRANCH   5   8
ENDBRANCH   3   4
ENDBRANCH   2   3
ENDBRANCH   1   2
BRANCH   1  33
ATOM     33  N   UNL A   1      32.499  33.629  27.442  1.00  0.00    -0.352 N 
ATOM     34  C   UNL A   1      33.255  34.273  28.393  1.00  0.00     0.251 C 
ATOM     35  H   UNL A   1      31.832  34.189  26.983  1.00  0.00     0.163 HD
ATOM     36  O   UNL A   1      32.943  35.404  28.752  1.00  0.00    -0.269 OA
BRANCH  34  37
ATOM     37  C   UNL A   1      34.433  33.604  28.982  1.00  0.00     0.039 A 
ATOM     38  C   UNL A   1      35.710  34.099  28.703  1.00  0.00     0.014 A 
ATOM     39  C   UNL A   1      34.277  32.470  29.786  1.00  0.00     0.014 A 
ATOM     40  C   UNL A   1      36.830  33.483  29.266  1.00  0.00     0.010 A 
ATOM     41  C   UNL A   1      35.387  31.896  30.397  1.00  0.00     0.010 A 
ATOM     42  C   UNL A   1      36.673  32.386  30.128  1.00  0.00    -0.014 A 
BRANCH  42  43
ATOM     43  C   UNL A   1      37.846  31.700  30.720  1.00  0.00     0.031 A 
ATOM     44  C   UNL A   1      38.274  32.038  32.118  1.00  0.00     0.074 A 
ATOM     45  C   UNL A   1      38.548  30.817  29.986  1.00  0.00     0.049 A 
ATOM     46  N   UNL A   1      39.286  31.575  32.803  1.00  0.00    -0.248 NA
ATOM     47  C   UNL A   1      37.471  33.042  32.836  1.00  0.00     0.031 C 
ATOM     48  C   UNL A   1      38.241  30.441  28.607  1.00  0.00     0.029 A 
ATOM     49  N   UNL A   1      39.665  30.083  30.295  1.00  0.00    -0.354 N 
ATOM     50  C   UNL A   1      39.234  32.221  34.031  1.00  0.00     0.074 A 
ATOM     51  C   UNL A   1      38.141  33.164  33.971  1.00  0.00     0.031 C 
ATOM     52  C   UNL A   1      39.138  29.532  28.193  1.00  0.00     0.029 A 
ATOM     53  C   UNL A   1      40.101  29.283  29.265  1.00  0.00     0.049 A 
ATOM     54  H   UNL A   1      40.113  30.126  31.170  1.00  0.00     0.167 HD
ATOM     55  C   UNL A   1      40.006  32.018  35.124  1.00  0.00     0.034 A 
ATOM     56  C   UNL A   1      41.152  28.441  29.193  1.00  0.00     0.034 A 
ATOM     57  C   UNL A   1      41.091  31.074  35.171  1.00  0.00     0.049 A 
ATOM     58  C   UNL A   1      42.022  28.252  30.409  1.00  0.00     0.074 A 
ATOM     59  C   UNL A   1      41.916  30.774  36.239  1.00  0.00     0.029 A 
ATOM     60  N   UNL A   1      41.498  30.276  34.112  1.00  0.00    -0.354 N 
ATOM     61  N   UNL A   1      41.919  28.817  31.589  1.00  0.00    -0.248 NA
ATOM     62  C   UNL A   1      43.141  27.306  30.295  1.00  0.00     0.031 C 
ATOM     63  C   UNL A   1      42.855  29.835  35.812  1.00  0.00     0.029 A 
ATOM     64  C   UNL A   1      42.575  29.497  34.497  1.00  0.00     0.049 A 
ATOM     65  H   UNL A   1      41.082  30.266  33.220  1.00  0.00     0.167 HD
ATOM     66  C   UNL A   1      42.937  28.274  32.366  1.00  0.00     0.074 A 
ATOM     67  C   UNL A   1      43.640  27.326  31.525  1.00  0.00     0.031 C 
ATOM     68  C   UNL A   1      43.256  28.538  33.658  1.00  0.00     0.034 A 
BRANCH  55  69
ATOM     69  C   UNL A   1      39.691  32.798  36.373  1.00  0.00     0.023 A 
ATOM     70  C   UNL A   1      38.760  32.302  37.303  1.00  0.00     0.031 A 
ATOM     71  C   UNL A   1      40.231  34.079  36.587  1.00  0.00     0.131 A 
ATOM     72  C   UNL A   1      38.377  33.098  38.390  1.00  0.00     0.055 A 
ATOM     73  C   UNL A   1      39.877  34.850  37.693  1.00  0.00     0.041 A 
ATOM     74  F   UNL A   1      41.129  34.592  35.728  1.00  0.00    -0.206 F 
ATOM     75  C   UNL A   1      38.936  34.364  38.595  1.00  0.00     0.022 A 
BRANCH  72  76
ATOM     76  S   UNL A   1      37.108  32.538  39.559  1.00  0.00     0.124 S 
ATOM     77  O   UNL A   1      37.255  33.502  40.648  1.00  0.00    -0.237 OA
ATOM     78  O   UNL A   1      35.888  32.669  38.768  1.00  0.00    -0.237 OA
ATOM     79  O   UNL A   1      37.510  31.173  39.884  1.00  0.00    -0.744 OA
ENDBRANCH  72  76
ENDBRANCH  55  69
BRANCH  56  80
ATOM     80  C   UNL A   1      41.364  27.663  27.941  1.00  0.00     0.023 A 
ATOM     81  C   UNL A   1      41.119  26.278  27.898  1.00  0.00     0.031 A 
ATOM     82  C   UNL A   1      41.941  28.270  26.814  1.00  0.00     0.131 A 
ATOM     83  C   UNL A   1      41.516  25.537  26.777  1.00  0.00     0.055 A 
ATOM     84  C   UNL A   1      42.278  27.538  25.675  1.00  0.00     0.041 A 
ATOM     85  F   UNL A   1      42.202  29.587  26.816  1.00  0.00    -0.206 F 
ATOM     86  C   UNL A   1      42.080  26.160  25.659  1.00  0.00     0.022 A 
BRANCH  83  87
ATOM     87  S   UNL A   1      41.407  23.726  26.777  1.00  0.00     0.124 S 
ATOM     88  O   UNL A   1      41.822  23.391  28.135  1.00  0.00    -0.237 OA
ATOM     89  O   UNL A   1      39.991  23.517  26.480  1.00  0.00    -0.237 OA
ATOM     90  O   UNL A   1      42.330  23.324  25.720  1.00  0.00    -0.744 OA
ENDBRANCH  83  87
ENDBRANCH  56  80
BRANCH  68  91
ATOM     91  C   UNL A   1      44.408  27.795  34.289  1.00  0.00     0.023 A 
ATOM     92  C   UNL A   1      44.159  26.625  35.033  1.00  0.00     0.031 A 
ATOM     93  C   UNL A   1      45.704  28.335  34.310  1.00  0.00     0.131 A 
ATOM     94  C   UNL A   1      45.179  26.062  35.808  1.00  0.00     0.055 A 
ATOM     95  C   UNL A   1      46.731  27.743  35.047  1.00  0.00     0.041 A 
ATOM     96  F   UNL A   1      45.987  29.455  33.624  1.00  0.00    -0.206 F 
ATOM     97  C   UNL A   1      46.466  26.611  35.813  1.00  0.00     0.022 A 
BRANCH  94  98
ATOM     98  S   UNL A   1      44.853  24.650  36.900  1.00  0.00     0.124 S 
ATOM     99  O   UNL A   1      46.140  24.484  37.572  1.00  0.00    -0.237 OA
ATOM    100  O   UNL A   1      43.771  25.156  37.739  1.00  0.00    -0.237 OA
ATOM    101  O   UNL A   1      44.490  23.574  35.984  1.00  0.00    -0.744 OA
ENDBRANCH  94  98
ENDBRANCH  68  91
ENDBRANCH  42  43
ENDBRANCH  34  37
ENDBRANCH   1  33
TORSDOF 14
ENDMDL
