MODEL 1
REMARK VINA RESULT:     -12.0      0.000      0.000
REMARK SMILES C[C@@H]1C[N@H+](Cc2ccccc2)CC[C@@H]1CC(=O)NCCCNC(=O)c1ccc(-c2c3nc(c(-c4cc(S(=O)(=O)[O-])ccc4F)c4ccc([nH]4)c(-c4cc(S(=O)(=O)[O-])ccc4F)c4nc(c(-c5cc(S(=O)(=O)[O-])ccc5F)c5ccc2[nH]5)C=C4)C=C3)cc1
REMARK SMILES IDX 20 1 19 2 18 3 16 4 17 5 15 7 14 8 1 9 2 10 3 11 4 12 13 13
REMARK SMILES IDX 12 14 5 16 6 17 7 18 11 19 8 20 10 21 9 22 21 23 22 24 23 25
REMARK SMILES IDX 24 27 25 28 26 29 87 30 27 31 86 32 28 33 29 34 30 35 80 36
REMARK SMILES IDX 31 37 85 38 79 39 81 40 32 41 84 42 78 43 77 44 33 46 65 47
REMARK SMILES IDX 45 48 64 49 46 50 49 51 63 52 82 53 47 54 48 55 62 57 83 58
REMARK SMILES IDX 50 59 34 60 35 61 43 62 36 63 42 64 44 65 41 66 37 67 38 68
REMARK SMILES IDX 39 69 40 70 66 71 67 72 75 73 68 74 74 75 76 76 73 77 69 78
REMARK SMILES IDX 70 79 71 80 72 81 51 82 52 83 60 84 53 85 59 86 61 87 58 88
REMARK SMILES IDX 54 89 55 90 56 91 57 92
REMARK H PARENT 18 6 4 15 22 26 81 45 49 56
REMARK Flexibility Score: inf
ROOT
ATOM      1  C   UNL A   1      35.385  22.058  25.542  1.00  0.00     0.042 C 
ENDROOT
BRANCH   1   2
ATOM      2  C   UNL A   1      35.258  20.624  25.029  1.00  0.00     0.117 C 
BRANCH   2   3
ATOM      3  N   UNL A   1      34.053  19.919  25.408  1.00  0.00    -0.356 N 
ATOM      4  C   UNL A   1      32.852  19.811  24.790  1.00  0.00     0.220 C 
ATOM      5  O   UNL A   1      32.089  18.926  25.189  1.00  0.00    -0.275 OA
ATOM      6  H   UNL A   1      34.117  19.433  26.261  1.00  0.00     0.163 HD
BRANCH   4   7
ATOM      7  C   UNL A   1      32.454  20.706  23.637  1.00  0.00     0.104 C 
BRANCH   7   8
ATOM      8  C   UNL A   1      31.671  22.016  23.899  1.00  0.00     0.012 C 
ATOM      9  C   UNL A   1      33.524  23.383  22.602  1.00  0.00     0.014 C 
ATOM     10  C   UNL A   1      32.097  23.312  23.141  1.00  0.00     0.045 C 
ATOM     11  C   UNL A   1      31.657  24.631  23.817  1.00  0.00     0.265 C 
ATOM     12  N   UNL A   1      31.672  24.676  25.266  1.00  0.00    -0.331 N 
ATOM     13  C   UNL A   1      31.576  22.203  25.430  1.00  0.00     0.066 C 
ATOM     14  C   UNL A   1      31.003  23.544  25.873  1.00  0.00     0.262 C 
ATOM     15  H   UNL A   1      31.062  25.462  25.492  1.00  0.00     0.348 HD
BRANCH  12  16
ATOM     16  C   UNL A   1      32.836  25.254  25.938  1.00  0.00     0.299 C 
BRANCH  16  17
ATOM     17  C   UNL A   1      32.773  26.724  26.283  1.00  0.00     0.006 A 
ATOM     18  C   UNL A   1      31.629  27.276  26.879  1.00  0.00     0.009 A 
ATOM     19  C   UNL A   1      33.873  27.558  26.064  1.00  0.00     0.009 A 
ATOM     20  C   UNL A   1      31.634  28.592  27.346  1.00  0.00     0.001 A 
ATOM     21  C   UNL A   1      33.894  28.863  26.561  1.00  0.00     0.001 A 
ATOM     22  C   UNL A   1      32.779  29.374  27.216  1.00  0.00     0.000 A 
ENDBRANCH  16  17
ENDBRANCH  12  16
ENDBRANCH   7   8
ENDBRANCH   4   7
ENDBRANCH   2   3
ENDBRANCH   1   2
BRANCH   1  23
ATOM     23  C   UNL A   1      36.797  22.586  25.795  1.00  0.00     0.118 C 
BRANCH  23  24
ATOM     24  N   UNL A   1      37.813  21.561  25.827  1.00  0.00    -0.352 N 
ATOM     25  C   UNL A   1      39.123  21.645  26.233  1.00  0.00     0.251 C 
ATOM     26  H   UNL A   1      37.526  20.675  25.510  1.00  0.00     0.163 HD
ATOM     27  O   UNL A   1      39.840  20.655  26.116  1.00  0.00    -0.269 OA
BRANCH  25  28
ATOM     28  C   UNL A   1      39.698  22.911  26.760  1.00  0.00     0.039 A 
ATOM     29  C   UNL A   1      39.390  24.092  26.077  1.00  0.00     0.014 A 
ATOM     30  C   UNL A   1      40.576  22.957  27.849  1.00  0.00     0.014 A 
ATOM     31  C   UNL A   1      39.931  25.311  26.494  1.00  0.00     0.010 A 
ATOM     32  C   UNL A   1      41.086  24.188  28.293  1.00  0.00     0.010 A 
ATOM     33  C   UNL A   1      40.776  25.378  27.614  1.00  0.00    -0.014 A 
BRANCH  33  34
ATOM     34  C   UNL A   1      41.334  26.694  28.041  1.00  0.00     0.031 A 
ATOM     35  C   UNL A   1      42.758  27.070  27.720  1.00  0.00     0.074 A 
ATOM     36  C   UNL A   1      40.548  27.575  28.694  1.00  0.00     0.049 A 
ATOM     37  N   UNL A   1      43.391  28.192  27.956  1.00  0.00    -0.248 NA
ATOM     38  C   UNL A   1      43.576  26.047  27.056  1.00  0.00     0.031 C 
ATOM     39  C   UNL A   1      39.156  27.334  29.079  1.00  0.00     0.029 A 
ATOM     40  N   UNL A   1      40.800  28.850  29.140  1.00  0.00    -0.354 N 
ATOM     41  C   UNL A   1      44.680  28.016  27.463  1.00  0.00     0.074 A 
ATOM     42  C   UNL A   1      44.750  26.657  26.966  1.00  0.00     0.031 C 
ATOM     43  C   UNL A   1      38.672  28.433  29.682  1.00  0.00     0.029 A 
ATOM     44  C   UNL A   1      39.723  29.445  29.758  1.00  0.00     0.049 A 
ATOM     45  H   UNL A   1      41.671  29.297  29.028  1.00  0.00     0.167 HD
ATOM     46  C   UNL A   1      45.703  28.907  27.411  1.00  0.00     0.034 A 
ATOM     47  C   UNL A   1      39.593  30.663  30.323  1.00  0.00     0.034 A 
ATOM     48  C   UNL A   1      45.630  30.260  27.911  1.00  0.00     0.049 A 
ATOM     49  C   UNL A   1      40.759  31.619  30.295  1.00  0.00     0.074 A 
ATOM     50  C   UNL A   1      46.596  31.251  27.864  1.00  0.00     0.029 A 
ATOM     51  N   UNL A   1      44.535  30.813  28.564  1.00  0.00    -0.354 N 
ATOM     52  N   UNL A   1      41.954  31.451  29.778  1.00  0.00    -0.248 NA
ATOM     53  C   UNL A   1      40.552  32.936  30.915  1.00  0.00     0.031 C 
ATOM     54  C   UNL A   1      46.115  32.374  28.546  1.00  0.00     0.029 A 
ATOM     55  C   UNL A   1      44.817  32.115  28.954  1.00  0.00     0.049 A 
ATOM     56  H   UNL A   1      43.681  30.349  28.725  1.00  0.00     0.167 HD
ATOM     57  C   UNL A   1      42.629  32.651  29.986  1.00  0.00     0.074 A 
ATOM     58  C   UNL A   1      41.704  33.538  30.660  1.00  0.00     0.031 C 
ATOM     59  C   UNL A   1      43.898  32.991  29.641  1.00  0.00     0.034 A 
BRANCH  46  60
ATOM     60  C   UNL A   1      47.008  28.432  26.815  1.00  0.00     0.023 A 
ATOM     61  C   UNL A   1      47.191  28.328  25.425  1.00  0.00     0.031 A 
ATOM     62  C   UNL A   1      48.083  28.074  27.648  1.00  0.00     0.131 A 
ATOM     63  C   UNL A   1      48.391  27.814  24.912  1.00  0.00     0.055 A 
ATOM     64  C   UNL A   1      49.303  27.635  27.128  1.00  0.00     0.041 A 
ATOM     65  F   UNL A   1      47.964  28.138  28.983  1.00  0.00    -0.206 F 
ATOM     66  C   UNL A   1      49.458  27.489  25.753  1.00  0.00     0.022 A 
BRANCH  63  67
ATOM     67  S   UNL A   1      48.493  27.453  23.137  1.00  0.00     0.124 S 
ATOM     68  O   UNL A   1      48.384  25.996  23.125  1.00  0.00    -0.237 OA
ATOM     69  O   UNL A   1      47.352  28.185  22.600  1.00  0.00    -0.237 OA
ATOM     70  O   UNL A   1      49.805  27.974  22.756  1.00  0.00    -0.744 OA
ENDBRANCH  63  67
ENDBRANCH  46  60
BRANCH  47  71
ATOM     71  C   UNL A   1      38.315  31.053  30.987  1.00  0.00     0.023 A 
ATOM     72  C   UNL A   1      37.286  31.688  30.273  1.00  0.00     0.031 A 
ATOM     73  C   UNL A   1      38.129  30.841  32.365  1.00  0.00     0.131 A 
ATOM     74  C   UNL A   1      36.139  32.133  30.948  1.00  0.00     0.055 A 
ATOM     75  C   UNL A   1      36.964  31.238  33.022  1.00  0.00     0.041 A 
ATOM     76  F   UNL A   1      39.081  30.236  33.094  1.00  0.00    -0.206 F 
ATOM     77  C   UNL A   1      35.965  31.901  32.314  1.00  0.00     0.022 A 
BRANCH  74  78
ATOM     78  S   UNL A   1      34.909  33.098  30.029  1.00  0.00     0.124 S 
ATOM     79  O   UNL A   1      35.745  34.088  29.360  1.00  0.00    -0.237 OA
ATOM     80  O   UNL A   1      34.305  32.082  29.173  1.00  0.00    -0.237 OA
ATOM     81  O   UNL A   1      34.037  33.624  31.079  1.00  0.00    -0.744 OA
ENDBRANCH  74  78
ENDBRANCH  47  71
BRANCH  59  82
ATOM     82  C   UNL A   1      44.342  34.399  29.957  1.00  0.00     0.023 A 
ATOM     83  C   UNL A   1      44.091  35.471  29.081  1.00  0.00     0.031 A 
ATOM     84  C   UNL A   1      45.044  34.670  31.145  1.00  0.00     0.131 A 
ATOM     85  C   UNL A   1      44.586  36.751  29.380  1.00  0.00     0.055 A 
ATOM     86  C   UNL A   1      45.484  35.956  31.465  1.00  0.00     0.041 A 
ATOM     87  F   UNL A   1      45.315  33.686  32.017  1.00  0.00    -0.206 F 
ATOM     88  C   UNL A   1      45.267  37.003  30.574  1.00  0.00     0.022 A 
BRANCH  85  89
ATOM     89  S   UNL A   1      44.402  38.068  28.145  1.00  0.00     0.124 S 
ATOM     90  O   UNL A   1      44.023  37.317  26.954  1.00  0.00    -0.237 OA
ATOM     91  O   UNL A   1      43.360  38.903  28.732  1.00  0.00    -0.237 OA
ATOM     92  O   UNL A   1      45.729  38.680  28.096  1.00  0.00    -0.744 OA
ENDBRANCH  85  89
ENDBRANCH  59  82
ENDBRANCH  33  34
ENDBRANCH  25  28
ENDBRANCH  23  24
ENDBRANCH   1  23
TORSDOF 16
ENDMDL
MODEL 2
REMARK VINA RESULT:     -11.8      4.921      9.920
REMARK SMILES C[C@@H]1C[N@H+](Cc2ccccc2)CC[C@@H]1CC(=O)NCCCNC(=O)c1ccc(-c2c3nc(c(-c4cc(S(=O)(=O)[O-])ccc4F)c4ccc([nH]4)c(-c4cc(S(=O)(=O)[O-])ccc4F)c4nc(c(-c5cc(S(=O)(=O)[O-])ccc5F)c5ccc2[nH]5)C=C4)C=C3)cc1
REMARK SMILES IDX 20 1 19 2 18 3 16 4 17 5 15 7 14 8 1 9 2 10 3 11 4 12 13 13
REMARK SMILES IDX 12 14 5 16 6 17 7 18 11 19 8 20 10 21 9 22 21 23 22 24 23 25
REMARK SMILES IDX 24 27 25 28 26 29 87 30 27 31 86 32 28 33 29 34 30 35 80 36
REMARK SMILES IDX 31 37 85 38 79 39 81 40 32 41 84 42 78 43 77 44 33 46 65 47
REMARK SMILES IDX 45 48 64 49 46 50 49 51 63 52 82 53 47 54 48 55 62 57 83 58
REMARK SMILES IDX 50 59 34 60 35 61 43 62 36 63 42 64 44 65 41 66 37 67 38 68
REMARK SMILES IDX 39 69 40 70 66 71 67 72 75 73 68 74 74 75 76 76 73 77 69 78
REMARK SMILES IDX 70 79 71 80 72 81 51 82 52 83 60 84 53 85 59 86 61 87 58 88
REMARK SMILES IDX 54 89 55 90 56 91 57 92
REMARK H PARENT 18 6 4 15 22 26 81 45 49 56
REMARK Flexibility Score: inf
ROOT
ATOM      1  C   UNL A   1      33.000  28.864  24.948  1.00  0.00     0.042 C 
ENDROOT
BRANCH   1   2
ATOM      2  C   UNL A   1      31.670  29.595  24.770  1.00  0.00     0.117 C 
BRANCH   2   3
ATOM      3  N   UNL A   1      31.130  29.615  23.429  1.00  0.00    -0.356 N 
ATOM      4  C   UNL A   1      30.105  28.926  22.870  1.00  0.00     0.220 C 
ATOM      5  O   UNL A   1      29.677  29.331  21.785  1.00  0.00    -0.275 OA
ATOM      6  H   UNL A   1      31.585  30.235  22.815  1.00  0.00     0.163 HD
BRANCH   4   7
ATOM      7  C   UNL A   1      29.477  27.726  23.545  1.00  0.00     0.104 C 
BRANCH   7   8
ATOM      8  C   UNL A   1      30.120  26.324  23.404  1.00  0.00     0.012 C 
ATOM      9  C   UNL A   1      30.584  26.276  26.005  1.00  0.00     0.014 C 
ATOM     10  C   UNL A   1      30.431  25.505  24.696  1.00  0.00     0.045 C 
ATOM     11  C   UNL A   1      31.513  24.414  24.525  1.00  0.00     0.265 C 
ATOM     12  N   UNL A   1      32.626  24.709  23.644  1.00  0.00    -0.331 N 
ATOM     13  C   UNL A   1      31.334  26.463  22.457  1.00  0.00     0.066 C 
ATOM     14  C   UNL A   1      32.206  25.217  22.354  1.00  0.00     0.262 C 
ATOM     15  H   UNL A   1      33.012  23.791  23.424  1.00  0.00     0.348 HD
BRANCH  12  16
ATOM     16  C   UNL A   1      33.871  25.206  24.229  1.00  0.00     0.299 C 
BRANCH  16  17
ATOM     17  C   UNL A   1      34.998  24.213  24.399  1.00  0.00     0.006 A 
ATOM     18  C   UNL A   1      35.387  23.378  23.341  1.00  0.00     0.009 A 
ATOM     19  C   UNL A   1      35.713  24.140  25.598  1.00  0.00     0.009 A 
ATOM     20  C   UNL A   1      36.530  22.582  23.447  1.00  0.00     0.001 A 
ATOM     21  C   UNL A   1      36.875  23.372  25.695  1.00  0.00     0.001 A 
ATOM     22  C   UNL A   1      37.292  22.605  24.612  1.00  0.00     0.000 A 
ENDBRANCH  16  17
ENDBRANCH  12  16
ENDBRANCH   7   8
ENDBRANCH   4   7
ENDBRANCH   2   3
ENDBRANCH   1   2
BRANCH   1  23
ATOM     23  C   UNL A   1      33.798  29.164  26.216  1.00  0.00     0.118 C 
BRANCH  23  24
ATOM     24  N   UNL A   1      33.554  30.475  26.769  1.00  0.00    -0.352 N 
ATOM     25  C   UNL A   1      34.290  31.184  27.689  1.00  0.00     0.251 C 
ATOM     26  H   UNL A   1      32.743  30.926  26.441  1.00  0.00     0.163 HD
ATOM     27  O   UNL A   1      33.864  32.269  28.073  1.00  0.00    -0.269 OA
BRANCH  25  28
ATOM     28  C   UNL A   1      35.554  30.647  28.259  1.00  0.00     0.039 A 
ATOM     29  C   UNL A   1      36.750  31.016  27.634  1.00  0.00     0.014 A 
ATOM     30  C   UNL A   1      35.589  29.749  29.332  1.00  0.00     0.014 A 
ATOM     31  C   UNL A   1      37.971  30.514  28.093  1.00  0.00     0.010 A 
ATOM     32  C   UNL A   1      36.819  29.278  29.818  1.00  0.00     0.010 A 
ATOM     33  C   UNL A   1      38.024  29.649  29.198  1.00  0.00    -0.014 A 
BRANCH  33  34
ATOM     34  C   UNL A   1      39.342  29.134  29.671  1.00  0.00     0.031 A 
ATOM     35  C   UNL A   1      40.039  29.765  30.849  1.00  0.00     0.074 A 
ATOM     36  C   UNL A   1      39.904  28.071  29.060  1.00  0.00     0.049 A 
ATOM     37  N   UNL A   1      41.155  29.411  31.436  1.00  0.00    -0.248 NA
ATOM     38  C   UNL A   1      39.402  30.951  31.435  1.00  0.00     0.031 C 
ATOM     39  C   UNL A   1      39.343  27.374  27.901  1.00  0.00     0.029 A 
ATOM     40  N   UNL A   1      41.062  27.384  29.331  1.00  0.00    -0.354 N 
ATOM     41  C   UNL A   1      41.353  30.324  32.467  1.00  0.00     0.074 A 
ATOM     42  C   UNL A   1      40.266  31.280  32.385  1.00  0.00     0.031 C 
ATOM     43  C   UNL A   1      40.146  26.347  27.576  1.00  0.00     0.029 A 
ATOM     44  C   UNL A   1      41.294  26.328  28.479  1.00  0.00     0.049 A 
ATOM     45  H   UNL A   1      41.671  27.625  30.067  1.00  0.00     0.167 HD
ATOM     46  C   UNL A   1      42.334  30.354  33.405  1.00  0.00     0.034 A 
ATOM     47  C   UNL A   1      42.313  25.445  28.425  1.00  0.00     0.034 A 
ATOM     48  C   UNL A   1      43.416  29.401  33.481  1.00  0.00     0.049 A 
ATOM     49  C   UNL A   1      43.417  25.527  29.450  1.00  0.00     0.074 A 
ATOM     50  C   UNL A   1      44.432  29.321  34.419  1.00  0.00     0.029 A 
ATOM     51  N   UNL A   1      43.637  28.368  32.577  1.00  0.00    -0.354 N 
ATOM     52  N   UNL A   1      43.557  26.368  30.448  1.00  0.00    -0.248 NA
ATOM     53  C   UNL A   1      44.492  24.530  29.348  1.00  0.00     0.031 C 
ATOM     54  C   UNL A   1      45.301  28.290  34.046  1.00  0.00     0.029 A 
ATOM     55  C   UNL A   1      44.790  27.673  32.917  1.00  0.00     0.049 A 
ATOM     56  H   UNL A   1      43.059  28.160  31.807  1.00  0.00     0.167 HD
ATOM     57  C   UNL A   1      44.721  25.981  31.109  1.00  0.00     0.074 A 
ATOM     58  C   UNL A   1      45.234  24.823  30.406  1.00  0.00     0.031 C 
ATOM     59  C   UNL A   1      45.307  26.530  32.204  1.00  0.00     0.034 A 
BRANCH  46  60
ATOM     60  C   UNL A   1      42.296  31.479  34.414  1.00  0.00     0.023 A 
ATOM     61  C   UNL A   1      41.381  31.484  35.481  1.00  0.00     0.031 A 
ATOM     62  C   UNL A   1      43.185  32.563  34.304  1.00  0.00     0.131 A 
ATOM     63  C   UNL A   1      41.329  32.581  36.354  1.00  0.00     0.055 A 
ATOM     64  C   UNL A   1      43.179  33.616  35.221  1.00  0.00     0.041 A 
ATOM     65  F   UNL A   1      44.071  32.622  33.298  1.00  0.00    -0.206 F 
ATOM     66  C   UNL A   1      42.238  33.637  36.246  1.00  0.00     0.022 A 
BRANCH  63  67
ATOM     67  S   UNL A   1      39.972  32.672  37.554  1.00  0.00     0.124 S 
ATOM     68  O   UNL A   1      39.101  31.591  37.098  1.00  0.00    -0.237 OA
ATOM     69  O   UNL A   1      40.656  32.451  38.822  1.00  0.00    -0.237 OA
ATOM     70  O   UNL A   1      39.433  34.018  37.361  1.00  0.00    -0.744 OA
ENDBRANCH  63  67
ENDBRANCH  46  60
BRANCH  47  71
ATOM     71  C   UNL A   1      42.357  24.411  27.352  1.00  0.00     0.023 A 
ATOM     72  C   UNL A   1      41.624  23.218  27.456  1.00  0.00     0.031 A 
ATOM     73  C   UNL A   1      43.183  24.581  26.226  1.00  0.00     0.131 A 
ATOM     74  C   UNL A   1      41.766  22.222  26.477  1.00  0.00     0.055 A 
ATOM     75  C   UNL A   1      43.281  23.609  25.229  1.00  0.00     0.041 A 
ATOM     76  F   UNL A   1      43.905  25.703  26.076  1.00  0.00    -0.206 F 
ATOM     77  C   UNL A   1      42.579  22.415  25.359  1.00  0.00     0.022 A 
BRANCH  74  78
ATOM     78  S   UNL A   1      40.935  20.629  26.731  1.00  0.00     0.124 S 
ATOM     79  O   UNL A   1      41.829  19.712  26.034  1.00  0.00    -0.237 OA
ATOM     80  O   UNL A   1      40.916  20.527  28.186  1.00  0.00    -0.237 OA
ATOM     81  O   UNL A   1      39.628  20.825  26.104  1.00  0.00    -0.744 OA
ENDBRANCH  74  78
ENDBRANCH  47  71
BRANCH  59  82
ATOM     82  C   UNL A   1      46.551  25.854  32.729  1.00  0.00     0.023 A 
ATOM     83  C   UNL A   1      46.489  24.814  33.673  1.00  0.00     0.031 A 
ATOM     84  C   UNL A   1      47.821  26.270  32.290  1.00  0.00     0.131 A 
ATOM     85  C   UNL A   1      47.673  24.263  34.188  1.00  0.00     0.055 A 
ATOM     86  C   UNL A   1      48.994  25.680  32.763  1.00  0.00     0.041 A 
ATOM     87  F   UNL A   1      47.942  27.261  31.392  1.00  0.00    -0.206 F 
ATOM     88  C   UNL A   1      48.926  24.679  33.727  1.00  0.00     0.022 A 
BRANCH  85  89
ATOM     89  S   UNL A   1      47.560  23.052  35.535  1.00  0.00     0.124 S 
ATOM     90  O   UNL A   1      48.947  22.963  35.981  1.00  0.00    -0.237 OA
ATOM     91  O   UNL A   1      46.633  23.696  36.458  1.00  0.00    -0.237 OA
ATOM     92  O   UNL A   1      47.044  21.853  34.876  1.00  0.00    -0.744 OA
ENDBRANCH  85  89
ENDBRANCH  59  82
ENDBRANCH  33  34
ENDBRANCH  25  28
ENDBRANCH  23  24
ENDBRANCH   1  23
TORSDOF 16
ENDMDL
MODEL 3
REMARK VINA RESULT:     -11.8      4.843      9.916
REMARK SMILES C[C@@H]1C[N@H+](Cc2ccccc2)CC[C@@H]1CC(=O)NCCCNC(=O)c1ccc(-c2c3nc(c(-c4cc(S(=O)(=O)[O-])ccc4F)c4ccc([nH]4)c(-c4cc(S(=O)(=O)[O-])ccc4F)c4nc(c(-c5cc(S(=O)(=O)[O-])ccc5F)c5ccc2[nH]5)C=C4)C=C3)cc1
REMARK SMILES IDX 20 1 19 2 18 3 16 4 17 5 15 7 14 8 1 9 2 10 3 11 4 12 13 13
REMARK SMILES IDX 12 14 5 16 6 17 7 18 11 19 8 20 10 21 9 22 21 23 22 24 23 25
REMARK SMILES IDX 24 27 25 28 26 29 87 30 27 31 86 32 28 33 29 34 30 35 80 36
REMARK SMILES IDX 31 37 85 38 79 39 81 40 32 41 84 42 78 43 77 44 33 46 65 47
REMARK SMILES IDX 45 48 64 49 46 50 49 51 63 52 82 53 47 54 48 55 62 57 83 58
REMARK SMILES IDX 50 59 34 60 35 61 43 62 36 63 42 64 44 65 41 66 37 67 38 68
REMARK SMILES IDX 39 69 40 70 66 71 67 72 75 73 68 74 74 75 76 76 73 77 69 78
REMARK SMILES IDX 70 79 71 80 72 81 51 82 52 83 60 84 53 85 59 86 61 87 58 88
REMARK SMILES IDX 54 89 55 90 56 91 57 92
REMARK H PARENT 18 6 4 15 22 26 81 45 49 56
REMARK Flexibility Score: inf
ROOT
ATOM      1  C   UNL A   1      34.022  28.957  25.542  1.00  0.00     0.042 C 
ENDROOT
BRANCH   1   2
ATOM      2  C   UNL A   1      33.040  28.735  24.393  1.00  0.00     0.117 C 
BRANCH   2   3
ATOM      3  N   UNL A   1      33.563  28.045  23.235  1.00  0.00    -0.356 N 
ATOM      4  C   UNL A   1      33.577  26.729  22.913  1.00  0.00     0.220 C 
ATOM      5  O   UNL A   1      33.837  26.436  21.742  1.00  0.00    -0.275 OA
ATOM      6  H   UNL A   1      33.980  28.632  22.565  1.00  0.00     0.163 HD
BRANCH   4   7
ATOM      7  C   UNL A   1      33.259  25.648  23.922  1.00  0.00     0.104 C 
BRANCH   7   8
ATOM      8  C   UNL A   1      34.326  24.588  24.295  1.00  0.00     0.012 C 
ATOM      9  C   UNL A   1      33.394  22.988  22.410  1.00  0.00     0.014 C 
ATOM     10  C   UNL A   1      34.541  23.369  23.345  1.00  0.00     0.045 C 
ATOM     11  C   UNL A   1      35.191  22.136  24.013  1.00  0.00     0.265 C 
ATOM     12  N   UNL A   1      34.826  21.849  25.386  1.00  0.00    -0.331 N 
ATOM     13  C   UNL A   1      34.085  24.185  25.768  1.00  0.00     0.066 C 
ATOM     14  C   UNL A   1      34.923  23.007  26.250  1.00  0.00     0.262 C 
ATOM     15  H   UNL A   1      35.576  21.242  25.716  1.00  0.00     0.348 HD
BRANCH  12  16
ATOM     16  C   UNL A   1      33.776  20.862  25.641  1.00  0.00     0.299 C 
BRANCH  16  17
ATOM     17  C   UNL A   1      33.686  19.690  24.690  1.00  0.00     0.006 A 
ATOM     18  C   UNL A   1      34.647  18.669  24.713  1.00  0.00     0.009 A 
ATOM     19  C   UNL A   1      32.614  19.572  23.801  1.00  0.00     0.009 A 
ATOM     20  C   UNL A   1      34.473  17.511  23.952  1.00  0.00     0.001 A 
ATOM     21  C   UNL A   1      32.419  18.401  23.065  1.00  0.00     0.001 A 
ATOM     22  C   UNL A   1      33.342  17.364  23.153  1.00  0.00     0.000 A 
ENDBRANCH  16  17
ENDBRANCH  12  16
ENDBRANCH   7   8
ENDBRANCH   4   7
ENDBRANCH   2   3
ENDBRANCH   1   2
BRANCH   1  23
ATOM     23  C   UNL A   1      33.431  29.271  26.916  1.00  0.00     0.118 C 
BRANCH  23  24
ATOM     24  N   UNL A   1      33.393  30.679  27.233  1.00  0.00    -0.352 N 
ATOM     25  C   UNL A   1      34.294  31.438  27.941  1.00  0.00     0.251 C 
ATOM     26  H   UNL A   1      32.607  31.164  26.895  1.00  0.00     0.163 HD
ATOM     27  O   UNL A   1      34.032  32.619  28.149  1.00  0.00    -0.269 OA
BRANCH  25  28
ATOM     28  C   UNL A   1      35.544  30.853  28.495  1.00  0.00     0.039 A 
ATOM     29  C   UNL A   1      36.757  31.344  28.003  1.00  0.00     0.014 A 
ATOM     30  C   UNL A   1      35.552  29.802  29.419  1.00  0.00     0.014 A 
ATOM     31  C   UNL A   1      37.969  30.809  28.451  1.00  0.00     0.010 A 
ATOM     32  C   UNL A   1      36.770  29.294  29.899  1.00  0.00     0.010 A 
ATOM     33  C   UNL A   1      37.992  29.787  29.413  1.00  0.00    -0.014 A 
BRANCH  33  34
ATOM     34  C   UNL A   1      39.300  29.239  29.878  1.00  0.00     0.031 A 
ATOM     35  C   UNL A   1      39.986  29.807  31.094  1.00  0.00     0.074 A 
ATOM     36  C   UNL A   1      39.863  28.202  29.224  1.00  0.00     0.049 A 
ATOM     37  N   UNL A   1      41.092  29.417  31.677  1.00  0.00    -0.248 NA
ATOM     38  C   UNL A   1      39.350  30.969  31.728  1.00  0.00     0.031 C 
ATOM     39  C   UNL A   1      39.312  27.566  28.026  1.00  0.00     0.029 A 
ATOM     40  N   UNL A   1      41.012  27.493  29.477  1.00  0.00    -0.354 N 
ATOM     41  C   UNL A   1      41.282  30.278  32.753  1.00  0.00     0.074 A 
ATOM     42  C   UNL A   1      40.204  31.245  32.703  1.00  0.00     0.031 C 
ATOM     43  C   UNL A   1      40.111  26.549  27.662  1.00  0.00     0.029 A 
ATOM     44  C   UNL A   1      41.247  26.477  28.578  1.00  0.00     0.049 A 
ATOM     45  H   UNL A   1      41.613  27.694  30.232  1.00  0.00     0.167 HD
ATOM     46  C   UNL A   1      42.251  30.256  33.704  1.00  0.00     0.034 A 
ATOM     47  C   UNL A   1      42.261  25.591  28.496  1.00  0.00     0.034 A 
ATOM     48  C   UNL A   1      43.325  29.291  33.748  1.00  0.00     0.049 A 
ATOM     49  C   UNL A   1      43.351  25.615  29.537  1.00  0.00     0.074 A 
ATOM     50  C   UNL A   1      44.328  29.159  34.695  1.00  0.00     0.029 A 
ATOM     51  N   UNL A   1      43.551  28.302  32.800  1.00  0.00    -0.354 N 
ATOM     52  N   UNL A   1      43.485  26.406  30.576  1.00  0.00    -0.248 NA
ATOM     53  C   UNL A   1      44.420  24.615  29.401  1.00  0.00     0.031 C 
ATOM     54  C   UNL A   1      45.195  28.140  34.284  1.00  0.00     0.029 A 
ATOM     55  C   UNL A   1      44.694  27.582  33.120  1.00  0.00     0.049 A 
ATOM     56  H   UNL A   1      42.981  28.134  32.013  1.00  0.00     0.167 HD
ATOM     57  C   UNL A   1      44.637  25.978  31.232  1.00  0.00     0.074 A 
ATOM     58  C   UNL A   1      45.150  24.852  30.481  1.00  0.00     0.031 C 
ATOM     59  C   UNL A   1      45.212  26.470  32.360  1.00  0.00     0.034 A 
BRANCH  46  60
ATOM     60  C   UNL A   1      42.208  31.331  34.765  1.00  0.00     0.023 A 
ATOM     61  C   UNL A   1      42.886  32.553  34.607  1.00  0.00     0.031 A 
ATOM     62  C   UNL A   1      41.484  31.130  35.954  1.00  0.00     0.131 A 
ATOM     63  C   UNL A   1      42.883  33.496  35.645  1.00  0.00     0.055 A 
ATOM     64  C   UNL A   1      41.422  32.105  36.952  1.00  0.00     0.041 A 
ATOM     65  F   UNL A   1      40.830  29.978  36.169  1.00  0.00    -0.206 F 
ATOM     66  C   UNL A   1      42.135  33.291  36.808  1.00  0.00     0.022 A 
BRANCH  63  67
ATOM     67  S   UNL A   1      43.973  34.939  35.511  1.00  0.00     0.124 S 
ATOM     68  O   UNL A   1      43.547  35.739  36.657  1.00  0.00    -0.237 OA
ATOM     69  O   UNL A   1      45.300  34.342  35.607  1.00  0.00    -0.237 OA
ATOM     70  O   UNL A   1      43.635  35.505  34.206  1.00  0.00    -0.744 OA
ENDBRANCH  63  67
ENDBRANCH  46  60
BRANCH  47  71
ATOM     71  C   UNL A   1      42.312  24.608  27.374  1.00  0.00     0.023 A 
ATOM     72  C   UNL A   1      41.561  23.422  27.408  1.00  0.00     0.031 A 
ATOM     73  C   UNL A   1      43.161  24.821  26.273  1.00  0.00     0.131 A 
ATOM     74  C   UNL A   1      41.709  22.472  26.385  1.00  0.00     0.055 A 
ATOM     75  C   UNL A   1      43.264  23.897  25.232  1.00  0.00     0.041 A 
ATOM     76  F   UNL A   1      43.898  25.939  26.190  1.00  0.00    -0.206 F 
ATOM     77  C   UNL A   1      42.545  22.707  25.292  1.00  0.00     0.022 A 
BRANCH  74  78
ATOM     78  S   UNL A   1      40.854  20.880  26.547  1.00  0.00     0.124 S 
ATOM     79  O   UNL A   1      41.713  19.999  25.764  1.00  0.00    -0.237 OA
ATOM     80  O   UNL A   1      40.868  20.676  27.992  1.00  0.00    -0.237 OA
ATOM     81  O   UNL A   1      39.536  21.143  25.970  1.00  0.00    -0.744 OA
ENDBRANCH  74  78
ENDBRANCH  47  71
BRANCH  59  82
ATOM     82  C   UNL A   1      46.444  25.760  32.868  1.00  0.00     0.023 A 
ATOM     83  C   UNL A   1      46.362  24.675  33.759  1.00  0.00     0.031 A 
ATOM     84  C   UNL A   1      47.723  26.188  32.468  1.00  0.00     0.131 A 
ATOM     85  C   UNL A   1      47.535  24.091  34.263  1.00  0.00     0.055 A 
ATOM     86  C   UNL A   1      48.886  25.567  32.927  1.00  0.00     0.041 A 
ATOM     87  F   UNL A   1      47.863  27.220  31.621  1.00  0.00    -0.206 F 
ATOM     88  C   UNL A   1      48.797  24.520  33.840  1.00  0.00     0.022 A 
BRANCH  85  89
ATOM     89  S   UNL A   1      47.395  22.816  35.547  1.00  0.00     0.124 S 
ATOM     90  O   UNL A   1      48.671  22.945  36.243  1.00  0.00    -0.237 OA
ATOM     91  O   UNL A   1      46.216  23.248  36.289  1.00  0.00    -0.237 OA
ATOM     92  O   UNL A   1      47.228  21.579  34.785  1.00  0.00    -0.744 OA
ENDBRANCH  85  89
ENDBRANCH  59  82
ENDBRANCH  33  34
ENDBRANCH  25  28
ENDBRANCH  23  24
ENDBRANCH   1  23
TORSDOF 16
ENDMDL
