MODEL 1
REMARK VINA RESULT:     -13.5      0.000      0.000
REMARK SMILES Cc1cc2n(n1)[C@H](C(F)(F)F)CCN2C(=O)c1cnn([C@@H](C)C(=O)NCCCNC(=O)c2ccc(-c3c4nc(c(-c5cc(S(=O)(=O)[O-])ccc5F)c5ccc([nH]5)c(-c5cc(S(=O)(=O)[O-])ccc5F)c5nc(c(-c6cc(S(=O)(=O)[O-])ccc6F)c6ccc3[nH]6)C=C5)C=C4)cc2)c1
REMARK SMILES IDX 26 1 25 2 23 3 24 4 21 6 22 7 20 8 17 9 18 10 95 11 19 12
REMARK SMILES IDX 15 13 16 14 14 15 1 16 2 17 3 18 6 19 4 20 5 21 7 22 13 23
REMARK SMILES IDX 12 24 8 25 9 26 10 27 11 28 27 29 28 30 29 31 30 32 31 34
REMARK SMILES IDX 32 35 33 36 94 37 34 38 93 39 35 40 36 41 37 42 87 43 38 44
REMARK SMILES IDX 92 45 86 46 88 47 39 48 91 49 85 50 84 51 40 53 72 54 52 55
REMARK SMILES IDX 71 56 53 57 56 58 70 59 89 60 54 61 55 62 69 64 90 65 57 66
REMARK SMILES IDX 41 67 42 68 50 69 43 70 49 71 51 72 48 73 44 74 45 75 46 76
REMARK SMILES IDX 47 77 73 78 74 79 82 80 75 81 81 82 83 83 80 84 76 85 77 86
REMARK SMILES IDX 78 87 79 88 58 89 59 90 67 91 60 92 66 93 68 94 65 95 61 96
REMARK SMILES IDX 62 97 63 98 64 99
REMARK H PARENT 25 5 29 33 88 52 56 63
REMARK Flexibility Score: inf
ROOT
ATOM      1  C   UNL A   1      33.661  29.165  25.363  1.00  0.00     0.117 C 
ENDROOT
BRANCH   1   2
ATOM      2  N   UNL A   1      32.414  29.631  24.770  1.00  0.00    -0.354 N 
ATOM      3  C   UNL A   1      31.289  28.968  24.383  1.00  0.00     0.244 C 
ATOM      4  O   UNL A   1      30.405  29.648  23.845  1.00  0.00    -0.273 OA
ATOM      5  H   UNL A   1      32.378  30.603  24.622  1.00  0.00     0.163 HD
BRANCH   3   6
ATOM      6  C   UNL A   1      31.046  27.476  24.593  1.00  0.00     0.193 C 
ATOM      7  C   UNL A   1      31.051  27.017  26.047  1.00  0.00     0.044 C 
BRANCH   6   8
ATOM      8  N   UNL A   1      31.850  26.652  23.697  1.00  0.00    -0.260 N 
ATOM      9  C   UNL A   1      32.820  24.942  22.681  1.00  0.00     0.078 A 
ATOM     10  C   UNL A   1      32.888  26.135  21.939  1.00  0.00     0.149 A 
ATOM     11  C   UNL A   1      32.095  25.309  23.805  1.00  0.00     0.123 A 
ATOM     12  N   UNL A   1      32.490  27.191  22.644  1.00  0.00    -0.180 NA
BRANCH   9  13
ATOM     13  C   UNL A   1      33.260  23.611  22.351  1.00  0.00     0.262 C 
ATOM     14  O   UNL A   1      33.625  23.285  21.227  1.00  0.00    -0.269 OA
BRANCH  13  15
ATOM     15  N   UNL A   1      33.158  22.637  23.435  1.00  0.00    -0.293 N 
ATOM     16  C   UNL A   1      37.825  21.743  25.085  1.00  0.00     0.069 C 
ATOM     17  C   UNL A   1      36.356  21.799  24.887  1.00  0.00     0.062 A 
ATOM     18  C   UNL A   1      35.631  22.634  23.998  1.00  0.00     0.072 A 
ATOM     19  N   UNL A   1      35.546  20.975  25.563  1.00  0.00    -0.176 NA
ATOM     20  C   UNL A   1      34.322  22.227  24.105  1.00  0.00     0.134 A 
ATOM     21  N   UNL A   1      34.338  21.242  25.058  1.00  0.00    -0.237 N 
ATOM     22  C   UNL A   1      33.164  20.520  25.501  1.00  0.00     0.216 C 
ATOM     23  C   UNL A   1      31.931  21.834  23.685  1.00  0.00     0.130 C 
ATOM     24  C   UNL A   1      31.902  21.308  25.124  1.00  0.00     0.059 C 
BRANCH  22  25
ATOM     25  C   UNL A   1      33.162  19.127  24.910  1.00  0.00     0.410 C 
ATOM     26  F   UNL A   1      32.101  18.984  24.076  1.00  0.00    -0.169 F 
ATOM     27  F   UNL A   1      34.269  18.898  24.167  1.00  0.00    -0.169 F 
ATOM     28  F   UNL A   1      33.067  18.154  25.835  1.00  0.00    -0.169 F 
ENDBRANCH  22  25
ENDBRANCH  13  15
ENDBRANCH   9  13
ENDBRANCH   6   8
ENDBRANCH   3   6
ENDBRANCH   1   2
BRANCH   1  29
ATOM     29  C   UNL A   1      33.730  29.392  26.876  1.00  0.00     0.042 C 
BRANCH  29  30
ATOM     30  C   UNL A   1      35.133  29.286  27.443  1.00  0.00     0.118 C 
BRANCH  30  31
ATOM     31  N   UNL A   1      35.302  30.053  28.667  1.00  0.00    -0.352 N 
ATOM     32  C   UNL A   1      36.351  29.992  29.558  1.00  0.00     0.251 C 
ATOM     33  H   UNL A   1      34.583  30.690  28.884  1.00  0.00     0.163 HD
ATOM     34  O   UNL A   1      36.220  30.459  30.684  1.00  0.00    -0.269 OA
BRANCH  32  35
ATOM     35  C   UNL A   1      37.596  29.304  29.158  1.00  0.00     0.039 A 
ATOM     36  C   UNL A   1      38.302  29.763  28.048  1.00  0.00     0.014 A 
ATOM     37  C   UNL A   1      38.092  28.247  29.924  1.00  0.00     0.014 A 
ATOM     38  C   UNL A   1      39.558  29.225  27.775  1.00  0.00     0.010 A 
ATOM     39  C   UNL A   1      39.378  27.777  29.705  1.00  0.00     0.010 A 
ATOM     40  C   UNL A   1      40.123  28.260  28.629  1.00  0.00    -0.014 A 
BRANCH  40  41
ATOM     41  C   UNL A   1      41.533  27.891  28.441  1.00  0.00     0.031 A 
ATOM     42  C   UNL A   1      41.781  26.651  27.650  1.00  0.00     0.074 A 
ATOM     43  C   UNL A   1      42.610  28.642  28.751  1.00  0.00     0.049 A 
ATOM     44  N   UNL A   1      42.279  25.533  28.063  1.00  0.00    -0.248 NA
ATOM     45  C   UNL A   1      41.335  26.620  26.250  1.00  0.00     0.031 C 
ATOM     46  C   UNL A   1      42.651  30.022  29.236  1.00  0.00     0.029 A 
ATOM     47  N   UNL A   1      43.933  28.331  28.594  1.00  0.00    -0.354 N 
ATOM     48  C   UNL A   1      42.407  24.714  26.941  1.00  0.00     0.074 A 
ATOM     49  C   UNL A   1      41.671  25.377  25.897  1.00  0.00     0.031 C 
ATOM     50  C   UNL A   1      43.908  30.500  29.118  1.00  0.00     0.029 A 
ATOM     51  C   UNL A   1      44.787  29.417  28.712  1.00  0.00     0.049 A 
ATOM     52  H   UNL A   1      44.250  27.417  28.411  1.00  0.00     0.167 HD
ATOM     53  C   UNL A   1      43.259  23.647  26.932  1.00  0.00     0.034 A 
ATOM     54  C   UNL A   1      46.124  29.448  28.484  1.00  0.00     0.034 A 
ATOM     55  C   UNL A   1      43.670  23.303  28.278  1.00  0.00     0.049 A 
ATOM     56  C   UNL A   1      46.636  28.069  28.656  1.00  0.00     0.074 A 
ATOM     57  C   UNL A   1      43.003  22.970  29.443  1.00  0.00     0.029 A 
ATOM     58  N   UNL A   1      44.955  23.607  28.675  1.00  0.00    -0.354 N 
ATOM     59  N   UNL A   1      46.638  27.436  29.797  1.00  0.00    -0.248 NA
ATOM     60  C   UNL A   1      46.797  27.223  27.483  1.00  0.00     0.031 C 
ATOM     61  C   UNL A   1      43.752  23.587  30.488  1.00  0.00     0.029 A 
ATOM     62  C   UNL A   1      44.864  24.200  29.909  1.00  0.00     0.049 A 
ATOM     63  H   UNL A   1      45.781  23.431  28.170  1.00  0.00     0.167 HD
ATOM     64  C   UNL A   1      46.369  26.116  29.478  1.00  0.00     0.074 A 
ATOM     65  C   UNL A   1      46.608  26.024  28.041  1.00  0.00     0.031 C 
ATOM     66  C   UNL A   1      45.711  25.294  30.348  1.00  0.00     0.034 A 
BRANCH  53  67
ATOM     67  C   UNL A   1      43.994  23.103  25.717  1.00  0.00     0.023 A 
ATOM     68  C   UNL A   1      43.889  21.716  25.478  1.00  0.00     0.031 A 
ATOM     69  C   UNL A   1      44.990  23.768  24.972  1.00  0.00     0.131 A 
ATOM     70  C   UNL A   1      44.828  21.038  24.681  1.00  0.00     0.055 A 
ATOM     71  C   UNL A   1      45.873  23.100  24.113  1.00  0.00     0.041 A 
ATOM     72  F   UNL A   1      45.225  25.079  25.080  1.00  0.00    -0.206 F 
ATOM     73  C   UNL A   1      45.825  21.722  23.997  1.00  0.00     0.022 A 
BRANCH  70  74
ATOM     74  S   UNL A   1      44.849  19.228  24.748  1.00  0.00     0.124 S 
ATOM     75  O   UNL A   1      43.799  18.966  25.727  1.00  0.00    -0.237 OA
ATOM     76  O   UNL A   1      44.547  18.875  23.366  1.00  0.00    -0.237 OA
ATOM     77  O   UNL A   1      46.208  18.923  25.189  1.00  0.00    -0.744 OA
ENDBRANCH  70  74
ENDBRANCH  53  67
BRANCH  54  78
ATOM     78  C   UNL A   1      46.923  30.579  27.953  1.00  0.00     0.023 A 
ATOM     79  C   UNL A   1      46.358  31.599  27.166  1.00  0.00     0.031 A 
ATOM     80  C   UNL A   1      48.244  30.787  28.412  1.00  0.00     0.131 A 
ATOM     81  C   UNL A   1      47.106  32.759  26.863  1.00  0.00     0.055 A 
ATOM     82  C   UNL A   1      48.986  31.925  28.096  1.00  0.00     0.041 A 
ATOM     83  F   UNL A   1      48.832  29.925  29.259  1.00  0.00    -0.206 F 
ATOM     84  C   UNL A   1      48.415  32.923  27.323  1.00  0.00     0.022 A 
BRANCH  81  85
ATOM     85  S   UNL A   1      46.331  34.137  25.961  1.00  0.00     0.124 S 
ATOM     86  O   UNL A   1      45.891  35.006  27.045  1.00  0.00    -0.237 OA
ATOM     87  O   UNL A   1      47.429  34.628  25.136  1.00  0.00    -0.237 OA
ATOM     88  O   UNL A   1      45.253  33.486  25.214  1.00  0.00    -0.744 OA
ENDBRANCH  81  85
ENDBRANCH  54  78
BRANCH  66  89
ATOM     89  C   UNL A   1      45.629  25.678  31.811  1.00  0.00     0.023 A 
ATOM     90  C   UNL A   1      46.611  25.381  32.781  1.00  0.00     0.031 A 
ATOM     91  C   UNL A   1      44.548  26.489  32.208  1.00  0.00     0.131 A 
ATOM     92  C   UNL A   1      46.481  25.880  34.092  1.00  0.00     0.055 A 
ATOM     93  C   UNL A   1      44.433  26.998  33.501  1.00  0.00     0.041 A 
ATOM     94  F   UNL A   1      43.593  26.832  31.327  1.00  0.00    -0.206 F 
ATOM     95  C   UNL A   1      45.398  26.689  34.451  1.00  0.00     0.022 A 
BRANCH  92  96
ATOM     96  S   UNL A   1      47.717  25.468  35.363  1.00  0.00     0.124 S 
ATOM     97  O   UNL A   1      47.007  25.680  36.618  1.00  0.00    -0.237 OA
ATOM     98  O   UNL A   1      48.047  24.082  35.042  1.00  0.00    -0.237 OA
ATOM     99  O   UNL A   1      48.798  26.423  35.105  1.00  0.00    -0.744 OA
ENDBRANCH  92  96
ENDBRANCH  66  89
ENDBRANCH  40  41
ENDBRANCH  32  35
ENDBRANCH  30  31
ENDBRANCH  29  30
ENDBRANCH   1  29
TORSDOF 17
ENDMDL
MODEL 2
REMARK VINA RESULT:     -13.3      2.398      6.760
REMARK SMILES Cc1cc2n(n1)[C@H](C(F)(F)F)CCN2C(=O)c1cnn([C@@H](C)C(=O)NCCCNC(=O)c2ccc(-c3c4nc(c(-c5cc(S(=O)(=O)[O-])ccc5F)c5ccc([nH]5)c(-c5cc(S(=O)(=O)[O-])ccc5F)c5nc(c(-c6cc(S(=O)(=O)[O-])ccc6F)c6ccc3[nH]6)C=C5)C=C4)cc2)c1
REMARK SMILES IDX 26 1 25 2 23 3 24 4 21 6 22 7 20 8 17 9 18 10 95 11 19 12
REMARK SMILES IDX 15 13 16 14 14 15 1 16 2 17 3 18 6 19 4 20 5 21 7 22 13 23
REMARK SMILES IDX 12 24 8 25 9 26 10 27 11 28 27 29 28 30 29 31 30 32 31 34
REMARK SMILES IDX 32 35 33 36 94 37 34 38 93 39 35 40 36 41 37 42 87 43 38 44
REMARK SMILES IDX 92 45 86 46 88 47 39 48 91 49 85 50 84 51 40 53 72 54 52 55
REMARK SMILES IDX 71 56 53 57 56 58 70 59 89 60 54 61 55 62 69 64 90 65 57 66
REMARK SMILES IDX 41 67 42 68 50 69 43 70 49 71 51 72 48 73 44 74 45 75 46 76
REMARK SMILES IDX 47 77 73 78 74 79 82 80 75 81 81 82 83 83 80 84 76 85 77 86
REMARK SMILES IDX 78 87 79 88 58 89 59 90 67 91 60 92 66 93 68 94 65 95 61 96
REMARK SMILES IDX 62 97 63 98 64 99
REMARK H PARENT 25 5 29 33 88 52 56 63
REMARK Flexibility Score: inf
ROOT
ATOM      1  C   UNL A   1      34.072  29.906  27.439  1.00  0.00     0.117 C 
ENDROOT
BRANCH   1   2
ATOM      2  N   UNL A   1      33.063  28.864  27.577  1.00  0.00    -0.354 N 
ATOM      3  C   UNL A   1      32.188  28.324  26.685  1.00  0.00     0.244 C 
ATOM      4  O   UNL A   1      31.399  27.479  27.129  1.00  0.00    -0.273 OA
ATOM      5  H   UNL A   1      33.004  28.479  28.481  1.00  0.00     0.163 HD
BRANCH   3   6
ATOM      6  C   UNL A   1      32.141  28.668  25.199  1.00  0.00     0.193 C 
ATOM      7  C   UNL A   1      31.137  29.750  24.816  1.00  0.00     0.044 C 
BRANCH   6   8
ATOM      8  N   UNL A   1      32.097  27.479  24.356  1.00  0.00    -0.260 N 
ATOM      9  C   UNL A   1      32.553  25.537  23.396  1.00  0.00     0.078 A 
ATOM     10  C   UNL A   1      31.237  25.975  23.158  1.00  0.00     0.149 A 
ATOM     11  C   UNL A   1      33.071  26.526  24.220  1.00  0.00     0.123 A 
ATOM     12  N   UNL A   1      31.042  27.228  23.562  1.00  0.00    -0.180 NA
BRANCH   9  13
ATOM     13  C   UNL A   1      33.213  24.316  23.015  1.00  0.00     0.262 C 
ATOM     14  O   UNL A   1      33.768  24.162  21.932  1.00  0.00    -0.269 OA
BRANCH  13  15
ATOM     15  N   UNL A   1      33.101  23.224  23.979  1.00  0.00    -0.293 N 
ATOM     16  C   UNL A   1      37.714  22.335  25.775  1.00  0.00     0.069 C 
ATOM     17  C   UNL A   1      36.256  22.355  25.504  1.00  0.00     0.062 A 
ATOM     18  C   UNL A   1      35.540  23.255  24.673  1.00  0.00     0.072 A 
ATOM     19  N   UNL A   1      35.451  21.430  26.040  1.00  0.00    -0.176 NA
ATOM     20  C   UNL A   1      34.246  22.787  24.663  1.00  0.00     0.134 A 
ATOM     21  N   UNL A   1      34.259  21.704  25.502  1.00  0.00    -0.237 N 
ATOM     22  C   UNL A   1      33.098  20.891  25.798  1.00  0.00     0.216 C 
ATOM     23  C   UNL A   1      31.900  22.350  24.072  1.00  0.00     0.130 C 
ATOM     24  C   UNL A   1      31.823  21.666  25.441  1.00  0.00     0.059 C 
BRANCH  22  25
ATOM     25  C   UNL A   1      33.189  19.573  25.059  1.00  0.00     0.410 C 
ATOM     26  F   UNL A   1      32.147  19.458  24.198  1.00  0.00    -0.169 F 
ATOM     27  F   UNL A   1      34.315  19.496  24.314  1.00  0.00    -0.169 F 
ATOM     28  F   UNL A   1      33.146  18.501  25.871  1.00  0.00    -0.169 F 
ENDBRANCH  22  25
ENDBRANCH  13  15
ENDBRANCH   9  13
ENDBRANCH   6   8
ENDBRANCH   3   6
ENDBRANCH   1   2
BRANCH   1  29
ATOM     29  C   UNL A   1      33.489  31.321  27.508  1.00  0.00     0.042 C 
BRANCH  29  30
ATOM     30  C   UNL A   1      34.512  32.384  27.862  1.00  0.00     0.118 C 
BRANCH  30  31
ATOM     31  N   UNL A   1      34.464  32.762  29.265  1.00  0.00    -0.352 N 
ATOM     32  C   UNL A   1      35.173  32.207  30.309  1.00  0.00     0.251 C 
ATOM     33  H   UNL A   1      33.854  33.499  29.497  1.00  0.00     0.163 HD
ATOM     34  O   UNL A   1      34.813  32.410  31.463  1.00  0.00    -0.269 OA
BRANCH  32  35
ATOM     35  C   UNL A   1      36.318  31.321  30.011  1.00  0.00     0.039 A 
ATOM     36  C   UNL A   1      37.562  31.885  29.736  1.00  0.00     0.014 A 
ATOM     37  C   UNL A   1      36.168  29.935  30.071  1.00  0.00     0.014 A 
ATOM     38  C   UNL A   1      38.673  31.052  29.626  1.00  0.00     0.010 A 
ATOM     39  C   UNL A   1      37.287  29.115  30.051  1.00  0.00     0.010 A 
ATOM     40  C   UNL A   1      38.549  29.665  29.828  1.00  0.00    -0.014 A 
BRANCH  40  41
ATOM     41  C   UNL A   1      39.771  28.855  29.934  1.00  0.00     0.031 A 
ATOM     42  C   UNL A   1      40.235  28.557  31.320  1.00  0.00     0.074 A 
ATOM     43  C   UNL A   1      40.402  28.215  28.928  1.00  0.00     0.049 A 
ATOM     44  N   UNL A   1      41.310  28.974  31.903  1.00  0.00    -0.248 NA
ATOM     45  C   UNL A   1      39.352  27.774  32.195  1.00  0.00     0.031 C 
ATOM     46  C   UNL A   1      39.984  28.073  27.533  1.00  0.00     0.029 A 
ATOM     47  N   UNL A   1      41.540  27.459  28.989  1.00  0.00    -0.354 N 
ATOM     48  C   UNL A   1      41.356  28.350  33.149  1.00  0.00     0.074 A 
ATOM     49  C   UNL A   1      40.058  27.754  33.328  1.00  0.00     0.031 C 
ATOM     50  C   UNL A   1      40.720  27.107  26.943  1.00  0.00     0.029 A 
ATOM     51  C   UNL A   1      41.765  26.684  27.859  1.00  0.00     0.049 A 
ATOM     52  H   UNL A   1      42.145  27.462  29.765  1.00  0.00     0.167 HD
ATOM     53  C   UNL A   1      42.525  28.234  33.844  1.00  0.00     0.034 A 
ATOM     54  C   UNL A   1      42.728  25.748  27.677  1.00  0.00     0.034 A 
ATOM     55  C   UNL A   1      43.534  29.127  33.311  1.00  0.00     0.049 A 
ATOM     56  C   UNL A   1      43.841  26.067  28.600  1.00  0.00     0.074 A 
ATOM     57  C   UNL A   1      43.607  30.491  33.094  1.00  0.00     0.029 A 
ATOM     58  N   UNL A   1      44.572  28.591  32.580  1.00  0.00    -0.354 N 
ATOM     59  N   UNL A   1      44.577  27.140  28.499  1.00  0.00    -0.248 NA
ATOM     60  C   UNL A   1      43.906  25.396  29.889  1.00  0.00     0.031 C 
ATOM     61  C   UNL A   1      44.324  30.633  31.870  1.00  0.00     0.029 A 
ATOM     62  C   UNL A   1      44.703  29.357  31.449  1.00  0.00     0.049 A 
ATOM     63  H   UNL A   1      45.116  27.808  32.823  1.00  0.00     0.167 HD
ATOM     64  C   UNL A   1      44.850  27.515  29.804  1.00  0.00     0.074 A 
ATOM     65  C   UNL A   1      44.526  26.338  30.605  1.00  0.00     0.031 C 
ATOM     66  C   UNL A   1      45.042  28.824  30.142  1.00  0.00     0.034 A 
BRANCH  53  67
ATOM     67  C   UNL A   1      42.892  27.100  34.790  1.00  0.00     0.023 A 
ATOM     68  C   UNL A   1      43.702  26.071  34.266  1.00  0.00     0.031 A 
ATOM     69  C   UNL A   1      42.290  26.818  36.034  1.00  0.00     0.131 A 
ATOM     70  C   UNL A   1      43.755  24.803  34.870  1.00  0.00     0.055 A 
ATOM     71  C   UNL A   1      42.413  25.578  36.676  1.00  0.00     0.041 A 
ATOM     72  F   UNL A   1      41.491  27.680  36.668  1.00  0.00    -0.206 F 
ATOM     73  C   UNL A   1      43.112  24.546  36.074  1.00  0.00     0.022 A 
BRANCH  70  74
ATOM     74  S   UNL A   1      44.494  23.443  33.927  1.00  0.00     0.124 S 
ATOM     75  O   UNL A   1      44.160  22.299  34.768  1.00  0.00    -0.237 OA
ATOM     76  O   UNL A   1      43.784  23.541  32.657  1.00  0.00    -0.237 OA
ATOM     77  O   UNL A   1      45.910  23.795  33.881  1.00  0.00    -0.744 OA
ENDBRANCH  70  74
ENDBRANCH  53  67
BRANCH  54  78
ATOM     78  C   UNL A   1      42.637  24.504  26.874  1.00  0.00     0.023 A 
ATOM     79  C   UNL A   1      43.702  24.036  26.082  1.00  0.00     0.031 A 
ATOM     80  C   UNL A   1      41.545  23.624  27.057  1.00  0.00     0.131 A 
ATOM     81  C   UNL A   1      43.646  22.746  25.508  1.00  0.00     0.055 A 
ATOM     82  C   UNL A   1      41.485  22.358  26.473  1.00  0.00     0.041 A 
ATOM     83  F   UNL A   1      40.531  23.933  27.883  1.00  0.00    -0.206 F 
ATOM     84  C   UNL A   1      42.544  21.909  25.700  1.00  0.00     0.022 A 
BRANCH  81  85
ATOM     85  S   UNL A   1      45.079  22.088  24.599  1.00  0.00     0.124 S 
ATOM     86  O   UNL A   1      44.570  20.817  24.099  1.00  0.00    -0.237 OA
ATOM     87  O   UNL A   1      45.326  23.128  23.607  1.00  0.00    -0.237 OA
ATOM     88  O   UNL A   1      46.110  21.976  25.633  1.00  0.00    -0.744 OA
ENDBRANCH  81  85
ENDBRANCH  54  78
BRANCH  66  89
ATOM     89  C   UNL A   1      45.366  29.830  29.057  1.00  0.00     0.023 A 
ATOM     90  C   UNL A   1      46.670  30.215  28.675  1.00  0.00     0.031 A 
ATOM     91  C   UNL A   1      44.292  30.330  28.296  1.00  0.00     0.131 A 
ATOM     92  C   UNL A   1      46.857  31.080  27.579  1.00  0.00     0.055 A 
ATOM     93  C   UNL A   1      44.482  31.169  27.199  1.00  0.00     0.041 A 
ATOM     94  F   UNL A   1      43.028  29.980  28.589  1.00  0.00    -0.206 F 
ATOM     95  C   UNL A   1      45.767  31.553  26.841  1.00  0.00     0.022 A 
BRANCH  92  96
ATOM     96  S   UNL A   1      48.529  31.619  27.104  1.00  0.00     0.124 S 
ATOM     97  O   UNL A   1      49.127  32.043  28.364  1.00  0.00    -0.237 OA
ATOM     98  O   UNL A   1      49.091  30.410  26.506  1.00  0.00    -0.237 OA
ATOM     99  O   UNL A   1      48.278  32.704  26.153  1.00  0.00    -0.744 OA
ENDBRANCH  92  96
ENDBRANCH  66  89
ENDBRANCH  40  41
ENDBRANCH  32  35
ENDBRANCH  30  31
ENDBRANCH  29  30
ENDBRANCH   1  29
TORSDOF 17
ENDMDL
MODEL 3
REMARK VINA RESULT:     -13.1      4.117      9.143
REMARK SMILES Cc1cc2n(n1)[C@H](C(F)(F)F)CCN2C(=O)c1cnn([C@@H](C)C(=O)NCCCNC(=O)c2ccc(-c3c4nc(c(-c5cc(S(=O)(=O)[O-])ccc5F)c5ccc([nH]5)c(-c5cc(S(=O)(=O)[O-])ccc5F)c5nc(c(-c6cc(S(=O)(=O)[O-])ccc6F)c6ccc3[nH]6)C=C5)C=C4)cc2)c1
REMARK SMILES IDX 26 1 25 2 23 3 24 4 21 6 22 7 20 8 17 9 18 10 95 11 19 12
REMARK SMILES IDX 15 13 16 14 14 15 1 16 2 17 3 18 6 19 4 20 5 21 7 22 13 23
REMARK SMILES IDX 12 24 8 25 9 26 10 27 11 28 27 29 28 30 29 31 30 32 31 34
REMARK SMILES IDX 32 35 33 36 94 37 34 38 93 39 35 40 36 41 37 42 87 43 38 44
REMARK SMILES IDX 92 45 86 46 88 47 39 48 91 49 85 50 84 51 40 53 72 54 52 55
REMARK SMILES IDX 71 56 53 57 56 58 70 59 89 60 54 61 55 62 69 64 90 65 57 66
REMARK SMILES IDX 41 67 42 68 50 69 43 70 49 71 51 72 48 73 44 74 45 75 46 76
REMARK SMILES IDX 47 77 73 78 74 79 82 80 75 81 81 82 83 83 80 84 76 85 77 86
REMARK SMILES IDX 78 87 79 88 58 89 59 90 67 91 60 92 66 93 68 94 65 95 61 96
REMARK SMILES IDX 62 97 63 98 64 99
REMARK H PARENT 25 5 29 33 88 52 56 63
REMARK Flexibility Score: inf
ROOT
ATOM      1  C   UNL A   1      38.416  22.714  26.276  1.00  0.00     0.117 C 
ENDROOT
BRANCH   1   2
ATOM      2  N   UNL A   1      37.789  22.909  24.975  1.00  0.00    -0.354 N 
ATOM      3  C   UNL A   1      36.635  22.421  24.442  1.00  0.00     0.244 C 
ATOM      4  O   UNL A   1      36.398  22.727  23.266  1.00  0.00    -0.273 OA
ATOM      5  H   UNL A   1      38.291  23.503  24.372  1.00  0.00     0.163 HD
BRANCH   3   6
ATOM      6  C   UNL A   1      35.625  21.563  25.198  1.00  0.00     0.193 C 
ATOM      7  C   UNL A   1      35.658  20.076  24.862  1.00  0.00     0.044 C 
BRANCH   6   8
ATOM      8  N   UNL A   1      34.291  22.151  25.201  1.00  0.00    -0.260 N 
ATOM      9  C   UNL A   1      32.578  23.533  25.443  1.00  0.00     0.078 A 
ATOM     10  C   UNL A   1      32.292  22.442  24.602  1.00  0.00     0.149 A 
ATOM     11  C   UNL A   1      33.909  23.332  25.780  1.00  0.00     0.123 A 
ATOM     12  N   UNL A   1      33.250  21.519  24.630  1.00  0.00    -0.180 NA
BRANCH   9  13
ATOM     13  C   UNL A   1      31.774  24.673  25.798  1.00  0.00     0.262 C 
ATOM     14  O   UNL A   1      31.022  24.689  26.766  1.00  0.00    -0.269 OA
BRANCH  13  15
ATOM     15  N   UNL A   1      31.844  25.795  24.865  1.00  0.00    -0.293 N 
ATOM     16  C   UNL A   1      34.460  29.452  27.121  1.00  0.00     0.069 C 
ATOM     17  C   UNL A   1      33.709  28.600  26.167  1.00  0.00     0.062 A 
ATOM     18  C   UNL A   1      33.314  27.248  26.336  1.00  0.00     0.072 A 
ATOM     19  N   UNL A   1      33.288  29.095  24.996  1.00  0.00    -0.176 NA
ATOM     20  C   UNL A   1      32.551  26.952  25.230  1.00  0.00     0.134 A 
ATOM     21  N   UNL A   1      32.581  28.091  24.469  1.00  0.00    -0.237 N 
ATOM     22  C   UNL A   1      31.907  28.237  23.196  1.00  0.00     0.216 C 
ATOM     23  C   UNL A   1      30.970  25.903  23.666  1.00  0.00     0.130 C 
ATOM     24  C   UNL A   1      31.578  26.850  22.626  1.00  0.00     0.059 C 
BRANCH  22  25
ATOM     25  C   UNL A   1      30.669  29.091  23.363  1.00  0.00     0.410 C 
ATOM     26  F   UNL A   1      29.610  28.306  23.686  1.00  0.00    -0.169 F 
ATOM     27  F   UNL A   1      30.809  29.981  24.372  1.00  0.00    -0.169 F 
ATOM     28  F   UNL A   1      30.331  29.766  22.249  1.00  0.00    -0.169 F 
ENDBRANCH  22  25
ENDBRANCH  13  15
ENDBRANCH   9  13
ENDBRANCH   6   8
ENDBRANCH   3   6
ENDBRANCH   1   2
BRANCH   1  29
ATOM     29  C   UNL A   1      39.486  21.618  26.270  1.00  0.00     0.042 C 
BRANCH  29  30
ATOM     30  C   UNL A   1      40.574  21.824  27.307  1.00  0.00     0.118 C 
BRANCH  30  31
ATOM     31  N   UNL A   1      41.887  22.012  26.712  1.00  0.00    -0.352 N 
ATOM     32  C   UNL A   1      42.554  23.201  26.507  1.00  0.00     0.251 C 
ATOM     33  H   UNL A   1      42.354  21.195  26.421  1.00  0.00     0.163 HD
ATOM     34  O   UNL A   1      43.501  23.240  25.729  1.00  0.00    -0.269 OA
BRANCH  32  35
ATOM     35  C   UNL A   1      42.070  24.422  27.182  1.00  0.00     0.039 A 
ATOM     36  C   UNL A   1      42.661  24.818  28.382  1.00  0.00     0.014 A 
ATOM     37  C   UNL A   1      41.079  25.207  26.590  1.00  0.00     0.014 A 
ATOM     38  C   UNL A   1      42.325  26.055  28.926  1.00  0.00     0.010 A 
ATOM     39  C   UNL A   1      40.813  26.476  27.085  1.00  0.00     0.010 A 
ATOM     40  C   UNL A   1      41.432  26.912  28.256  1.00  0.00    -0.014 A 
BRANCH  40  41
ATOM     41  C   UNL A   1      41.283  28.292  28.738  1.00  0.00     0.031 A 
ATOM     42  C   UNL A   1      42.312  29.261  28.260  1.00  0.00     0.074 A 
ATOM     43  C   UNL A   1      40.230  28.801  29.409  1.00  0.00     0.049 A 
ATOM     44  N   UNL A   1      43.216  29.866  28.958  1.00  0.00    -0.248 NA
ATOM     45  C   UNL A   1      42.406  29.519  26.817  1.00  0.00     0.031 C 
ATOM     46  C   UNL A   1      38.952  28.161  29.723  1.00  0.00     0.029 A 
ATOM     47  N   UNL A   1      40.059  30.076  29.874  1.00  0.00    -0.354 N 
ATOM     48  C   UNL A   1      43.870  30.742  28.092  1.00  0.00     0.074 A 
ATOM     49  C   UNL A   1      43.434  30.370  26.770  1.00  0.00     0.031 C 
ATOM     50  C   UNL A   1      38.066  29.100  30.118  1.00  0.00     0.029 A 
ATOM     51  C   UNL A   1      38.756  30.373  30.245  1.00  0.00     0.049 A 
ATOM     52  H   UNL A   1      40.796  30.726  29.940  1.00  0.00     0.167 HD
ATOM     53  C   UNL A   1      44.578  31.810  28.560  1.00  0.00     0.034 A 
ATOM     54  C   UNL A   1      38.255  31.577  30.619  1.00  0.00     0.034 A 
ATOM     55  C   UNL A   1      44.843  31.673  29.978  1.00  0.00     0.049 A 
ATOM     56  C   UNL A   1      39.384  32.387  31.133  1.00  0.00     0.074 A 
ATOM     57  C   UNL A   1      45.457  30.713  30.762  1.00  0.00     0.029 A 
ATOM     58  N   UNL A   1      44.144  32.466  30.862  1.00  0.00    -0.354 N 
ATOM     59  N   UNL A   1      40.047  32.095  32.217  1.00  0.00    -0.248 NA
ATOM     60  C   UNL A   1      40.049  33.321  30.237  1.00  0.00     0.031 C 
ATOM     61  C   UNL A   1      44.688  30.669  31.963  1.00  0.00     0.029 A 
ATOM     62  C   UNL A   1      43.696  31.647  31.868  1.00  0.00     0.049 A 
ATOM     63  H   UNL A   1      43.995  33.436  30.786  1.00  0.00     0.167 HD
ATOM     64  C   UNL A   1      41.357  32.452  31.947  1.00  0.00     0.074 A 
ATOM     65  C   UNL A   1      41.272  33.317  30.774  1.00  0.00     0.031 C 
ATOM     66  C   UNL A   1      42.407  31.793  32.520  1.00  0.00     0.034 A 
BRANCH  53  67
ATOM     67  C   UNL A   1      44.761  33.142  27.847  1.00  0.00     0.023 A 
ATOM     68  C   UNL A   1      43.912  34.198  28.241  1.00  0.00     0.031 A 
ATOM     69  C   UNL A   1      45.481  33.361  26.654  1.00  0.00     0.131 A 
ATOM     70  C   UNL A   1      43.685  35.304  27.405  1.00  0.00     0.055 A 
ATOM     71  C   UNL A   1      45.314  34.506  25.863  1.00  0.00     0.041 A 
ATOM     72  F   UNL A   1      46.325  32.464  26.138  1.00  0.00    -0.206 F 
ATOM     73  C   UNL A   1      44.380  35.466  26.213  1.00  0.00     0.022 A 
BRANCH  70  74
ATOM     74  S   UNL A   1      42.300  36.401  27.805  1.00  0.00     0.124 S 
ATOM     75  O   UNL A   1      42.729  36.945  29.089  1.00  0.00    -0.237 OA
ATOM     76  O   UNL A   1      42.314  37.323  26.675  1.00  0.00    -0.237 OA
ATOM     77  O   UNL A   1      41.156  35.494  27.859  1.00  0.00    -0.744 OA
ENDBRANCH  70  74
ENDBRANCH  53  67
BRANCH  54  78
ATOM     78  C   UNL A   1      36.889  32.100  30.380  1.00  0.00     0.023 A 
ATOM     79  C   UNL A   1      36.152  32.773  31.373  1.00  0.00     0.031 A 
ATOM     80  C   UNL A   1      36.367  32.136  29.066  1.00  0.00     0.131 A 
ATOM     81  C   UNL A   1      34.950  33.436  31.038  1.00  0.00     0.055 A 
ATOM     82  C   UNL A   1      35.170  32.777  28.743  1.00  0.00     0.041 A 
ATOM     83  F   UNL A   1      37.049  31.620  28.030  1.00  0.00    -0.206 F 
ATOM     84  C   UNL A   1      34.458  33.439  29.731  1.00  0.00     0.022 A 
BRANCH  81  85
ATOM     85  S   UNL A   1      34.070  34.419  32.291  1.00  0.00     0.124 S 
ATOM     86  O   UNL A   1      32.995  35.020  31.513  1.00  0.00    -0.237 OA
ATOM     87  O   UNL A   1      33.682  33.407  33.268  1.00  0.00    -0.237 OA
ATOM     88  O   UNL A   1      35.091  35.358  32.761  1.00  0.00    -0.744 OA
ENDBRANCH  81  85
ENDBRANCH  54  78
BRANCH  66  89
ATOM     89  C   UNL A   1      42.167  30.951  33.756  1.00  0.00     0.023 A 
ATOM     90  C   UNL A   1      41.975  29.552  33.755  1.00  0.00     0.031 A 
ATOM     91  C   UNL A   1      42.257  31.594  35.005  1.00  0.00     0.131 A 
ATOM     92  C   UNL A   1      41.866  28.855  34.974  1.00  0.00     0.055 A 
ATOM     93  C   UNL A   1      42.169  30.897  36.210  1.00  0.00     0.041 A 
ATOM     94  F   UNL A   1      42.467  32.919  35.077  1.00  0.00    -0.206 F 
ATOM     95  C   UNL A   1      41.966  29.524  36.198  1.00  0.00     0.022 A 
BRANCH  92  96
ATOM     96  S   UNL A   1      41.574  27.058  34.986  1.00  0.00     0.124 S 
ATOM     97  O   UNL A   1      40.452  26.884  34.071  1.00  0.00    -0.237 OA
ATOM     98  O   UNL A   1      42.857  26.528  34.532  1.00  0.00    -0.237 OA
ATOM     99  O   UNL A   1      41.264  26.775  36.390  1.00  0.00    -0.744 OA
ENDBRANCH  92  96
ENDBRANCH  66  89
ENDBRANCH  40  41
ENDBRANCH  32  35
ENDBRANCH  30  31
ENDBRANCH  29  30
ENDBRANCH   1  29
TORSDOF 17
ENDMDL
