MODEL 1
REMARK VINA RESULT:     -11.4      0.000      0.000
REMARK SMILES O=C(/C=C/c1ccc(O)c(O)c1)NCCCNC(=O)c1ccc(-c2c3nc(c(-c4cc(S(=O)(=O)[O-])ccc4F)c4ccc([nH]4)c(-c4cc(S(=O)(=O)[O-])ccc4F)c4nc(c(-c5cc(S(=O)(=O)[O-])ccc5F)c5ccc2[nH]5)C=C4)C=C3)cc1
REMARK SMILES IDX 15 1 14 2 13 3 1 4 2 5 3 7 4 8 5 9 6 10 12 11 7 12 10 13
REMARK SMILES IDX 8 14 11 15 9 17 16 19 17 20 18 21 19 23 20 24 21 25 82 26
REMARK SMILES IDX 22 27 81 28 23 29 24 30 25 31 75 32 26 33 80 34 74 35 76 36
REMARK SMILES IDX 27 37 79 38 73 39 72 40 28 42 60 43 40 44 59 45 41 46 44 47
REMARK SMILES IDX 58 48 77 49 42 50 43 51 57 53 78 54 45 55 29 56 30 57 38 58
REMARK SMILES IDX 31 59 37 60 39 61 36 62 32 63 33 64 34 65 35 66 61 67 62 68
REMARK SMILES IDX 70 69 63 70 69 71 71 72 68 73 64 74 65 75 66 76 67 77 46 78
REMARK SMILES IDX 47 79 55 80 48 81 54 82 56 83 53 84 49 85 50 86 51 87 52 88
REMARK H PARENT 13 6 11 16 9 18 17 22 76 41 44 52
REMARK Flexibility Score: inf
ROOT
ATOM      1  C   UNL A   1      33.596  27.572  26.561  1.00  0.00     0.042 C 
ENDROOT
BRANCH   1   2
ATOM      2  C   UNL A   1      32.451  26.895  25.817  1.00  0.00     0.118 C 
BRANCH   2   3
ATOM      3  N   UNL A   1      31.708  27.810  24.971  1.00  0.00    -0.352 N 
ATOM      4  O   UNL A   1      30.118  26.286  24.324  1.00  0.00    -0.270 OA
ATOM      5  C   UNL A   1      30.594  27.419  24.281  1.00  0.00     0.244 C 
ATOM      6  H   UNL A   1      32.018  28.741  24.889  1.00  0.00     0.163 HD
BRANCH   5   7
ATOM      7  C   UNL A   1      29.898  28.460  23.485  1.00  0.00     0.072 C 
ATOM      8  C   UNL A   1      29.884  29.782  23.715  1.00  0.00     0.014 C 
BRANCH   8   9
ATOM      9  C   UNL A   1      29.193  30.721  22.820  1.00  0.00    -0.022 A 
ATOM     10  C   UNL A   1      28.676  30.317  21.576  1.00  0.00     0.012 A 
ATOM     11  C   UNL A   1      29.020  32.049  23.229  1.00  0.00     0.058 A 
ATOM     12  C   UNL A   1      28.032  31.229  20.733  1.00  0.00     0.051 A 
ATOM     13  C   UNL A   1      28.380  32.949  22.387  1.00  0.00     0.157 A 
ATOM     14  C   UNL A   1      27.894  32.547  21.145  1.00  0.00     0.157 A 
BRANCH  13  15
ATOM     15  O   UNL A   1      28.235  34.246  22.787  1.00  0.00    -0.504 OA
ATOM     16  H   UNL A   1      28.372  34.944  22.176  1.00  0.00     0.293 HD
ENDBRANCH  13  15
BRANCH  14  17
ATOM     17  O   UNL A   1      27.287  33.490  20.362  1.00  0.00    -0.504 OA
ATOM     18  H   UNL A   1      27.534  33.581  19.463  1.00  0.00     0.293 HD
ENDBRANCH  14  17
ENDBRANCH   8   9
ENDBRANCH   5   7
ENDBRANCH   2   3
ENDBRANCH   1   2
BRANCH   1  19
ATOM     19  C   UNL A   1      34.217  28.763  25.836  1.00  0.00     0.118 C 
BRANCH  19  20
ATOM     20  N   UNL A   1      33.950  30.033  26.492  1.00  0.00    -0.352 N 
ATOM     21  C   UNL A   1      34.597  30.665  27.525  1.00  0.00     0.251 C 
ATOM     22  H   UNL A   1      33.176  30.524  26.133  1.00  0.00     0.163 HD
ATOM     23  O   UNL A   1      34.081  31.676  28.001  1.00  0.00    -0.269 OA
BRANCH  21  24
ATOM     24  C   UNL A   1      35.869  30.151  28.086  1.00  0.00     0.039 A 
ATOM     25  C   UNL A   1      37.022  30.234  27.296  1.00  0.00     0.014 A 
ATOM     26  C   UNL A   1      35.938  29.534  29.339  1.00  0.00     0.014 A 
ATOM     27  C   UNL A   1      38.240  29.738  27.773  1.00  0.00     0.010 A 
ATOM     28  C   UNL A   1      37.169  29.106  29.843  1.00  0.00     0.010 A 
ATOM     29  C   UNL A   1      38.330  29.186  29.061  1.00  0.00    -0.014 A 
BRANCH  29  30
ATOM     30  C   UNL A   1      39.624  28.658  29.576  1.00  0.00     0.031 A 
ATOM     31  C   UNL A   1      40.323  29.348  30.718  1.00  0.00     0.074 A 
ATOM     32  C   UNL A   1      40.185  27.576  29.000  1.00  0.00     0.049 A 
ATOM     33  N   UNL A   1      41.468  29.061  31.286  1.00  0.00    -0.248 NA
ATOM     34  C   UNL A   1      39.658  30.535  31.276  1.00  0.00     0.031 C 
ATOM     35  C   UNL A   1      39.627  26.840  27.863  1.00  0.00     0.029 A 
ATOM     36  N   UNL A   1      41.348  26.906  29.290  1.00  0.00    -0.354 N 
ATOM     37  C   UNL A   1      41.666  30.037  32.257  1.00  0.00     0.074 A 
ATOM     38  C   UNL A   1      40.555  30.958  32.154  1.00  0.00     0.031 C 
ATOM     39  C   UNL A   1      40.436  25.808  27.570  1.00  0.00     0.029 A 
ATOM     40  C   UNL A   1      41.585  25.827  28.469  1.00  0.00     0.049 A 
ATOM     41  H   UNL A   1      41.957  27.174  30.016  1.00  0.00     0.167 HD
ATOM     42  C   UNL A   1      42.668  30.143  33.168  1.00  0.00     0.034 A 
ATOM     43  C   UNL A   1      42.612  24.954  28.442  1.00  0.00     0.034 A 
ATOM     44  C   UNL A   1      43.764  29.210  33.269  1.00  0.00     0.049 A 
ATOM     45  C   UNL A   1      43.715  25.092  29.461  1.00  0.00     0.074 A 
ATOM     46  C   UNL A   1      44.810  29.200  34.177  1.00  0.00     0.029 A 
ATOM     47  N   UNL A   1      43.962  28.120  32.430  1.00  0.00    -0.354 N 
ATOM     48  N   UNL A   1      43.865  25.995  30.403  1.00  0.00    -0.248 NA
ATOM     49  C   UNL A   1      44.779  24.080  29.425  1.00  0.00     0.031 C 
ATOM     50  C   UNL A   1      45.667  28.143  33.852  1.00  0.00     0.029 A 
ATOM     51  C   UNL A   1      45.120  27.444  32.788  1.00  0.00     0.049 A 
ATOM     52  H   UNL A   1      43.366  27.863  31.690  1.00  0.00     0.167 HD
ATOM     53  C   UNL A   1      45.019  25.633  31.095  1.00  0.00     0.074 A 
ATOM     54  C   UNL A   1      45.515  24.426  30.470  1.00  0.00     0.031 C 
ATOM     55  C   UNL A   1      45.609  26.242  32.156  1.00  0.00     0.034 A 
BRANCH  42  56
ATOM     56  C   UNL A   1      42.629  31.328  34.106  1.00  0.00     0.023 A 
ATOM     57  C   UNL A   1      41.795  31.345  35.240  1.00  0.00     0.031 A 
ATOM     58  C   UNL A   1      43.407  32.470  33.848  1.00  0.00     0.131 A 
ATOM     59  C   UNL A   1      41.696  32.506  36.020  1.00  0.00     0.055 A 
ATOM     60  C   UNL A   1      43.369  33.592  34.680  1.00  0.00     0.041 A 
ATOM     61  F   UNL A   1      44.208  32.523  32.772  1.00  0.00    -0.206 F 
ATOM     62  C   UNL A   1      42.497  33.621  35.764  1.00  0.00     0.022 A 
BRANCH  59  63
ATOM     63  S   UNL A   1      40.394  32.594  37.280  1.00  0.00     0.124 S 
ATOM     64  O   UNL A   1      41.150  32.327  38.503  1.00  0.00    -0.237 OA
ATOM     65  O   UNL A   1      39.893  33.954  37.123  1.00  0.00    -0.237 OA
ATOM     66  O   UNL A   1      39.465  31.537  36.889  1.00  0.00    -0.744 OA
ENDBRANCH  59  63
ENDBRANCH  42  56
BRANCH  43  67
ATOM     67  C   UNL A   1      42.652  23.866  27.424  1.00  0.00     0.023 A 
ATOM     68  C   UNL A   1      42.026  22.632  27.658  1.00  0.00     0.031 A 
ATOM     69  C   UNL A   1      43.357  24.030  26.218  1.00  0.00     0.131 A 
ATOM     70  C   UNL A   1      42.159  21.591  26.726  1.00  0.00     0.055 A 
ATOM     71  C   UNL A   1      43.443  23.010  25.269  1.00  0.00     0.041 A 
ATOM     72  F   UNL A   1      43.967  25.193  25.941  1.00  0.00    -0.206 F 
ATOM     73  C   UNL A   1      42.853  21.776  25.528  1.00  0.00     0.022 A 
BRANCH  70  74
ATOM     74  S   UNL A   1      41.484  19.959  27.142  1.00  0.00     0.124 S 
ATOM     75  O   UNL A   1      40.650  19.678  25.981  1.00  0.00    -0.237 OA
ATOM     76  O   UNL A   1      42.695  19.156  27.273  1.00  0.00    -0.237 OA
ATOM     77  O   UNL A   1      40.761  20.200  28.389  1.00  0.00    -0.744 OA
ENDBRANCH  70  74
ENDBRANCH  43  67
BRANCH  55  78
ATOM     78  C   UNL A   1      46.827  25.567  32.742  1.00  0.00     0.023 A 
ATOM     79  C   UNL A   1      48.097  25.675  32.147  1.00  0.00     0.031 A 
ATOM     80  C   UNL A   1      46.706  24.783  33.903  1.00  0.00     0.131 A 
ATOM     81  C   UNL A   1      49.181  24.959  32.679  1.00  0.00     0.055 A 
ATOM     82  C   UNL A   1      47.801  24.124  34.463  1.00  0.00     0.041 A 
ATOM     83  F   UNL A   1      45.518  24.644  34.513  1.00  0.00    -0.206 F 
ATOM     84  C   UNL A   1      49.043  24.196  33.842  1.00  0.00     0.022 A 
BRANCH  81  85
ATOM     85  S   UNL A   1      50.751  24.950  31.769  1.00  0.00     0.124 S 
ATOM     86  O   UNL A   1      51.277  23.625  32.083  1.00  0.00    -0.237 OA
ATOM     87  O   UNL A   1      50.313  25.152  30.392  1.00  0.00    -0.237 OA
ATOM     88  O   UNL A   1      51.492  26.066  32.354  1.00  0.00    -0.744 OA
ENDBRANCH  81  85
ENDBRANCH  55  78
ENDBRANCH  29  30
ENDBRANCH  21  24
ENDBRANCH  19  20
ENDBRANCH   1  19
TORSDOF 16
ENDMDL
MODEL 2
REMARK VINA RESULT:     -11.2      1.428      1.811
REMARK SMILES O=C(/C=C/c1ccc(O)c(O)c1)NCCCNC(=O)c1ccc(-c2c3nc(c(-c4cc(S(=O)(=O)[O-])ccc4F)c4ccc([nH]4)c(-c4cc(S(=O)(=O)[O-])ccc4F)c4nc(c(-c5cc(S(=O)(=O)[O-])ccc5F)c5ccc2[nH]5)C=C4)C=C3)cc1
REMARK SMILES IDX 15 1 14 2 13 3 1 4 2 5 3 7 4 8 5 9 6 10 12 11 7 12 10 13
REMARK SMILES IDX 8 14 11 15 9 17 16 19 17 20 18 21 19 23 20 24 21 25 82 26
REMARK SMILES IDX 22 27 81 28 23 29 24 30 25 31 75 32 26 33 80 34 74 35 76 36
REMARK SMILES IDX 27 37 79 38 73 39 72 40 28 42 60 43 40 44 59 45 41 46 44 47
REMARK SMILES IDX 58 48 77 49 42 50 43 51 57 53 78 54 45 55 29 56 30 57 38 58
REMARK SMILES IDX 31 59 37 60 39 61 36 62 32 63 33 64 34 65 35 66 61 67 62 68
REMARK SMILES IDX 70 69 63 70 69 71 71 72 68 73 64 74 65 75 66 76 67 77 46 78
REMARK SMILES IDX 47 79 55 80 48 81 54 82 56 83 53 84 49 85 50 86 51 87 52 88
REMARK H PARENT 13 6 11 16 9 18 17 22 76 41 44 52
REMARK Flexibility Score: inf
ROOT
ATOM      1  C   UNL A   1      32.997  27.463  26.815  1.00  0.00     0.042 C 
ENDROOT
BRANCH   1   2
ATOM      2  C   UNL A   1      31.941  26.911  25.864  1.00  0.00     0.118 C 
BRANCH   2   3
ATOM      3  N   UNL A   1      31.331  27.937  25.040  1.00  0.00    -0.352 N 
ATOM      4  O   UNL A   1      31.774  26.915  23.033  1.00  0.00    -0.270 OA
ATOM      5  C   UNL A   1      31.306  27.853  23.675  1.00  0.00     0.244 C 
ATOM      6  H   UNL A   1      30.923  28.720  25.477  1.00  0.00     0.163 HD
BRANCH   5   7
ATOM      7  C   UNL A   1      30.612  28.946  22.948  1.00  0.00     0.072 C 
ATOM      8  C   UNL A   1      29.419  29.484  23.243  1.00  0.00     0.014 C 
BRANCH   8   9
ATOM      9  C   UNL A   1      28.858  30.602  22.470  1.00  0.00    -0.022 A 
ATOM     10  C   UNL A   1      28.327  30.420  21.180  1.00  0.00     0.012 A 
ATOM     11  C   UNL A   1      28.826  31.878  23.045  1.00  0.00     0.058 A 
ATOM     12  C   UNL A   1      27.808  31.499  20.456  1.00  0.00     0.051 A 
ATOM     13  C   UNL A   1      28.309  32.945  22.320  1.00  0.00     0.157 A 
ATOM     14  C   UNL A   1      27.809  32.762  21.033  1.00  0.00     0.157 A 
BRANCH  13  15
ATOM     15  O   UNL A   1      28.303  34.189  22.882  1.00  0.00    -0.504 OA
ATOM     16  H   UNL A   1      28.031  34.931  22.377  1.00  0.00     0.293 HD
ENDBRANCH  13  15
BRANCH  14  17
ATOM     17  O   UNL A   1      27.329  33.859  20.372  1.00  0.00    -0.504 OA
ATOM     18  H   UNL A   1      26.478  33.835  19.982  1.00  0.00     0.293 HD
ENDBRANCH  14  17
ENDBRANCH   8   9
ENDBRANCH   5   7
ENDBRANCH   2   3
ENDBRANCH   1   2
BRANCH   1  19
ATOM     19  C   UNL A   1      34.039  28.367  26.162  1.00  0.00     0.118 C 
BRANCH  19  20
ATOM     20  N   UNL A   1      33.933  29.756  26.580  1.00  0.00    -0.352 N 
ATOM     21  C   UNL A   1      34.730  30.510  27.404  1.00  0.00     0.251 C 
ATOM     22  H   UNL A   1      33.159  30.237  26.207  1.00  0.00     0.163 HD
ATOM     23  O   UNL A   1      34.340  31.634  27.720  1.00  0.00    -0.269 OA
BRANCH  21  24
ATOM     24  C   UNL A   1      36.019  30.001  27.931  1.00  0.00     0.039 A 
ATOM     25  C   UNL A   1      36.031  29.427  29.208  1.00  0.00     0.014 A 
ATOM     26  C   UNL A   1      37.219  30.133  27.227  1.00  0.00     0.014 A 
ATOM     27  C   UNL A   1      37.228  28.957  29.758  1.00  0.00     0.010 A 
ATOM     28  C   UNL A   1      38.400  29.598  27.747  1.00  0.00     0.010 A 
ATOM     29  C   UNL A   1      38.423  29.019  29.024  1.00  0.00    -0.014 A 
BRANCH  29  30
ATOM     30  C   UNL A   1      39.701  28.520  29.602  1.00  0.00     0.031 A 
ATOM     31  C   UNL A   1      40.352  29.251  30.746  1.00  0.00     0.074 A 
ATOM     32  C   UNL A   1      40.292  27.425  29.081  1.00  0.00     0.049 A 
ATOM     33  N   UNL A   1      41.478  28.992  31.364  1.00  0.00    -0.248 NA
ATOM     34  C   UNL A   1      39.658  30.448  31.242  1.00  0.00     0.031 C 
ATOM     35  C   UNL A   1      39.782  26.649  27.948  1.00  0.00     0.029 A 
ATOM     36  N   UNL A   1      41.449  26.776  29.433  1.00  0.00    -0.354 N 
ATOM     37  C   UNL A   1      41.633  30.000  32.311  1.00  0.00     0.074 A 
ATOM     38  C   UNL A   1      40.518  30.907  32.139  1.00  0.00     0.031 C 
ATOM     39  C   UNL A   1      40.609  25.616  27.717  1.00  0.00     0.029 A 
ATOM     40  C   UNL A   1      41.725  25.674  28.656  1.00  0.00     0.049 A 
ATOM     41  H   UNL A   1      42.029  27.071  30.172  1.00  0.00     0.167 HD
ATOM     42  C   UNL A   1      42.600  30.143  33.254  1.00  0.00     0.034 A 
ATOM     43  C   UNL A   1      42.759  24.811  28.694  1.00  0.00     0.034 A 
ATOM     44  C   UNL A   1      43.699  29.224  33.423  1.00  0.00     0.049 A 
ATOM     45  C   UNL A   1      43.824  24.990  29.747  1.00  0.00     0.074 A 
ATOM     46  C   UNL A   1      44.711  29.252  34.369  1.00  0.00     0.029 A 
ATOM     47  N   UNL A   1      43.936  28.111  32.627  1.00  0.00    -0.354 N 
ATOM     48  N   UNL A   1      43.931  25.923  30.665  1.00  0.00    -0.248 NA
ATOM     49  C   UNL A   1      44.896  23.987  29.781  1.00  0.00     0.031 C 
ATOM     50  C   UNL A   1      45.588  28.194  34.108  1.00  0.00     0.029 A 
ATOM     51  C   UNL A   1      45.086  27.458  33.047  1.00  0.00     0.049 A 
ATOM     52  H   UNL A   1      43.370  27.825  31.874  1.00  0.00     0.167 HD
ATOM     53  C   UNL A   1      45.062  25.594  31.409  1.00  0.00     0.074 A 
ATOM     54  C   UNL A   1      45.591  24.372  30.840  1.00  0.00     0.031 C 
ATOM     55  C   UNL A   1      45.608  26.241  32.471  1.00  0.00     0.034 A 
BRANCH  42  56
ATOM     56  C   UNL A   1      42.517  31.356  34.152  1.00  0.00     0.023 A 
ATOM     57  C   UNL A   1      41.676  31.383  35.281  1.00  0.00     0.031 A 
ATOM     58  C   UNL A   1      43.259  32.514  33.861  1.00  0.00     0.131 A 
ATOM     59  C   UNL A   1      41.534  32.565  36.022  1.00  0.00     0.055 A 
ATOM     60  C   UNL A   1      43.180  33.661  34.656  1.00  0.00     0.041 A 
ATOM     61  F   UNL A   1      44.064  32.558  32.788  1.00  0.00    -0.206 F 
ATOM     62  C   UNL A   1      42.300  33.697  35.734  1.00  0.00     0.022 A 
BRANCH  59  63
ATOM     63  S   UNL A   1      40.223  32.651  37.272  1.00  0.00     0.124 S 
ATOM     64  O   UNL A   1      39.359  31.543  36.869  1.00  0.00    -0.237 OA
ATOM     65  O   UNL A   1      40.960  32.466  38.517  1.00  0.00    -0.237 OA
ATOM     66  O   UNL A   1      39.649  33.980  37.078  1.00  0.00    -0.744 OA
ENDBRANCH  59  63
ENDBRANCH  42  56
BRANCH  43  67
ATOM     67  C   UNL A   1      42.846  23.692  27.711  1.00  0.00     0.023 A 
ATOM     68  C   UNL A   1      43.804  23.702  26.685  1.00  0.00     0.031 A 
ATOM     69  C   UNL A   1      41.939  22.617  27.757  1.00  0.00     0.131 A 
ATOM     70  C   UNL A   1      43.803  22.687  25.716  1.00  0.00     0.055 A 
ATOM     71  C   UNL A   1      41.976  21.582  26.822  1.00  0.00     0.041 A 
ATOM     72  F   UNL A   1      41.008  22.556  28.721  1.00  0.00    -0.206 F 
ATOM     73  C   UNL A   1      42.904  21.621  25.785  1.00  0.00     0.022 A 
BRANCH  70  74
ATOM     74  S   UNL A   1      44.942  22.826  24.311  1.00  0.00     0.124 S 
ATOM     75  O   UNL A   1      45.183  24.263  24.265  1.00  0.00    -0.237 OA
ATOM     76  O   UNL A   1      46.063  21.999  24.748  1.00  0.00    -0.237 OA
ATOM     77  O   UNL A   1      44.170  22.285  23.194  1.00  0.00    -0.744 OA
ENDBRANCH  70  74
ENDBRANCH  43  67
BRANCH  55  78
ATOM     78  C   UNL A   1      46.810  25.596  33.121  1.00  0.00     0.023 A 
ATOM     79  C   UNL A   1      48.113  25.785  32.631  1.00  0.00     0.031 A 
ATOM     80  C   UNL A   1      46.639  24.758  34.238  1.00  0.00     0.131 A 
ATOM     81  C   UNL A   1      49.187  25.095  33.215  1.00  0.00     0.055 A 
ATOM     82  C   UNL A   1      47.719  24.124  34.855  1.00  0.00     0.041 A 
ATOM     83  F   UNL A   1      45.417  24.541  34.749  1.00  0.00    -0.206 F 
ATOM     84  C   UNL A   1      49.000  24.278  34.333  1.00  0.00     0.022 A 
BRANCH  81  85
ATOM     85  S   UNL A   1      50.819  25.195  32.428  1.00  0.00     0.124 S 
ATOM     86  O   UNL A   1      50.741  26.473  31.727  1.00  0.00    -0.237 OA
ATOM     87  O   UNL A   1      51.720  25.152  33.575  1.00  0.00    -0.237 OA
ATOM     88  O   UNL A   1      50.856  24.016  31.566  1.00  0.00    -0.744 OA
ENDBRANCH  81  85
ENDBRANCH  55  78
ENDBRANCH  29  30
ENDBRANCH  21  24
ENDBRANCH  19  20
ENDBRANCH   1  19
TORSDOF 16
ENDMDL
MODEL 3
REMARK VINA RESULT:     -11.2      1.931      2.210
REMARK SMILES O=C(/C=C/c1ccc(O)c(O)c1)NCCCNC(=O)c1ccc(-c2c3nc(c(-c4cc(S(=O)(=O)[O-])ccc4F)c4ccc([nH]4)c(-c4cc(S(=O)(=O)[O-])ccc4F)c4nc(c(-c5cc(S(=O)(=O)[O-])ccc5F)c5ccc2[nH]5)C=C4)C=C3)cc1
REMARK SMILES IDX 15 1 14 2 13 3 1 4 2 5 3 7 4 8 5 9 6 10 12 11 7 12 10 13
REMARK SMILES IDX 8 14 11 15 9 17 16 19 17 20 18 21 19 23 20 24 21 25 82 26
REMARK SMILES IDX 22 27 81 28 23 29 24 30 25 31 75 32 26 33 80 34 74 35 76 36
REMARK SMILES IDX 27 37 79 38 73 39 72 40 28 42 60 43 40 44 59 45 41 46 44 47
REMARK SMILES IDX 58 48 77 49 42 50 43 51 57 53 78 54 45 55 29 56 30 57 38 58
REMARK SMILES IDX 31 59 37 60 39 61 36 62 32 63 33 64 34 65 35 66 61 67 62 68
REMARK SMILES IDX 70 69 63 70 69 71 71 72 68 73 64 74 65 75 66 76 67 77 46 78
REMARK SMILES IDX 47 79 55 80 48 81 54 82 56 83 53 84 49 85 50 86 51 87 52 88
REMARK H PARENT 13 6 11 16 9 18 17 22 76 41 44 52
REMARK Flexibility Score: inf
ROOT
ATOM      1  C   UNL A   1      33.404  27.811  27.042  1.00  0.00     0.042 C 
ENDROOT
BRANCH   1   2
ATOM      2  C   UNL A   1      32.144  27.205  26.435  1.00  0.00     0.118 C 
BRANCH   2   3
ATOM      3  N   UNL A   1      31.463  28.108  25.527  1.00  0.00    -0.352 N 
ATOM      4  O   UNL A   1      32.132  27.049  23.604  1.00  0.00    -0.270 OA
ATOM      5  C   UNL A   1      31.523  27.955  24.170  1.00  0.00     0.244 C 
ATOM      6  H   UNL A   1      30.943  28.857  25.900  1.00  0.00     0.163 HD
BRANCH   5   7
ATOM      7  C   UNL A   1      30.746  28.919  23.350  1.00  0.00     0.072 C 
ATOM      8  C   UNL A   1      29.830  29.797  23.785  1.00  0.00     0.014 C 
BRANCH   8   9
ATOM      9  C   UNL A   1      29.161  30.738  22.875  1.00  0.00    -0.022 A 
ATOM     10  C   UNL A   1      28.645  30.329  21.632  1.00  0.00     0.012 A 
ATOM     11  C   UNL A   1      29.009  32.074  23.268  1.00  0.00     0.058 A 
ATOM     12  C   UNL A   1      28.022  31.243  20.775  1.00  0.00     0.051 A 
ATOM     13  C   UNL A   1      28.390  32.975  22.411  1.00  0.00     0.157 A 
ATOM     14  C   UNL A   1      27.904  32.568  21.171  1.00  0.00     0.157 A 
BRANCH  13  15
ATOM     15  O   UNL A   1      28.266  34.279  22.796  1.00  0.00    -0.504 OA
ATOM     16  H   UNL A   1      28.825  34.933  22.424  1.00  0.00     0.293 HD
ENDBRANCH  13  15
BRANCH  14  17
ATOM     17  O   UNL A   1      27.319  33.513  20.374  1.00  0.00    -0.504 OA
ATOM     18  H   UNL A   1      27.788  33.863  19.642  1.00  0.00     0.293 HD
ENDBRANCH  14  17
ENDBRANCH   8   9
ENDBRANCH   5   7
ENDBRANCH   2   3
ENDBRANCH   1   2
BRANCH   1  19
ATOM     19  C   UNL A   1      34.091  28.864  26.176  1.00  0.00     0.118 C 
BRANCH  19  20
ATOM     20  N   UNL A   1      33.954  30.213  26.701  1.00  0.00    -0.352 N 
ATOM     21  C   UNL A   1      34.690  30.892  27.639  1.00  0.00     0.251 C 
ATOM     22  H   UNL A   1      33.207  30.727  26.316  1.00  0.00     0.163 HD
ATOM     23  O   UNL A   1      34.277  31.987  28.020  1.00  0.00    -0.269 OA
BRANCH  21  24
ATOM     24  C   UNL A   1      35.939  30.334  28.210  1.00  0.00     0.039 A 
ATOM     25  C   UNL A   1      37.120  30.460  27.469  1.00  0.00     0.014 A 
ATOM     26  C   UNL A   1      35.961  29.637  29.422  1.00  0.00     0.014 A 
ATOM     27  C   UNL A   1      38.318  29.926  27.955  1.00  0.00     0.010 A 
ATOM     28  C   UNL A   1      37.171  29.168  29.940  1.00  0.00     0.010 A 
ATOM     29  C   UNL A   1      38.360  29.292  29.207  1.00  0.00    -0.014 A 
BRANCH  29  30
ATOM     30  C   UNL A   1      39.631  28.722  29.732  1.00  0.00     0.031 A 
ATOM     31  C   UNL A   1      40.267  29.301  30.968  1.00  0.00     0.074 A 
ATOM     32  C   UNL A   1      40.230  27.703  29.083  1.00  0.00     0.049 A 
ATOM     33  N   UNL A   1      41.386  28.966  31.561  1.00  0.00    -0.248 NA
ATOM     34  C   UNL A   1      39.566  30.426  31.604  1.00  0.00     0.031 C 
ATOM     35  C   UNL A   1      39.736  27.077  27.854  1.00  0.00     0.029 A 
ATOM     36  N   UNL A   1      41.384  27.014  29.364  1.00  0.00    -0.354 N 
ATOM     37  C   UNL A   1      41.528  29.845  32.631  1.00  0.00     0.074 A 
ATOM     38  C   UNL A   1      40.414  30.767  32.562  1.00  0.00     0.031 C 
ATOM     39  C   UNL A   1      40.567  26.082  27.503  1.00  0.00     0.029 A 
ATOM     40  C   UNL A   1      41.671  26.020  28.456  1.00  0.00     0.049 A 
ATOM     41  H   UNL A   1      41.954  27.213  30.141  1.00  0.00     0.167 HD
ATOM     42  C   UNL A   1      42.483  29.868  33.596  1.00  0.00     0.034 A 
ATOM     43  C   UNL A   1      42.706  25.159  28.396  1.00  0.00     0.034 A 
ATOM     44  C   UNL A   1      43.582  28.934  33.660  1.00  0.00     0.049 A 
ATOM     45  C   UNL A   1      43.758  25.203  29.477  1.00  0.00     0.074 A 
ATOM     46  C   UNL A   1      44.582  28.841  34.614  1.00  0.00     0.029 A 
ATOM     47  N   UNL A   1      43.830  27.931  32.732  1.00  0.00    -0.354 N 
ATOM     48  N   UNL A   1      43.853  26.011  30.507  1.00  0.00    -0.248 NA
ATOM     49  C   UNL A   1      44.831  24.204  29.396  1.00  0.00     0.031 C 
ATOM     50  C   UNL A   1      45.464  27.825  34.231  1.00  0.00     0.029 A 
ATOM     51  C   UNL A   1      44.976  27.230  33.080  1.00  0.00     0.049 A 
ATOM     52  H   UNL A   1      43.274  27.744  31.942  1.00  0.00     0.167 HD
ATOM     53  C   UNL A   1      44.974  25.590  31.218  1.00  0.00     0.074 A 
ATOM     54  C   UNL A   1      45.512  24.451  30.504  1.00  0.00     0.031 C 
ATOM     55  C   UNL A   1      45.507  26.096  32.360  1.00  0.00     0.034 A 
BRANCH  42  56
ATOM     56  C   UNL A   1      42.387  30.956  34.640  1.00  0.00     0.023 A 
ATOM     57  C   UNL A   1      42.961  32.225  34.439  1.00  0.00     0.031 A 
ATOM     58  C   UNL A   1      41.746  30.714  35.868  1.00  0.00     0.131 A 
ATOM     59  C   UNL A   1      42.956  33.170  35.476  1.00  0.00     0.055 A 
ATOM     60  C   UNL A   1      41.668  31.691  36.864  1.00  0.00     0.041 A 
ATOM     61  F   UNL A   1      41.196  29.519  36.128  1.00  0.00    -0.206 F 
ATOM     62  C   UNL A   1      42.291  32.922  36.678  1.00  0.00     0.022 A 
BRANCH  59  63
ATOM     63  S   UNL A   1      43.964  34.667  35.288  1.00  0.00     0.124 S 
ATOM     64  O   UNL A   1      43.375  35.270  34.093  1.00  0.00    -0.237 OA
ATOM     65  O   UNL A   1      43.722  35.370  36.542  1.00  0.00    -0.237 OA
ATOM     66  O   UNL A   1      45.319  34.150  35.112  1.00  0.00    -0.744 OA
ENDBRANCH  59  63
ENDBRANCH  42  56
BRANCH  43  67
ATOM     67  C   UNL A   1      42.806  24.175  27.281  1.00  0.00     0.023 A 
ATOM     68  C   UNL A   1      42.084  22.971  27.310  1.00  0.00     0.031 A 
ATOM     69  C   UNL A   1      43.662  24.404  26.188  1.00  0.00     0.131 A 
ATOM     70  C   UNL A   1      42.269  22.018  26.296  1.00  0.00     0.055 A 
ATOM     71  C   UNL A   1      43.803  23.476  25.154  1.00  0.00     0.041 A 
ATOM     72  F   UNL A   1      44.370  25.541  26.108  1.00  0.00    -0.206 F 
ATOM     73  C   UNL A   1      43.113  22.268  25.212  1.00  0.00     0.022 A 
BRANCH  70  74
ATOM     74  S   UNL A   1      41.452  20.407  26.459  1.00  0.00     0.124 S 
ATOM     75  O   UNL A   1      40.061  20.750  26.191  1.00  0.00    -0.237 OA
ATOM     76  O   UNL A   1      42.129  19.620  25.433  1.00  0.00    -0.237 OA
ATOM     77  O   UNL A   1      41.746  20.015  27.836  1.00  0.00    -0.744 OA
ENDBRANCH  70  74
ENDBRANCH  43  67
BRANCH  55  78
ATOM     78  C   UNL A   1      46.701  25.374  32.937  1.00  0.00     0.023 A 
ATOM     79  C   UNL A   1      46.563  24.339  33.878  1.00  0.00     0.031 A 
ATOM     80  C   UNL A   1      48.002  25.750  32.555  1.00  0.00     0.131 A 
ATOM     81  C   UNL A   1      47.705  23.758  34.451  1.00  0.00     0.055 A 
ATOM     82  C   UNL A   1      49.133  25.126  33.082  1.00  0.00     0.041 A 
ATOM     83  F   UNL A   1      48.194  26.733  31.661  1.00  0.00    -0.206 F 
ATOM     84  C   UNL A   1      48.989  24.135  34.048  1.00  0.00     0.022 A 
BRANCH  81  85
ATOM     85  S   UNL A   1      47.493  22.577  35.812  1.00  0.00     0.124 S 
ATOM     86  O   UNL A   1      47.798  21.306  35.162  1.00  0.00    -0.237 OA
ATOM     87  O   UNL A   1      48.473  23.045  36.787  1.00  0.00    -0.237 OA
ATOM     88  O   UNL A   1      46.096  22.752  36.204  1.00  0.00    -0.744 OA
ENDBRANCH  81  85
ENDBRANCH  55  78
ENDBRANCH  29  30
ENDBRANCH  21  24
ENDBRANCH  19  20
ENDBRANCH   1  19
TORSDOF 16
ENDMDL
