MODEL 1
REMARK VINA RESULT:     -10.8      0.000      0.000
REMARK SMILES CC[NH2+]C(C)(C)C(=O)N[C@@](C)(C(=O)NCCCNC(=O)c1ccc(-c2c3nc(c(-c4cc(S(=O)(=O)[O-])ccc4F)c4ccc([nH]4)c(-c4cc(S(=O)(=O)[O-])ccc4F)c4nc(c(-c5cc(S(=O)(=O)[O-])ccc5F)c5ccc2[nH]5)C=C4)C=C3)cc1)C(F)(F)F
REMARK SMILES IDX 15 1 14 2 12 3 13 4 10 6 11 7 9 8 7 9 8 10 4 12 5 13 6 14
REMARK SMILES IDX 3 15 2 18 1 19 84 20 85 21 86 22 87 23 16 24 17 25 18 26
REMARK SMILES IDX 19 27 20 29 21 30 22 31 83 32 23 33 82 34 24 35 25 36 26 37
REMARK SMILES IDX 76 38 27 39 81 40 75 41 77 42 28 43 80 44 74 45 73 46 29 48
REMARK SMILES IDX 61 49 41 50 60 51 42 52 45 53 59 54 78 55 43 56 44 57 58 59
REMARK SMILES IDX 79 60 46 61 30 62 31 63 39 64 32 65 38 66 40 67 37 68 33 69
REMARK SMILES IDX 34 70 35 71 36 72 62 73 63 74 71 75 64 76 70 77 72 78 69 79
REMARK SMILES IDX 65 80 66 81 67 82 68 83 47 84 48 85 56 86 49 87 55 88 57 89
REMARK SMILES IDX 54 90 50 91 51 92 52 93 53 94
REMARK H PARENT 14 5 9 11 3 16 3 17 18 28 77 47 45 58
REMARK Flexibility Score: inf
ROOT
ATOM      1  C   UNL A   1      31.507  30.311  25.807  1.00  0.00     0.117 C 
ENDROOT
BRANCH   1   2
ATOM      2  N   UNL A   1      30.858  30.221  24.508  1.00  0.00    -0.354 N 
ATOM      3  C   UNL A   1      30.795  29.262  23.543  1.00  0.00     0.254 C 
ATOM      4  O   UNL A   1      30.128  29.574  22.552  1.00  0.00    -0.272 OA
ATOM      5  H   UNL A   1      30.352  31.033  24.276  1.00  0.00     0.163 HD
BRANCH   3   6
ATOM      6  C   UNL A   1      31.535  27.908  23.640  1.00  0.00     0.212 C 
ATOM      7  C   UNL A   1      31.089  26.917  22.541  1.00  0.00     0.056 C 
BRANCH   6   8
ATOM      8  N   UNL A   1      31.113  27.322  24.984  1.00  0.00    -0.329 N 
ATOM      9  C   UNL A   1      31.412  26.352  25.893  1.00  0.00     0.281 C 
ATOM     10  O   UNL A   1      30.801  26.482  26.961  1.00  0.00    -0.268 OA
ATOM     11  H   UNL A   1      30.340  27.833  25.316  1.00  0.00     0.165 HD
BRANCH   9  12
ATOM     12  C   UNL A   1      32.384  25.175  25.629  1.00  0.00     0.169 C 
ATOM     13  C   UNL A   1      32.151  24.083  26.679  1.00  0.00     0.090 C 
ATOM     14  C   UNL A   1      33.807  25.774  25.640  1.00  0.00     0.090 C 
BRANCH  12  15
ATOM     15  N   UNL A   1      32.310  24.599  24.253  1.00  0.00    -0.334 N 
ATOM     16  H   UNL A   1      31.650  23.822  24.288  1.00  0.00     0.347 HD
ATOM     17  H   UNL A   1      32.046  25.393  23.669  1.00  0.00     0.347 HD
BRANCH  15  18
ATOM     18  C   UNL A   1      33.533  24.097  23.633  1.00  0.00     0.257 C 
ATOM     19  C   UNL A   1      33.328  22.622  23.291  1.00  0.00     0.071 C 
ENDBRANCH  15  18
ENDBRANCH  12  15
ENDBRANCH   9  12
ENDBRANCH   6   8
BRANCH   6  20
ATOM     20  C   UNL A   1      33.011  28.241  23.246  1.00  0.00     0.420 C 
ATOM     21  F   UNL A   1      33.720  27.243  22.699  1.00  0.00    -0.168 F 
ATOM     22  F   UNL A   1      33.073  29.283  22.380  1.00  0.00    -0.168 F 
ATOM     23  F   UNL A   1      33.715  28.663  24.335  1.00  0.00    -0.168 F 
ENDBRANCH   6  20
ENDBRANCH   3   6
ENDBRANCH   1   2
BRANCH   1  24
ATOM     24  C   UNL A   1      31.395  31.699  26.416  1.00  0.00     0.042 C 
BRANCH  24  25
ATOM     25  C   UNL A   1      32.667  32.194  27.086  1.00  0.00     0.118 C 
BRANCH  25  26
ATOM     26  N   UNL A   1      32.597  33.602  27.457  1.00  0.00    -0.352 N 
ATOM     27  C   UNL A   1      33.288  34.290  28.425  1.00  0.00     0.251 C 
ATOM     28  H   UNL A   1      31.958  34.140  26.935  1.00  0.00     0.163 HD
ATOM     29  O   UNL A   1      32.934  35.430  28.721  1.00  0.00    -0.269 OA
BRANCH  27  30
ATOM     30  C   UNL A   1      34.428  33.652  29.118  1.00  0.00     0.039 A 
ATOM     31  C   UNL A   1      34.177  32.734  30.141  1.00  0.00     0.014 A 
ATOM     32  C   UNL A   1      35.742  33.954  28.756  1.00  0.00     0.014 A 
ATOM     33  C   UNL A   1      35.245  32.066  30.746  1.00  0.00     0.010 A 
ATOM     34  C   UNL A   1      36.794  33.216  29.287  1.00  0.00     0.010 A 
ATOM     35  C   UNL A   1      36.559  32.269  30.294  1.00  0.00    -0.014 A 
BRANCH  35  36
ATOM     36  C   UNL A   1      37.709  31.528  30.876  1.00  0.00     0.031 A 
ATOM     37  C   UNL A   1      38.183  31.858  32.267  1.00  0.00     0.074 A 
ATOM     38  C   UNL A   1      38.367  30.615  30.134  1.00  0.00     0.049 A 
ATOM     39  N   UNL A   1      39.229  31.414  32.914  1.00  0.00    -0.248 NA
ATOM     40  C   UNL A   1      37.392  32.846  33.015  1.00  0.00     0.031 C 
ATOM     41  C   UNL A   1      38.023  30.232  28.763  1.00  0.00     0.029 A 
ATOM     42  N   UNL A   1      39.470  29.850  30.423  1.00  0.00    -0.354 N 
ATOM     43  C   UNL A   1      39.230  32.078  34.136  1.00  0.00     0.074 A 
ATOM     44  C   UNL A   1      38.122  33.008  34.107  1.00  0.00     0.031 C 
ATOM     45  C   UNL A   1      38.879  29.289  28.341  1.00  0.00     0.029 A 
ATOM     46  C   UNL A   1      39.869  29.038  29.385  1.00  0.00     0.049 A 
ATOM     47  H   UNL A   1      39.933  29.880  31.290  1.00  0.00     0.167 HD
ATOM     48  C   UNL A   1      40.062  31.911  35.193  1.00  0.00     0.034 A 
ATOM     49  C   UNL A   1      40.920  28.201  29.280  1.00  0.00     0.034 A 
ATOM     50  C   UNL A   1      41.156  30.971  35.207  1.00  0.00     0.049 A 
ATOM     51  C   UNL A   1      41.859  28.063  30.453  1.00  0.00     0.074 A 
ATOM     52  C   UNL A   1      42.033  30.686  36.238  1.00  0.00     0.029 A 
ATOM     53  N   UNL A   1      41.530  30.168  34.137  1.00  0.00    -0.354 N 
ATOM     54  N   UNL A   1      41.822  28.670  31.619  1.00  0.00    -0.248 NA
ATOM     55  C   UNL A   1      42.974  27.119  30.302  1.00  0.00     0.031 C 
ATOM     56  C   UNL A   1      42.982  29.773  35.768  1.00  0.00     0.029 A 
ATOM     57  C   UNL A   1      42.644  29.413  34.473  1.00  0.00     0.049 A 
ATOM     58  H   UNL A   1      41.071  30.139  33.266  1.00  0.00     0.167 HD
ATOM     59  C   UNL A   1      42.887  28.150  32.350  1.00  0.00     0.074 A 
ATOM     60  C   UNL A   1      43.538  27.174  31.500  1.00  0.00     0.031 C 
ATOM     61  C   UNL A   1      43.285  28.446  33.614  1.00  0.00     0.034 A 
BRANCH  48  62
ATOM     62  C   UNL A   1      39.830  32.782  36.405  1.00  0.00     0.023 A 
ATOM     63  C   UNL A   1      39.036  32.353  37.484  1.00  0.00     0.031 A 
ATOM     64  C   UNL A   1      40.385  34.072  36.474  1.00  0.00     0.131 A 
ATOM     65  C   UNL A   1      38.750  33.232  38.539  1.00  0.00     0.055 A 
ATOM     66  C   UNL A   1      40.172  34.909  37.572  1.00  0.00     0.041 A 
ATOM     67  F   UNL A   1      41.133  34.550  35.466  1.00  0.00    -0.206 F 
ATOM     68  C   UNL A   1      39.336  34.498  38.605  1.00  0.00     0.022 A 
BRANCH  65  69
ATOM     69  S   UNL A   1      37.475  32.756  39.738  1.00  0.00     0.124 S 
ATOM     70  O   UNL A   1      37.537  33.863  40.689  1.00  0.00    -0.237 OA
ATOM     71  O   UNL A   1      36.275  32.688  38.913  1.00  0.00    -0.237 OA
ATOM     72  O   UNL A   1      37.952  31.474  40.253  1.00  0.00    -0.744 OA
ENDBRANCH  65  69
ENDBRANCH  48  62
BRANCH  49  73
ATOM     73  C   UNL A   1      41.159  27.439  28.020  1.00  0.00     0.023 A 
ATOM     74  C   UNL A   1      40.899  26.062  27.947  1.00  0.00     0.031 A 
ATOM     75  C   UNL A   1      41.701  28.066  26.883  1.00  0.00     0.131 A 
ATOM     76  C   UNL A   1      41.227  25.346  26.785  1.00  0.00     0.055 A 
ATOM     77  C   UNL A   1      41.968  27.362  25.708  1.00  0.00     0.041 A 
ATOM     78  F   UNL A   1      41.969  29.382  26.895  1.00  0.00    -0.206 F 
ATOM     79  C   UNL A   1      41.745  25.989  25.659  1.00  0.00     0.022 A 
BRANCH  76  80
ATOM     80  S   UNL A   1      41.061  23.540  26.802  1.00  0.00     0.124 S 
ATOM     81  O   UNL A   1      39.646  23.370  26.495  1.00  0.00    -0.237 OA
ATOM     82  O   UNL A   1      41.998  23.140  25.757  1.00  0.00    -0.237 OA
ATOM     83  O   UNL A   1      41.454  23.175  28.162  1.00  0.00    -0.744 OA
ENDBRANCH  76  80
ENDBRANCH  49  73
BRANCH  61  84
ATOM     84  C   UNL A   1      44.446  27.658  34.175  1.00  0.00     0.023 A 
ATOM     85  C   UNL A   1      44.283  26.371  34.716  1.00  0.00     0.031 A 
ATOM     86  C   UNL A   1      45.740  28.211  34.165  1.00  0.00     0.131 A 
ATOM     87  C   UNL A   1      45.384  25.704  35.275  1.00  0.00     0.055 A 
ATOM     88  C   UNL A   1      46.843  27.515  34.659  1.00  0.00     0.041 A 
ATOM     89  F   UNL A   1      45.955  29.438  33.664  1.00  0.00    -0.206 F 
ATOM     90  C   UNL A   1      46.666  26.258  35.231  1.00  0.00     0.022 A 
BRANCH  87  91
ATOM     91  S   UNL A   1      45.104  24.139  36.149  1.00  0.00     0.124 S 
ATOM     92  O   UNL A   1      43.680  23.914  35.918  1.00  0.00    -0.237 OA
ATOM     93  O   UNL A   1      46.013  23.229  35.459  1.00  0.00    -0.237 OA
ATOM     94  O   UNL A   1      45.466  24.447  37.531  1.00  0.00    -0.744 OA
ENDBRANCH  87  91
ENDBRANCH  61  84
ENDBRANCH  35  36
ENDBRANCH  27  30
ENDBRANCH  25  26
ENDBRANCH  24  25
ENDBRANCH   1  24
TORSDOF 18
ENDMDL
MODEL 2
REMARK VINA RESULT:     -10.7      1.477      7.801
REMARK SMILES CC[NH2+]C(C)(C)C(=O)N[C@@](C)(C(=O)NCCCNC(=O)c1ccc(-c2c3nc(c(-c4cc(S(=O)(=O)[O-])ccc4F)c4ccc([nH]4)c(-c4cc(S(=O)(=O)[O-])ccc4F)c4nc(c(-c5cc(S(=O)(=O)[O-])ccc5F)c5ccc2[nH]5)C=C4)C=C3)cc1)C(F)(F)F
REMARK SMILES IDX 15 1 14 2 12 3 13 4 10 6 11 7 9 8 7 9 8 10 4 12 5 13 6 14
REMARK SMILES IDX 3 15 2 18 1 19 84 20 85 21 86 22 87 23 16 24 17 25 18 26
REMARK SMILES IDX 19 27 20 29 21 30 22 31 83 32 23 33 82 34 24 35 25 36 26 37
REMARK SMILES IDX 76 38 27 39 81 40 75 41 77 42 28 43 80 44 74 45 73 46 29 48
REMARK SMILES IDX 61 49 41 50 60 51 42 52 45 53 59 54 78 55 43 56 44 57 58 59
REMARK SMILES IDX 79 60 46 61 30 62 31 63 39 64 32 65 38 66 40 67 37 68 33 69
REMARK SMILES IDX 34 70 35 71 36 72 62 73 63 74 71 75 64 76 70 77 72 78 69 79
REMARK SMILES IDX 65 80 66 81 67 82 68 83 47 84 48 85 56 86 49 87 55 88 57 89
REMARK SMILES IDX 54 90 50 91 51 92 52 93 53 94
REMARK H PARENT 14 5 9 11 3 16 3 17 18 28 77 47 45 58
REMARK Flexibility Score: inf
ROOT
ATOM      1  C   UNL A   1      32.077  29.962  25.870  1.00  0.00     0.117 C 
ENDROOT
BRANCH   1   2
ATOM      2  N   UNL A   1      31.324  30.012  24.627  1.00  0.00    -0.354 N 
ATOM      3  C   UNL A   1      31.082  29.119  23.627  1.00  0.00     0.254 C 
ATOM      4  O   UNL A   1      30.377  29.554  22.710  1.00  0.00    -0.272 OA
ATOM      5  H   UNL A   1      30.892  30.884  24.476  1.00  0.00     0.163 HD
BRANCH   3   6
ATOM      6  C   UNL A   1      31.676  27.692  23.600  1.00  0.00     0.212 C 
ATOM      7  C   UNL A   1      31.065  26.826  22.474  1.00  0.00     0.056 C 
BRANCH   6   8
ATOM      8  N   UNL A   1      31.267  27.067  24.930  1.00  0.00    -0.329 N 
ATOM      9  C   UNL A   1      31.539  26.039  25.781  1.00  0.00     0.281 C 
ATOM     10  O   UNL A   1      30.975  26.153  26.878  1.00  0.00    -0.268 OA
ATOM     11  H   UNL A   1      30.538  27.607  25.315  1.00  0.00     0.165 HD
BRANCH   9  12
ATOM     12  C   UNL A   1      32.428  24.821  25.427  1.00  0.00     0.169 C 
ATOM     13  C   UNL A   1      32.113  23.670  26.388  1.00  0.00     0.090 C 
ATOM     14  C   UNL A   1      33.890  25.317  25.487  1.00  0.00     0.090 C 
BRANCH  12  15
ATOM     15  N   UNL A   1      32.324  24.361  24.010  1.00  0.00    -0.334 N 
ATOM     16  H   UNL A   1      31.331  24.329  23.778  1.00  0.00     0.347 HD
ATOM     17  H   UNL A   1      32.889  25.034  23.491  1.00  0.00     0.347 HD
BRANCH  15  18
ATOM     18  C   UNL A   1      32.893  23.068  23.646  1.00  0.00     0.257 C 
ATOM     19  C   UNL A   1      33.435  23.165  22.220  1.00  0.00     0.071 C 
ENDBRANCH  15  18
ENDBRANCH  12  15
ENDBRANCH   9  12
ENDBRANCH   6   8
BRANCH   6  20
ATOM     20  C   UNL A   1      33.155  27.894  23.136  1.00  0.00     0.420 C 
ATOM     21  F   UNL A   1      33.399  28.978  22.385  1.00  0.00    -0.168 F 
ATOM     22  F   UNL A   1      34.006  27.954  24.192  1.00  0.00    -0.168 F 
ATOM     23  F   UNL A   1      33.583  26.820  22.415  1.00  0.00    -0.168 F 
ENDBRANCH   6  20
ENDBRANCH   3   6
ENDBRANCH   1   2
BRANCH   1  24
ATOM     24  C   UNL A   1      31.790  31.152  26.771  1.00  0.00     0.042 C 
BRANCH  24  25
ATOM     25  C   UNL A   1      33.031  31.878  27.266  1.00  0.00     0.118 C 
BRANCH  25  26
ATOM     26  N   UNL A   1      32.791  33.293  27.521  1.00  0.00    -0.352 N 
ATOM     27  C   UNL A   1      33.346  34.120  28.467  1.00  0.00     0.251 C 
ATOM     28  H   UNL A   1      32.132  33.719  26.927  1.00  0.00     0.163 HD
ATOM     29  O   UNL A   1      32.857  35.233  28.655  1.00  0.00    -0.269 OA
BRANCH  27  30
ATOM     30  C   UNL A   1      34.502  33.663  29.267  1.00  0.00     0.039 A 
ATOM     31  C   UNL A   1      34.300  32.730  30.287  1.00  0.00     0.014 A 
ATOM     32  C   UNL A   1      35.786  34.147  29.008  1.00  0.00     0.014 A 
ATOM     33  C   UNL A   1      35.398  32.230  30.993  1.00  0.00     0.010 A 
ATOM     34  C   UNL A   1      36.884  33.575  29.640  1.00  0.00     0.010 A 
ATOM     35  C   UNL A   1      36.703  32.616  30.647  1.00  0.00    -0.014 A 
BRANCH  35  36
ATOM     36  C   UNL A   1      37.893  32.056  31.338  1.00  0.00     0.031 A 
ATOM     37  C   UNL A   1      38.693  30.962  30.680  1.00  0.00     0.074 A 
ATOM     38  C   UNL A   1      38.212  32.475  32.579  1.00  0.00     0.049 A 
ATOM     39  N   UNL A   1      39.690  30.262  31.156  1.00  0.00    -0.248 NA
ATOM     40  C   UNL A   1      38.292  30.583  29.317  1.00  0.00     0.031 C 
ATOM     41  C   UNL A   1      37.494  33.505  33.334  1.00  0.00     0.029 A 
ATOM     42  N   UNL A   1      39.214  32.081  33.430  1.00  0.00    -0.354 N 
ATOM     43  C   UNL A   1      40.025  29.353  30.158  1.00  0.00     0.074 A 
ATOM     44  C   UNL A   1      39.076  29.543  29.083  1.00  0.00     0.031 C 
ATOM     45  C   UNL A   1      38.094  33.679  34.522  1.00  0.00     0.029 A 
ATOM     46  C   UNL A   1      39.203  32.736  34.641  1.00  0.00     0.049 A 
ATOM     47  H   UNL A   1      39.879  31.394  33.197  1.00  0.00     0.167 HD
ATOM     48  C   UNL A   1      41.045  28.460  30.131  1.00  0.00     0.034 A 
ATOM     49  C   UNL A   1      39.984  32.582  35.728  1.00  0.00     0.034 A 
ATOM     50  C   UNL A   1      41.989  28.292  31.209  1.00  0.00     0.049 A 
ATOM     51  C   UNL A   1      41.086  31.552  35.693  1.00  0.00     0.074 A 
ATOM     52  C   UNL A   1      43.085  27.451  31.270  1.00  0.00     0.029 A 
ATOM     53  N   UNL A   1      41.943  28.971  32.420  1.00  0.00    -0.354 N 
ATOM     54  N   UNL A   1      41.416  30.726  34.725  1.00  0.00    -0.248 NA
ATOM     55  C   UNL A   1      41.928  31.440  36.891  1.00  0.00     0.031 C 
ATOM     56  C   UNL A   1      43.655  27.563  32.542  1.00  0.00     0.029 A 
ATOM     57  C   UNL A   1      42.972  28.544  33.245  1.00  0.00     0.049 A 
ATOM     58  H   UNL A   1      41.276  29.656  32.658  1.00  0.00     0.167 HD
ATOM     59  C   UNL A   1      42.527  30.026  35.186  1.00  0.00     0.074 A 
ATOM     60  C   UNL A   1      42.817  30.534  36.511  1.00  0.00     0.031 C 
ATOM     61  C   UNL A   1      43.248  29.057  34.567  1.00  0.00     0.034 A 
BRANCH  48  62
ATOM     62  C   UNL A   1      41.170  27.585  28.905  1.00  0.00     0.023 A 
ATOM     63  C   UNL A   1      42.191  27.780  27.957  1.00  0.00     0.031 A 
ATOM     64  C   UNL A   1      40.241  26.557  28.664  1.00  0.00     0.131 A 
ATOM     65  C   UNL A   1      42.206  27.023  26.777  1.00  0.00     0.055 A 
ATOM     66  C   UNL A   1      40.317  25.745  27.530  1.00  0.00     0.041 A 
ATOM     67  F   UNL A   1      39.229  26.336  29.519  1.00  0.00    -0.206 F 
ATOM     68  C   UNL A   1      41.294  25.986  26.570  1.00  0.00     0.022 A 
BRANCH  65  69
ATOM     69  S   UNL A   1      43.336  27.520  25.448  1.00  0.00     0.124 S 
ATOM     70  O   UNL A   1      44.022  28.659  26.054  1.00  0.00    -0.237 OA
ATOM     71  O   UNL A   1      44.140  26.320  25.251  1.00  0.00    -0.237 OA
ATOM     72  O   UNL A   1      42.439  27.858  24.344  1.00  0.00    -0.744 OA
ENDBRANCH  65  69
ENDBRANCH  48  62
BRANCH  49  73
ATOM     73  C   UNL A   1      39.752  33.406  36.951  1.00  0.00     0.023 A 
ATOM     74  C   UNL A   1      39.036  32.892  38.044  1.00  0.00     0.031 A 
ATOM     75  C   UNL A   1      40.198  34.737  37.026  1.00  0.00     0.131 A 
ATOM     76  C   UNL A   1      38.741  33.717  39.141  1.00  0.00     0.055 A 
ATOM     77  C   UNL A   1      39.957  35.536  38.145  1.00  0.00     0.041 A 
ATOM     78  F   UNL A   1      40.889  35.281  36.011  1.00  0.00    -0.206 F 
ATOM     79  C   UNL A   1      39.211  35.031  39.206  1.00  0.00     0.022 A 
BRANCH  76  80
ATOM     80  S   UNL A   1      37.647  33.079  40.439  1.00  0.00     0.124 S 
ATOM     81  O   UNL A   1      37.642  34.184  41.390  1.00  0.00    -0.237 OA
ATOM     82  O   UNL A   1      36.406  32.856  39.706  1.00  0.00    -0.237 OA
ATOM     83  O   UNL A   1      38.328  31.868  40.892  1.00  0.00    -0.744 OA
ENDBRANCH  76  80
ENDBRANCH  49  73
BRANCH  61  84
ATOM     84  C   UNL A   1      44.461  28.526  35.295  1.00  0.00     0.023 A 
ATOM     85  C   UNL A   1      44.402  27.383  36.111  1.00  0.00     0.031 A 
ATOM     86  C   UNL A   1      45.700  29.181  35.165  1.00  0.00     0.131 A 
ATOM     87  C   UNL A   1      45.545  26.964  36.809  1.00  0.00     0.055 A 
ATOM     88  C   UNL A   1      46.849  28.719  35.807  1.00  0.00     0.041 A 
ATOM     89  F   UNL A   1      45.815  30.280  34.402  1.00  0.00    -0.206 F 
ATOM     90  C   UNL A   1      46.772  27.611  36.646  1.00  0.00     0.022 A 
BRANCH  87  91
ATOM     91  S   UNL A   1      45.386  25.615  38.011  1.00  0.00     0.124 S 
ATOM     92  O   UNL A   1      45.943  26.218  39.219  1.00  0.00    -0.237 OA
ATOM     93  O   UNL A   1      43.947  25.375  38.024  1.00  0.00    -0.237 OA
ATOM     94  O   UNL A   1      46.188  24.540  37.430  1.00  0.00    -0.744 OA
ENDBRANCH  87  91
ENDBRANCH  61  84
ENDBRANCH  35  36
ENDBRANCH  27  30
ENDBRANCH  25  26
ENDBRANCH  24  25
ENDBRANCH   1  24
TORSDOF 18
ENDMDL
MODEL 3
REMARK VINA RESULT:     -10.7      5.289      8.356
REMARK SMILES CC[NH2+]C(C)(C)C(=O)N[C@@](C)(C(=O)NCCCNC(=O)c1ccc(-c2c3nc(c(-c4cc(S(=O)(=O)[O-])ccc4F)c4ccc([nH]4)c(-c4cc(S(=O)(=O)[O-])ccc4F)c4nc(c(-c5cc(S(=O)(=O)[O-])ccc5F)c5ccc2[nH]5)C=C4)C=C3)cc1)C(F)(F)F
REMARK SMILES IDX 15 1 14 2 12 3 13 4 10 6 11 7 9 8 7 9 8 10 4 12 5 13 6 14
REMARK SMILES IDX 3 15 2 18 1 19 84 20 85 21 86 22 87 23 16 24 17 25 18 26
REMARK SMILES IDX 19 27 20 29 21 30 22 31 83 32 23 33 82 34 24 35 25 36 26 37
REMARK SMILES IDX 76 38 27 39 81 40 75 41 77 42 28 43 80 44 74 45 73 46 29 48
REMARK SMILES IDX 61 49 41 50 60 51 42 52 45 53 59 54 78 55 43 56 44 57 58 59
REMARK SMILES IDX 79 60 46 61 30 62 31 63 39 64 32 65 38 66 40 67 37 68 33 69
REMARK SMILES IDX 34 70 35 71 36 72 62 73 63 74 71 75 64 76 70 77 72 78 69 79
REMARK SMILES IDX 65 80 66 81 67 82 68 83 47 84 48 85 56 86 49 87 55 88 57 89
REMARK SMILES IDX 54 90 50 91 51 92 52 93 53 94
REMARK H PARENT 14 5 9 11 3 16 3 17 18 28 77 47 45 58
REMARK Flexibility Score: inf
ROOT
ATOM      1  C   UNL A   1      33.385  22.076  25.638  1.00  0.00     0.117 C 
ENDROOT
BRANCH   1   2
ATOM      2  N   UNL A   1      32.230  22.520  26.402  1.00  0.00    -0.354 N 
ATOM      3  C   UNL A   1      31.545  23.693  26.491  1.00  0.00     0.254 C 
ATOM      4  O   UNL A   1      30.594  23.675  27.280  1.00  0.00    -0.272 OA
ATOM      5  H   UNL A   1      31.861  21.815  26.983  1.00  0.00     0.163 HD
BRANCH   3   6
ATOM      6  C   UNL A   1      31.941  24.970  25.714  1.00  0.00     0.212 C 
ATOM      7  C   UNL A   1      33.416  24.939  25.251  1.00  0.00     0.056 C 
BRANCH   6   8
ATOM      8  N   UNL A   1      31.802  26.107  26.722  1.00  0.00    -0.329 N 
ATOM      9  C   UNL A   1      31.707  27.461  26.833  1.00  0.00     0.281 C 
ATOM     10  O   UNL A   1      31.402  27.836  27.972  1.00  0.00    -0.268 OA
ATOM     11  H   UNL A   1      31.769  25.717  27.626  1.00  0.00     0.165 HD
BRANCH   9  12
ATOM     12  C   UNL A   1      31.983  28.454  25.676  1.00  0.00     0.169 C 
ATOM     13  C   UNL A   1      33.384  28.196  25.113  1.00  0.00     0.090 C 
ATOM     14  C   UNL A   1      31.783  29.870  26.261  1.00  0.00     0.090 C 
BRANCH  12  15
ATOM     15  N   UNL A   1      30.969  28.436  24.580  1.00  0.00    -0.334 N 
ATOM     16  H   UNL A   1      30.835  27.461  24.312  1.00  0.00     0.347 HD
ATOM     17  H   UNL A   1      30.161  28.911  24.985  1.00  0.00     0.347 HD
BRANCH  15  18
ATOM     18  C   UNL A   1      31.241  29.184  23.357  1.00  0.00     0.257 C 
ATOM     19  C   UNL A   1      30.064  28.988  22.401  1.00  0.00     0.071 C 
ENDBRANCH  15  18
ENDBRANCH  12  15
ENDBRANCH   9  12
ENDBRANCH   6   8
BRANCH   6  20
ATOM     20  C   UNL A   1      31.141  24.875  24.374  1.00  0.00     0.420 C 
ATOM     21  F   UNL A   1      31.683  25.492  23.314  1.00  0.00    -0.168 F 
ATOM     22  F   UNL A   1      30.932  23.585  24.008  1.00  0.00    -0.168 F 
ATOM     23  F   UNL A   1      29.889  25.392  24.525  1.00  0.00    -0.168 F 
ENDBRANCH   6  20
ENDBRANCH   3   6
ENDBRANCH   1   2
BRANCH   1  24
ATOM     24  C   UNL A   1      34.598  21.821  26.517  1.00  0.00     0.042 C 
BRANCH  24  25
ATOM     25  C   UNL A   1      35.913  22.309  25.929  1.00  0.00     0.118 C 
BRANCH  25  26
ATOM     26  N   UNL A   1      36.871  21.230  25.720  1.00  0.00    -0.352 N 
ATOM     27  C   UNL A   1      38.244  21.258  25.751  1.00  0.00     0.251 C 
ATOM     28  H   UNL A   1      36.474  20.350  25.525  1.00  0.00     0.163 HD
ATOM     29  O   UNL A   1      38.875  20.284  25.342  1.00  0.00    -0.269 OA
BRANCH  27  30
ATOM     30  C   UNL A   1      38.951  22.457  26.249  1.00  0.00     0.039 A 
ATOM     31  C   UNL A   1      40.128  22.299  26.984  1.00  0.00     0.014 A 
ATOM     32  C   UNL A   1      38.458  23.737  25.985  1.00  0.00     0.014 A 
ATOM     33  C   UNL A   1      40.847  23.428  27.388  1.00  0.00     0.010 A 
ATOM     34  C   UNL A   1      39.225  24.853  26.298  1.00  0.00     0.010 A 
ATOM     35  C   UNL A   1      40.424  24.713  27.011  1.00  0.00    -0.014 A 
BRANCH  35  36
ATOM     36  C   UNL A   1      41.200  25.928  27.373  1.00  0.00     0.031 A 
ATOM     37  C   UNL A   1      40.555  27.006  28.205  1.00  0.00     0.074 A 
ATOM     38  C   UNL A   1      42.450  26.097  26.898  1.00  0.00     0.049 A 
ATOM     39  N   UNL A   1      41.013  28.185  28.535  1.00  0.00    -0.248 NA
ATOM     40  C   UNL A   1      39.199  26.729  28.704  1.00  0.00     0.031 C 
ATOM     41  C   UNL A   1      43.171  25.139  26.055  1.00  0.00     0.029 A 
ATOM     42  N   UNL A   1      43.334  27.136  27.046  1.00  0.00    -0.354 N 
ATOM     43  C   UNL A   1      39.998  28.796  29.264  1.00  0.00     0.074 A 
ATOM     44  C   UNL A   1      38.875  27.883  29.264  1.00  0.00     0.031 C 
ATOM     45  C   UNL A   1      44.392  25.624  25.784  1.00  0.00     0.029 A 
ATOM     46  C   UNL A   1      44.526  26.950  26.381  1.00  0.00     0.049 A 
ATOM     47  H   UNL A   1      43.135  27.940  27.576  1.00  0.00     0.167 HD
ATOM     48  C   UNL A   1      40.010  29.995  29.896  1.00  0.00     0.034 A 
ATOM     49  C   UNL A   1      45.594  27.760  26.253  1.00  0.00     0.034 A 
ATOM     50  C   UNL A   1      41.143  30.888  29.894  1.00  0.00     0.049 A 
ATOM     51  C   UNL A   1      45.569  29.109  26.928  1.00  0.00     0.074 A 
ATOM     52  C   UNL A   1      41.281  32.105  30.536  1.00  0.00     0.029 A 
ATOM     53  N   UNL A   1      42.330  30.665  29.208  1.00  0.00    -0.354 N 
ATOM     54  N   UNL A   1      44.616  29.656  27.649  1.00  0.00    -0.248 NA
ATOM     55  C   UNL A   1      46.767  29.946  26.783  1.00  0.00     0.031 C 
ATOM     56  C   UNL A   1      42.516  32.653  30.177  1.00  0.00     0.029 A 
ATOM     57  C   UNL A   1      43.191  31.737  29.386  1.00  0.00     0.049 A 
ATOM     58  H   UNL A   1      42.531  29.864  28.672  1.00  0.00     0.167 HD
ATOM     59  C   UNL A   1      45.118  30.883  28.074  1.00  0.00     0.074 A 
ATOM     60  C   UNL A   1      46.460  30.990  27.539  1.00  0.00     0.031 C 
ATOM     61  C   UNL A   1      44.526  31.833  28.843  1.00  0.00     0.034 A 
BRANCH  48  62
ATOM     62  C   UNL A   1      38.749  30.413  30.617  1.00  0.00     0.023 A 
ATOM     63  C   UNL A   1      37.789  31.242  30.010  1.00  0.00     0.031 A 
ATOM     64  C   UNL A   1      38.515  30.002  31.941  1.00  0.00     0.131 A 
ATOM     65  C   UNL A   1      36.689  31.701  30.750  1.00  0.00     0.055 A 
ATOM     66  C   UNL A   1      37.370  30.387  32.642  1.00  0.00     0.041 A 
ATOM     67  F   UNL A   1      39.405  29.229  32.585  1.00  0.00    -0.206 F 
ATOM     68  C   UNL A   1      36.457  31.256  32.052  1.00  0.00     0.022 A 
BRANCH  65  69
ATOM     69  S   UNL A   1      35.657  33.011  30.038  1.00  0.00     0.124 S 
ATOM     70  O   UNL A   1      34.507  32.250  29.555  1.00  0.00    -0.237 OA
ATOM     71  O   UNL A   1      35.413  33.879  31.183  1.00  0.00    -0.237 OA
ATOM     72  O   UNL A   1      36.502  33.582  28.990  1.00  0.00    -0.744 OA
ENDBRANCH  65  69
ENDBRANCH  48  62
BRANCH  49  73
ATOM     73  C   UNL A   1      46.774  27.337  25.444  1.00  0.00     0.023 A 
ATOM     74  C   UNL A   1      46.970  27.823  24.142  1.00  0.00     0.031 A 
ATOM     75  C   UNL A   1      47.697  26.399  25.940  1.00  0.00     0.131 A 
ATOM     76  C   UNL A   1      48.030  27.333  23.362  1.00  0.00     0.055 A 
ATOM     77  C   UNL A   1      48.786  25.961  25.184  1.00  0.00     0.041 A 
ATOM     78  F   UNL A   1      47.560  25.901  27.180  1.00  0.00    -0.206 F 
ATOM     79  C   UNL A   1      48.949  26.418  23.879  1.00  0.00     0.022 A 
BRANCH  76  80
ATOM     80  S   UNL A   1      48.132  27.836  21.622  1.00  0.00     0.124 S 
ATOM     81  O   UNL A   1      48.499  26.582  20.973  1.00  0.00    -0.237 OA
ATOM     82  O   UNL A   1      46.781  28.320  21.367  1.00  0.00    -0.237 OA
ATOM     83  O   UNL A   1      49.171  28.864  21.626  1.00  0.00    -0.744 OA
ENDBRANCH  76  80
ENDBRANCH  49  73
BRANCH  61  84
ATOM     84  C   UNL A   1      45.354  33.044  29.204  1.00  0.00     0.023 A 
ATOM     85  C   UNL A   1      45.306  34.232  28.454  1.00  0.00     0.031 A 
ATOM     86  C   UNL A   1      46.206  33.004  30.323  1.00  0.00     0.131 A 
ATOM     87  C   UNL A   1      46.137  35.310  28.799  1.00  0.00     0.055 A 
ATOM     88  C   UNL A   1      46.978  34.103  30.702  1.00  0.00     0.041 A 
ATOM     89  F   UNL A   1      46.295  31.895  31.075  1.00  0.00    -0.206 F 
ATOM     90  C   UNL A   1      46.956  35.261  29.929  1.00  0.00     0.022 A 
BRANCH  87  91
ATOM     91  S   UNL A   1      46.205  36.746  27.693  1.00  0.00     0.124 S 
ATOM     92  O   UNL A   1      46.171  37.858  28.639  1.00  0.00    -0.237 OA
ATOM     93  O   UNL A   1      47.469  36.543  26.993  1.00  0.00    -0.237 OA
ATOM     94  O   UNL A   1      45.009  36.601  26.866  1.00  0.00    -0.744 OA
ENDBRANCH  87  91
ENDBRANCH  61  84
ENDBRANCH  35  36
ENDBRANCH  27  30
ENDBRANCH  25  26
ENDBRANCH  24  25
ENDBRANCH   1  24
TORSDOF 18
ENDMDL
