MODEL 1
REMARK VINA RESULT:     -13.3      0.000      0.000
REMARK SMILES C[C@]12CCC[C@](C)(C(=O)NCCCNC(=O)c3ccc(-c4c5nc(c(-c6cc(S(=O)(=O)[O-])ccc6F)c6ccc([nH]6)c(-c6cc(S(=O)(=O)[O-])ccc6F)c6nc(c(-c7cc(S(=O)(=O)[O-])ccc7F)c7ccc4[nH]7)C=C6)C=C5)cc3)[C@@H]1CC[C@]13C=C(CO)[C@H](CC[C@H]12)C3
REMARK SMILES IDX 12 1 11 2 10 3 8 4 9 5 6 7 1 8 2 9 3 10 80 11 91 12 4 13
REMARK SMILES IDX 81 14 83 15 90 16 5 17 7 18 82 19 84 20 92 21 89 22 85 23
REMARK SMILES IDX 88 24 86 25 87 26 13 28 14 29 15 30 16 32 17 33 18 34 79 35
REMARK SMILES IDX 19 36 78 37 20 38 21 39 22 40 72 41 23 42 77 43 71 44 73 45
REMARK SMILES IDX 24 46 76 47 70 48 69 49 25 51 57 52 37 53 56 54 38 55 41 56
REMARK SMILES IDX 55 57 74 58 39 59 40 60 54 62 75 63 42 64 26 65 27 66 35 67
REMARK SMILES IDX 28 68 34 69 36 70 33 71 29 72 30 73 31 74 32 75 58 76 59 77
REMARK SMILES IDX 67 78 60 79 66 80 68 81 65 82 61 83 62 84 63 85 64 86 43 87
REMARK SMILES IDX 44 88 52 89 45 90 51 91 53 92 50 93 46 94 47 95 48 96 49 97
REMARK H PARENT 10 6 87 27 14 31 73 50 41 61
REMARK Flexibility Score: inf
ROOT
ATOM      1  C   UNL A   1      31.404  30.652  25.716  1.00  0.00     0.042 C 
ENDROOT
BRANCH   1   2
ATOM      2  C   UNL A   1      31.927  29.435  24.982  1.00  0.00     0.117 C 
BRANCH   2   3
ATOM      3  N   UNL A   1      31.957  28.296  25.885  1.00  0.00    -0.356 N 
ATOM      4  C   UNL A   1      31.489  27.037  25.910  1.00  0.00     0.226 C 
ATOM      5  O   UNL A   1      31.573  26.517  27.034  1.00  0.00    -0.274 OA
ATOM      6  H   UNL A   1      32.461  28.504  26.706  1.00  0.00     0.163 HD
BRANCH   4   7
ATOM      7  C   UNL A   1      30.986  26.199  24.709  1.00  0.00     0.050 C 
ATOM      8  C   UNL A   1      34.035  26.199  24.901  1.00  0.00     0.012 C 
ATOM      9  C   UNL A   1      33.276  25.173  23.981  1.00  0.00    -0.025 C 
ATOM     10  C   UNL A   1      33.107  25.783  22.574  1.00  0.00     0.007 C 
ATOM     11  C   UNL A   1      31.845  24.862  24.538  1.00  0.00     0.010 C 
ATOM     12  C   UNL A   1      34.224  23.946  23.929  1.00  0.00     0.005 C 
ATOM     13  C   UNL A   1      32.216  27.018  22.540  1.00  0.00     0.002 C 
ATOM     14  C   UNL A   1      31.853  23.890  25.744  1.00  0.00     0.006 C 
ATOM     15  C   UNL A   1      34.141  22.941  25.132  1.00  0.00    -0.008 C 
ATOM     16  C   UNL A   1      34.758  23.238  22.689  1.00  0.00     0.006 C 
ATOM     17  C   UNL A   1      30.905  26.870  23.316  1.00  0.00     0.017 C 
ATOM     18  C   UNL A   1      29.520  25.892  25.119  1.00  0.00     0.022 C 
ATOM     19  C   UNL A   1      32.701  22.629  25.511  1.00  0.00     0.012 C 
ATOM     20  C   UNL A   1      35.039  23.542  26.174  1.00  0.00    -0.018 C 
ATOM     21  C   UNL A   1      35.013  21.678  24.887  1.00  0.00     0.019 C 
ATOM     22  C   UNL A   1      36.236  22.843  23.092  1.00  0.00     0.008 C 
ATOM     23  C   UNL A   1      36.315  23.367  25.766  1.00  0.00    -0.045 C 
ATOM     24  C   UNL A   1      36.363  22.354  24.592  1.00  0.00     0.018 C 
BRANCH  23  25
ATOM     25  C   UNL A   1      37.483  24.052  26.387  1.00  0.00     0.187 C 
BRANCH  25  26
ATOM     26  O   UNL A   1      38.571  24.107  25.465  1.00  0.00    -0.392 OA
ATOM     27  H   UNL A   1      39.168  24.832  25.712  1.00  0.00     0.211 HD
ENDBRANCH  25  26
ENDBRANCH  23  25
ENDBRANCH   4   7
ENDBRANCH   2   3
ENDBRANCH   1   2
BRANCH   1  28
ATOM     28  C   UNL A   1      32.313  31.065  26.863  1.00  0.00     0.118 C 
BRANCH  28  29
ATOM     29  N   UNL A   1      32.399  32.512  27.016  1.00  0.00    -0.352 N 
ATOM     30  C   UNL A   1      33.364  33.254  27.666  1.00  0.00     0.251 C 
ATOM     31  H   UNL A   1      31.672  33.029  26.600  1.00  0.00     0.163 HD
ATOM     32  O   UNL A   1      33.178  34.434  27.915  1.00  0.00    -0.269 OA
BRANCH  30  33
ATOM     33  C   UNL A   1      34.605  32.568  28.082  1.00  0.00     0.039 A 
ATOM     34  C   UNL A   1      35.812  33.268  28.098  1.00  0.00     0.014 A 
ATOM     35  C   UNL A   1      34.544  31.251  28.539  1.00  0.00     0.014 A 
ATOM     36  C   UNL A   1      36.940  32.665  28.659  1.00  0.00     0.010 A 
ATOM     37  C   UNL A   1      35.620  30.718  29.229  1.00  0.00     0.010 A 
ATOM     38  C   UNL A   1      36.840  31.404  29.273  1.00  0.00    -0.014 A 
BRANCH  38  39
ATOM     39  C   UNL A   1      38.005  30.746  29.918  1.00  0.00     0.031 A 
ATOM     40  C   UNL A   1      38.364  31.116  31.334  1.00  0.00     0.074 A 
ATOM     41  C   UNL A   1      38.768  29.880  29.222  1.00  0.00     0.049 A 
ATOM     42  N   UNL A   1      39.396  30.752  32.050  1.00  0.00    -0.248 NA
ATOM     43  C   UNL A   1      37.466  32.061  32.019  1.00  0.00     0.031 C 
ATOM     44  C   UNL A   1      38.546  29.481  27.828  1.00  0.00     0.029 A 
ATOM     45  N   UNL A   1      39.889  29.180  29.587  1.00  0.00    -0.354 N 
ATOM     46  C   UNL A   1      39.275  31.435  33.257  1.00  0.00     0.074 A 
ATOM     47  C   UNL A   1      38.129  32.306  33.137  1.00  0.00     0.031 C 
ATOM     48  C   UNL A   1      39.471  28.573  27.478  1.00  0.00     0.029 A 
ATOM     49  C   UNL A   1      40.386  28.366  28.595  1.00  0.00     0.049 A 
ATOM     50  H   UNL A   1      40.301  29.251  30.479  1.00  0.00     0.167 HD
ATOM     51  C   UNL A   1      40.023  31.315  34.380  1.00  0.00     0.034 A 
ATOM     52  C   UNL A   1      41.462  27.555  28.587  1.00  0.00     0.034 A 
ATOM     53  C   UNL A   1      41.148  30.423  34.489  1.00  0.00     0.049 A 
ATOM     54  C   UNL A   1      42.304  27.464  29.838  1.00  0.00     0.074 A 
ATOM     55  C   UNL A   1      41.960  30.188  35.584  1.00  0.00     0.029 A 
ATOM     56  N   UNL A   1      41.621  29.614  33.462  1.00  0.00    -0.354 N 
ATOM     57  N   UNL A   1      42.151  28.086  30.986  1.00  0.00    -0.248 NA
ATOM     58  C   UNL A   1      43.455  26.553  29.797  1.00  0.00     0.031 C 
ATOM     59  C   UNL A   1      42.962  29.291  35.200  1.00  0.00     0.029 A 
ATOM     60  C   UNL A   1      42.726  28.899  33.891  1.00  0.00     0.049 A 
ATOM     61  H   UNL A   1      41.227  29.559  32.561  1.00  0.00     0.167 HD
ATOM     62  C   UNL A   1      43.163  27.606  31.814  1.00  0.00     0.074 A 
ATOM     63  C   UNL A   1      43.907  26.636  31.038  1.00  0.00     0.031 C 
ATOM     64  C   UNL A   1      43.451  27.933  33.100  1.00  0.00     0.034 A 
BRANCH  51  65
ATOM     65  C   UNL A   1      39.643  32.175  35.562  1.00  0.00     0.023 A 
ATOM     66  C   UNL A   1      38.829  31.684  36.599  1.00  0.00     0.031 A 
ATOM     67  C   UNL A   1      40.065  33.514  35.639  1.00  0.00     0.131 A 
ATOM     68  C   UNL A   1      38.394  32.542  37.618  1.00  0.00     0.055 A 
ATOM     69  C   UNL A   1      39.703  34.339  36.706  1.00  0.00     0.041 A 
ATOM     70  F   UNL A   1      40.822  34.050  34.669  1.00  0.00    -0.206 F 
ATOM     71  C   UNL A   1      38.849  33.860  37.695  1.00  0.00     0.022 A 
BRANCH  68  72
ATOM     72  S   UNL A   1      37.105  31.955  38.750  1.00  0.00     0.124 S 
ATOM     73  O   UNL A   1      37.704  32.240  40.052  1.00  0.00    -0.237 OA
ATOM     74  O   UNL A   1      35.959  32.777  38.381  1.00  0.00    -0.237 OA
ATOM     75  O   UNL A   1      36.985  30.534  38.425  1.00  0.00    -0.744 OA
ENDBRANCH  68  72
ENDBRANCH  51  65
BRANCH  52  76
ATOM     76  C   UNL A   1      41.814  26.758  27.375  1.00  0.00     0.023 A 
ATOM     77  C   UNL A   1      41.619  25.368  27.346  1.00  0.00     0.031 A 
ATOM     78  C   UNL A   1      42.409  27.361  26.252  1.00  0.00     0.131 A 
ATOM     79  C   UNL A   1      42.071  24.618  26.248  1.00  0.00     0.055 A 
ATOM     80  C   UNL A   1      42.797  26.618  25.134  1.00  0.00     0.041 A 
ATOM     81  F   UNL A   1      42.617  28.687  26.221  1.00  0.00    -0.206 F 
ATOM     82  C   UNL A   1      42.646  25.235  25.136  1.00  0.00     0.022 A 
BRANCH  79  83
ATOM     83  S   UNL A   1      42.000  22.808  26.347  1.00  0.00     0.124 S 
ATOM     84  O   UNL A   1      42.685  22.419  25.119  1.00  0.00    -0.237 OA
ATOM     85  O   UNL A   1      42.713  22.545  27.591  1.00  0.00    -0.237 OA
ATOM     86  O   UNL A   1      40.566  22.525  26.378  1.00  0.00    -0.744 OA
ENDBRANCH  79  83
ENDBRANCH  52  76
BRANCH  64  87
ATOM     87  C   UNL A   1      44.582  27.185  33.763  1.00  0.00     0.023 A 
ATOM     88  C   UNL A   1      44.359  26.034  34.537  1.00  0.00     0.031 A 
ATOM     89  C   UNL A   1      45.905  27.641  33.618  1.00  0.00     0.131 A 
ATOM     90  C   UNL A   1      45.435  25.413  35.186  1.00  0.00     0.055 A 
ATOM     91  C   UNL A   1      46.979  26.978  34.210  1.00  0.00     0.041 A 
ATOM     92  F   UNL A   1      46.176  28.738  32.892  1.00  0.00    -0.206 F 
ATOM     93  C   UNL A   1      46.746  25.865  35.012  1.00  0.00     0.022 A 
BRANCH  90  94
ATOM     94  S   UNL A   1      45.087  24.064  36.347  1.00  0.00     0.124 S 
ATOM     95  O   UNL A   1      46.411  23.786  36.895  1.00  0.00    -0.237 OA
ATOM     96  O   UNL A   1      44.135  24.680  37.266  1.00  0.00    -0.237 OA
ATOM     97  O   UNL A   1      44.536  23.012  35.496  1.00  0.00    -0.744 OA
ENDBRANCH  90  94
ENDBRANCH  64  87
ENDBRANCH  38  39
ENDBRANCH  30  33
ENDBRANCH  28  29
ENDBRANCH   1  28
TORSDOF 15
ENDMDL
MODEL 2
REMARK VINA RESULT:     -13.1      4.878     10.186
REMARK SMILES C[C@]12CCC[C@](C)(C(=O)NCCCNC(=O)c3ccc(-c4c5nc(c(-c6cc(S(=O)(=O)[O-])ccc6F)c6ccc([nH]6)c(-c6cc(S(=O)(=O)[O-])ccc6F)c6nc(c(-c7cc(S(=O)(=O)[O-])ccc7F)c7ccc4[nH]7)C=C6)C=C5)cc3)[C@@H]1CC[C@]13C=C(CO)[C@H](CC[C@H]12)C3
REMARK SMILES IDX 12 1 11 2 10 3 8 4 9 5 6 7 1 8 2 9 3 10 80 11 91 12 4 13
REMARK SMILES IDX 81 14 83 15 90 16 5 17 7 18 82 19 84 20 92 21 89 22 85 23
REMARK SMILES IDX 88 24 86 25 87 26 13 28 14 29 15 30 16 32 17 33 18 34 79 35
REMARK SMILES IDX 19 36 78 37 20 38 21 39 22 40 72 41 23 42 77 43 71 44 73 45
REMARK SMILES IDX 24 46 76 47 70 48 69 49 25 51 57 52 37 53 56 54 38 55 41 56
REMARK SMILES IDX 55 57 74 58 39 59 40 60 54 62 75 63 42 64 26 65 27 66 35 67
REMARK SMILES IDX 28 68 34 69 36 70 33 71 29 72 30 73 31 74 32 75 58 76 59 77
REMARK SMILES IDX 67 78 60 79 66 80 68 81 65 82 61 83 62 84 63 85 64 86 43 87
REMARK SMILES IDX 44 88 52 89 45 90 51 91 53 92 50 93 46 94 47 95 48 96 49 97
REMARK H PARENT 10 6 87 27 14 31 73 50 41 61
REMARK Flexibility Score: inf
ROOT
ATOM      1  C   UNL A   1      36.236  21.423  25.798  1.00  0.00     0.042 C 
ENDROOT
BRANCH   1   2
ATOM      2  C   UNL A   1      35.358  21.396  24.565  1.00  0.00     0.117 C 
BRANCH   2   3
ATOM      3  N   UNL A   1      35.309  22.722  23.971  1.00  0.00    -0.356 N 
ATOM      4  C   UNL A   1      34.386  23.529  23.422  1.00  0.00     0.226 C 
ATOM      5  O   UNL A   1      34.888  24.494  22.825  1.00  0.00    -0.274 OA
ATOM      6  H   UNL A   1      36.197  23.147  23.972  1.00  0.00     0.163 HD
BRANCH   4   7
ATOM      7  C   UNL A   1      32.847  23.420  23.555  1.00  0.00     0.050 C 
ATOM      8  C   UNL A   1      34.056  25.185  25.735  1.00  0.00     0.012 C 
ATOM      9  C   UNL A   1      32.508  25.180  25.457  1.00  0.00    -0.025 C 
ATOM     10  C   UNL A   1      31.838  24.105  26.337  1.00  0.00     0.007 C 
ATOM     11  C   UNL A   1      32.202  24.825  23.961  1.00  0.00     0.010 C 
ATOM     12  C   UNL A   1      32.047  26.597  25.886  1.00  0.00     0.005 C 
ATOM     13  C   UNL A   1      32.264  22.680  26.004  1.00  0.00     0.002 C 
ATOM     14  C   UNL A   1      32.449  26.004  22.988  1.00  0.00     0.006 C 
ATOM     15  C   UNL A   1      32.239  27.748  24.838  1.00  0.00    -0.008 C 
ATOM     16  C   UNL A   1      30.926  26.952  26.857  1.00  0.00     0.006 C 
ATOM     17  C   UNL A   1      32.255  22.354  24.509  1.00  0.00     0.017 C 
ATOM     18  C   UNL A   1      32.428  22.988  22.123  1.00  0.00     0.022 C 
ATOM     19  C   UNL A   1      31.805  27.323  23.443  1.00  0.00     0.012 C 
ATOM     20  C   UNL A   1      33.659  28.192  25.038  1.00  0.00    -0.018 C 
ATOM     21  C   UNL A   1      31.593  29.078  25.318  1.00  0.00     0.019 C 
ATOM     22  C   UNL A   1      31.485  28.218  27.626  1.00  0.00     0.008 C 
ATOM     23  C   UNL A   1      33.714  28.877  26.201  1.00  0.00    -0.045 C 
ATOM     24  C   UNL A   1      32.280  29.215  26.688  1.00  0.00     0.018 C 
BRANCH  23  25
ATOM     25  C   UNL A   1      34.986  29.251  26.882  1.00  0.00     0.187 C 
BRANCH  25  26
ATOM     26  O   UNL A   1      34.787  29.328  28.293  1.00  0.00    -0.392 OA
ATOM     27  H   UNL A   1      34.801  30.257  28.572  1.00  0.00     0.211 HD
ENDBRANCH  25  26
ENDBRANCH  23  25
ENDBRANCH   4   7
ENDBRANCH   2   3
ENDBRANCH   1   2
BRANCH   1  28
ATOM     28  C   UNL A   1      37.655  21.873  25.483  1.00  0.00     0.118 C 
BRANCH  28  29
ATOM     29  N   UNL A   1      38.657  20.903  25.907  1.00  0.00    -0.352 N 
ATOM     30  C   UNL A   1      39.882  21.132  26.498  1.00  0.00     0.251 C 
ATOM     31  H   UNL A   1      38.429  19.958  25.751  1.00  0.00     0.163 HD
ATOM     32  O   UNL A   1      40.711  20.240  26.577  1.00  0.00    -0.269 OA
BRANCH  30  33
ATOM     33  C   UNL A   1      40.170  22.495  26.994  1.00  0.00     0.039 A 
ATOM     34  C   UNL A   1      41.083  22.675  28.034  1.00  0.00     0.014 A 
ATOM     35  C   UNL A   1      39.594  23.595  26.358  1.00  0.00     0.014 A 
ATOM     36  C   UNL A   1      41.479  23.970  28.373  1.00  0.00     0.010 A 
ATOM     37  C   UNL A   1      40.103  24.861  26.593  1.00  0.00     0.010 A 
ATOM     38  C   UNL A   1      41.029  25.070  27.622  1.00  0.00    -0.014 A 
BRANCH  38  39
ATOM     39  C   UNL A   1      41.459  26.460  27.923  1.00  0.00     0.031 A 
ATOM     40  C   UNL A   1      42.854  26.892  27.550  1.00  0.00     0.074 A 
ATOM     41  C   UNL A   1      40.635  27.300  28.580  1.00  0.00     0.049 A 
ATOM     42  N   UNL A   1      43.474  28.013  27.813  1.00  0.00    -0.248 NA
ATOM     43  C   UNL A   1      43.679  25.911  26.823  1.00  0.00     0.031 C 
ATOM     44  C   UNL A   1      39.278  26.977  29.034  1.00  0.00     0.029 A 
ATOM     45  N   UNL A   1      40.815  28.597  28.985  1.00  0.00    -0.354 N 
ATOM     46  C   UNL A   1      44.758  27.862  27.299  1.00  0.00     0.074 A 
ATOM     47  C   UNL A   1      44.858  26.509  26.801  1.00  0.00     0.031 C 
ATOM     48  C   UNL A   1      38.738  28.063  29.611  1.00  0.00     0.029 A 
ATOM     49  C   UNL A   1      39.722  29.140  29.621  1.00  0.00     0.049 A 
ATOM     50  H   UNL A   1      41.651  29.097  28.835  1.00  0.00     0.167 HD
ATOM     51  C   UNL A   1      45.752  28.779  27.211  1.00  0.00     0.034 A 
ATOM     52  C   UNL A   1      39.541  30.363  30.158  1.00  0.00     0.034 A 
ATOM     53  C   UNL A   1      45.626  30.130  27.692  1.00  0.00     0.049 A 
ATOM     54  C   UNL A   1      40.674  31.358  30.080  1.00  0.00     0.074 A 
ATOM     55  C   UNL A   1      46.547  31.159  27.627  1.00  0.00     0.029 A 
ATOM     56  N   UNL A   1      44.502  30.642  28.330  1.00  0.00    -0.354 N 
ATOM     57  N   UNL A   1      41.869  31.212  29.553  1.00  0.00    -0.248 NA
ATOM     58  C   UNL A   1      40.430  32.686  30.657  1.00  0.00     0.031 C 
ATOM     59  C   UNL A   1      46.009  32.270  28.283  1.00  0.00     0.029 A 
ATOM     60  C   UNL A   1      44.718  31.964  28.683  1.00  0.00     0.049 A 
ATOM     61  H   UNL A   1      43.674  30.139  28.505  1.00  0.00     0.167 HD
ATOM     62  C   UNL A   1      42.501  32.445  29.699  1.00  0.00     0.074 A 
ATOM     63  C   UNL A   1      41.550  33.322  30.349  1.00  0.00     0.031 C 
ATOM     64  C   UNL A   1      43.751  32.821  29.328  1.00  0.00     0.034 A 
BRANCH  51  65
ATOM     65  C   UNL A   1      47.049  28.337  26.576  1.00  0.00     0.023 A 
ATOM     66  C   UNL A   1      47.211  28.301  25.179  1.00  0.00     0.031 A 
ATOM     67  C   UNL A   1      48.127  27.909  27.372  1.00  0.00     0.131 A 
ATOM     68  C   UNL A   1      48.382  27.770  24.621  1.00  0.00     0.055 A 
ATOM     69  C   UNL A   1      49.326  27.468  26.810  1.00  0.00     0.041 A 
ATOM     70  F   UNL A   1      48.026  27.895  28.710  1.00  0.00    -0.206 F 
ATOM     71  C   UNL A   1      49.454  27.380  25.426  1.00  0.00     0.022 A 
BRANCH  68  72
ATOM     72  S   UNL A   1      48.422  27.455  22.835  1.00  0.00     0.124 S 
ATOM     73  O   UNL A   1      49.731  27.991  22.470  1.00  0.00    -0.237 OA
ATOM     74  O   UNL A   1      48.284  26.005  22.766  1.00  0.00    -0.237 OA
ATOM     75  O   UNL A   1      47.280  28.216  22.328  1.00  0.00    -0.744 OA
ENDBRANCH  68  72
ENDBRANCH  51  65
BRANCH  52  76
ATOM     76  C   UNL A   1      38.249  30.731  30.810  1.00  0.00     0.023 A 
ATOM     77  C   UNL A   1      37.253  31.416  30.097  1.00  0.00     0.031 A 
ATOM     78  C   UNL A   1      38.015  30.463  32.170  1.00  0.00     0.131 A 
ATOM     79  C   UNL A   1      36.098  31.864  30.757  1.00  0.00     0.055 A 
ATOM     80  C   UNL A   1      36.835  30.854  32.808  1.00  0.00     0.041 A 
ATOM     81  F   UNL A   1      38.930  29.808  32.903  1.00  0.00    -0.206 F 
ATOM     82  C   UNL A   1      35.876  31.576  32.105  1.00  0.00     0.022 A 
BRANCH  79  83
ATOM     83  S   UNL A   1      34.942  32.933  29.855  1.00  0.00     0.124 S 
ATOM     84  O   UNL A   1      35.840  33.947  29.312  1.00  0.00    -0.237 OA
ATOM     85  O   UNL A   1      34.364  32.004  28.890  1.00  0.00    -0.237 OA
ATOM     86  O   UNL A   1      34.028  33.400  30.895  1.00  0.00    -0.744 OA
ENDBRANCH  79  83
ENDBRANCH  52  76
BRANCH  64  87
ATOM     87  C   UNL A   1      44.133  34.263  29.562  1.00  0.00     0.023 A 
ATOM     88  C   UNL A   1      43.968  35.245  28.572  1.00  0.00     0.031 A 
ATOM     89  C   UNL A   1      44.677  34.653  30.799  1.00  0.00     0.131 A 
ATOM     90  C   UNL A   1      44.400  36.557  28.813  1.00  0.00     0.055 A 
ATOM     91  C   UNL A   1      45.039  35.974  31.058  1.00  0.00     0.041 A 
ATOM     92  F   UNL A   1      44.859  33.755  31.781  1.00  0.00    -0.206 F 
ATOM     93  C   UNL A   1      44.915  36.933  30.057  1.00  0.00     0.022 A 
BRANCH  90  94
ATOM     94  S   UNL A   1      44.373  37.746  27.445  1.00  0.00     0.124 S 
ATOM     95  O   UNL A   1      44.602  39.011  28.137  1.00  0.00    -0.237 OA
ATOM     96  O   UNL A   1      45.465  37.276  26.600  1.00  0.00    -0.237 OA
ATOM     97  O   UNL A   1      43.036  37.585  26.876  1.00  0.00    -0.744 OA
ENDBRANCH  90  94
ENDBRANCH  64  87
ENDBRANCH  38  39
ENDBRANCH  30  33
ENDBRANCH  28  29
ENDBRANCH   1  28
TORSDOF 15
ENDMDL
MODEL 3
REMARK VINA RESULT:     -13.1      1.339      1.617
REMARK SMILES C[C@]12CCC[C@](C)(C(=O)NCCCNC(=O)c3ccc(-c4c5nc(c(-c6cc(S(=O)(=O)[O-])ccc6F)c6ccc([nH]6)c(-c6cc(S(=O)(=O)[O-])ccc6F)c6nc(c(-c7cc(S(=O)(=O)[O-])ccc7F)c7ccc4[nH]7)C=C6)C=C5)cc3)[C@@H]1CC[C@]13C=C(CO)[C@H](CC[C@H]12)C3
REMARK SMILES IDX 12 1 11 2 10 3 8 4 9 5 6 7 1 8 2 9 3 10 80 11 91 12 4 13
REMARK SMILES IDX 81 14 83 15 90 16 5 17 7 18 82 19 84 20 92 21 89 22 85 23
REMARK SMILES IDX 88 24 86 25 87 26 13 28 14 29 15 30 16 32 17 33 18 34 79 35
REMARK SMILES IDX 19 36 78 37 20 38 21 39 22 40 72 41 23 42 77 43 71 44 73 45
REMARK SMILES IDX 24 46 76 47 70 48 69 49 25 51 57 52 37 53 56 54 38 55 41 56
REMARK SMILES IDX 55 57 74 58 39 59 40 60 54 62 75 63 42 64 26 65 27 66 35 67
REMARK SMILES IDX 28 68 34 69 36 70 33 71 29 72 30 73 31 74 32 75 58 76 59 77
REMARK SMILES IDX 67 78 60 79 66 80 68 81 65 82 61 83 62 84 63 85 64 86 43 87
REMARK SMILES IDX 44 88 52 89 45 90 51 91 53 92 50 93 46 94 47 95 48 96 49 97
REMARK H PARENT 10 6 87 27 14 31 73 50 41 61
REMARK Flexibility Score: inf
ROOT
ATOM      1  C   UNL A   1      32.349  30.123  25.423  1.00  0.00     0.042 C 
ENDROOT
BRANCH   1   2
ATOM      2  C   UNL A   1      31.354  29.037  25.072  1.00  0.00     0.117 C 
BRANCH   2   3
ATOM      3  N   UNL A   1      31.611  27.858  25.883  1.00  0.00    -0.356 N 
ATOM      4  C   UNL A   1      31.382  26.536  25.812  1.00  0.00     0.226 C 
ATOM      5  O   UNL A   1      31.581  25.957  26.891  1.00  0.00    -0.274 OA
ATOM      6  H   UNL A   1      32.082  28.094  26.715  1.00  0.00     0.163 HD
BRANCH   4   7
ATOM      7  C   UNL A   1      31.020  25.714  24.550  1.00  0.00     0.050 C 
ATOM      8  C   UNL A   1      34.042  25.978  24.908  1.00  0.00     0.012 C 
ATOM      9  C   UNL A   1      33.428  24.932  23.906  1.00  0.00    -0.025 C 
ATOM     10  C   UNL A   1      33.274  25.589  22.519  1.00  0.00     0.007 C 
ATOM     11  C   UNL A   1      32.005  24.469  24.371  1.00  0.00     0.010 C 
ATOM     12  C   UNL A   1      34.486  23.800  23.855  1.00  0.00     0.005 C 
ATOM     13  C   UNL A   1      32.276  26.740  22.488  1.00  0.00     0.002 C 
ATOM     14  C   UNL A   1      32.043  23.446  25.534  1.00  0.00     0.006 C 
ATOM     15  C   UNL A   1      34.436  22.736  25.008  1.00  0.00    -0.008 C 
ATOM     16  C   UNL A   1      35.145  23.201  22.617  1.00  0.00     0.006 C 
ATOM     17  C   UNL A   1      30.948  26.439  23.184  1.00  0.00     0.017 C 
ATOM     18  C   UNL A   1      29.569  25.258  24.867  1.00  0.00     0.022 C 
ATOM     19  C   UNL A   1      33.014  22.279  25.295  1.00  0.00     0.012 C 
ATOM     20  C   UNL A   1      35.221  23.366  26.121  1.00  0.00    -0.018 C 
ATOM     21  C   UNL A   1      35.432  21.569  24.758  1.00  0.00     0.019 C 
ATOM     22  C   UNL A   1      36.632  22.922  23.082  1.00  0.00     0.008 C 
ATOM     23  C   UNL A   1      36.526  23.325  25.776  1.00  0.00    -0.045 C 
ATOM     24  C   UNL A   1      36.727  22.376  24.565  1.00  0.00     0.018 C 
BRANCH  23  25
ATOM     25  C   UNL A   1      37.594  24.082  26.488  1.00  0.00     0.187 C 
BRANCH  25  26
ATOM     26  O   UNL A   1      38.806  24.053  25.736  1.00  0.00    -0.392 OA
ATOM     27  H   UNL A   1      39.089  23.133  25.613  1.00  0.00     0.211 HD
ENDBRANCH  25  26
ENDBRANCH  23  25
ENDBRANCH   4   7
ENDBRANCH   2   3
ENDBRANCH   1   2
BRANCH   1  28
ATOM     28  C   UNL A   1      32.154  30.644  26.839  1.00  0.00     0.118 C 
BRANCH  28  29
ATOM     29  N   UNL A   1      32.161  32.100  26.906  1.00  0.00    -0.352 N 
ATOM     30  C   UNL A   1      33.081  32.930  27.513  1.00  0.00     0.251 C 
ATOM     31  H   UNL A   1      31.409  32.551  26.459  1.00  0.00     0.163 HD
ATOM     32  O   UNL A   1      32.830  34.110  27.692  1.00  0.00    -0.269 OA
BRANCH  30  33
ATOM     33  C   UNL A   1      34.356  32.338  27.971  1.00  0.00     0.039 A 
ATOM     34  C   UNL A   1      35.487  33.143  28.096  1.00  0.00     0.014 A 
ATOM     35  C   UNL A   1      34.392  30.998  28.358  1.00  0.00     0.014 A 
ATOM     36  C   UNL A   1      36.633  32.616  28.695  1.00  0.00     0.010 A 
ATOM     37  C   UNL A   1      35.472  30.529  29.086  1.00  0.00     0.010 A 
ATOM     38  C   UNL A   1      36.618  31.320  29.239  1.00  0.00    -0.014 A 
BRANCH  38  39
ATOM     39  C   UNL A   1      37.801  30.737  29.922  1.00  0.00     0.031 A 
ATOM     40  C   UNL A   1      38.114  31.158  31.335  1.00  0.00     0.074 A 
ATOM     41  C   UNL A   1      38.620  29.893  29.262  1.00  0.00     0.049 A 
ATOM     42  N   UNL A   1      39.147  30.863  32.080  1.00  0.00    -0.248 NA
ATOM     43  C   UNL A   1      37.156  32.073  31.980  1.00  0.00     0.031 C 
ATOM     44  C   UNL A   1      38.445  29.450  27.876  1.00  0.00     0.029 A 
ATOM     45  N   UNL A   1      39.767  29.258  29.666  1.00  0.00    -0.354 N 
ATOM     46  C   UNL A   1      38.969  31.568  33.267  1.00  0.00     0.074 A 
ATOM     47  C   UNL A   1      37.784  32.378  33.103  1.00  0.00     0.031 C 
ATOM     48  C   UNL A   1      39.421  28.581  27.565  1.00  0.00     0.029 A 
ATOM     49  C   UNL A   1      40.323  28.447  28.704  1.00  0.00     0.049 A 
ATOM     50  H   UNL A   1      40.156  29.372  30.563  1.00  0.00     0.167 HD
ATOM     51  C   UNL A   1      39.700  31.513  34.406  1.00  0.00     0.034 A 
ATOM     52  C   UNL A   1      41.437  27.690  28.737  1.00  0.00     0.034 A 
ATOM     53  C   UNL A   1      40.865  30.680  34.558  1.00  0.00     0.049 A 
ATOM     54  C   UNL A   1      42.257  27.671  30.005  1.00  0.00     0.074 A 
ATOM     55  C   UNL A   1      41.666  30.513  35.673  1.00  0.00     0.029 A 
ATOM     56  N   UNL A   1      41.397  29.872  33.560  1.00  0.00    -0.354 N 
ATOM     57  N   UNL A   1      42.052  28.313  31.133  1.00  0.00    -0.248 NA
ATOM     58  C   UNL A   1      43.453  26.818  30.008  1.00  0.00     0.031 C 
ATOM     59  C   UNL A   1      42.718  29.658  35.330  1.00  0.00     0.029 A 
ATOM     60  C   UNL A   1      42.528  29.223  34.028  1.00  0.00     0.049 A 
ATOM     61  H   UNL A   1      41.024  29.775  32.654  1.00  0.00     0.167 HD
ATOM     62  C   UNL A   1      43.069  27.904  31.992  1.00  0.00     0.074 A 
ATOM     63  C   UNL A   1      43.875  26.954  31.255  1.00  0.00     0.031 C 
ATOM     64  C   UNL A   1      43.315  28.275  33.275  1.00  0.00     0.034 A 
BRANCH  51  65
ATOM     65  C   UNL A   1      39.254  32.381  35.559  1.00  0.00     0.023 A 
ATOM     66  C   UNL A   1      39.653  33.727  35.663  1.00  0.00     0.031 A 
ATOM     67  C   UNL A   1      38.455  31.853  36.587  1.00  0.00     0.131 A 
ATOM     68  C   UNL A   1      39.325  34.469  36.806  1.00  0.00     0.055 A 
ATOM     69  C   UNL A   1      38.055  32.626  37.678  1.00  0.00     0.041 A 
ATOM     70  F   UNL A   1      38.063  30.569  36.558  1.00  0.00    -0.206 F 
ATOM     71  C   UNL A   1      38.503  33.938  37.802  1.00  0.00     0.022 A 
BRANCH  68  72
ATOM     72  S   UNL A   1      40.116  36.084  37.043  1.00  0.00     0.124 S 
ATOM     73  O   UNL A   1      39.397  36.596  38.208  1.00  0.00    -0.237 OA
ATOM     74  O   UNL A   1      41.512  35.725  37.261  1.00  0.00    -0.237 OA
ATOM     75  O   UNL A   1      39.840  36.787  35.791  1.00  0.00    -0.744 OA
ENDBRANCH  68  72
ENDBRANCH  51  65
BRANCH  52  76
ATOM     76  C   UNL A   1      41.853  26.883  27.551  1.00  0.00     0.023 A 
ATOM     77  C   UNL A   1      41.686  25.489  27.536  1.00  0.00     0.031 A 
ATOM     78  C   UNL A   1      42.479  27.481  26.443  1.00  0.00     0.131 A 
ATOM     79  C   UNL A   1      42.195  24.732  26.469  1.00  0.00     0.055 A 
ATOM     80  C   UNL A   1      42.925  26.730  25.353  1.00  0.00     0.041 A 
ATOM     81  F   UNL A   1      42.662  28.810  26.400  1.00  0.00    -0.206 F 
ATOM     82  C   UNL A   1      42.801  25.345  25.371  1.00  0.00     0.022 A 
BRANCH  79  83
ATOM     83  S   UNL A   1      42.155  22.923  26.592  1.00  0.00     0.124 S 
ATOM     84  O   UNL A   1      43.275  22.664  27.492  1.00  0.00    -0.237 OA
ATOM     85  O   UNL A   1      40.824  22.686  27.139  1.00  0.00    -0.237 OA
ATOM     86  O   UNL A   1      42.349  22.483  25.212  1.00  0.00    -0.744 OA
ENDBRANCH  79  83
ENDBRANCH  52  76
BRANCH  64  87
ATOM     87  C   UNL A   1      44.469  27.601  33.977  1.00  0.00     0.023 A 
ATOM     88  C   UNL A   1      44.306  26.402  34.691  1.00  0.00     0.031 A 
ATOM     89  C   UNL A   1      45.751  28.177  33.932  1.00  0.00     0.131 A 
ATOM     90  C   UNL A   1      45.393  25.850  35.382  1.00  0.00     0.055 A 
ATOM     91  C   UNL A   1      46.844  27.586  34.563  1.00  0.00     0.041 A 
ATOM     92  F   UNL A   1      45.964  29.324  33.267  1.00  0.00    -0.206 F 
ATOM     93  C   UNL A   1      46.666  26.422  35.306  1.00  0.00     0.022 A 
BRANCH  90  94
ATOM     94  S   UNL A   1      45.101  24.426  36.466  1.00  0.00     0.124 S 
ATOM     95  O   UNL A   1      44.349  25.029  37.562  1.00  0.00    -0.237 OA
ATOM     96  O   UNL A   1      44.351  23.522  35.600  1.00  0.00    -0.237 OA
ATOM     97  O   UNL A   1      46.447  23.977  36.813  1.00  0.00    -0.744 OA
ENDBRANCH  90  94
ENDBRANCH  64  87
ENDBRANCH  38  39
ENDBRANCH  30  33
ENDBRANCH  28  29
ENDBRANCH   1  28
TORSDOF 15
ENDMDL
