MODEL 1
REMARK VINA RESULT:     -12.5      0.000      0.000
REMARK SMILES CC[C@H](C(=O)NCCCNC(=O)c1ccc(-c2c3nc(c(-c4cc(S(=O)(=O)[O-])ccc4F)c4ccc([nH]4)c(-c4cc(S(=O)(=O)[O-])ccc4F)c4nc(c(-c5cc(S(=O)(=O)[O-])ccc5F)c5ccc2[nH]5)C=C4)C=C3)cc1)N1C(=O)/C(=C/c2ccc(-c3ccc(C)cc3Br)o2)SC1=S
REMARK SMILES IDX 8 1 7 2 6 3 4 4 5 5 3 7 2 8 1 9 76 10 77 11 95 12 78 13
REMARK SMILES IDX 79 14 94 15 96 16 80 17 81 18 82 19 93 20 83 21 84 22 85 23
REMARK SMILES IDX 86 24 91 25 87 26 90 27 92 28 88 29 89 30 9 31 10 32 11 33
REMARK SMILES IDX 12 35 13 36 14 37 75 38 15 39 74 40 16 41 17 42 18 43 68 44
REMARK SMILES IDX 19 45 73 46 67 47 69 48 20 49 72 50 66 51 65 52 21 54 53 55
REMARK SMILES IDX 33 56 52 57 34 58 37 59 51 60 70 61 35 62 36 63 50 65 71 66
REMARK SMILES IDX 38 67 22 68 23 69 31 70 24 71 30 72 32 73 29 74 25 75 26 76
REMARK SMILES IDX 27 77 28 78 54 79 55 80 63 81 56 82 62 83 64 84 61 85 57 86
REMARK SMILES IDX 58 87 59 88 60 89 39 90 40 91 48 92 41 93 47 94 49 95 46 96
REMARK SMILES IDX 42 97 43 98 44 99 45 100
REMARK H PARENT 6 6 10 34 69 53 37 64
REMARK Flexibility Score: inf
ROOT
ATOM      1  C   UNL A   1      32.561  29.780  27.200  1.00  0.00     0.042 C 
ENDROOT
BRANCH   1   2
ATOM      2  C   UNL A   1      31.567  30.284  26.160  1.00  0.00     0.117 C 
BRANCH   2   3
ATOM      3  N   UNL A   1      32.010  29.994  24.806  1.00  0.00    -0.354 N 
ATOM      4  C   UNL A   1      31.575  29.140  23.846  1.00  0.00     0.243 C 
ATOM      5  O   UNL A   1      32.096  29.276  22.730  1.00  0.00    -0.273 OA
ATOM      6  H   UNL A   1      32.786  30.530  24.527  1.00  0.00     0.163 HD
BRANCH   4   7
ATOM      7  C   UNL A   1      30.435  28.100  24.009  1.00  0.00     0.181 C 
BRANCH   7   8
ATOM      8  C   UNL A   1      29.248  28.021  23.046  1.00  0.00     0.032 C 
ATOM      9  C   UNL A   1      28.779  29.390  22.570  1.00  0.00     0.006 C 
ENDBRANCH   7   8
BRANCH   7  10
ATOM     10  N   UNL A   1      31.009  26.765  24.298  1.00  0.00    -0.280 N 
ATOM     11  C   UNL A   1      31.079  26.306  25.603  1.00  0.00     0.267 C 
ATOM     12  C   UNL A   1      31.640  25.983  23.348  1.00  0.00     0.149 C 
ATOM     13  O   UNL A   1      30.758  26.923  26.614  1.00  0.00    -0.268 OA
ATOM     14  C   UNL A   1      31.699  24.956  25.651  1.00  0.00     0.084 C 
ATOM     15  S   UNL A   1      32.331  24.556  24.104  1.00  0.00    -0.054 SA
ATOM     16  S   UNL A   1      31.833  26.268  21.713  1.00  0.00    -0.052 S 
ATOM     17  C   UNL A   1      31.737  24.219  26.771  1.00  0.00     0.068 C 
BRANCH  17  18
ATOM     18  C   UNL A   1      32.505  23.025  26.863  1.00  0.00     0.128 A 
ATOM     19  C   UNL A   1      33.401  22.673  27.865  1.00  0.00     0.051 A 
ATOM     20  O   UNL A   1      32.466  21.988  25.952  1.00  0.00    -0.457 OA
ATOM     21  C   UNL A   1      33.953  21.421  27.536  1.00  0.00     0.051 A 
ATOM     22  C   UNL A   1      33.377  21.049  26.342  1.00  0.00     0.135 A 
BRANCH  22  23
ATOM     23  C   UNL A   1      33.573  19.877  25.498  1.00  0.00     0.031 A 
ATOM     24  C   UNL A   1      32.506  18.964  25.392  1.00  0.00     0.013 A 
ATOM     25  C   UNL A   1      34.795  19.536  24.899  1.00  0.00     0.029 A 
ATOM     26  C   UNL A   1      32.661  17.734  24.748  1.00  0.00     0.004 A 
ATOM     27  C   UNL A   1      34.949  18.298  24.251  1.00  0.00     0.019 A 
ATOM     28  Br  UNL A   1      36.339  20.642  25.000  1.00  0.00    -0.050 Br
ATOM     29  C   UNL A   1      33.891  17.382  24.189  1.00  0.00    -0.050 A 
ATOM     30  C   UNL A   1      34.071  16.028  23.571  1.00  0.00     0.044 C 
ENDBRANCH  22  23
ENDBRANCH  17  18
ENDBRANCH   7  10
ENDBRANCH   4   7
ENDBRANCH   2   3
ENDBRANCH   1   2
BRANCH   1  31
ATOM     31  C   UNL A   1      33.921  30.457  27.093  1.00  0.00     0.118 C 
BRANCH  31  32
ATOM     32  N   UNL A   1      33.898  31.793  27.668  1.00  0.00    -0.352 N 
ATOM     33  C   UNL A   1      34.666  32.325  28.675  1.00  0.00     0.251 C 
ATOM     34  H   UNL A   1      33.234  32.407  27.278  1.00  0.00     0.163 HD
ATOM     35  O   UNL A   1      34.304  33.366  29.217  1.00  0.00    -0.269 OA
BRANCH  33  36
ATOM     36  C   UNL A   1      35.909  31.647  29.110  1.00  0.00     0.039 A 
ATOM     37  C   UNL A   1      35.817  30.496  29.896  1.00  0.00     0.014 A 
ATOM     38  C   UNL A   1      37.165  32.167  28.783  1.00  0.00     0.014 A 
ATOM     39  C   UNL A   1      36.981  29.850  30.320  1.00  0.00     0.010 A 
ATOM     40  C   UNL A   1      38.320  31.466  29.120  1.00  0.00     0.010 A 
ATOM     41  C   UNL A   1      38.242  30.314  29.915  1.00  0.00    -0.014 A 
BRANCH  41  42
ATOM     42  C   UNL A   1      39.494  29.647  30.360  1.00  0.00     0.031 A 
ATOM     43  C   UNL A   1      40.225  30.162  31.574  1.00  0.00     0.074 A 
ATOM     44  C   UNL A   1      39.998  28.618  29.650  1.00  0.00     0.049 A 
ATOM     45  N   UNL A   1      41.369  29.779  32.078  1.00  0.00    -0.248 NA
ATOM     46  C   UNL A   1      39.599  31.282  32.295  1.00  0.00     0.031 C 
ATOM     47  C   UNL A   1      39.398  28.053  28.439  1.00  0.00     0.029 A 
ATOM     48  N   UNL A   1      41.130  27.867  29.839  1.00  0.00    -0.354 N 
ATOM     49  C   UNL A   1      41.607  30.620  33.162  1.00  0.00     0.074 A 
ATOM     50  C   UNL A   1      40.524  31.578  33.193  1.00  0.00     0.031 C 
ATOM     51  C   UNL A   1      40.151  27.026  28.013  1.00  0.00     0.029 A 
ATOM     52  C   UNL A   1      41.313  26.891  28.885  1.00  0.00     0.049 A 
ATOM     53  H   UNL A   1      41.754  28.011  30.587  1.00  0.00     0.167 HD
ATOM     54  C   UNL A   1      42.619  30.579  34.063  1.00  0.00     0.034 A 
ATOM     55  C   UNL A   1      42.311  25.999  28.725  1.00  0.00     0.034 A 
ATOM     56  C   UNL A   1      43.681  29.604  34.025  1.00  0.00     0.049 A 
ATOM     57  C   UNL A   1      43.443  25.989  29.723  1.00  0.00     0.074 A 
ATOM     58  C   UNL A   1      44.731  29.436  34.911  1.00  0.00     0.029 A 
ATOM     59  N   UNL A   1      43.833  28.632  33.043  1.00  0.00    -0.354 N 
ATOM     60  N   UNL A   1      43.630  26.764  30.768  1.00  0.00    -0.248 NA
ATOM     61  C   UNL A   1      44.489  24.978  29.530  1.00  0.00     0.031 C 
ATOM     62  C   UNL A   1      45.556  28.418  34.425  1.00  0.00     0.029 A 
ATOM     63  C   UNL A   1      44.975  27.884  33.285  1.00  0.00     0.049 A 
ATOM     64  H   UNL A   1      43.219  28.495  32.285  1.00  0.00     0.167 HD
ATOM     65  C   UNL A   1      44.796  26.306  31.375  1.00  0.00     0.074 A 
ATOM     66  C   UNL A   1      45.258  25.181  30.588  1.00  0.00     0.031 C 
ATOM     67  C   UNL A   1      45.425  26.768  32.486  1.00  0.00     0.034 A 
BRANCH  54  68
ATOM     68  C   UNL A   1      42.633  31.635  35.145  1.00  0.00     0.023 A 
ATOM     69  C   UNL A   1      41.683  31.647  36.182  1.00  0.00     0.031 A 
ATOM     70  C   UNL A   1      43.592  32.663  35.126  1.00  0.00     0.131 A 
ATOM     71  C   UNL A   1      41.658  32.706  37.102  1.00  0.00     0.055 A 
ATOM     72  C   UNL A   1      43.620  33.665  36.099  1.00  0.00     0.041 A 
ATOM     73  F   UNL A   1      44.512  32.722  34.150  1.00  0.00    -0.206 F 
ATOM     74  C   UNL A   1      42.638  33.700  37.086  1.00  0.00     0.022 A 
BRANCH  71  75
ATOM     75  S   UNL A   1      40.238  32.848  38.221  1.00  0.00     0.124 S 
ATOM     76  O   UNL A   1      39.293  31.913  37.616  1.00  0.00    -0.237 OA
ATOM     77  O   UNL A   1      40.804  32.445  39.503  1.00  0.00    -0.237 OA
ATOM     78  O   UNL A   1      39.861  34.256  38.119  1.00  0.00    -0.744 OA
ENDBRANCH  71  75
ENDBRANCH  54  68
BRANCH  55  79
ATOM     79  C   UNL A   1      42.298  25.045  27.578  1.00  0.00     0.023 A 
ATOM     80  C   UNL A   1      41.502  23.888  27.607  1.00  0.00     0.031 A 
ATOM     81  C   UNL A   1      43.116  25.252  26.452  1.00  0.00     0.131 A 
ATOM     82  C   UNL A   1      41.581  22.957  26.559  1.00  0.00     0.055 A 
ATOM     83  C   UNL A   1      43.144  24.353  25.384  1.00  0.00     0.041 A 
ATOM     84  F   UNL A   1      43.895  26.342  26.369  1.00  0.00    -0.206 F 
ATOM     85  C   UNL A   1      42.384  23.189  25.440  1.00  0.00     0.022 A 
BRANCH  82  86
ATOM     86  S   UNL A   1      40.688  21.387  26.724  1.00  0.00     0.124 S 
ATOM     87  O   UNL A   1      39.348  21.761  26.284  1.00  0.00    -0.237 OA
ATOM     88  O   UNL A   1      41.439  20.516  25.826  1.00  0.00    -0.237 OA
ATOM     89  O   UNL A   1      40.814  21.072  28.145  1.00  0.00    -0.744 OA
ENDBRANCH  82  86
ENDBRANCH  55  79
BRANCH  67  90
ATOM     90  C   UNL A   1      46.651  26.015  32.947  1.00  0.00     0.023 A 
ATOM     91  C   UNL A   1      46.565  24.924  33.829  1.00  0.00     0.031 A 
ATOM     92  C   UNL A   1      47.926  26.403  32.497  1.00  0.00     0.131 A 
ATOM     93  C   UNL A   1      47.738  24.299  34.282  1.00  0.00     0.055 A 
ATOM     94  C   UNL A   1      49.083  25.733  32.896  1.00  0.00     0.041 A 
ATOM     95  F   UNL A   1      48.068  27.441  31.657  1.00  0.00    -0.206 F 
ATOM     96  C   UNL A   1      48.994  24.682  33.804  1.00  0.00     0.022 A 
BRANCH  93  97
ATOM     97  S   UNL A   1      47.608  23.042  35.583  1.00  0.00     0.124 S 
ATOM     98  O   UNL A   1      46.260  23.274  36.094  1.00  0.00    -0.237 OA
ATOM     99  O   UNL A   1      47.803  21.801  34.840  1.00  0.00    -0.237 OA
ATOM    100  O   UNL A   1      48.688  23.389  36.504  1.00  0.00    -0.744 OA
ENDBRANCH  93  97
ENDBRANCH  67  90
ENDBRANCH  41  42
ENDBRANCH  33  36
ENDBRANCH  31  32
ENDBRANCH   1  31
TORSDOF 17
ENDMDL
MODEL 2
REMARK VINA RESULT:     -12.4      1.783      2.133
REMARK SMILES CC[C@H](C(=O)NCCCNC(=O)c1ccc(-c2c3nc(c(-c4cc(S(=O)(=O)[O-])ccc4F)c4ccc([nH]4)c(-c4cc(S(=O)(=O)[O-])ccc4F)c4nc(c(-c5cc(S(=O)(=O)[O-])ccc5F)c5ccc2[nH]5)C=C4)C=C3)cc1)N1C(=O)/C(=C/c2ccc(-c3ccc(C)cc3Br)o2)SC1=S
REMARK SMILES IDX 8 1 7 2 6 3 4 4 5 5 3 7 2 8 1 9 76 10 77 11 95 12 78 13
REMARK SMILES IDX 79 14 94 15 96 16 80 17 81 18 82 19 93 20 83 21 84 22 85 23
REMARK SMILES IDX 86 24 91 25 87 26 90 27 92 28 88 29 89 30 9 31 10 32 11 33
REMARK SMILES IDX 12 35 13 36 14 37 75 38 15 39 74 40 16 41 17 42 18 43 68 44
REMARK SMILES IDX 19 45 73 46 67 47 69 48 20 49 72 50 66 51 65 52 21 54 53 55
REMARK SMILES IDX 33 56 52 57 34 58 37 59 51 60 70 61 35 62 36 63 50 65 71 66
REMARK SMILES IDX 38 67 22 68 23 69 31 70 24 71 30 72 32 73 29 74 25 75 26 76
REMARK SMILES IDX 27 77 28 78 54 79 55 80 63 81 56 82 62 83 64 84 61 85 57 86
REMARK SMILES IDX 58 87 59 88 60 89 39 90 40 91 48 92 41 93 47 94 49 95 46 96
REMARK SMILES IDX 42 97 43 98 44 99 45 100
REMARK H PARENT 6 6 10 34 69 53 37 64
REMARK Flexibility Score: inf
ROOT
ATOM      1  C   UNL A   1      32.502  29.461  27.012  1.00  0.00     0.042 C 
ENDROOT
BRANCH   1   2
ATOM      2  C   UNL A   1      31.678  30.283  26.029  1.00  0.00     0.117 C 
BRANCH   2   3
ATOM      3  N   UNL A   1      32.002  29.958  24.650  1.00  0.00    -0.354 N 
ATOM      4  C   UNL A   1      31.484  29.083  23.752  1.00  0.00     0.243 C 
ATOM      5  O   UNL A   1      31.907  29.190  22.592  1.00  0.00    -0.273 OA
ATOM      6  H   UNL A   1      32.754  30.483  24.292  1.00  0.00     0.163 HD
BRANCH   4   7
ATOM      7  C   UNL A   1      30.358  28.055  24.037  1.00  0.00     0.181 C 
BRANCH   7   8
ATOM      8  C   UNL A   1      29.100  27.948  23.172  1.00  0.00     0.032 C 
ATOM      9  C   UNL A   1      28.595  29.302  22.691  1.00  0.00     0.006 C 
ENDBRANCH   7   8
BRANCH   7  10
ATOM     10  N   UNL A   1      30.950  26.727  24.326  1.00  0.00    -0.280 N 
ATOM     11  C   UNL A   1      31.034  26.272  25.631  1.00  0.00     0.267 C 
ATOM     12  C   UNL A   1      31.585  25.951  23.373  1.00  0.00     0.149 C 
ATOM     13  O   UNL A   1      30.712  26.888  26.643  1.00  0.00    -0.268 OA
ATOM     14  C   UNL A   1      31.672  24.931  25.679  1.00  0.00     0.084 C 
ATOM     15  S   UNL A   1      32.299  24.535  24.129  1.00  0.00    -0.054 SA
ATOM     16  S   UNL A   1      31.765  26.234  21.737  1.00  0.00    -0.052 S 
ATOM     17  C   UNL A   1      31.726  24.196  26.800  1.00  0.00     0.068 C 
BRANCH  17  18
ATOM     18  C   UNL A   1      32.510  23.012  26.890  1.00  0.00     0.128 A 
ATOM     19  C   UNL A   1      33.406  22.668  27.895  1.00  0.00     0.051 A 
ATOM     20  O   UNL A   1      32.488  21.980  25.975  1.00  0.00    -0.457 OA
ATOM     21  C   UNL A   1      33.976  21.425  27.562  1.00  0.00     0.051 A 
ATOM     22  C   UNL A   1      33.410  21.051  26.365  1.00  0.00     0.135 A 
BRANCH  22  23
ATOM     23  C   UNL A   1      33.625  19.886  25.516  1.00  0.00     0.031 A 
ATOM     24  C   UNL A   1      32.575  18.954  25.410  1.00  0.00     0.013 A 
ATOM     25  C   UNL A   1      34.852  19.569  24.913  1.00  0.00     0.029 A 
ATOM     26  C   UNL A   1      32.751  17.729  24.761  1.00  0.00     0.004 A 
ATOM     27  C   UNL A   1      35.027  18.337  24.260  1.00  0.00     0.019 A 
ATOM     28  Br  UNL A   1      36.376  20.704  25.013  1.00  0.00    -0.050 Br
ATOM     29  C   UNL A   1      33.986  17.402  24.198  1.00  0.00    -0.050 A 
ATOM     30  C   UNL A   1      34.190  16.053  23.575  1.00  0.00     0.044 C 
ENDBRANCH  22  23
ENDBRANCH  17  18
ENDBRANCH   7  10
ENDBRANCH   4   7
ENDBRANCH   2   3
ENDBRANCH   1   2
BRANCH   1  31
ATOM     31  C   UNL A   1      33.921  29.988  27.179  1.00  0.00     0.118 C 
BRANCH  31  32
ATOM     32  N   UNL A   1      33.927  31.354  27.680  1.00  0.00    -0.352 N 
ATOM     33  C   UNL A   1      34.724  31.930  28.639  1.00  0.00     0.251 C 
ATOM     34  H   UNL A   1      33.260  31.954  27.273  1.00  0.00     0.163 HD
ATOM     35  O   UNL A   1      34.386  33.003  29.132  1.00  0.00    -0.269 OA
BRANCH  33  36
ATOM     36  C   UNL A   1      35.970  31.262  29.082  1.00  0.00     0.039 A 
ATOM     37  C   UNL A   1      37.200  31.758  28.643  1.00  0.00     0.014 A 
ATOM     38  C   UNL A   1      35.928  30.123  29.890  1.00  0.00     0.014 A 
ATOM     39  C   UNL A   1      38.384  31.135  29.046  1.00  0.00     0.010 A 
ATOM     40  C   UNL A   1      37.109  29.565  30.372  1.00  0.00     0.010 A 
ATOM     41  C   UNL A   1      38.351  30.048  29.933  1.00  0.00    -0.014 A 
BRANCH  41  42
ATOM     42  C   UNL A   1      39.597  29.364  30.370  1.00  0.00     0.031 A 
ATOM     43  C   UNL A   1      40.334  29.860  31.588  1.00  0.00     0.074 A 
ATOM     44  C   UNL A   1      40.089  28.337  29.649  1.00  0.00     0.049 A 
ATOM     45  N   UNL A   1      41.475  29.460  32.086  1.00  0.00    -0.248 NA
ATOM     46  C   UNL A   1      39.720  30.979  32.320  1.00  0.00     0.031 C 
ATOM     47  C   UNL A   1      39.482  27.791  28.433  1.00  0.00     0.029 A 
ATOM     48  N   UNL A   1      41.214  27.573  29.828  1.00  0.00    -0.354 N 
ATOM     49  C   UNL A   1      41.722  30.288  33.178  1.00  0.00     0.074 A 
ATOM     50  C   UNL A   1      40.649  31.256  33.221  1.00  0.00     0.031 C 
ATOM     51  C   UNL A   1      40.224  26.761  27.995  1.00  0.00     0.029 A 
ATOM     52  C   UNL A   1      41.386  26.605  28.864  1.00  0.00     0.049 A 
ATOM     53  H   UNL A   1      41.840  27.704  30.577  1.00  0.00     0.167 HD
ATOM     54  C   UNL A   1      42.736  30.228  34.077  1.00  0.00     0.034 A 
ATOM     55  C   UNL A   1      42.375  25.704  28.694  1.00  0.00     0.034 A 
ATOM     56  C   UNL A   1      43.788  29.242  34.028  1.00  0.00     0.049 A 
ATOM     57  C   UNL A   1      43.507  25.674  29.691  1.00  0.00     0.074 A 
ATOM     58  C   UNL A   1      44.837  29.055  34.911  1.00  0.00     0.029 A 
ATOM     59  N   UNL A   1      43.929  28.279  33.036  1.00  0.00    -0.354 N 
ATOM     60  N   UNL A   1      43.704  26.436  30.743  1.00  0.00    -0.248 NA
ATOM     61  C   UNL A   1      44.543  24.654  29.485  1.00  0.00     0.031 C 
ATOM     62  C   UNL A   1      45.651  28.033  34.414  1.00  0.00     0.029 A 
ATOM     63  C   UNL A   1      45.063  27.517  33.269  1.00  0.00     0.049 A 
ATOM     64  H   UNL A   1      43.312  28.156  32.278  1.00  0.00     0.167 HD
ATOM     65  C   UNL A   1      44.866  25.960  31.344  1.00  0.00     0.074 A 
ATOM     66  C   UNL A   1      45.316  24.839  30.545  1.00  0.00     0.031 C 
ATOM     67  C   UNL A   1      45.501  26.404  32.458  1.00  0.00     0.034 A 
BRANCH  54  68
ATOM     68  C   UNL A   1      42.761  31.272  35.170  1.00  0.00     0.023 A 
ATOM     69  C   UNL A   1      43.408  32.509  34.999  1.00  0.00     0.031 A 
ATOM     70  C   UNL A   1      42.155  31.017  36.414  1.00  0.00     0.131 A 
ATOM     71  C   UNL A   1      43.508  33.405  36.074  1.00  0.00     0.055 A 
ATOM     72  C   UNL A   1      42.178  31.953  37.451  1.00  0.00     0.041 A 
ATOM     73  F   UNL A   1      41.541  29.847  36.649  1.00  0.00    -0.206 F 
ATOM     74  C   UNL A   1      42.872  33.149  37.291  1.00  0.00     0.022 A 
BRANCH  71  75
ATOM     75  S   UNL A   1      44.610  34.836  35.909  1.00  0.00     0.124 S 
ATOM     76  O   UNL A   1      45.689  34.283  35.094  1.00  0.00    -0.237 OA
ATOM     77  O   UNL A   1      43.755  35.820  35.255  1.00  0.00    -0.237 OA
ATOM     78  O   UNL A   1      44.978  35.147  37.289  1.00  0.00    -0.744 OA
ENDBRANCH  71  75
ENDBRANCH  54  68
BRANCH  55  79
ATOM     79  C   UNL A   1      42.350  24.763  27.537  1.00  0.00     0.023 A 
ATOM     80  C   UNL A   1      41.687  23.527  27.623  1.00  0.00     0.031 A 
ATOM     81  C   UNL A   1      43.029  25.062  26.342  1.00  0.00     0.131 A 
ATOM     82  C   UNL A   1      41.761  22.617  26.556  1.00  0.00     0.055 A 
ATOM     83  C   UNL A   1      43.048  24.179  25.261  1.00  0.00     0.041 A 
ATOM     84  F   UNL A   1      43.678  26.230  26.203  1.00  0.00    -0.206 F 
ATOM     85  C   UNL A   1      42.423  22.941  25.370  1.00  0.00     0.022 A 
BRANCH  82  86
ATOM     86  S   UNL A   1      41.058  20.960  26.779  1.00  0.00     0.124 S 
ATOM     87  O   UNL A   1      42.161  20.110  26.346  1.00  0.00    -0.237 OA
ATOM     88  O   UNL A   1      40.758  20.948  28.207  1.00  0.00    -0.237 OA
ATOM     89  O   UNL A   1      39.891  20.965  25.899  1.00  0.00    -0.744 OA
ENDBRANCH  82  86
ENDBRANCH  55  79
BRANCH  67  90
ATOM     90  C   UNL A   1      46.720  25.635  32.910  1.00  0.00     0.023 A 
ATOM     91  C   UNL A   1      47.977  25.813  32.309  1.00  0.00     0.031 A 
ATOM     92  C   UNL A   1      46.615  24.703  33.959  1.00  0.00     0.131 A 
ATOM     93  C   UNL A   1      49.065  25.027  32.719  1.00  0.00     0.055 A 
ATOM     94  C   UNL A   1      47.716  23.974  34.409  1.00  0.00     0.041 A 
ATOM     95  F   UNL A   1      45.437  24.488  34.567  1.00  0.00    -0.206 F 
ATOM     96  C   UNL A   1      48.948  24.124  33.779  1.00  0.00     0.022 A 
BRANCH  93  97
ATOM     97  S   UNL A   1      50.614  25.125  31.779  1.00  0.00     0.124 S 
ATOM     98  O   UNL A   1      51.356  26.138  32.525  1.00  0.00    -0.237 OA
ATOM     99  O   UNL A   1      51.125  23.762  31.877  1.00  0.00    -0.237 OA
ATOM    100  O   UNL A   1      50.180  25.531  30.444  1.00  0.00    -0.744 OA
ENDBRANCH  93  97
ENDBRANCH  67  90
ENDBRANCH  41  42
ENDBRANCH  33  36
ENDBRANCH  31  32
ENDBRANCH   1  31
TORSDOF 17
ENDMDL
MODEL 3
REMARK VINA RESULT:     -12.2      1.960      7.549
REMARK SMILES CC[C@H](C(=O)NCCCNC(=O)c1ccc(-c2c3nc(c(-c4cc(S(=O)(=O)[O-])ccc4F)c4ccc([nH]4)c(-c4cc(S(=O)(=O)[O-])ccc4F)c4nc(c(-c5cc(S(=O)(=O)[O-])ccc5F)c5ccc2[nH]5)C=C4)C=C3)cc1)N1C(=O)/C(=C/c2ccc(-c3ccc(C)cc3Br)o2)SC1=S
REMARK SMILES IDX 8 1 7 2 6 3 4 4 5 5 3 7 2 8 1 9 76 10 77 11 95 12 78 13
REMARK SMILES IDX 79 14 94 15 96 16 80 17 81 18 82 19 93 20 83 21 84 22 85 23
REMARK SMILES IDX 86 24 91 25 87 26 90 27 92 28 88 29 89 30 9 31 10 32 11 33
REMARK SMILES IDX 12 35 13 36 14 37 75 38 15 39 74 40 16 41 17 42 18 43 68 44
REMARK SMILES IDX 19 45 73 46 67 47 69 48 20 49 72 50 66 51 65 52 21 54 53 55
REMARK SMILES IDX 33 56 52 57 34 58 37 59 51 60 70 61 35 62 36 63 50 65 71 66
REMARK SMILES IDX 38 67 22 68 23 69 31 70 24 71 30 72 32 73 29 74 25 75 26 76
REMARK SMILES IDX 27 77 28 78 54 79 55 80 63 81 56 82 62 83 64 84 61 85 57 86
REMARK SMILES IDX 58 87 59 88 60 89 39 90 40 91 48 92 41 93 47 94 49 95 46 96
REMARK SMILES IDX 42 97 43 98 44 99 45 100
REMARK H PARENT 6 6 10 34 69 53 37 64
REMARK Flexibility Score: inf
ROOT
ATOM      1  C   UNL A   1      32.963  30.927  26.242  1.00  0.00     0.042 C 
ENDROOT
BRANCH   1   2
ATOM      2  C   UNL A   1      32.238  29.672  25.771  1.00  0.00     0.117 C 
BRANCH   2   3
ATOM      3  N   UNL A   1      32.070  29.656  24.328  1.00  0.00    -0.354 N 
ATOM      4  C   UNL A   1      31.213  29.012  23.496  1.00  0.00     0.243 C 
ATOM      5  O   UNL A   1      31.249  29.366  22.309  1.00  0.00    -0.273 OA
ATOM      6  H   UNL A   1      32.711  30.234  23.855  1.00  0.00     0.163 HD
BRANCH   4   7
ATOM      7  C   UNL A   1      30.152  27.965  23.925  1.00  0.00     0.181 C 
BRANCH   7   8
ATOM      8  C   UNL A   1      28.831  27.775  23.175  1.00  0.00     0.032 C 
ATOM      9  C   UNL A   1      27.892  26.797  23.867  1.00  0.00     0.006 C 
ENDBRANCH   7   8
BRANCH   7  10
ATOM     10  N   UNL A   1      30.812  26.673  24.227  1.00  0.00    -0.280 N 
ATOM     11  C   UNL A   1      30.938  26.246  25.538  1.00  0.00     0.267 C 
ATOM     12  C   UNL A   1      31.469  25.911  23.277  1.00  0.00     0.149 C 
ATOM     13  O   UNL A   1      30.603  26.865  26.544  1.00  0.00    -0.268 OA
ATOM     14  C   UNL A   1      31.641  24.938  25.598  1.00  0.00     0.084 C 
ATOM     15  S   UNL A   1      32.262  24.545  24.046  1.00  0.00    -0.054 SA
ATOM     16  S   UNL A   1      31.609  26.172  21.634  1.00  0.00    -0.052 S 
ATOM     17  C   UNL A   1      31.749  24.228  26.732  1.00  0.00     0.068 C 
BRANCH  17  18
ATOM     18  C   UNL A   1      32.590  23.085  26.829  1.00  0.00     0.128 A 
ATOM     19  C   UNL A   1      33.587  22.849  27.767  1.00  0.00     0.051 A 
ATOM     20  O   UNL A   1      32.533  21.989  25.992  1.00  0.00    -0.457 OA
ATOM     21  C   UNL A   1      34.181  21.608  27.469  1.00  0.00     0.051 A 
ATOM     22  C   UNL A   1      33.527  21.127  26.358  1.00  0.00     0.135 A 
BRANCH  22  23
ATOM     23  C   UNL A   1      33.718  19.913  25.574  1.00  0.00     0.031 A 
ATOM     24  C   UNL A   1      32.686  18.955  25.595  1.00  0.00     0.013 A 
ATOM     25  C   UNL A   1      34.913  19.581  24.917  1.00  0.00     0.029 A 
ATOM     26  C   UNL A   1      32.851  17.694  25.016  1.00  0.00     0.004 A 
ATOM     27  C   UNL A   1      35.077  18.313  24.336  1.00  0.00     0.019 A 
ATOM     28  Br  UNL A   1      36.413  20.750  24.848  1.00  0.00    -0.050 Br
ATOM     29  C   UNL A   1      34.057  17.355  24.399  1.00  0.00    -0.050 A 
ATOM     30  C   UNL A   1      34.254  15.972  23.853  1.00  0.00     0.044 C 
ENDBRANCH  22  23
ENDBRANCH  17  18
ENDBRANCH   7  10
ENDBRANCH   4   7
ENDBRANCH   2   3
ENDBRANCH   1   2
BRANCH   1  31
ATOM     31  C   UNL A   1      32.236  31.638  27.376  1.00  0.00     0.118 C 
BRANCH  31  32
ATOM     32  N   UNL A   1      32.421  33.079  27.308  1.00  0.00    -0.352 N 
ATOM     33  C   UNL A   1      33.309  33.880  27.985  1.00  0.00     0.251 C 
ATOM     34  H   UNL A   1      31.821  33.551  26.686  1.00  0.00     0.163 HD
ATOM     35  O   UNL A   1      33.117  35.092  28.015  1.00  0.00    -0.269 OA
BRANCH  33  36
ATOM     36  C   UNL A   1      34.476  33.288  28.679  1.00  0.00     0.039 A 
ATOM     37  C   UNL A   1      34.264  32.493  29.808  1.00  0.00     0.014 A 
ATOM     38  C   UNL A   1      35.779  33.550  28.247  1.00  0.00     0.014 A 
ATOM     39  C   UNL A   1      35.356  31.934  30.477  1.00  0.00     0.010 A 
ATOM     40  C   UNL A   1      36.857  32.911  28.853  1.00  0.00     0.010 A 
ATOM     41  C   UNL A   1      36.660  32.117  29.992  1.00  0.00    -0.014 A 
BRANCH  41  42
ATOM     42  C   UNL A   1      37.838  31.538  30.692  1.00  0.00     0.031 A 
ATOM     43  C   UNL A   1      38.676  30.490  30.003  1.00  0.00     0.074 A 
ATOM     44  C   UNL A   1      38.122  31.913  31.955  1.00  0.00     0.049 A 
ATOM     45  N   UNL A   1      39.688  29.803  30.465  1.00  0.00    -0.248 NA
ATOM     46  C   UNL A   1      38.299  30.148  28.622  1.00  0.00     0.031 C 
ATOM     47  C   UNL A   1      37.363  32.893  32.736  1.00  0.00     0.029 A 
ATOM     48  N   UNL A   1      39.121  31.514  32.806  1.00  0.00    -0.354 N 
ATOM     49  C   UNL A   1      40.057  28.938  29.439  1.00  0.00     0.074 A 
ATOM     50  C   UNL A   1      39.113  29.137  28.362  1.00  0.00     0.031 C 
ATOM     51  C   UNL A   1      37.943  33.040  33.939  1.00  0.00     0.029 A 
ATOM     52  C   UNL A   1      39.080  32.130  34.036  1.00  0.00     0.049 A 
ATOM     53  H   UNL A   1      39.804  30.848  32.560  1.00  0.00     0.167 HD
ATOM     54  C   UNL A   1      41.103  28.076  29.389  1.00  0.00     0.034 A 
ATOM     55  C   UNL A   1      39.862  31.970  35.123  1.00  0.00     0.034 A 
ATOM     56  C   UNL A   1      42.046  27.904  30.468  1.00  0.00     0.049 A 
ATOM     57  C   UNL A   1      41.003  30.985  35.056  1.00  0.00     0.074 A 
ATOM     58  C   UNL A   1      43.169  27.098  30.511  1.00  0.00     0.029 A 
ATOM     59  N   UNL A   1      41.970  28.545  31.699  1.00  0.00    -0.354 N 
ATOM     60  N   UNL A   1      41.365  30.205  34.062  1.00  0.00    -0.248 NA
ATOM     61  C   UNL A   1      41.849  30.869  36.250  1.00  0.00     0.031 C 
ATOM     62  C   UNL A   1      43.728  27.193  31.790  1.00  0.00     0.029 A 
ATOM     63  C   UNL A   1      43.009  28.129  32.517  1.00  0.00     0.049 A 
ATOM     64  H   UNL A   1      41.280  29.200  31.952  1.00  0.00     0.167 HD
ATOM     65  C   UNL A   1      42.504  29.535  34.501  1.00  0.00     0.074 A 
ATOM     66  C   UNL A   1      42.774  30.014  35.842  1.00  0.00     0.031 C 
ATOM     67  C   UNL A   1      43.262  28.613  33.855  1.00  0.00     0.034 A 
BRANCH  54  68
ATOM     68  C   UNL A   1      41.262  27.242  28.138  1.00  0.00     0.023 A 
ATOM     69  C   UNL A   1      40.866  25.894  28.090  1.00  0.00     0.031 A 
ATOM     70  C   UNL A   1      41.846  27.794  26.984  1.00  0.00     0.131 A 
ATOM     71  C   UNL A   1      41.134  25.123  26.949  1.00  0.00     0.055 A 
ATOM     72  C   UNL A   1      42.026  27.046  25.818  1.00  0.00     0.041 A 
ATOM     73  F   UNL A   1      42.267  29.069  26.972  1.00  0.00    -0.206 F 
ATOM     74  C   UNL A   1      41.684  25.696  25.801  1.00  0.00     0.022 A 
BRANCH  71  75
ATOM     75  S   UNL A   1      40.896  23.327  27.043  1.00  0.00     0.124 S 
ATOM     76  O   UNL A   1      39.450  23.213  26.864  1.00  0.00    -0.237 OA
ATOM     77  O   UNL A   1      41.716  22.842  25.939  1.00  0.00    -0.237 OA
ATOM     78  O   UNL A   1      41.379  22.986  28.379  1.00  0.00    -0.744 OA
ENDBRANCH  71  75
ENDBRANCH  54  68
BRANCH  55  79
ATOM     79  C   UNL A   1      39.596  32.747  36.368  1.00  0.00     0.023 A 
ATOM     80  C   UNL A   1      38.725  32.258  37.356  1.00  0.00     0.031 A 
ATOM     81  C   UNL A   1      40.173  34.014  36.570  1.00  0.00     0.131 A 
ATOM     82  C   UNL A   1      38.416  33.051  38.472  1.00  0.00     0.055 A 
ATOM     83  C   UNL A   1      39.909  34.772  37.712  1.00  0.00     0.041 A 
ATOM     84  F   UNL A   1      41.015  34.531  35.661  1.00  0.00    -0.206 F 
ATOM     85  C   UNL A   1      39.013  34.298  38.665  1.00  0.00     0.022 A 
BRANCH  82  86
ATOM     86  S   UNL A   1      37.141  32.468  39.624  1.00  0.00     0.124 S 
ATOM     87  O   UNL A   1      37.315  33.385  40.745  1.00  0.00    -0.237 OA
ATOM     88  O   UNL A   1      35.923  32.636  38.839  1.00  0.00    -0.237 OA
ATOM     89  O   UNL A   1      37.527  31.083  39.885  1.00  0.00    -0.744 OA
ENDBRANCH  82  86
ENDBRANCH  55  79
BRANCH  67  90
ATOM     90  C   UNL A   1      44.492  28.107  34.571  1.00  0.00     0.023 A 
ATOM     91  C   UNL A   1      44.459  26.963  35.388  1.00  0.00     0.031 A 
ATOM     92  C   UNL A   1      45.715  28.787  34.436  1.00  0.00     0.131 A 
ATOM     93  C   UNL A   1      45.611  26.571  36.086  1.00  0.00     0.055 A 
ATOM     94  C   UNL A   1      46.875  28.352  35.077  1.00  0.00     0.041 A 
ATOM     95  F   UNL A   1      45.804  29.888  33.672  1.00  0.00    -0.206 F 
ATOM     96  C   UNL A   1      46.824  27.245  35.919  1.00  0.00     0.022 A 
BRANCH  93  97
ATOM     97  S   UNL A   1      45.481  25.226  37.297  1.00  0.00     0.124 S 
ATOM     98  O   UNL A   1      44.582  24.296  36.619  1.00  0.00    -0.237 OA
ATOM     99  O   UNL A   1      46.867  24.789  37.429  1.00  0.00    -0.237 OA
ATOM    100  O   UNL A   1      44.921  25.881  38.477  1.00  0.00    -0.744 OA
ENDBRANCH  93  97
ENDBRANCH  67  90
ENDBRANCH  41  42
ENDBRANCH  33  36
ENDBRANCH  31  32
ENDBRANCH   1  31
TORSDOF 17
ENDMDL
