MODEL 1
REMARK VINA RESULT:     -12.8      0.000      0.000
REMARK SMILES COC(=O)c1ccc([C@H]2Nc3c(C(=O)NCCCNC(=O)c4ccc(-c5c6nc(c(-c7cc(S(=O)(=O)[O-])ccc7F)c7ccc([nH]7)c(-c7cc(S(=O)(=O)[O-])ccc7F)c7nc(c(-c8cc(S(=O)(=O)[O-])ccc8F)c8ccc5[nH]8)C=C7)C=C6)cc4)cccc3[C@@H]3[C@@H]4CC[C@@H](C4)[C@@H]32)cc1
REMARK SMILES IDX 17 1 16 2 15 3 13 4 14 5 12 7 9 8 10 9 95 10 11 11 89 13
REMARK SMILES IDX 93 14 88 15 90 16 92 17 94 18 85 19 87 20 91 21 86 22 8 23
REMARK SMILES IDX 5 24 6 25 97 26 7 27 96 28 3 29 4 30 2 31 1 32 18 33 19 34
REMARK SMILES IDX 20 35 21 37 22 38 23 39 84 40 24 41 83 42 25 43 26 44 27 45
REMARK SMILES IDX 77 46 28 47 82 48 76 49 78 50 29 51 81 52 75 53 74 54 30 56
REMARK SMILES IDX 62 57 42 58 61 59 43 60 46 61 60 62 79 63 44 64 45 65 59 67
REMARK SMILES IDX 80 68 47 69 31 70 32 71 40 72 33 73 39 74 41 75 38 76 34 77
REMARK SMILES IDX 35 78 36 79 37 80 63 81 64 82 72 83 65 84 71 85 73 86 70 87
REMARK SMILES IDX 66 88 67 89 68 90 69 91 48 92 49 93 57 94 50 95 56 96 58 97
REMARK SMILES IDX 55 98 51 99 52 100 53 101 54 102
REMARK H PARENT 15 6 10 12 19 36 78 55 46 66
REMARK Flexibility Score: inf
ROOT
ATOM      1  C   UNL A   1      35.791  21.882  26.017  1.00  0.00     0.042 C 
ENDROOT
BRANCH   1   2
ATOM      2  C   UNL A   1      34.997  23.126  26.321  1.00  0.00     0.118 C 
BRANCH   2   3
ATOM      3  N   UNL A   1      33.878  23.068  27.232  1.00  0.00    -0.352 N 
ATOM      4  C   UNL A   1      32.526  23.152  26.908  1.00  0.00     0.253 C 
ATOM      5  O   UNL A   1      31.700  22.925  27.795  1.00  0.00    -0.269 OA
ATOM      6  H   UNL A   1      34.095  22.958  28.185  1.00  0.00     0.163 HD
BRANCH   4   7
ATOM      7  C   UNL A   1      32.034  23.620  25.566  1.00  0.00     0.063 A 
ATOM      8  C   UNL A   1      32.066  27.165  25.504  1.00  0.00     0.113 C 
ATOM      9  N   UNL A   1      31.595  25.942  26.167  1.00  0.00    -0.377 N 
ATOM     10  C   UNL A   1      30.719  27.697  24.963  1.00  0.00     0.027 C 
ATOM     11  C   UNL A   1      31.472  24.872  25.299  1.00  0.00     0.051 A 
ATOM     12  H   UNL A   1      31.389  25.890  27.129  1.00  0.00     0.161 HD
ATOM     13  C   UNL A   1      30.006  26.489  24.145  1.00  0.00     0.030 C 
ATOM     14  C   UNL A   1      30.613  28.843  23.937  1.00  0.00    -0.005 C 
ATOM     15  C   UNL A   1      30.790  25.176  24.106  1.00  0.00    -0.020 A 
ATOM     16  C   UNL A   1      29.580  27.168  22.834  1.00  0.00    -0.003 C 
ATOM     17  C   UNL A   1      31.491  28.623  22.698  1.00  0.00     0.004 C 
ATOM     18  C   UNL A   1      29.214  28.569  23.341  1.00  0.00     0.008 C 
ATOM     19  C   UNL A   1      32.210  22.776  24.471  1.00  0.00     0.016 A 
ATOM     20  C   UNL A   1      30.892  24.272  23.058  1.00  0.00     0.006 A 
ATOM     21  C   UNL A   1      30.790  27.485  21.948  1.00  0.00     0.004 C 
ATOM     22  C   UNL A   1      31.669  23.114  23.220  1.00  0.00     0.001 A 
BRANCH   8  23
ATOM     23  C   UNL A   1      33.080  27.575  26.585  1.00  0.00    -0.025 A 
ATOM     24  C   UNL A   1      34.339  29.931  27.489  1.00  0.00     0.060 A 
ATOM     25  C   UNL A   1      33.075  29.597  27.970  1.00  0.00     0.016 A 
ATOM     26  C   UNL A   1      35.065  28.970  26.760  1.00  0.00     0.016 A 
ATOM     27  C   UNL A   1      32.477  28.401  27.578  1.00  0.00     0.007 A 
ATOM     28  C   UNL A   1      34.438  27.789  26.301  1.00  0.00     0.007 A 
BRANCH  24  29
ATOM     29  C   UNL A   1      34.745  31.364  27.622  1.00  0.00     0.337 C 
ATOM     30  O   UNL A   1      35.909  31.744  27.612  1.00  0.00    -0.246 OA
BRANCH  29  31
ATOM     31  O   UNL A   1      33.677  32.146  27.911  1.00  0.00    -0.465 OA
ATOM     32  C   UNL A   1      33.925  33.553  27.792  1.00  0.00     0.282 C 
ENDBRANCH  29  31
ENDBRANCH  24  29
ENDBRANCH   8  23
ENDBRANCH   4   7
ENDBRANCH   2   3
ENDBRANCH   1   2
BRANCH   1  33
ATOM     33  C   UNL A   1      36.996  22.065  25.124  1.00  0.00     0.118 C 
BRANCH  33  34
ATOM     34  N   UNL A   1      38.057  21.075  25.287  1.00  0.00    -0.352 N 
ATOM     35  C   UNL A   1      39.239  21.132  26.000  1.00  0.00     0.251 C 
ATOM     36  H   UNL A   1      37.904  20.227  24.811  1.00  0.00     0.163 HD
ATOM     37  O   UNL A   1      39.995  20.165  26.016  1.00  0.00    -0.269 OA
BRANCH  35  38
ATOM     38  C   UNL A   1      39.615  22.384  26.689  1.00  0.00     0.039 A 
ATOM     39  C   UNL A   1      40.605  22.352  27.671  1.00  0.00     0.014 A 
ATOM     40  C   UNL A   1      39.078  23.603  26.277  1.00  0.00     0.014 A 
ATOM     41  C   UNL A   1      41.154  23.552  28.126  1.00  0.00     0.010 A 
ATOM     42  C   UNL A   1      39.739  24.777  26.599  1.00  0.00     0.010 A 
ATOM     43  C   UNL A   1      40.781  24.770  27.533  1.00  0.00    -0.014 A 
BRANCH  43  44
ATOM     44  C   UNL A   1      41.461  26.042  27.886  1.00  0.00     0.031 A 
ATOM     45  C   UNL A   1      42.854  26.313  27.382  1.00  0.00     0.074 A 
ATOM     46  C   UNL A   1      40.845  26.925  28.701  1.00  0.00     0.049 A 
ATOM     47  N   UNL A   1      43.622  27.350  27.591  1.00  0.00    -0.248 NA
ATOM     48  C   UNL A   1      43.487  25.257  26.574  1.00  0.00     0.031 C 
ATOM     49  C   UNL A   1      39.528  26.733  29.318  1.00  0.00     0.029 A 
ATOM     50  N   UNL A   1      41.234  28.164  29.143  1.00  0.00    -0.354 N 
ATOM     51  C   UNL A   1      44.823  27.065  26.950  1.00  0.00     0.074 A 
ATOM     52  C   UNL A   1      44.718  25.718  26.436  1.00  0.00     0.031 C 
ATOM     53  C   UNL A   1      39.196  27.838  30.004  1.00  0.00     0.029 A 
ATOM     54  C   UNL A   1      40.290  28.798  29.920  1.00  0.00     0.049 A 
ATOM     55  H   UNL A   1      42.108  28.562  28.926  1.00  0.00     0.167 HD
ATOM     56  C   UNL A   1      45.900  27.868  26.765  1.00  0.00     0.034 A 
ATOM     57  C   UNL A   1      40.306  30.019  30.491  1.00  0.00     0.034 A 
ATOM     58  C   UNL A   1      45.977  29.214  27.271  1.00  0.00     0.049 A 
ATOM     59  C   UNL A   1      41.513  30.895  30.271  1.00  0.00     0.074 A 
ATOM     60  C   UNL A   1      46.992  30.140  27.107  1.00  0.00     0.029 A 
ATOM     61  N   UNL A   1      44.999  29.827  28.046  1.00  0.00    -0.354 N 
ATOM     62  N   UNL A   1      42.612  30.637  29.600  1.00  0.00    -0.248 NA
ATOM     63  C   UNL A   1      41.472  32.233  30.871  1.00  0.00     0.031 C 
ATOM     64  C   UNL A   1      46.661  31.283  27.844  1.00  0.00     0.029 A 
ATOM     65  C   UNL A   1      45.400  31.107  28.392  1.00  0.00     0.049 A 
ATOM     66  H   UNL A   1      44.146  29.412  28.310  1.00  0.00     0.167 HD
ATOM     67  C   UNL A   1      43.380  31.797  29.668  1.00  0.00     0.074 A 
ATOM     68  C   UNL A   1      42.601  32.759  30.422  1.00  0.00     0.031 C 
ATOM     69  C   UNL A   1      44.614  32.048  29.158  1.00  0.00     0.034 A 
BRANCH  56  70
ATOM     70  C   UNL A   1      47.070  27.292  25.999  1.00  0.00     0.023 A 
ATOM     71  C   UNL A   1      48.092  26.570  26.643  1.00  0.00     0.031 A 
ATOM     72  C   UNL A   1      47.191  27.505  24.616  1.00  0.00     0.131 A 
ATOM     73  C   UNL A   1      49.227  26.168  25.926  1.00  0.00     0.055 A 
ATOM     74  C   UNL A   1      48.280  27.018  23.888  1.00  0.00     0.041 A 
ATOM     75  F   UNL A   1      46.263  28.208  23.948  1.00  0.00    -0.206 F 
ATOM     76  C   UNL A   1      49.316  26.361  24.546  1.00  0.00     0.022 A 
BRANCH  73  77
ATOM     77  S   UNL A   1      50.657  25.539  26.848  1.00  0.00     0.124 S 
ATOM     78  O   UNL A   1      50.076  24.393  27.546  1.00  0.00    -0.237 OA
ATOM     79  O   UNL A   1      51.605  25.224  25.786  1.00  0.00    -0.237 OA
ATOM     80  O   UNL A   1      51.030  26.658  27.709  1.00  0.00    -0.744 OA
ENDBRANCH  73  77
ENDBRANCH  56  70
BRANCH  57  81
ATOM     81  C   UNL A   1      39.150  30.496  31.308  1.00  0.00     0.023 A 
ATOM     82  C   UNL A   1      38.266  31.472  30.818  1.00  0.00     0.031 A 
ATOM     83  C   UNL A   1      38.941  30.022  32.615  1.00  0.00     0.131 A 
ATOM     84  C   UNL A   1      37.253  31.982  31.646  1.00  0.00     0.055 A 
ATOM     85  C   UNL A   1      37.894  30.488  33.414  1.00  0.00     0.041 A 
ATOM     86  F   UNL A   1      39.750  29.085  33.135  1.00  0.00    -0.206 F 
ATOM     87  C   UNL A   1      37.053  31.486  32.936  1.00  0.00     0.022 A 
BRANCH  84  88
ATOM     88  S   UNL A   1      36.259  33.379  31.048  1.00  0.00     0.124 S 
ATOM     89  O   UNL A   1      36.422  34.343  32.129  1.00  0.00    -0.237 OA
ATOM     90  O   UNL A   1      36.923  33.704  29.790  1.00  0.00    -0.237 OA
ATOM     91  O   UNL A   1      34.920  32.810  30.913  1.00  0.00    -0.744 OA
ENDBRANCH  84  88
ENDBRANCH  57  81
BRANCH  69  92
ATOM     92  C   UNL A   1      45.167  33.437  29.368  1.00  0.00     0.023 A 
ATOM     93  C   UNL A   1      44.894  34.484  28.473  1.00  0.00     0.031 A 
ATOM     94  C   UNL A   1      46.015  33.705  30.458  1.00  0.00     0.131 A 
ATOM     95  C   UNL A   1      45.534  35.723  28.630  1.00  0.00     0.055 A 
ATOM     96  C   UNL A   1      46.581  34.965  30.658  1.00  0.00     0.041 A 
ATOM     97  F   UNL A   1      46.314  32.743  31.347  1.00  0.00    -0.206 F 
ATOM     98  C   UNL A   1      46.359  35.976  29.728  1.00  0.00     0.022 A 
BRANCH  95  99
ATOM     99  S   UNL A   1      45.391  36.945  27.298  1.00  0.00     0.124 S 
ATOM    100  O   UNL A   1      45.835  38.167  27.959  1.00  0.00    -0.237 OA
ATOM    101  O   UNL A   1      46.292  36.406  26.283  1.00  0.00    -0.237 OA
ATOM    102  O   UNL A   1      43.972  36.907  26.949  1.00  0.00    -0.744 OA
ENDBRANCH  95  99
ENDBRANCH  69  92
ENDBRANCH  43  44
ENDBRANCH  35  38
ENDBRANCH  33  34
ENDBRANCH   1  33
TORSDOF 16
ENDMDL
MODEL 2
REMARK VINA RESULT:     -12.7      1.301      1.584
REMARK SMILES COC(=O)c1ccc([C@H]2Nc3c(C(=O)NCCCNC(=O)c4ccc(-c5c6nc(c(-c7cc(S(=O)(=O)[O-])ccc7F)c7ccc([nH]7)c(-c7cc(S(=O)(=O)[O-])ccc7F)c7nc(c(-c8cc(S(=O)(=O)[O-])ccc8F)c8ccc5[nH]8)C=C7)C=C6)cc4)cccc3[C@@H]3[C@@H]4CC[C@@H](C4)[C@@H]32)cc1
REMARK SMILES IDX 17 1 16 2 15 3 13 4 14 5 12 7 9 8 10 9 95 10 11 11 89 13
REMARK SMILES IDX 93 14 88 15 90 16 92 17 94 18 85 19 87 20 91 21 86 22 8 23
REMARK SMILES IDX 5 24 6 25 97 26 7 27 96 28 3 29 4 30 2 31 1 32 18 33 19 34
REMARK SMILES IDX 20 35 21 37 22 38 23 39 84 40 24 41 83 42 25 43 26 44 27 45
REMARK SMILES IDX 77 46 28 47 82 48 76 49 78 50 29 51 81 52 75 53 74 54 30 56
REMARK SMILES IDX 62 57 42 58 61 59 43 60 46 61 60 62 79 63 44 64 45 65 59 67
REMARK SMILES IDX 80 68 47 69 31 70 32 71 40 72 33 73 39 74 41 75 38 76 34 77
REMARK SMILES IDX 35 78 36 79 37 80 63 81 64 82 72 83 65 84 71 85 73 86 70 87
REMARK SMILES IDX 66 88 67 89 68 90 69 91 48 92 49 93 57 94 50 95 56 96 58 97
REMARK SMILES IDX 55 98 51 99 52 100 53 101 54 102
REMARK H PARENT 15 6 10 12 19 36 78 55 46 66
REMARK Flexibility Score: inf
ROOT
ATOM      1  C   UNL A   1      35.640  22.133  25.929  1.00  0.00     0.042 C 
ENDROOT
BRANCH   1   2
ATOM      2  C   UNL A   1      34.847  23.346  26.343  1.00  0.00     0.118 C 
BRANCH   2   3
ATOM      3  N   UNL A   1      33.725  23.207  27.240  1.00  0.00    -0.352 N 
ATOM      4  C   UNL A   1      32.374  23.234  26.906  1.00  0.00     0.253 C 
ATOM      5  O   UNL A   1      31.552  22.943  27.778  1.00  0.00    -0.269 OA
ATOM      6  H   UNL A   1      33.939  23.082  28.193  1.00  0.00     0.163 HD
BRANCH   4   7
ATOM      7  C   UNL A   1      31.871  23.715  25.572  1.00  0.00     0.063 A 
ATOM      8  C   UNL A   1      32.060  27.254  25.482  1.00  0.00     0.113 C 
ATOM      9  N   UNL A   1      31.551  26.058  26.165  1.00  0.00    -0.377 N 
ATOM     10  C   UNL A   1      30.725  27.842  24.968  1.00  0.00     0.027 C 
ATOM     11  C   UNL A   1      31.359  24.988  25.309  1.00  0.00     0.051 A 
ATOM     12  H   UNL A   1      31.366  26.022  27.132  1.00  0.00     0.161 HD
ATOM     13  C   UNL A   1      29.940  26.662  24.177  1.00  0.00     0.030 C 
ATOM     14  C   UNL A   1      30.646  28.985  23.936  1.00  0.00    -0.005 C 
ATOM     15  C   UNL A   1      30.663  25.315  24.130  1.00  0.00    -0.020 A 
ATOM     16  C   UNL A   1      29.513  27.351  22.872  1.00  0.00    -0.003 C 
ATOM     17  C   UNL A   1      31.484  28.718  22.679  1.00  0.00     0.004 C 
ATOM     18  C   UNL A   1      29.222  28.771  23.376  1.00  0.00     0.008 C 
ATOM     19  C   UNL A   1      31.983  22.856  24.480  1.00  0.00     0.016 A 
ATOM     20  C   UNL A   1      30.699  24.400  23.087  1.00  0.00     0.006 A 
ATOM     21  C   UNL A   1      30.714  27.607  21.954  1.00  0.00     0.004 C 
ATOM     22  C   UNL A   1      31.427  23.210  23.240  1.00  0.00     0.001 A 
BRANCH   8  23
ATOM     23  C   UNL A   1      33.117  27.626  26.535  1.00  0.00    -0.025 A 
ATOM     24  C   UNL A   1      34.420  29.947  27.465  1.00  0.00     0.060 A 
ATOM     25  C   UNL A   1      33.175  29.602  27.985  1.00  0.00     0.016 A 
ATOM     26  C   UNL A   1      35.113  29.008  26.677  1.00  0.00     0.016 A 
ATOM     27  C   UNL A   1      32.557  28.420  27.577  1.00  0.00     0.007 A 
ATOM     28  C   UNL A   1      34.463  27.845  26.205  1.00  0.00     0.007 A 
BRANCH  24  29
ATOM     29  C   UNL A   1      34.837  31.374  27.629  1.00  0.00     0.337 C 
ATOM     30  O   UNL A   1      35.999  31.728  27.782  1.00  0.00    -0.246 OA
BRANCH  29  31
ATOM     31  O   UNL A   1      33.757  32.184  27.743  1.00  0.00    -0.465 OA
ATOM     32  C   UNL A   1      34.074  33.556  28.019  1.00  0.00     0.282 C 
ENDBRANCH  29  31
ENDBRANCH  24  29
ENDBRANCH   8  23
ENDBRANCH   4   7
ENDBRANCH   2   3
ENDBRANCH   1   2
BRANCH   1  33
ATOM     33  C   UNL A   1      36.891  22.399  25.124  1.00  0.00     0.118 C 
BRANCH  33  34
ATOM     34  N   UNL A   1      37.943  21.394  25.245  1.00  0.00    -0.352 N 
ATOM     35  C   UNL A   1      39.131  21.415  25.949  1.00  0.00     0.251 C 
ATOM     36  H   UNL A   1      37.778  20.564  24.741  1.00  0.00     0.163 HD
ATOM     37  O   UNL A   1      39.878  20.440  25.924  1.00  0.00    -0.269 OA
BRANCH  35  38
ATOM     38  C   UNL A   1      39.526  22.639  26.677  1.00  0.00     0.039 A 
ATOM     39  C   UNL A   1      40.525  22.563  27.648  1.00  0.00     0.014 A 
ATOM     40  C   UNL A   1      38.997  23.876  26.314  1.00  0.00     0.014 A 
ATOM     41  C   UNL A   1      41.089  23.741  28.138  1.00  0.00     0.010 A 
ATOM     42  C   UNL A   1      39.672  25.032  26.669  1.00  0.00     0.010 A 
ATOM     43  C   UNL A   1      40.723  24.983  27.592  1.00  0.00    -0.014 A 
BRANCH  43  44
ATOM     44  C   UNL A   1      41.418  26.236  27.982  1.00  0.00     0.031 A 
ATOM     45  C   UNL A   1      42.812  26.506  27.482  1.00  0.00     0.074 A 
ATOM     46  C   UNL A   1      40.814  27.099  28.828  1.00  0.00     0.049 A 
ATOM     47  N   UNL A   1      43.592  27.528  27.721  1.00  0.00    -0.248 NA
ATOM     48  C   UNL A   1      43.430  25.470  26.639  1.00  0.00     0.031 C 
ATOM     49  C   UNL A   1      39.498  26.901  29.444  1.00  0.00     0.029 A 
ATOM     50  N   UNL A   1      41.218  28.318  29.308  1.00  0.00    -0.354 N 
ATOM     51  C   UNL A   1      44.788  27.250  27.066  1.00  0.00     0.074 A 
ATOM     52  C   UNL A   1      44.666  25.922  26.511  1.00  0.00     0.031 C 
ATOM     53  C   UNL A   1      39.180  27.988  30.166  1.00  0.00     0.029 A 
ATOM     54  C   UNL A   1      40.284  28.938  30.108  1.00  0.00     0.049 A 
ATOM     55  H   UNL A   1      42.096  28.713  29.100  1.00  0.00     0.167 HD
ATOM     56  C   UNL A   1      45.873  28.047  26.903  1.00  0.00     0.034 A 
ATOM     57  C   UNL A   1      40.316  30.139  30.717  1.00  0.00     0.034 A 
ATOM     58  C   UNL A   1      45.966  29.375  27.451  1.00  0.00     0.049 A 
ATOM     59  C   UNL A   1      41.533  31.009  30.521  1.00  0.00     0.074 A 
ATOM     60  C   UNL A   1      46.991  30.295  27.313  1.00  0.00     0.029 A 
ATOM     61  N   UNL A   1      44.998  29.974  28.249  1.00  0.00    -0.354 N 
ATOM     62  N   UNL A   1      42.626  30.760  29.837  1.00  0.00    -0.248 NA
ATOM     63  C   UNL A   1      41.509  32.328  31.163  1.00  0.00     0.031 C 
ATOM     64  C   UNL A   1      46.676  31.417  28.087  1.00  0.00     0.029 A 
ATOM     65  C   UNL A   1      45.415  31.238  28.634  1.00  0.00     0.049 A 
ATOM     66  H   UNL A   1      44.142  29.560  28.503  1.00  0.00     0.167 HD
ATOM     67  C   UNL A   1      43.407  31.909  29.940  1.00  0.00     0.074 A 
ATOM     68  C   UNL A   1      42.641  32.855  30.726  1.00  0.00     0.031 C 
ATOM     69  C   UNL A   1      44.642  32.162  29.433  1.00  0.00     0.034 A 
BRANCH  56  70
ATOM     70  C   UNL A   1      47.033  27.483  26.114  1.00  0.00     0.023 A 
ATOM     71  C   UNL A   1      47.291  27.884  24.790  1.00  0.00     0.031 A 
ATOM     72  C   UNL A   1      47.865  26.499  26.674  1.00  0.00     0.131 A 
ATOM     73  C   UNL A   1      48.290  27.243  24.044  1.00  0.00     0.055 A 
ATOM     74  C   UNL A   1      48.921  25.931  25.956  1.00  0.00     0.041 A 
ATOM     75  F   UNL A   1      47.655  26.054  27.922  1.00  0.00    -0.206 F 
ATOM     76  C   UNL A   1      49.127  26.289  24.626  1.00  0.00     0.022 A 
BRANCH  73  77
ATOM     77  S   UNL A   1      48.371  27.554  22.258  1.00  0.00     0.124 S 
ATOM     78  O   UNL A   1      48.529  26.199  21.731  1.00  0.00    -0.237 OA
ATOM     79  O   UNL A   1      47.090  28.197  21.991  1.00  0.00    -0.237 OA
ATOM     80  O   UNL A   1      49.545  28.410  22.111  1.00  0.00    -0.744 OA
ENDBRANCH  73  77
ENDBRANCH  56  70
BRANCH  57  81
ATOM     81  C   UNL A   1      39.169  30.604  31.554  1.00  0.00     0.023 A 
ATOM     82  C   UNL A   1      38.262  31.565  31.077  1.00  0.00     0.031 A 
ATOM     83  C   UNL A   1      38.991  30.130  32.866  1.00  0.00     0.131 A 
ATOM     84  C   UNL A   1      37.257  32.064  31.921  1.00  0.00     0.055 A 
ATOM     85  C   UNL A   1      37.952  30.585  33.682  1.00  0.00     0.041 A 
ATOM     86  F   UNL A   1      39.822  29.207  33.374  1.00  0.00    -0.206 F 
ATOM     87  C   UNL A   1      37.087  31.569  33.216  1.00  0.00     0.022 A 
BRANCH  84  88
ATOM     88  S   UNL A   1      36.233  33.444  31.337  1.00  0.00     0.124 S 
ATOM     89  O   UNL A   1      34.939  32.798  31.158  1.00  0.00    -0.237 OA
ATOM     90  O   UNL A   1      36.335  34.385  32.447  1.00  0.00    -0.237 OA
ATOM     91  O   UNL A   1      36.899  33.863  30.105  1.00  0.00    -0.744 OA
ENDBRANCH  84  88
ENDBRANCH  57  81
BRANCH  69  92
ATOM     92  C   UNL A   1      45.211  33.538  29.685  1.00  0.00     0.023 A 
ATOM     93  C   UNL A   1      44.943  34.617  28.827  1.00  0.00     0.031 A 
ATOM     94  C   UNL A   1      46.069  33.761  30.776  1.00  0.00     0.131 A 
ATOM     95  C   UNL A   1      45.597  35.843  29.019  1.00  0.00     0.055 A 
ATOM     96  C   UNL A   1      46.651  35.008  31.013  1.00  0.00     0.041 A 
ATOM     97  F   UNL A   1      46.365  32.767  31.630  1.00  0.00    -0.206 F 
ATOM     98  C   UNL A   1      46.432  36.051  30.120  1.00  0.00     0.022 A 
BRANCH  95  99
ATOM     99  S   UNL A   1      45.457  37.110  27.730  1.00  0.00     0.124 S 
ATOM    100  O   UNL A   1      44.398  36.568  26.887  1.00  0.00    -0.237 OA
ATOM    101  O   UNL A   1      45.111  38.302  28.501  1.00  0.00    -0.237 OA
ATOM    102  O   UNL A   1      46.787  37.130  27.123  1.00  0.00    -0.744 OA
ENDBRANCH  95  99
ENDBRANCH  69  92
ENDBRANCH  43  44
ENDBRANCH  35  38
ENDBRANCH  33  34
ENDBRANCH   1  33
TORSDOF 16
ENDMDL
MODEL 3
REMARK VINA RESULT:     -12.4      1.518      7.338
REMARK SMILES COC(=O)c1ccc([C@H]2Nc3c(C(=O)NCCCNC(=O)c4ccc(-c5c6nc(c(-c7cc(S(=O)(=O)[O-])ccc7F)c7ccc([nH]7)c(-c7cc(S(=O)(=O)[O-])ccc7F)c7nc(c(-c8cc(S(=O)(=O)[O-])ccc8F)c8ccc5[nH]8)C=C7)C=C6)cc4)cccc3[C@@H]3[C@@H]4CC[C@@H](C4)[C@@H]32)cc1
REMARK SMILES IDX 17 1 16 2 15 3 13 4 14 5 12 7 9 8 10 9 95 10 11 11 89 13
REMARK SMILES IDX 93 14 88 15 90 16 92 17 94 18 85 19 87 20 91 21 86 22 8 23
REMARK SMILES IDX 5 24 6 25 97 26 7 27 96 28 3 29 4 30 2 31 1 32 18 33 19 34
REMARK SMILES IDX 20 35 21 37 22 38 23 39 84 40 24 41 83 42 25 43 26 44 27 45
REMARK SMILES IDX 77 46 28 47 82 48 76 49 78 50 29 51 81 52 75 53 74 54 30 56
REMARK SMILES IDX 62 57 42 58 61 59 43 60 46 61 60 62 79 63 44 64 45 65 59 67
REMARK SMILES IDX 80 68 47 69 31 70 32 71 40 72 33 73 39 74 41 75 38 76 34 77
REMARK SMILES IDX 35 78 36 79 37 80 63 81 64 82 72 83 65 84 71 85 73 86 70 87
REMARK SMILES IDX 66 88 67 89 68 90 69 91 48 92 49 93 57 94 50 95 56 96 58 97
REMARK SMILES IDX 55 98 51 99 52 100 53 101 54 102
REMARK H PARENT 15 6 10 12 19 36 78 55 46 66
REMARK Flexibility Score: inf
ROOT
ATOM      1  C   UNL A   1      35.724  21.856  25.807  1.00  0.00     0.042 C 
ENDROOT
BRANCH   1   2
ATOM      2  C   UNL A   1      34.995  23.115  26.201  1.00  0.00     0.118 C 
BRANCH   2   3
ATOM      3  N   UNL A   1      33.918  23.060  27.161  1.00  0.00    -0.352 N 
ATOM      4  C   UNL A   1      32.554  23.148  26.899  1.00  0.00     0.253 C 
ATOM      5  O   UNL A   1      31.768  22.923  27.822  1.00  0.00    -0.269 OA
ATOM      6  H   UNL A   1      34.178  22.949  28.104  1.00  0.00     0.163 HD
BRANCH   4   7
ATOM      7  C   UNL A   1      32.003  23.617  25.580  1.00  0.00     0.063 A 
ATOM      8  C   UNL A   1      32.102  27.160  25.490  1.00  0.00     0.113 C 
ATOM      9  N   UNL A   1      31.641  25.951  26.185  1.00  0.00    -0.377 N 
ATOM     10  C   UNL A   1      30.740  27.715  25.014  1.00  0.00     0.027 C 
ATOM     11  C   UNL A   1      31.453  24.878  25.333  1.00  0.00     0.051 A 
ATOM     12  H   UNL A   1      31.484  25.910  27.156  1.00  0.00     0.161 HD
ATOM     13  C   UNL A   1      29.963  26.517  24.242  1.00  0.00     0.030 C 
ATOM     14  C   UNL A   1      30.604  28.857  23.986  1.00  0.00    -0.005 C 
ATOM     15  C   UNL A   1      30.717  25.188  24.173  1.00  0.00    -0.020 A 
ATOM     16  C   UNL A   1      29.483  27.196  22.950  1.00  0.00    -0.003 C 
ATOM     17  C   UNL A   1      31.414  28.612  22.706  1.00  0.00     0.004 C 
ATOM     18  C   UNL A   1      29.172  28.608  23.464  1.00  0.00     0.008 C 
ATOM     19  C   UNL A   1      32.106  22.762  24.483  1.00  0.00     0.016 A 
ATOM     20  C   UNL A   1      30.748  24.275  23.129  1.00  0.00     0.006 A 
ATOM     21  C   UNL A   1      30.653  27.483  22.001  1.00  0.00     0.004 C 
ATOM     22  C   UNL A   1      31.509  23.103  23.260  1.00  0.00     0.001 A 
BRANCH   8  23
ATOM     23  C   UNL A   1      33.178  27.557  26.515  1.00  0.00    -0.025 A 
ATOM     24  C   UNL A   1      34.414  29.914  27.447  1.00  0.00     0.060 A 
ATOM     25  C   UNL A   1      33.203  29.506  28.000  1.00  0.00     0.016 A 
ATOM     26  C   UNL A   1      35.118  29.020  26.618  1.00  0.00     0.016 A 
ATOM     27  C   UNL A   1      32.621  28.307  27.590  1.00  0.00     0.007 A 
ATOM     28  C   UNL A   1      34.502  27.839  26.144  1.00  0.00     0.007 A 
BRANCH  24  29
ATOM     29  C   UNL A   1      34.776  31.354  27.625  1.00  0.00     0.337 C 
ATOM     30  O   UNL A   1      35.913  31.744  27.859  1.00  0.00    -0.246 OA
BRANCH  29  31
ATOM     31  O   UNL A   1      33.668  32.132  27.651  1.00  0.00    -0.465 OA
ATOM     32  C   UNL A   1      33.928  33.522  27.894  1.00  0.00     0.282 C 
ENDBRANCH  29  31
ENDBRANCH  24  29
ENDBRANCH   8  23
ENDBRANCH   4   7
ENDBRANCH   2   3
ENDBRANCH   1   2
BRANCH   1  33
ATOM     33  C   UNL A   1      37.039  22.046  25.088  1.00  0.00     0.118 C 
BRANCH  33  34
ATOM     34  N   UNL A   1      38.047  21.021  25.337  1.00  0.00    -0.352 N 
ATOM     35  C   UNL A   1      39.222  21.072  26.062  1.00  0.00     0.251 C 
ATOM     36  H   UNL A   1      37.859  20.149  24.921  1.00  0.00     0.163 HD
ATOM     37  O   UNL A   1      39.929  20.073  26.158  1.00  0.00    -0.269 OA
BRANCH  35  38
ATOM     38  C   UNL A   1      39.651  22.351  26.665  1.00  0.00     0.039 A 
ATOM     39  C   UNL A   1      40.694  22.352  27.593  1.00  0.00     0.014 A 
ATOM     40  C   UNL A   1      39.108  23.555  26.224  1.00  0.00     0.014 A 
ATOM     41  C   UNL A   1      41.282  23.564  27.955  1.00  0.00     0.010 A 
ATOM     42  C   UNL A   1      39.800  24.734  26.449  1.00  0.00     0.010 A 
ATOM     43  C   UNL A   1      40.892  24.757  27.324  1.00  0.00    -0.014 A 
BRANCH  43  44
ATOM     44  C   UNL A   1      41.606  26.035  27.575  1.00  0.00     0.031 A 
ATOM     45  C   UNL A   1      40.974  27.089  28.444  1.00  0.00     0.074 A 
ATOM     46  C   UNL A   1      42.795  26.264  26.977  1.00  0.00     0.049 A 
ATOM     47  N   UNL A   1      41.425  28.273  28.769  1.00  0.00    -0.248 NA
ATOM     48  C   UNL A   1      39.635  26.794  28.982  1.00  0.00     0.031 C 
ATOM     49  C   UNL A   1      43.466  25.349  26.046  1.00  0.00     0.029 A 
ATOM     50  N   UNL A   1      43.658  27.326  27.067  1.00  0.00    -0.354 N 
ATOM     51  C   UNL A   1      40.425  28.859  29.537  1.00  0.00     0.074 A 
ATOM     52  C   UNL A   1      39.305  27.946  29.541  1.00  0.00     0.031 C 
ATOM     53  C   UNL A   1      44.659  25.863  25.705  1.00  0.00     0.029 A 
ATOM     54  C   UNL A   1      44.820  27.161  26.348  1.00  0.00     0.049 A 
ATOM     55  H   UNL A   1      43.462  28.133  27.597  1.00  0.00     0.167 HD
ATOM     56  C   UNL A   1      40.452  30.032  30.217  1.00  0.00     0.034 A 
ATOM     57  C   UNL A   1      45.896  27.965  26.229  1.00  0.00     0.034 A 
ATOM     58  C   UNL A   1      41.586  30.920  30.213  1.00  0.00     0.049 A 
ATOM     59  C   UNL A   1      45.904  29.264  26.995  1.00  0.00     0.074 A 
ATOM     60  C   UNL A   1      41.751  32.110  30.900  1.00  0.00     0.029 A 
ATOM     61  N   UNL A   1      42.750  30.717  29.481  1.00  0.00    -0.354 N 
ATOM     62  N   UNL A   1      44.978  29.771  27.777  1.00  0.00    -0.248 NA
ATOM     63  C   UNL A   1      47.112  30.089  26.876  1.00  0.00     0.031 C 
ATOM     64  C   UNL A   1      42.981  32.662  30.524  1.00  0.00     0.029 A 
ATOM     65  C   UNL A   1      43.624  31.774  29.676  1.00  0.00     0.049 A 
ATOM     66  H   UNL A   1      42.926  29.937  28.907  1.00  0.00     0.167 HD
ATOM     67  C   UNL A   1      45.508  30.961  28.271  1.00  0.00     0.074 A 
ATOM     68  C   UNL A   1      46.844  31.074  27.718  1.00  0.00     0.031 C 
ATOM     69  C   UNL A   1      44.948  31.876  29.103  1.00  0.00     0.034 A 
BRANCH  56  70
ATOM     70  C   UNL A   1      39.213  30.409  30.997  1.00  0.00     0.023 A 
ATOM     71  C   UNL A   1      38.366  31.453  30.581  1.00  0.00     0.031 A 
ATOM     72  C   UNL A   1      38.897  29.749  32.196  1.00  0.00     0.131 A 
ATOM     73  C   UNL A   1      37.303  31.865  31.398  1.00  0.00     0.055 A 
ATOM     74  C   UNL A   1      37.781  30.101  32.959  1.00  0.00     0.041 A 
ATOM     75  F   UNL A   1      39.679  28.763  32.662  1.00  0.00    -0.206 F 
ATOM     76  C   UNL A   1      36.987  31.177  32.571  1.00  0.00     0.022 A 
BRANCH  73  77
ATOM     77  S   UNL A   1      36.446  33.411  30.991  1.00  0.00     0.124 S 
ATOM     78  O   UNL A   1      35.055  32.965  30.917  1.00  0.00    -0.237 OA
ATOM     79  O   UNL A   1      36.782  34.265  32.124  1.00  0.00    -0.237 OA
ATOM     80  O   UNL A   1      37.035  33.805  29.714  1.00  0.00    -0.744 OA
ENDBRANCH  73  77
ENDBRANCH  56  70
BRANCH  57  81
ATOM     81  C   UNL A   1      47.055  27.572  25.373  1.00  0.00     0.023 A 
ATOM     82  C   UNL A   1      47.128  27.959  24.025  1.00  0.00     0.031 A 
ATOM     83  C   UNL A   1      48.084  26.756  25.877  1.00  0.00     0.131 A 
ATOM     84  C   UNL A   1      48.172  27.487  23.213  1.00  0.00     0.055 A 
ATOM     85  C   UNL A   1      49.153  26.337  25.081  1.00  0.00     0.041 A 
ATOM     86  F   UNL A   1      48.070  26.359  27.159  1.00  0.00    -0.206 F 
ATOM     87  C   UNL A   1      49.193  26.690  23.737  1.00  0.00     0.022 A 
BRANCH  84  88
ATOM     88  S   UNL A   1      48.125  27.845  21.435  1.00  0.00     0.124 S 
ATOM     89  O   UNL A   1      48.374  26.529  20.860  1.00  0.00    -0.237 OA
ATOM     90  O   UNL A   1      46.775  28.374  21.270  1.00  0.00    -0.237 OA
ATOM     91  O   UNL A   1      49.199  28.820  21.256  1.00  0.00    -0.744 OA
ENDBRANCH  84  88
ENDBRANCH  57  81
BRANCH  69  92
ATOM     92  C   UNL A   1      45.806  33.056  29.494  1.00  0.00     0.023 A 
ATOM     93  C   UNL A   1      45.805  34.249  28.752  1.00  0.00     0.031 A 
ATOM     94  C   UNL A   1      46.668  32.969  30.601  1.00  0.00     0.131 A 
ATOM     95  C   UNL A   1      46.713  35.270  29.068  1.00  0.00     0.055 A 
ATOM     96  C   UNL A   1      47.509  34.023  30.964  1.00  0.00     0.041 A 
ATOM     97  F   UNL A   1      46.715  31.853  31.348  1.00  0.00    -0.206 F 
ATOM     98  C   UNL A   1      47.549  35.173  30.182  1.00  0.00     0.022 A 
BRANCH  95  99
ATOM     99  S   UNL A   1      46.888  36.659  27.916  1.00  0.00     0.124 S 
ATOM    100  O   UNL A   1      46.377  36.089  26.675  1.00  0.00    -0.237 OA
ATOM    101  O   UNL A   1      46.054  37.685  28.536  1.00  0.00    -0.237 OA
ATOM    102  O   UNL A   1      48.323  36.936  27.929  1.00  0.00    -0.744 OA
ENDBRANCH  95  99
ENDBRANCH  69  92
ENDBRANCH  43  44
ENDBRANCH  35  38
ENDBRANCH  33  34
ENDBRANCH   1  33
TORSDOF 16
ENDMDL
