MODEL 1
REMARK VINA RESULT:     -12.1      0.000      0.000
REMARK SMILES CC[C@@H](C(=O)NCCCNC(=O)c1ccc(-c2c3nc(c(-c4cc(S(=O)(=O)[O-])ccc4F)c4ccc([nH]4)c(-c4cc(S(=O)(=O)[O-])ccc4F)c4nc(c(-c5cc(S(=O)(=O)[O-])ccc5F)c5ccc2[nH]5)C=C4)C=C3)cc1)N1CCN(Cc2cccc(C)c2)C(=O)C1=O
REMARK SMILES IDX 8 1 7 2 6 3 4 4 5 5 3 7 2 8 1 9 76 10 77 11 90 12 78 13
REMARK SMILES IDX 88 14 91 15 79 16 89 17 80 18 81 19 82 20 87 21 83 22 85 23
REMARK SMILES IDX 84 24 86 25 9 26 10 27 11 28 12 30 13 31 14 32 75 33 15 34
REMARK SMILES IDX 74 35 16 36 17 37 18 38 68 39 19 40 73 41 67 42 69 43 20 44
REMARK SMILES IDX 72 45 66 46 65 47 21 49 53 50 33 51 52 52 34 53 37 54 51 55
REMARK SMILES IDX 70 56 35 57 36 58 50 60 71 61 38 62 22 63 23 64 31 65 24 66
REMARK SMILES IDX 30 67 32 68 29 69 25 70 26 71 27 72 28 73 54 74 55 75 63 76
REMARK SMILES IDX 56 77 62 78 64 79 61 80 57 81 58 82 59 83 60 84 39 85 40 86
REMARK SMILES IDX 48 87 41 88 47 89 49 90 46 91 42 92 43 93 44 94 45 95
REMARK H PARENT 6 6 10 29 69 48 37 59
REMARK Flexibility Score: inf
ROOT
ATOM      1  C   UNL A   1      31.118  32.007  26.607  1.00  0.00     0.042 C 
ENDROOT
BRANCH   1   2
ATOM      2  C   UNL A   1      31.164  30.966  25.486  1.00  0.00     0.117 C 
BRANCH   2   3
ATOM      3  N   UNL A   1      32.431  30.248  25.455  1.00  0.00    -0.354 N 
ATOM      4  C   UNL A   1      32.721  28.911  25.385  1.00  0.00     0.242 C 
ATOM      5  O   UNL A   1      33.902  28.575  25.509  1.00  0.00    -0.273 OA
ATOM      6  H   UNL A   1      33.225  30.830  25.491  1.00  0.00     0.163 HD
BRANCH   4   7
ATOM      7  C   UNL A   1      31.590  27.860  25.214  1.00  0.00     0.174 C 
BRANCH   7   8
ATOM      8  C   UNL A   1      31.195  27.385  26.641  1.00  0.00     0.032 C 
ATOM      9  C   UNL A   1      31.829  28.152  27.783  1.00  0.00     0.006 C 
ENDBRANCH   7   8
BRANCH   7  10
ATOM     10  N   UNL A   1      32.024  26.696  24.380  1.00  0.00    -0.321 N 
ATOM     11  C   UNL A   1      31.916  25.344  24.925  1.00  0.00     0.142 C 
ATOM     12  C   UNL A   1      32.200  26.811  22.987  1.00  0.00     0.312 C 
ATOM     13  C   UNL A   1      31.474  24.345  23.861  1.00  0.00     0.142 C 
ATOM     14  C   UNL A   1      32.839  25.553  22.273  1.00  0.00     0.312 C 
ATOM     15  O   UNL A   1      31.847  27.778  22.326  1.00  0.00    -0.263 OA
ATOM     16  N   UNL A   1      32.449  24.316  22.798  1.00  0.00    -0.328 N 
ATOM     17  O   UNL A   1      33.599  25.687  21.324  1.00  0.00    -0.263 OA
BRANCH  16  18
ATOM     18  C   UNL A   1      32.872  23.052  22.200  1.00  0.00     0.155 C 
BRANCH  18  19
ATOM     19  C   UNL A   1      33.276  21.982  23.199  1.00  0.00    -0.028 A 
ATOM     20  C   UNL A   1      32.442  20.880  23.431  1.00  0.00     0.005 A 
ATOM     21  C   UNL A   1      34.465  22.075  23.943  1.00  0.00     0.009 A 
ATOM     22  C   UNL A   1      32.789  19.906  24.371  1.00  0.00     0.001 A 
ATOM     23  C   UNL A   1      34.860  21.066  24.834  1.00  0.00    -0.051 A 
ATOM     24  C   UNL A   1      33.998  19.992  25.063  1.00  0.00     0.003 A 
ATOM     25  C   UNL A   1      36.175  21.153  25.551  1.00  0.00     0.044 C 
ENDBRANCH  18  19
ENDBRANCH  16  18
ENDBRANCH   7  10
ENDBRANCH   4   7
ENDBRANCH   2   3
ENDBRANCH   1   2
BRANCH   1  26
ATOM     26  C   UNL A   1      32.486  32.446  27.120  1.00  0.00     0.118 C 
BRANCH  26  27
ATOM     27  N   UNL A   1      32.493  33.845  27.510  1.00  0.00    -0.352 N 
ATOM     28  C   UNL A   1      33.237  34.487  28.471  1.00  0.00     0.251 C 
ATOM     29  H   UNL A   1      31.870  34.420  27.010  1.00  0.00     0.163 HD
ATOM     30  O   UNL A   1      32.911  35.625  28.802  1.00  0.00    -0.269 OA
BRANCH  28  31
ATOM     31  C   UNL A   1      34.405  33.835  29.123  1.00  0.00     0.039 A 
ATOM     32  C   UNL A   1      34.169  32.801  30.037  1.00  0.00     0.014 A 
ATOM     33  C   UNL A   1      35.716  34.271  28.913  1.00  0.00     0.014 A 
ATOM     34  C   UNL A   1      35.237  32.193  30.711  1.00  0.00     0.010 A 
ATOM     35  C   UNL A   1      36.787  33.615  29.528  1.00  0.00     0.010 A 
ATOM     36  C   UNL A   1      36.560  32.585  30.454  1.00  0.00    -0.014 A 
BRANCH  36  37
ATOM     37  C   UNL A   1      37.703  31.975  31.192  1.00  0.00     0.031 A 
ATOM     38  C   UNL A   1      38.538  30.904  30.531  1.00  0.00     0.074 A 
ATOM     39  C   UNL A   1      37.973  32.347  32.460  1.00  0.00     0.049 A 
ATOM     40  N   UNL A   1      39.529  30.203  31.021  1.00  0.00    -0.248 NA
ATOM     41  C   UNL A   1      38.191  30.557  29.143  1.00  0.00     0.031 C 
ATOM     42  C   UNL A   1      37.220  33.341  33.227  1.00  0.00     0.029 A 
ATOM     43  N   UNL A   1      38.948  31.927  33.331  1.00  0.00    -0.354 N 
ATOM     44  C   UNL A   1      39.901  29.313  30.018  1.00  0.00     0.074 A 
ATOM     45  C   UNL A   1      39.000  29.536  28.907  1.00  0.00     0.031 C 
ATOM     46  C   UNL A   1      37.769  33.463  34.448  1.00  0.00     0.029 A 
ATOM     47  C   UNL A   1      38.890  32.535  34.566  1.00  0.00     0.049 A 
ATOM     48  H   UNL A   1      39.625  31.252  33.096  1.00  0.00     0.167 HD
ATOM     49  C   UNL A   1      40.911  28.407  30.014  1.00  0.00     0.034 A 
ATOM     50  C   UNL A   1      39.648  32.360  35.667  1.00  0.00     0.034 A 
ATOM     51  C   UNL A   1      41.833  28.225  31.107  1.00  0.00     0.049 A 
ATOM     52  C   UNL A   1      40.793  31.377  35.621  1.00  0.00     0.074 A 
ATOM     53  C   UNL A   1      42.929  27.381  31.178  1.00  0.00     0.029 A 
ATOM     54  N   UNL A   1      41.775  28.899  32.318  1.00  0.00    -0.354 N 
ATOM     55  N   UNL A   1      41.161  30.583  34.642  1.00  0.00    -0.248 NA
ATOM     56  C   UNL A   1      41.637  31.283  36.819  1.00  0.00     0.031 C 
ATOM     57  C   UNL A   1      43.502  27.509  32.448  1.00  0.00     0.029 A 
ATOM     58  C   UNL A   1      42.804  28.480  33.146  1.00  0.00     0.049 A 
ATOM     59  H   UNL A   1      41.100  29.576  32.555  1.00  0.00     0.167 HD
ATOM     60  C   UNL A   1      42.303  29.928  35.095  1.00  0.00     0.074 A 
ATOM     61  C   UNL A   1      42.570  30.428  36.427  1.00  0.00     0.031 C 
ATOM     62  C   UNL A   1      43.066  28.997  34.467  1.00  0.00     0.034 A 
BRANCH  49  63
ATOM     63  C   UNL A   1      41.057  27.528  28.795  1.00  0.00     0.023 A 
ATOM     64  C   UNL A   1      42.074  27.735  27.848  1.00  0.00     0.031 A 
ATOM     65  C   UNL A   1      40.162  26.464  28.581  1.00  0.00     0.131 A 
ATOM     66  C   UNL A   1      42.134  26.932  26.699  1.00  0.00     0.055 A 
ATOM     67  C   UNL A   1      40.272  25.622  27.473  1.00  0.00     0.041 A 
ATOM     68  F   UNL A   1      39.161  26.229  29.444  1.00  0.00    -0.206 F 
ATOM     69  C   UNL A   1      41.256  25.860  26.517  1.00  0.00     0.022 A 
BRANCH  66  70
ATOM     70  S   UNL A   1      43.311  27.372  25.392  1.00  0.00     0.124 S 
ATOM     71  O   UNL A   1      44.111  28.402  26.051  1.00  0.00    -0.237 OA
ATOM     72  O   UNL A   1      43.987  26.107  25.133  1.00  0.00    -0.237 OA
ATOM     73  O   UNL A   1      42.456  27.854  24.309  1.00  0.00    -0.744 OA
ENDBRANCH  66  70
ENDBRANCH  49  63
BRANCH  50  74
ATOM     74  C   UNL A   1      39.362  33.122  36.919  1.00  0.00     0.023 A 
ATOM     75  C   UNL A   1      38.556  32.577  37.932  1.00  0.00     0.031 A 
ATOM     76  C   UNL A   1      39.831  34.436  37.087  1.00  0.00     0.131 A 
ATOM     77  C   UNL A   1      38.191  33.363  39.035  1.00  0.00     0.055 A 
ATOM     78  C   UNL A   1      39.510  35.195  38.214  1.00  0.00     0.041 A 
ATOM     79  F   UNL A   1      40.611  35.004  36.153  1.00  0.00    -0.206 F 
ATOM     80  C   UNL A   1      38.671  34.665  39.188  1.00  0.00     0.022 A 
BRANCH  77  81
ATOM     81  S   UNL A   1      36.984  32.696  40.215  1.00  0.00     0.124 S 
ATOM     82  O   UNL A   1      37.609  31.436  40.601  1.00  0.00    -0.237 OA
ATOM     83  O   UNL A   1      36.955  33.738  41.236  1.00  0.00    -0.237 OA
ATOM     84  O   UNL A   1      35.765  32.570  39.419  1.00  0.00    -0.744 OA
ENDBRANCH  77  81
ENDBRANCH  50  74
BRANCH  62  85
ATOM     85  C   UNL A   1      44.300  28.519  35.190  1.00  0.00     0.023 A 
ATOM     86  C   UNL A   1      44.245  27.509  36.166  1.00  0.00     0.031 A 
ATOM     87  C   UNL A   1      45.549  29.101  34.906  1.00  0.00     0.131 A 
ATOM     88  C   UNL A   1      45.408  27.153  36.866  1.00  0.00     0.055 A 
ATOM     89  C   UNL A   1      46.712  28.702  35.567  1.00  0.00     0.041 A 
ATOM     90  F   UNL A   1      45.658  30.069  33.983  1.00  0.00    -0.206 F 
ATOM     91  C   UNL A   1      46.642  27.733  36.563  1.00  0.00     0.022 A 
BRANCH  88  92
ATOM     92  S   UNL A   1      45.268  25.985  38.247  1.00  0.00     0.124 S 
ATOM     93  O   UNL A   1      44.404  26.710  39.174  1.00  0.00    -0.237 OA
ATOM     94  O   UNL A   1      44.676  24.815  37.608  1.00  0.00    -0.237 OA
ATOM     95  O   UNL A   1      46.650  25.814  38.694  1.00  0.00    -0.744 OA
ENDBRANCH  88  92
ENDBRANCH  62  85
ENDBRANCH  36  37
ENDBRANCH  28  31
ENDBRANCH  26  27
ENDBRANCH   1  26
TORSDOF 17
ENDMDL
MODEL 2
REMARK VINA RESULT:     -12.0      5.475      8.786
REMARK SMILES CC[C@@H](C(=O)NCCCNC(=O)c1ccc(-c2c3nc(c(-c4cc(S(=O)(=O)[O-])ccc4F)c4ccc([nH]4)c(-c4cc(S(=O)(=O)[O-])ccc4F)c4nc(c(-c5cc(S(=O)(=O)[O-])ccc5F)c5ccc2[nH]5)C=C4)C=C3)cc1)N1CCN(Cc2cccc(C)c2)C(=O)C1=O
REMARK SMILES IDX 8 1 7 2 6 3 4 4 5 5 3 7 2 8 1 9 76 10 77 11 90 12 78 13
REMARK SMILES IDX 88 14 91 15 79 16 89 17 80 18 81 19 82 20 87 21 83 22 85 23
REMARK SMILES IDX 84 24 86 25 9 26 10 27 11 28 12 30 13 31 14 32 75 33 15 34
REMARK SMILES IDX 74 35 16 36 17 37 18 38 68 39 19 40 73 41 67 42 69 43 20 44
REMARK SMILES IDX 72 45 66 46 65 47 21 49 53 50 33 51 52 52 34 53 37 54 51 55
REMARK SMILES IDX 70 56 35 57 36 58 50 60 71 61 38 62 22 63 23 64 31 65 24 66
REMARK SMILES IDX 30 67 32 68 29 69 25 70 26 71 27 72 28 73 54 74 55 75 63 76
REMARK SMILES IDX 56 77 62 78 64 79 61 80 57 81 58 82 59 83 60 84 39 85 40 86
REMARK SMILES IDX 48 87 41 88 47 89 49 90 46 91 42 92 43 93 44 94 45 95
REMARK H PARENT 6 6 10 29 69 48 37 59
REMARK Flexibility Score: inf
ROOT
ATOM      1  C   UNL A   1      36.509  21.684  24.628  1.00  0.00     0.042 C 
ENDROOT
BRANCH   1   2
ATOM      2  C   UNL A   1      35.391  20.826  25.223  1.00  0.00     0.117 C 
BRANCH   2   3
ATOM      3  N   UNL A   1      34.123  21.019  24.531  1.00  0.00    -0.354 N 
ATOM      4  C   UNL A   1      33.222  22.049  24.548  1.00  0.00     0.242 C 
ATOM      5  O   UNL A   1      32.152  21.884  23.954  1.00  0.00    -0.273 OA
ATOM      6  H   UNL A   1      33.868  20.271  23.943  1.00  0.00     0.163 HD
BRANCH   4   7
ATOM      7  C   UNL A   1      33.519  23.354  25.338  1.00  0.00     0.174 C 
BRANCH   7   8
ATOM      8  C   UNL A   1      32.644  23.312  26.623  1.00  0.00     0.032 C 
ATOM      9  C   UNL A   1      33.242  22.563  27.796  1.00  0.00     0.006 C 
ENDBRANCH   7   8
BRANCH   7  10
ATOM     10  N   UNL A   1      33.210  24.580  24.539  1.00  0.00    -0.321 N 
ATOM     11  C   UNL A   1      32.520  25.698  25.180  1.00  0.00     0.142 C 
ATOM     12  C   UNL A   1      33.853  24.844  23.315  1.00  0.00     0.312 C 
ATOM     13  C   UNL A   1      33.065  27.040  24.703  1.00  0.00     0.142 C 
ATOM     14  C   UNL A   1      33.289  26.075  22.498  1.00  0.00     0.312 C 
ATOM     15  O   UNL A   1      34.821  24.223  22.898  1.00  0.00    -0.263 OA
ATOM     16  N   UNL A   1      32.868  27.157  23.279  1.00  0.00    -0.328 N 
ATOM     17  O   UNL A   1      33.256  26.057  21.275  1.00  0.00    -0.263 OA
BRANCH  16  18
ATOM     18  C   UNL A   1      32.407  28.409  22.684  1.00  0.00     0.155 C 
BRANCH  18  19
ATOM     19  C   UNL A   1      30.902  28.606  22.709  1.00  0.00    -0.028 A 
ATOM     20  C   UNL A   1      30.078  27.686  23.372  1.00  0.00     0.005 A 
ATOM     21  C   UNL A   1      30.285  29.681  22.045  1.00  0.00     0.009 A 
ATOM     22  C   UNL A   1      28.689  27.841  23.373  1.00  0.00     0.001 A 
ATOM     23  C   UNL A   1      28.899  29.888  22.104  1.00  0.00    -0.051 A 
ATOM     24  C   UNL A   1      28.101  28.943  22.751  1.00  0.00     0.003 A 
ATOM     25  C   UNL A   1      28.279  31.092  21.457  1.00  0.00     0.044 C 
ENDBRANCH  18  19
ENDBRANCH  16  18
ENDBRANCH   7  10
ENDBRANCH   4   7
ENDBRANCH   2   3
ENDBRANCH   1   2
BRANCH   1  26
ATOM     26  C   UNL A   1      37.427  22.333  25.658  1.00  0.00     0.118 C 
BRANCH  26  27
ATOM     27  N   UNL A   1      38.557  21.482  25.987  1.00  0.00    -0.352 N 
ATOM     28  C   UNL A   1      39.812  21.819  26.437  1.00  0.00     0.251 C 
ATOM     29  H   UNL A   1      38.401  20.517  25.868  1.00  0.00     0.163 HD
ATOM     30  O   UNL A   1      40.691  20.960  26.419  1.00  0.00    -0.269 OA
BRANCH  28  31
ATOM     31  C   UNL A   1      40.127  23.188  26.924  1.00  0.00     0.039 A 
ATOM     32  C   UNL A   1      39.762  24.282  26.129  1.00  0.00     0.014 A 
ATOM     33  C   UNL A   1      40.840  23.414  28.105  1.00  0.00     0.014 A 
ATOM     34  C   UNL A   1      40.084  25.586  26.527  1.00  0.00     0.010 A 
ATOM     35  C   UNL A   1      41.096  24.719  28.539  1.00  0.00     0.010 A 
ATOM     36  C   UNL A   1      40.744  25.820  27.743  1.00  0.00    -0.014 A 
BRANCH  36  37
ATOM     37  C   UNL A   1      41.128  27.199  28.160  1.00  0.00     0.031 A 
ATOM     38  C   UNL A   1      42.580  27.613  28.142  1.00  0.00     0.074 A 
ATOM     39  C   UNL A   1      40.190  28.068  28.589  1.00  0.00     0.049 A 
ATOM     40  N   UNL A   1      43.128  28.737  28.528  1.00  0.00    -0.248 NA
ATOM     41  C   UNL A   1      43.546  26.615  27.654  1.00  0.00     0.031 C 
ATOM     42  C   UNL A   1      38.757  27.783  28.692  1.00  0.00     0.029 A 
ATOM     43  N   UNL A   1      40.299  29.365  29.027  1.00  0.00    -0.354 N 
ATOM     44  C   UNL A   1      44.499  28.573  28.359  1.00  0.00     0.074 A 
ATOM     45  C   UNL A   1      44.702  27.223  27.876  1.00  0.00     0.031 C 
ATOM     46  C   UNL A   1      38.122  28.875  29.150  1.00  0.00     0.029 A 
ATOM     47  C   UNL A   1      39.100  29.929  29.405  1.00  0.00     0.049 A 
ATOM     48  H   UNL A   1      41.156  29.849  29.068  1.00  0.00     0.167 HD
ATOM     49  C   UNL A   1      45.498  29.467  28.568  1.00  0.00     0.034 A 
ATOM     50  C   UNL A   1      38.823  31.149  29.906  1.00  0.00     0.034 A 
ATOM     51  C   UNL A   1      45.284  30.825  29.004  1.00  0.00     0.049 A 
ATOM     52  C   UNL A   1      39.947  32.141  30.088  1.00  0.00     0.074 A 
ATOM     53  C   UNL A   1      46.220  31.829  29.184  1.00  0.00     0.029 A 
ATOM     54  N   UNL A   1      44.050  31.373  29.323  1.00  0.00    -0.354 N 
ATOM     55  N   UNL A   1      41.232  31.981  29.871  1.00  0.00    -0.248 NA
ATOM     56  C   UNL A   1      39.580  33.482  30.560  1.00  0.00     0.031 C 
ATOM     57  C   UNL A   1      45.559  32.968  29.658  1.00  0.00     0.029 A 
ATOM     58  C   UNL A   1      44.203  32.695  29.712  1.00  0.00     0.049 A 
ATOM     59  H   UNL A   1      43.192  30.893  29.281  1.00  0.00     0.167 HD
ATOM     60  C   UNL A   1      41.817  33.215  30.142  1.00  0.00     0.074 A 
ATOM     61  C   UNL A   1      40.746  34.110  30.524  1.00  0.00     0.031 C 
ATOM     62  C   UNL A   1      43.124  33.579  30.078  1.00  0.00     0.034 A 
BRANCH  49  63
ATOM     63  C   UNL A   1      46.916  28.997  28.349  1.00  0.00     0.023 A 
ATOM     64  C   UNL A   1      47.439  28.794  27.061  1.00  0.00     0.031 A 
ATOM     65  C   UNL A   1      47.756  28.750  29.449  1.00  0.00     0.131 A 
ATOM     66  C   UNL A   1      48.742  28.298  26.905  1.00  0.00     0.055 A 
ATOM     67  C   UNL A   1      49.077  28.326  29.286  1.00  0.00     0.041 A 
ATOM     68  F   UNL A   1      47.305  28.911  30.703  1.00  0.00    -0.206 F 
ATOM     69  C   UNL A   1      49.574  28.086  28.008  1.00  0.00     0.022 A 
BRANCH  66  70
ATOM     70  S   UNL A   1      49.301  27.830  25.245  1.00  0.00     0.124 S 
ATOM     71  O   UNL A   1      48.107  28.096  24.447  1.00  0.00    -0.237 OA
ATOM     72  O   UNL A   1      50.429  28.728  25.025  1.00  0.00    -0.237 OA
ATOM     73  O   UNL A   1      49.649  26.417  25.385  1.00  0.00    -0.744 OA
ENDBRANCH  66  70
ENDBRANCH  49  63
BRANCH  50  74
ATOM     74  C   UNL A   1      37.425  31.520  30.282  1.00  0.00     0.023 A 
ATOM     75  C   UNL A   1      36.513  31.979  29.318  1.00  0.00     0.031 A 
ATOM     76  C   UNL A   1      37.007  31.488  31.623  1.00  0.00     0.131 A 
ATOM     77  C   UNL A   1      35.252  32.448  29.717  1.00  0.00     0.055 A 
ATOM     78  C   UNL A   1      35.731  31.905  32.007  1.00  0.00     0.041 A 
ATOM     79  F   UNL A   1      37.837  31.051  32.584  1.00  0.00    -0.206 F 
ATOM     80  C   UNL A   1      34.851  32.405  31.053  1.00  0.00     0.022 A 
BRANCH  77  81
ATOM     81  S   UNL A   1      34.183  33.224  28.473  1.00  0.00     0.124 S 
ATOM     82  O   UNL A   1      33.335  34.077  29.297  1.00  0.00    -0.237 OA
ATOM     83  O   UNL A   1      35.154  33.910  27.627  1.00  0.00    -0.237 OA
ATOM     84  O   UNL A   1      33.507  32.088  27.849  1.00  0.00    -0.744 OA
ENDBRANCH  77  81
ENDBRANCH  50  74
BRANCH  62  85
ATOM     85  C   UNL A   1      43.449  35.024  30.361  1.00  0.00     0.023 A 
ATOM     86  C   UNL A   1      43.422  36.003  29.353  1.00  0.00     0.031 A 
ATOM     87  C   UNL A   1      43.810  35.420  31.661  1.00  0.00     0.131 A 
ATOM     88  C   UNL A   1      43.807  37.319  29.648  1.00  0.00     0.055 A 
ATOM     89  C   UNL A   1      44.139  36.744  31.961  1.00  0.00     0.041 A 
ATOM     90  F   UNL A   1      43.852  34.526  32.662  1.00  0.00    -0.206 F 
ATOM     91  C   UNL A   1      44.152  37.698  30.948  1.00  0.00     0.022 A 
BRANCH  88  92
ATOM     92  S   UNL A   1      43.944  38.512  28.288  1.00  0.00     0.124 S 
ATOM     93  O   UNL A   1      45.192  39.198  28.609  1.00  0.00    -0.237 OA
ATOM     94  O   UNL A   1      43.976  37.646  27.115  1.00  0.00    -0.237 OA
ATOM     95  O   UNL A   1      42.737  39.327  28.424  1.00  0.00    -0.744 OA
ENDBRANCH  88  92
ENDBRANCH  62  85
ENDBRANCH  36  37
ENDBRANCH  28  31
ENDBRANCH  26  27
ENDBRANCH   1  26
TORSDOF 17
ENDMDL
MODEL 3
REMARK VINA RESULT:     -11.9      5.470     11.621
REMARK SMILES CC[C@@H](C(=O)NCCCNC(=O)c1ccc(-c2c3nc(c(-c4cc(S(=O)(=O)[O-])ccc4F)c4ccc([nH]4)c(-c4cc(S(=O)(=O)[O-])ccc4F)c4nc(c(-c5cc(S(=O)(=O)[O-])ccc5F)c5ccc2[nH]5)C=C4)C=C3)cc1)N1CCN(Cc2cccc(C)c2)C(=O)C1=O
REMARK SMILES IDX 8 1 7 2 6 3 4 4 5 5 3 7 2 8 1 9 76 10 77 11 90 12 78 13
REMARK SMILES IDX 88 14 91 15 79 16 89 17 80 18 81 19 82 20 87 21 83 22 85 23
REMARK SMILES IDX 84 24 86 25 9 26 10 27 11 28 12 30 13 31 14 32 75 33 15 34
REMARK SMILES IDX 74 35 16 36 17 37 18 38 68 39 19 40 73 41 67 42 69 43 20 44
REMARK SMILES IDX 72 45 66 46 65 47 21 49 53 50 33 51 52 52 34 53 37 54 51 55
REMARK SMILES IDX 70 56 35 57 36 58 50 60 71 61 38 62 22 63 23 64 31 65 24 66
REMARK SMILES IDX 30 67 32 68 29 69 25 70 26 71 27 72 28 73 54 74 55 75 63 76
REMARK SMILES IDX 56 77 62 78 64 79 61 80 57 81 58 82 59 83 60 84 39 85 40 86
REMARK SMILES IDX 48 87 41 88 47 89 49 90 46 91 42 92 43 93 44 94 45 95
REMARK H PARENT 6 6 10 29 69 48 37 59
REMARK Flexibility Score: inf
ROOT
ATOM      1  C   UNL A   1      38.138  19.642  24.874  1.00  0.00     0.042 C 
ENDROOT
BRANCH   1   2
ATOM      2  C   UNL A   1      36.716  20.088  25.224  1.00  0.00     0.117 C 
BRANCH   2   3
ATOM      3  N   UNL A   1      36.689  21.422  25.810  1.00  0.00    -0.354 N 
ATOM      4  C   UNL A   1      35.921  22.522  25.537  1.00  0.00     0.242 C 
ATOM      5  O   UNL A   1      36.208  23.577  26.111  1.00  0.00    -0.273 OA
ATOM      6  H   UNL A   1      37.342  21.557  26.535  1.00  0.00     0.163 HD
BRANCH   4   7
ATOM      7  C   UNL A   1      34.769  22.451  24.497  1.00  0.00     0.174 C 
BRANCH   7   8
ATOM      8  C   UNL A   1      35.355  22.936  23.141  1.00  0.00     0.032 C 
ATOM      9  C   UNL A   1      36.865  22.901  23.032  1.00  0.00     0.006 C 
ENDBRANCH   7   8
BRANCH   7  10
ATOM     10  N   UNL A   1      33.600  23.298  24.890  1.00  0.00    -0.321 N 
ATOM     11  C   UNL A   1      33.279  24.486  24.103  1.00  0.00     0.142 C 
ATOM     12  C   UNL A   1      32.601  22.818  25.760  1.00  0.00     0.312 C 
ATOM     13  C   UNL A   1      31.772  24.670  23.956  1.00  0.00     0.142 C 
ATOM     14  C   UNL A   1      31.534  23.886  26.230  1.00  0.00     0.312 C 
ATOM     15  O   UNL A   1      32.495  21.651  26.109  1.00  0.00    -0.263 OA
ATOM     16  N   UNL A   1      31.180  24.832  25.262  1.00  0.00    -0.328 N 
ATOM     17  O   UNL A   1      31.061  23.848  27.358  1.00  0.00    -0.263 OA
BRANCH  16  18
ATOM     18  C   UNL A   1      30.143  25.833  25.498  1.00  0.00     0.155 C 
BRANCH  18  19
ATOM     19  C   UNL A   1      30.603  27.271  25.345  1.00  0.00    -0.028 A 
ATOM     20  C   UNL A   1      30.257  28.008  24.204  1.00  0.00     0.005 A 
ATOM     21  C   UNL A   1      31.413  27.896  26.310  1.00  0.00     0.009 A 
ATOM     22  C   UNL A   1      30.703  29.323  24.039  1.00  0.00     0.001 A 
ATOM     23  C   UNL A   1      31.802  29.238  26.191  1.00  0.00    -0.051 A 
ATOM     24  C   UNL A   1      31.464  29.940  25.033  1.00  0.00     0.003 A 
ATOM     25  C   UNL A   1      32.596  29.902  27.278  1.00  0.00     0.044 C 
ENDBRANCH  18  19
ENDBRANCH  16  18
ENDBRANCH   7  10
ENDBRANCH   4   7
ENDBRANCH   2   3
ENDBRANCH   1   2
BRANCH   1  26
ATOM     26  C   UNL A   1      39.227  20.245  25.755  1.00  0.00     0.118 C 
BRANCH  26  27
ATOM     27  N   UNL A   1      40.267  19.280  26.063  1.00  0.00    -0.352 N 
ATOM     28  C   UNL A   1      41.611  19.475  26.283  1.00  0.00     0.251 C 
ATOM     29  H   UNL A   1      39.966  18.345  26.123  1.00  0.00     0.163 HD
ATOM     30  O   UNL A   1      42.352  18.494  26.287  1.00  0.00    -0.269 OA
BRANCH  28  31
ATOM     31  C   UNL A   1      42.180  20.832  26.498  1.00  0.00     0.039 A 
ATOM     32  C   UNL A   1      42.376  21.275  27.812  1.00  0.00     0.014 A 
ATOM     33  C   UNL A   1      42.452  21.704  25.440  1.00  0.00     0.014 A 
ATOM     34  C   UNL A   1      42.864  22.564  28.061  1.00  0.00     0.010 A 
ATOM     35  C   UNL A   1      43.008  22.963  25.685  1.00  0.00     0.010 A 
ATOM     36  C   UNL A   1      43.198  23.419  26.999  1.00  0.00    -0.014 A 
BRANCH  36  37
ATOM     37  C   UNL A   1      43.680  24.808  27.248  1.00  0.00     0.031 A 
ATOM     38  C   UNL A   1      42.731  25.845  27.799  1.00  0.00     0.074 A 
ATOM     39  C   UNL A   1      44.949  25.153  26.949  1.00  0.00     0.049 A 
ATOM     40  N   UNL A   1      42.932  27.119  28.023  1.00  0.00    -0.248 NA
ATOM     41  C   UNL A   1      41.365  25.393  28.110  1.00  0.00     0.031 C 
ATOM     42  C   UNL A   1      45.956  24.258  26.375  1.00  0.00     0.029 A 
ATOM     43  N   UNL A   1      45.608  26.351  27.077  1.00  0.00    -0.354 N 
ATOM     44  C   UNL A   1      41.716  27.626  28.470  1.00  0.00     0.074 A 
ATOM     45  C   UNL A   1      40.771  26.529  28.443  1.00  0.00     0.031 C 
ATOM     46  C   UNL A   1      47.106  24.934  26.214  1.00  0.00     0.029 A 
ATOM     47  C   UNL A   1      46.914  26.317  26.640  1.00  0.00     0.049 A 
ATOM     48  H   UNL A   1      45.186  27.160  27.446  1.00  0.00     0.167 HD
ATOM     49  C   UNL A   1      41.415  28.884  28.882  1.00  0.00     0.034 A 
ATOM     50  C   UNL A   1      47.846  27.290  26.581  1.00  0.00     0.034 A 
ATOM     51  C   UNL A   1      42.374  29.959  28.950  1.00  0.00     0.049 A 
ATOM     52  C   UNL A   1      47.499  28.670  27.086  1.00  0.00     0.074 A 
ATOM     53  C   UNL A   1      42.188  31.250  29.413  1.00  0.00     0.029 A 
ATOM     54  N   UNL A   1      43.700  29.869  28.550  1.00  0.00    -0.354 N 
ATOM     55  N   UNL A   1      46.356  29.114  27.555  1.00  0.00    -0.248 NA
ATOM     56  C   UNL A   1      48.573  29.671  27.076  1.00  0.00     0.031 C 
ATOM     57  C   UNL A   1      43.386  31.954  29.248  1.00  0.00     0.029 A 
ATOM     58  C   UNL A   1      44.338  31.084  28.742  1.00  0.00     0.049 A 
ATOM     59  H   UNL A   1      44.125  29.060  28.183  1.00  0.00     0.167 HD
ATOM     60  C   UNL A   1      46.590  30.434  27.933  1.00  0.00     0.074 A 
ATOM     61  C   UNL A   1      47.982  30.709  27.649  1.00  0.00     0.031 C 
ATOM     62  C   UNL A   1      45.731  31.340  28.468  1.00  0.00     0.034 A 
BRANCH  49  63
ATOM     63  C   UNL A   1      39.986  29.170  29.271  1.00  0.00     0.023 A 
ATOM     64  C   UNL A   1      39.582  29.241  30.615  1.00  0.00     0.031 A 
ATOM     65  C   UNL A   1      39.011  29.376  28.278  1.00  0.00     0.131 A 
ATOM     66  C   UNL A   1      38.230  29.448  30.930  1.00  0.00     0.055 A 
ATOM     67  C   UNL A   1      37.681  29.654  28.598  1.00  0.00     0.041 A 
ATOM     68  F   UNL A   1      39.336  29.303  26.977  1.00  0.00    -0.206 F 
ATOM     69  C   UNL A   1      37.281  29.681  29.931  1.00  0.00     0.022 A 
BRANCH  66  70
ATOM     70  S   UNL A   1      37.709  29.304  32.660  1.00  0.00     0.124 S 
ATOM     71  O   UNL A   1      36.387  29.922  32.622  1.00  0.00    -0.237 OA
ATOM     72  O   UNL A   1      37.734  27.863  32.880  1.00  0.00    -0.237 OA
ATOM     73  O   UNL A   1      38.725  30.062  33.389  1.00  0.00    -0.744 OA
ENDBRANCH  66  70
ENDBRANCH  49  63
BRANCH  50  74
ATOM     74  C   UNL A   1      49.203  27.014  26.021  1.00  0.00     0.023 A 
ATOM     75  C   UNL A   1      49.550  27.425  24.724  1.00  0.00     0.031 A 
ATOM     76  C   UNL A   1      50.146  26.269  26.750  1.00  0.00     0.131 A 
ATOM     77  C   UNL A   1      50.780  27.036  24.172  1.00  0.00     0.055 A 
ATOM     78  C   UNL A   1      51.391  25.932  26.217  1.00  0.00     0.041 A 
ATOM     79  F   UNL A   1      49.868  25.856  27.998  1.00  0.00    -0.206 F 
ATOM     80  C   UNL A   1      51.707  26.301  24.913  1.00  0.00     0.022 A 
BRANCH  77  81
ATOM     81  S   UNL A   1      51.105  27.410  22.427  1.00  0.00     0.124 S 
ATOM     82  O   UNL A   1      49.971  26.771  21.768  1.00  0.00    -0.237 OA
ATOM     83  O   UNL A   1      51.107  28.870  22.427  1.00  0.00    -0.237 OA
ATOM     84  O   UNL A   1      52.403  26.786  22.181  1.00  0.00    -0.744 OA
ENDBRANCH  77  81
ENDBRANCH  50  74
BRANCH  62  85
ATOM     85  C   UNL A   1      46.299  32.684  28.846  1.00  0.00     0.023 A 
ATOM     86  C   UNL A   1      46.301  33.768  27.951  1.00  0.00     0.031 A 
ATOM     87  C   UNL A   1      46.864  32.874  30.120  1.00  0.00     0.131 A 
ATOM     88  C   UNL A   1      46.910  34.977  28.322  1.00  0.00     0.055 A 
ATOM     89  C   UNL A   1      47.419  34.096  30.503  1.00  0.00     0.041 A 
ATOM     90  F   UNL A   1      46.888  31.872  31.013  1.00  0.00    -0.206 F 
ATOM     91  C   UNL A   1      47.457  35.151  29.596  1.00  0.00     0.022 A 
BRANCH  88  92
ATOM     92  S   UNL A   1      47.064  36.291  27.080  1.00  0.00     0.124 S 
ATOM     93  O   UNL A   1      47.792  37.321  27.815  1.00  0.00    -0.237 OA
ATOM     94  O   UNL A   1      47.805  35.626  26.013  1.00  0.00    -0.237 OA
ATOM     95  O   UNL A   1      45.677  36.622  26.757  1.00  0.00    -0.744 OA
ENDBRANCH  88  92
ENDBRANCH  62  85
ENDBRANCH  36  37
ENDBRANCH  28  31
ENDBRANCH  26  27
ENDBRANCH   1  26
TORSDOF 17
ENDMDL
