MODEL 1
REMARK VINA RESULT:     -12.4      0.000      0.000
REMARK SMILES Cc1ccc([C@@](C)(O)[C@H](F)C(=O)NCCCNC(=O)c2ccc(-c3c4nc(c(-c5cc(S(=O)(=O)[O-])ccc5F)c5ccc([nH]5)c(-c5cc(S(=O)(=O)[O-])ccc5F)c5nc(c(-c6cc(S(=O)(=O)[O-])ccc6F)c6ccc3[nH]6)C=C5)C=C4)cc2)cc1F
REMARK SMILES IDX 15 1 14 2 13 3 11 4 12 5 9 7 10 8 6 9 7 10 5 11 1 12 2 13
REMARK SMILES IDX 3 14 84 15 4 16 83 17 85 18 8 19 16 21 17 22 18 23 19 25
REMARK SMILES IDX 20 26 21 27 82 28 22 29 81 30 23 31 24 32 25 33 75 34 26 35
REMARK SMILES IDX 80 36 74 37 76 38 27 39 79 40 73 41 72 42 28 44 60 45 40 46
REMARK SMILES IDX 59 47 41 48 44 49 58 50 77 51 42 52 43 53 57 55 78 56 45 57
REMARK SMILES IDX 29 58 30 59 38 60 31 61 37 62 39 63 36 64 32 65 33 66 34 67
REMARK SMILES IDX 35 68 61 69 62 70 70 71 63 72 69 73 71 74 68 75 64 76 65 77
REMARK SMILES IDX 66 78 67 79 46 80 47 81 55 82 48 83 54 84 56 85 53 86 49 87
REMARK SMILES IDX 50 88 51 89 52 90
REMARK H PARENT 13 6 8 20 17 24 76 43 44 54
REMARK Flexibility Score: inf
ROOT
ATOM      1  C   UNL A   1      36.308  24.007  26.156  1.00  0.00     0.042 C 
ENDROOT
BRANCH   1   2
ATOM      2  C   UNL A   1      35.140  24.077  25.206  1.00  0.00     0.117 C 
BRANCH   2   3
ATOM      3  N   UNL A   1      33.849  24.163  25.873  1.00  0.00    -0.353 N 
ATOM      4  C   UNL A   1      33.161  23.103  26.403  1.00  0.00     0.257 C 
ATOM      5  O   UNL A   1      32.121  23.279  27.035  1.00  0.00    -0.272 OA
ATOM      6  H   UNL A   1      33.436  25.053  25.949  1.00  0.00     0.163 HD
BRANCH   4   7
ATOM      7  C   UNL A   1      33.746  21.723  26.159  1.00  0.00     0.291 C 
ATOM      8  F   UNL A   1      33.993  21.132  27.374  1.00  0.00    -0.233 F 
BRANCH   7   9
ATOM      9  C   UNL A   1      32.824  20.823  25.252  1.00  0.00     0.127 C 
ATOM     10  C   UNL A   1      32.643  21.532  23.906  1.00  0.00     0.051 C 
BRANCH   9  11
ATOM     11  C   UNL A   1      33.329  19.382  25.071  1.00  0.00    -0.010 A 
ATOM     12  C   UNL A   1      34.796  15.301  24.924  1.00  0.00     0.047 C 
ATOM     13  C   UNL A   1      34.297  16.711  24.969  1.00  0.00    -0.015 A 
ATOM     14  C   UNL A   1      35.090  17.770  24.528  1.00  0.00     0.007 A 
ATOM     15  C   UNL A   1      33.019  16.993  25.443  1.00  0.00     0.126 A 
ATOM     16  C   UNL A   1      34.604  19.080  24.561  1.00  0.00     0.007 A 
ATOM     17  C   UNL A   1      32.534  18.299  25.491  1.00  0.00     0.046 A 
ATOM     18  F   UNL A   1      32.234  15.997  25.876  1.00  0.00    -0.207 F 
ENDBRANCH   9  11
BRANCH   9  19
ATOM     19  O   UNL A   1      31.464  20.736  25.741  1.00  0.00    -0.382 OA
ATOM     20  H   UNL A   1      30.954  21.494  25.414  1.00  0.00     0.212 HD
ENDBRANCH   9  19
ENDBRANCH   7   9
ENDBRANCH   4   7
ENDBRANCH   2   3
ENDBRANCH   1   2
BRANCH   1  21
ATOM     21  C   UNL A   1      37.562  23.861  25.356  1.00  0.00     0.118 C 
BRANCH  21  22
ATOM     22  N   UNL A   1      38.442  22.877  25.994  1.00  0.00    -0.352 N 
ATOM     23  C   UNL A   1      39.707  23.100  26.481  1.00  0.00     0.251 C 
ATOM     24  H   UNL A   1      38.089  21.962  26.085  1.00  0.00     0.163 HD
ATOM     25  O   UNL A   1      40.512  22.195  26.512  1.00  0.00    -0.269 OA
BRANCH  23  26
ATOM     26  C   UNL A   1      39.938  24.458  26.987  1.00  0.00     0.039 A 
ATOM     27  C   UNL A   1      40.543  25.461  26.238  1.00  0.00     0.014 A 
ATOM     28  C   UNL A   1      39.483  24.689  28.284  1.00  0.00     0.014 A 
ATOM     29  C   UNL A   1      40.727  26.698  26.840  1.00  0.00     0.010 A 
ATOM     30  C   UNL A   1      39.368  25.954  28.726  1.00  0.00     0.010 A 
ATOM     31  C   UNL A   1      40.148  26.909  28.091  1.00  0.00    -0.014 A 
BRANCH  31  32
ATOM     32  C   UNL A   1      40.309  28.073  28.926  1.00  0.00     0.031 A 
ATOM     33  C   UNL A   1      39.375  29.179  28.759  1.00  0.00     0.074 A 
ATOM     34  C   UNL A   1      41.137  27.892  29.985  1.00  0.00     0.049 A 
ATOM     35  N   UNL A   1      39.612  30.365  29.176  1.00  0.00    -0.248 NA
ATOM     36  C   UNL A   1      38.086  29.045  28.078  1.00  0.00     0.031 C 
ATOM     37  C   UNL A   1      41.196  28.592  31.250  1.00  0.00     0.029 A 
ATOM     38  N   UNL A   1      42.160  26.936  30.104  1.00  0.00    -0.354 N 
ATOM     39  C   UNL A   1      38.409  31.032  29.156  1.00  0.00     0.074 A 
ATOM     40  C   UNL A   1      37.545  30.248  28.305  1.00  0.00     0.031 C 
ATOM     41  C   UNL A   1      42.349  28.261  31.867  1.00  0.00     0.029 A 
ATOM     42  C   UNL A   1      43.145  27.480  30.928  1.00  0.00     0.049 A 
ATOM     43  H   UNL A   1      42.178  26.046  29.685  1.00  0.00     0.167 HD
ATOM     44  C   UNL A   1      38.231  32.058  30.034  1.00  0.00     0.034 A 
ATOM     45  C   UNL A   1      44.357  27.835  30.396  1.00  0.00     0.034 A 
ATOM     46  C   UNL A   1      39.436  32.210  30.869  1.00  0.00     0.049 A 
ATOM     47  C   UNL A   1      44.483  29.347  30.281  1.00  0.00     0.074 A 
ATOM     48  C   UNL A   1      39.781  31.773  32.138  1.00  0.00     0.029 A 
ATOM     49  N   UNL A   1      40.636  32.517  30.247  1.00  0.00    -0.354 N 
ATOM     50  N   UNL A   1      43.597  30.193  30.731  1.00  0.00    -0.248 NA
ATOM     51  C   UNL A   1      45.573  30.020  29.575  1.00  0.00     0.031 C 
ATOM     52  C   UNL A   1      41.208  31.806  32.253  1.00  0.00     0.029 A 
ATOM     53  C   UNL A   1      41.732  32.280  31.062  1.00  0.00     0.049 A 
ATOM     54  H   UNL A   1      40.702  32.864  29.327  1.00  0.00     0.167 HD
ATOM     55  C   UNL A   1      43.891  31.455  30.305  1.00  0.00     0.074 A 
ATOM     56  C   UNL A   1      45.155  31.298  29.602  1.00  0.00     0.031 C 
ATOM     57  C   UNL A   1      43.066  32.527  30.514  1.00  0.00     0.034 A 
BRANCH  44  58
ATOM     58  C   UNL A   1      36.909  32.744  30.307  1.00  0.00     0.023 A 
ATOM     59  C   UNL A   1      36.282  32.814  31.574  1.00  0.00     0.031 A 
ATOM     60  C   UNL A   1      36.209  33.368  29.254  1.00  0.00     0.131 A 
ATOM     61  C   UNL A   1      35.077  33.524  31.764  1.00  0.00     0.055 A 
ATOM     62  C   UNL A   1      34.992  34.036  29.435  1.00  0.00     0.041 A 
ATOM     63  F   UNL A   1      36.687  33.381  28.001  1.00  0.00    -0.206 F 
ATOM     64  C   UNL A   1      34.425  34.128  30.696  1.00  0.00     0.022 A 
BRANCH  61  65
ATOM     65  S   UNL A   1      34.345  33.732  33.417  1.00  0.00     0.124 S 
ATOM     66  O   UNL A   1      35.287  33.007  34.268  1.00  0.00    -0.237 OA
ATOM     67  O   UNL A   1      34.348  35.182  33.583  1.00  0.00    -0.237 OA
ATOM     68  O   UNL A   1      33.027  33.113  33.298  1.00  0.00    -0.744 OA
ENDBRANCH  61  65
ENDBRANCH  44  58
BRANCH  45  69
ATOM     69  C   UNL A   1      44.839  26.840  29.378  1.00  0.00     0.023 A 
ATOM     70  C   UNL A   1      44.790  27.129  28.005  1.00  0.00     0.031 A 
ATOM     71  C   UNL A   1      44.844  25.479  29.769  1.00  0.00     0.131 A 
ATOM     72  C   UNL A   1      44.566  26.085  27.089  1.00  0.00     0.055 A 
ATOM     73  C   UNL A   1      44.576  24.454  28.859  1.00  0.00     0.041 A 
ATOM     74  F   UNL A   1      44.956  25.149  31.066  1.00  0.00    -0.206 F 
ATOM     75  C   UNL A   1      44.383  24.764  27.518  1.00  0.00     0.022 A 
BRANCH  72  76
ATOM     76  S   UNL A   1      44.351  26.461  25.325  1.00  0.00     0.124 S 
ATOM     77  O   UNL A   1      43.723  27.776  25.385  1.00  0.00    -0.237 OA
ATOM     78  O   UNL A   1      45.720  26.447  24.825  1.00  0.00    -0.237 OA
ATOM     79  O   UNL A   1      43.506  25.369  24.857  1.00  0.00    -0.744 OA
ENDBRANCH  72  76
ENDBRANCH  45  69
BRANCH  57  80
ATOM     80  C   UNL A   1      43.452  33.937  30.148  1.00  0.00     0.023 A 
ATOM     81  C   UNL A   1      43.387  34.373  28.807  1.00  0.00     0.031 A 
ATOM     82  C   UNL A   1      43.750  34.922  31.100  1.00  0.00     0.131 A 
ATOM     83  C   UNL A   1      43.686  35.687  28.447  1.00  0.00     0.055 A 
ATOM     84  C   UNL A   1      44.107  36.225  30.739  1.00  0.00     0.041 A 
ATOM     85  F   UNL A   1      43.649  34.672  32.416  1.00  0.00    -0.206 F 
ATOM     86  C   UNL A   1      44.086  36.610  29.405  1.00  0.00     0.022 A 
BRANCH  83  87
ATOM     87  S   UNL A   1      43.464  36.244  26.736  1.00  0.00     0.124 S 
ATOM     88  O   UNL A   1      42.499  37.329  26.900  1.00  0.00    -0.237 OA
ATOM     89  O   UNL A   1      44.818  36.658  26.379  1.00  0.00    -0.237 OA
ATOM     90  O   UNL A   1      42.963  35.063  26.043  1.00  0.00    -0.744 OA
ENDBRANCH  83  87
ENDBRANCH  57  80
ENDBRANCH  31  32
ENDBRANCH  23  26
ENDBRANCH  21  22
ENDBRANCH   1  21
TORSDOF 16
ENDMDL
MODEL 2
REMARK VINA RESULT:     -12.3      3.451      9.160
REMARK SMILES Cc1ccc([C@@](C)(O)[C@H](F)C(=O)NCCCNC(=O)c2ccc(-c3c4nc(c(-c5cc(S(=O)(=O)[O-])ccc5F)c5ccc([nH]5)c(-c5cc(S(=O)(=O)[O-])ccc5F)c5nc(c(-c6cc(S(=O)(=O)[O-])ccc6F)c6ccc3[nH]6)C=C5)C=C4)cc2)cc1F
REMARK SMILES IDX 15 1 14 2 13 3 11 4 12 5 9 7 10 8 6 9 7 10 5 11 1 12 2 13
REMARK SMILES IDX 3 14 84 15 4 16 83 17 85 18 8 19 16 21 17 22 18 23 19 25
REMARK SMILES IDX 20 26 21 27 82 28 22 29 81 30 23 31 24 32 25 33 75 34 26 35
REMARK SMILES IDX 80 36 74 37 76 38 27 39 79 40 73 41 72 42 28 44 60 45 40 46
REMARK SMILES IDX 59 47 41 48 44 49 58 50 77 51 42 52 43 53 57 55 78 56 45 57
REMARK SMILES IDX 29 58 30 59 38 60 31 61 37 62 39 63 36 64 32 65 33 66 34 67
REMARK SMILES IDX 35 68 61 69 62 70 70 71 63 72 69 73 71 74 68 75 64 76 65 77
REMARK SMILES IDX 66 78 67 79 46 80 47 81 55 82 48 83 54 84 56 85 53 86 49 87
REMARK SMILES IDX 50 88 51 89 52 90
REMARK H PARENT 13 6 8 20 17 24 76 43 44 54
REMARK Flexibility Score: inf
ROOT
ATOM      1  C   UNL A   1      33.553  28.468  25.794  1.00  0.00     0.042 C 
ENDROOT
BRANCH   1   2
ATOM      2  C   UNL A   1      33.583  26.978  25.566  1.00  0.00     0.117 C 
BRANCH   2   3
ATOM      3  N   UNL A   1      32.388  26.291  26.033  1.00  0.00    -0.353 N 
ATOM      4  C   UNL A   1      32.324  24.968  26.384  1.00  0.00     0.257 C 
ATOM      5  O   UNL A   1      31.295  24.491  26.860  1.00  0.00    -0.272 OA
ATOM      6  H   UNL A   1      31.560  26.818  26.101  1.00  0.00     0.163 HD
BRANCH   4   7
ATOM      7  C   UNL A   1      33.574  24.140  26.145  1.00  0.00     0.291 C 
ATOM      8  F   UNL A   1      33.699  23.232  27.168  1.00  0.00    -0.233 F 
BRANCH   7   9
ATOM      9  C   UNL A   1      33.576  23.433  24.737  1.00  0.00     0.127 C 
ATOM     10  C   UNL A   1      34.773  23.963  23.941  1.00  0.00     0.051 C 
BRANCH   9  11
ATOM     11  C   UNL A   1      33.572  21.897  24.802  1.00  0.00    -0.010 A 
ATOM     12  C   UNL A   1      33.689  17.563  24.640  1.00  0.00     0.047 C 
ATOM     13  C   UNL A   1      33.640  19.056  24.698  1.00  0.00    -0.015 A 
ATOM     14  C   UNL A   1      32.424  19.738  24.678  1.00  0.00     0.007 A 
ATOM     15  C   UNL A   1      34.814  19.799  24.786  1.00  0.00     0.126 A 
ATOM     16  C   UNL A   1      32.393  21.134  24.749  1.00  0.00     0.007 A 
ATOM     17  C   UNL A   1      34.790  21.191  24.843  1.00  0.00     0.046 A 
ATOM     18  F   UNL A   1      35.999  19.173  24.804  1.00  0.00    -0.207 F 
ENDBRANCH   9  11
BRANCH   9  19
ATOM     19  O   UNL A   1      32.456  23.825  23.908  1.00  0.00    -0.382 OA
ATOM     20  H   UNL A   1      32.281  23.132  23.252  1.00  0.00     0.212 HD
ENDBRANCH   9  19
ENDBRANCH   7   9
ENDBRANCH   4   7
ENDBRANCH   2   3
ENDBRANCH   1   2
BRANCH   1  21
ATOM     21  C   UNL A   1      34.333  28.774  27.032  1.00  0.00     0.118 C 
BRANCH  21  22
ATOM     22  N   UNL A   1      34.465  30.227  27.184  1.00  0.00    -0.352 N 
ATOM     23  C   UNL A   1      35.250  30.889  28.095  1.00  0.00     0.251 C 
ATOM     24  H   UNL A   1      33.935  30.784  26.568  1.00  0.00     0.163 HD
ATOM     25  O   UNL A   1      34.930  31.992  28.482  1.00  0.00    -0.269 OA
BRANCH  23  26
ATOM     26  C   UNL A   1      36.479  30.181  28.474  1.00  0.00     0.039 A 
ATOM     27  C   UNL A   1      36.646  29.539  29.696  1.00  0.00     0.014 A 
ATOM     28  C   UNL A   1      37.479  30.173  27.503  1.00  0.00     0.014 A 
ATOM     29  C   UNL A   1      37.865  28.925  29.945  1.00  0.00     0.010 A 
ATOM     30  C   UNL A   1      38.505  29.312  27.622  1.00  0.00     0.010 A 
ATOM     31  C   UNL A   1      38.782  28.845  28.898  1.00  0.00    -0.014 A 
BRANCH  31  32
ATOM     32  C   UNL A   1      40.134  28.349  28.977  1.00  0.00     0.031 A 
ATOM     33  C   UNL A   1      40.361  26.925  28.766  1.00  0.00     0.074 A 
ATOM     34  C   UNL A   1      41.086  29.314  28.948  1.00  0.00     0.049 A 
ATOM     35  N   UNL A   1      41.426  26.324  29.140  1.00  0.00    -0.248 NA
ATOM     36  C   UNL A   1      39.385  26.043  28.126  1.00  0.00     0.031 C 
ATOM     37  C   UNL A   1      42.474  29.240  28.545  1.00  0.00     0.029 A 
ATOM     38  N   UNL A   1      40.933  30.665  29.306  1.00  0.00    -0.354 N 
ATOM     39  C   UNL A   1      41.439  25.113  28.488  1.00  0.00     0.074 A 
ATOM     40  C   UNL A   1      40.086  24.907  28.027  1.00  0.00     0.031 C 
ATOM     41  C   UNL A   1      43.097  30.365  28.951  1.00  0.00     0.029 A 
ATOM     42  C   UNL A   1      42.164  31.110  29.786  1.00  0.00     0.049 A 
ATOM     43  H   UNL A   1      40.110  31.198  29.231  1.00  0.00     0.167 HD
ATOM     44  C   UNL A   1      42.646  24.532  28.239  1.00  0.00     0.034 A 
ATOM     45  C   UNL A   1      42.311  31.394  31.119  1.00  0.00     0.034 A 
ATOM     46  C   UNL A   1      43.726  25.402  28.737  1.00  0.00     0.049 A 
ATOM     47  C   UNL A   1      43.121  30.314  31.823  1.00  0.00     0.074 A 
ATOM     48  C   UNL A   1      44.553  26.337  28.137  1.00  0.00     0.029 A 
ATOM     49  N   UNL A   1      43.774  25.684  30.093  1.00  0.00    -0.354 N 
ATOM     50  N   UNL A   1      43.689  29.310  31.212  1.00  0.00    -0.248 NA
ATOM     51  C   UNL A   1      43.280  30.234  33.274  1.00  0.00     0.031 C 
ATOM     52  C   UNL A   1      45.078  27.194  29.157  1.00  0.00     0.029 A 
ATOM     53  C   UNL A   1      44.586  26.771  30.380  1.00  0.00     0.049 A 
ATOM     54  H   UNL A   1      43.284  25.171  30.776  1.00  0.00     0.167 HD
ATOM     55  C   UNL A   1      44.166  28.414  32.124  1.00  0.00     0.074 A 
ATOM     56  C   UNL A   1      43.907  29.051  33.405  1.00  0.00     0.031 C 
ATOM     57  C   UNL A   1      44.696  27.201  31.774  1.00  0.00     0.034 A 
BRANCH  44  58
ATOM     58  C   UNL A   1      42.859  23.332  27.341  1.00  0.00     0.023 A 
ATOM     59  C   UNL A   1      43.764  23.286  26.254  1.00  0.00     0.031 A 
ATOM     60  C   UNL A   1      42.121  22.149  27.560  1.00  0.00     0.131 A 
ATOM     61  C   UNL A   1      43.954  22.109  25.499  1.00  0.00     0.055 A 
ATOM     62  C   UNL A   1      42.279  20.996  26.783  1.00  0.00     0.041 A 
ATOM     63  F   UNL A   1      41.228  22.051  28.555  1.00  0.00    -0.206 F 
ATOM     64  C   UNL A   1      43.206  20.965  25.754  1.00  0.00     0.022 A 
BRANCH  61  65
ATOM     65  S   UNL A   1      45.217  22.008  24.193  1.00  0.00     0.124 S 
ATOM     66  O   UNL A   1      44.546  21.202  23.174  1.00  0.00    -0.237 OA
ATOM     67  O   UNL A   1      45.421  23.409  23.841  1.00  0.00    -0.237 OA
ATOM     68  O   UNL A   1      46.346  21.350  24.847  1.00  0.00    -0.744 OA
ENDBRANCH  61  65
ENDBRANCH  44  58
BRANCH  45  69
ATOM     69  C   UNL A   1      41.104  32.086  31.685  1.00  0.00     0.023 A 
ATOM     70  C   UNL A   1      40.217  31.410  32.538  1.00  0.00     0.031 A 
ATOM     71  C   UNL A   1      40.611  33.200  30.965  1.00  0.00     0.131 A 
ATOM     72  C   UNL A   1      38.850  31.739  32.510  1.00  0.00     0.055 A 
ATOM     73  C   UNL A   1      39.246  33.491  30.908  1.00  0.00     0.041 A 
ATOM     74  F   UNL A   1      41.435  33.920  30.186  1.00  0.00    -0.206 F 
ATOM     75  C   UNL A   1      38.353  32.722  31.644  1.00  0.00     0.022 A 
BRANCH  72  76
ATOM     76  S   UNL A   1      37.667  30.776  33.496  1.00  0.00     0.124 S 
ATOM     77  O   UNL A   1      38.220  29.431  33.374  1.00  0.00    -0.237 OA
ATOM     78  O   UNL A   1      37.784  31.378  34.818  1.00  0.00    -0.237 OA
ATOM     79  O   UNL A   1      36.401  31.010  32.813  1.00  0.00    -0.744 OA
ENDBRANCH  72  76
ENDBRANCH  45  69
BRANCH  57  80
ATOM     80  C   UNL A   1      45.330  26.269  32.774  1.00  0.00     0.023 A 
ATOM     81  C   UNL A   1      44.532  25.546  33.688  1.00  0.00     0.031 A 
ATOM     82  C   UNL A   1      46.696  25.954  32.770  1.00  0.00     0.131 A 
ATOM     83  C   UNL A   1      45.087  24.636  34.588  1.00  0.00     0.055 A 
ATOM     84  C   UNL A   1      47.265  25.088  33.709  1.00  0.00     0.041 A 
ATOM     85  F   UNL A   1      47.518  26.431  31.820  1.00  0.00    -0.206 F 
ATOM     86  C   UNL A   1      46.461  24.431  34.631  1.00  0.00     0.022 A 
BRANCH  83  87
ATOM     87  S   UNL A   1      44.020  23.630  35.653  1.00  0.00     0.124 S 
ATOM     88  O   UNL A   1      42.922  23.301  34.747  1.00  0.00    -0.237 OA
ATOM     89  O   UNL A   1      44.903  22.520  35.998  1.00  0.00    -0.237 OA
ATOM     90  O   UNL A   1      43.674  24.525  36.752  1.00  0.00    -0.744 OA
ENDBRANCH  83  87
ENDBRANCH  57  80
ENDBRANCH  31  32
ENDBRANCH  23  26
ENDBRANCH  21  22
ENDBRANCH   1  21
TORSDOF 16
ENDMDL
MODEL 3
REMARK VINA RESULT:     -12.2      2.618      3.974
REMARK SMILES Cc1ccc([C@@](C)(O)[C@H](F)C(=O)NCCCNC(=O)c2ccc(-c3c4nc(c(-c5cc(S(=O)(=O)[O-])ccc5F)c5ccc([nH]5)c(-c5cc(S(=O)(=O)[O-])ccc5F)c5nc(c(-c6cc(S(=O)(=O)[O-])ccc6F)c6ccc3[nH]6)C=C5)C=C4)cc2)cc1F
REMARK SMILES IDX 15 1 14 2 13 3 11 4 12 5 9 7 10 8 6 9 7 10 5 11 1 12 2 13
REMARK SMILES IDX 3 14 84 15 4 16 83 17 85 18 8 19 16 21 17 22 18 23 19 25
REMARK SMILES IDX 20 26 21 27 82 28 22 29 81 30 23 31 24 32 25 33 75 34 26 35
REMARK SMILES IDX 80 36 74 37 76 38 27 39 79 40 73 41 72 42 28 44 60 45 40 46
REMARK SMILES IDX 59 47 41 48 44 49 58 50 77 51 42 52 43 53 57 55 78 56 45 57
REMARK SMILES IDX 29 58 30 59 38 60 31 61 37 62 39 63 36 64 32 65 33 66 34 67
REMARK SMILES IDX 35 68 61 69 62 70 70 71 63 72 69 73 71 74 68 75 64 76 65 77
REMARK SMILES IDX 66 78 67 79 46 80 47 81 55 82 48 83 54 84 56 85 53 86 49 87
REMARK SMILES IDX 50 88 51 89 52 90
REMARK H PARENT 13 6 8 20 17 24 76 43 44 54
REMARK Flexibility Score: inf
ROOT
ATOM      1  C   UNL A   1      35.932  23.398  25.821  1.00  0.00     0.042 C 
ENDROOT
BRANCH   1   2
ATOM      2  C   UNL A   1      35.377  23.196  24.435  1.00  0.00     0.117 C 
BRANCH   2   3
ATOM      3  N   UNL A   1      34.047  22.603  24.418  1.00  0.00    -0.353 N 
ATOM      4  C   UNL A   1      32.915  23.215  23.947  1.00  0.00     0.257 C 
ATOM      5  O   UNL A   1      31.849  22.605  23.882  1.00  0.00    -0.272 OA
ATOM      6  H   UNL A   1      33.954  21.690  24.773  1.00  0.00     0.163 HD
BRANCH   4   7
ATOM      7  C   UNL A   1      33.052  24.668  23.528  1.00  0.00     0.291 C 
ATOM      8  F   UNL A   1      32.363  24.851  22.355  1.00  0.00    -0.233 F 
BRANCH   7   9
ATOM      9  C   UNL A   1      32.573  25.672  24.646  1.00  0.00     0.127 C 
ATOM     10  C   UNL A   1      33.787  26.485  25.106  1.00  0.00     0.051 C 
BRANCH   9  11
ATOM     11  C   UNL A   1      31.409  26.581  24.221  1.00  0.00    -0.010 A 
ATOM     12  C   UNL A   1      28.061  28.913  22.744  1.00  0.00     0.047 C 
ATOM     13  C   UNL A   1      29.221  28.116  23.252  1.00  0.00    -0.015 A 
ATOM     14  C   UNL A   1      30.529  28.576  23.108  1.00  0.00     0.007 A 
ATOM     15  C   UNL A   1      29.014  26.898  23.894  1.00  0.00     0.126 A 
ATOM     16  C   UNL A   1      31.602  27.829  23.603  1.00  0.00     0.007 A 
ATOM     17  C   UNL A   1      30.080  26.142  24.377  1.00  0.00     0.046 A 
ATOM     18  F   UNL A   1      27.768  26.428  24.045  1.00  0.00    -0.207 F 
ENDBRANCH   9  11
BRANCH   9  19
ATOM     19  O   UNL A   1      32.168  25.006  25.865  1.00  0.00    -0.382 OA
ATOM     20  H   UNL A   1      31.866  24.107  25.658  1.00  0.00     0.212 HD
ENDBRANCH   9  19
ENDBRANCH   7   9
ENDBRANCH   4   7
ENDBRANCH   2   3
ENDBRANCH   1   2
BRANCH   1  21
ATOM     21  C   UNL A   1      37.308  23.969  25.704  1.00  0.00     0.118 C 
BRANCH  21  22
ATOM     22  N   UNL A   1      38.283  23.021  26.252  1.00  0.00    -0.352 N 
ATOM     23  C   UNL A   1      39.571  23.299  26.640  1.00  0.00     0.251 C 
ATOM     24  H   UNL A   1      37.983  22.088  26.352  1.00  0.00     0.163 HD
ATOM     25  O   UNL A   1      40.419  22.436  26.589  1.00  0.00    -0.269 OA
BRANCH  23  26
ATOM     26  C   UNL A   1      39.775  24.660  27.152  1.00  0.00     0.039 A 
ATOM     27  C   UNL A   1      40.350  25.681  26.402  1.00  0.00     0.014 A 
ATOM     28  C   UNL A   1      39.328  24.873  28.454  1.00  0.00     0.014 A 
ATOM     29  C   UNL A   1      40.511  26.918  27.009  1.00  0.00     0.010 A 
ATOM     30  C   UNL A   1      39.189  26.133  28.904  1.00  0.00     0.010 A 
ATOM     31  C   UNL A   1      39.940  27.109  28.267  1.00  0.00    -0.014 A 
BRANCH  31  32
ATOM     32  C   UNL A   1      40.083  28.272  29.107  1.00  0.00     0.031 A 
ATOM     33  C   UNL A   1      39.110  29.348  28.970  1.00  0.00     0.074 A 
ATOM     34  C   UNL A   1      40.941  28.111  30.145  1.00  0.00     0.049 A 
ATOM     35  N   UNL A   1      39.319  30.538  29.391  1.00  0.00    -0.248 NA
ATOM     36  C   UNL A   1      37.811  29.177  28.318  1.00  0.00     0.031 C 
ATOM     37  C   UNL A   1      41.007  28.802  31.414  1.00  0.00     0.029 A 
ATOM     38  N   UNL A   1      41.997  27.187  30.234  1.00  0.00    -0.354 N 
ATOM     39  C   UNL A   1      38.095  31.166  29.403  1.00  0.00     0.074 A 
ATOM     40  C   UNL A   1      37.237  30.361  28.567  1.00  0.00     0.031 C 
ATOM     41  C   UNL A   1      42.184  28.505  32.002  1.00  0.00     0.029 A 
ATOM     42  C   UNL A   1      42.982  27.757  31.039  1.00  0.00     0.049 A 
ATOM     43  H   UNL A   1      42.034  26.301  29.808  1.00  0.00     0.167 HD
ATOM     44  C   UNL A   1      37.905  32.180  30.293  1.00  0.00     0.034 A 
ATOM     45  C   UNL A   1      44.170  28.154  30.482  1.00  0.00     0.034 A 
ATOM     46  C   UNL A   1      39.123  32.365  31.101  1.00  0.00     0.049 A 
ATOM     47  C   UNL A   1      44.245  29.671  30.376  1.00  0.00     0.074 A 
ATOM     48  C   UNL A   1      39.511  31.931  32.359  1.00  0.00     0.029 A 
ATOM     49  N   UNL A   1      40.298  32.715  30.454  1.00  0.00    -0.354 N 
ATOM     50  N   UNL A   1      43.342  30.484  30.853  1.00  0.00    -0.248 NA
ATOM     51  C   UNL A   1      45.295  30.383  29.650  1.00  0.00     0.031 C 
ATOM     52  C   UNL A   1      40.938  32.009  32.441  1.00  0.00     0.029 A 
ATOM     53  C   UNL A   1      41.420  32.508  31.243  1.00  0.00     0.049 A 
ATOM     54  H   UNL A   1      40.331  33.070  29.536  1.00  0.00     0.167 HD
ATOM     55  C   UNL A   1      43.586  31.758  30.429  1.00  0.00     0.074 A 
ATOM     56  C   UNL A   1      44.838  31.647  29.696  1.00  0.00     0.031 C 
ATOM     57  C   UNL A   1      42.731  32.801  30.666  1.00  0.00     0.034 A 
BRANCH  44  58
ATOM     58  C   UNL A   1      36.568  32.820  30.602  1.00  0.00     0.023 A 
ATOM     59  C   UNL A   1      35.851  33.662  29.719  1.00  0.00     0.031 A 
ATOM     60  C   UNL A   1      35.952  32.597  31.851  1.00  0.00     0.131 A 
ATOM     61  C   UNL A   1      34.580  34.174  30.053  1.00  0.00     0.055 A 
ATOM     62  C   UNL A   1      34.710  33.140  32.199  1.00  0.00     0.041 A 
ATOM     63  F   UNL A   1      36.518  31.819  32.786  1.00  0.00    -0.206 F 
ATOM     64  C   UNL A   1      34.010  33.923  31.296  1.00  0.00     0.022 A 
BRANCH  61  65
ATOM     65  S   UNL A   1      33.599  35.140  28.863  1.00  0.00     0.124 S 
ATOM     66  O   UNL A   1      32.837  36.029  29.739  1.00  0.00    -0.237 OA
ATOM     67  O   UNL A   1      34.627  35.793  28.061  1.00  0.00    -0.237 OA
ATOM     68  O   UNL A   1      32.798  34.134  28.169  1.00  0.00    -0.744 OA
ENDBRANCH  61  65
ENDBRANCH  44  58
BRANCH  45  69
ATOM     69  C   UNL A   1      44.659  27.182  29.445  1.00  0.00     0.023 A 
ATOM     70  C   UNL A   1      44.585  27.487  28.077  1.00  0.00     0.031 A 
ATOM     71  C   UNL A   1      44.701  25.818  29.819  1.00  0.00     0.131 A 
ATOM     72  C   UNL A   1      44.372  26.449  27.152  1.00  0.00     0.055 A 
ATOM     73  C   UNL A   1      44.444  24.798  28.901  1.00  0.00     0.041 A 
ATOM     74  F   UNL A   1      44.838  25.475  31.111  1.00  0.00    -0.206 F 
ATOM     75  C   UNL A   1      44.225  25.119  27.567  1.00  0.00     0.022 A 
BRANCH  72  76
ATOM     76  S   UNL A   1      44.125  26.840  25.395  1.00  0.00     0.124 S 
ATOM     77  O   UNL A   1      43.358  25.682  24.948  1.00  0.00    -0.237 OA
ATOM     78  O   UNL A   1      43.384  28.094  25.446  1.00  0.00    -0.237 OA
ATOM     79  O   UNL A   1      45.487  26.940  24.885  1.00  0.00    -0.744 OA
ENDBRANCH  72  76
ENDBRANCH  45  69
BRANCH  57  80
ATOM     80  C   UNL A   1      43.063  34.225  30.302  1.00  0.00     0.023 A 
ATOM     81  C   UNL A   1      42.978  34.662  28.962  1.00  0.00     0.031 A 
ATOM     82  C   UNL A   1      43.328  35.219  31.255  1.00  0.00     0.131 A 
ATOM     83  C   UNL A   1      43.226  35.987  28.604  1.00  0.00     0.055 A 
ATOM     84  C   UNL A   1      43.635  36.535  30.896  1.00  0.00     0.041 A 
ATOM     85  F   UNL A   1      43.241  34.962  32.571  1.00  0.00    -0.206 F 
ATOM     86  C   UNL A   1      43.595  36.922  29.563  1.00  0.00     0.022 A 
BRANCH  83  87
ATOM     87  S   UNL A   1      42.977  36.540  26.895  1.00  0.00     0.124 S 
ATOM     88  O   UNL A   1      41.737  37.304  27.008  1.00  0.00    -0.237 OA
ATOM     89  O   UNL A   1      44.181  37.330  26.659  1.00  0.00    -0.237 OA
ATOM     90  O   UNL A   1      42.878  35.299  26.135  1.00  0.00    -0.744 OA
ENDBRANCH  83  87
ENDBRANCH  57  80
ENDBRANCH  31  32
ENDBRANCH  23  26
ENDBRANCH  21  22
ENDBRANCH   1  21
TORSDOF 16
ENDMDL
