MODEL 1
REMARK VINA RESULT:     -11.4      0.000      0.000
REMARK SMILES C[C@@H]1[C@@H](C(=O)NCCCNC(=O)c2ccc(-c3c4nc(c(-c5cc(S(=O)(=O)[O-])ccc5F)c5ccc([nH]5)c(-c5cc(S(=O)(=O)[O-])ccc5F)c5nc(c(-c6cc(S(=O)(=O)[O-])ccc6F)c6ccc3[nH]6)C=C5)C=C4)cc2)CCN1C(=O)CC[C@@H]1CCCC[NH2+]1
REMARK SMILES IDX 7 1 6 2 4 3 5 4 3 6 1 7 2 8 78 9 76 10 77 11 79 12 80 13
REMARK SMILES IDX 81 14 82 15 83 16 84 17 88 18 85 19 87 20 86 23 8 24 9 25
REMARK SMILES IDX 10 26 11 27 12 29 13 30 14 31 75 32 15 33 74 34 16 35 17 36
REMARK SMILES IDX 18 37 68 38 19 39 73 40 67 41 69 42 20 43 72 44 66 45 65 46
REMARK SMILES IDX 21 48 53 49 33 50 52 51 34 52 37 53 51 54 70 55 35 56 36 57
REMARK SMILES IDX 50 59 71 60 38 61 22 62 23 63 31 64 24 65 30 66 32 67 29 68
REMARK SMILES IDX 25 69 26 70 27 71 28 72 54 73 55 74 63 75 56 76 62 77 64 78
REMARK SMILES IDX 61 79 57 80 58 81 59 82 60 83 39 84 40 85 48 86 41 87 47 88
REMARK SMILES IDX 49 89 46 90 42 91 43 92 44 93 45 94
REMARK H PARENT 6 5 88 21 88 22 10 28 69 47 37 58
REMARK Flexibility Score: inf
ROOT
ATOM      1  C   UNL A   1      32.724  30.624  27.193  1.00  0.00     0.117 C 
ENDROOT
BRANCH   1   2
ATOM      2  N   UNL A   1      31.832  29.492  27.282  1.00  0.00    -0.356 N 
ATOM      3  C   UNL A   1      31.985  28.240  26.797  1.00  0.00     0.225 C 
ATOM      4  O   UNL A   1      31.263  27.375  27.287  1.00  0.00    -0.275 OA
ATOM      5  H   UNL A   1      30.990  29.656  27.766  1.00  0.00     0.163 HD
BRANCH   3   6
ATOM      6  C   UNL A   1      33.030  27.953  25.728  1.00  0.00     0.102 C 
ATOM      7  C   UNL A   1      33.704  28.807  23.427  1.00  0.00     0.032 C 
ATOM      8  C   UNL A   1      32.547  28.447  24.355  1.00  0.00     0.094 C 
ATOM      9  N   UNL A   1      31.719  27.362  23.837  1.00  0.00    -0.339 N 
ATOM     10  C   UNL A   1      33.156  26.452  25.506  1.00  0.00     0.037 C 
ATOM     11  C   UNL A   1      31.963  26.141  24.601  1.00  0.00     0.120 C 
BRANCH   9  12
ATOM     12  C   UNL A   1      30.575  27.471  23.061  1.00  0.00     0.223 C 
ATOM     13  O   UNL A   1      30.636  27.401  21.830  1.00  0.00    -0.275 OA
BRANCH  12  14
ATOM     14  C   UNL A   1      29.234  27.821  23.718  1.00  0.00     0.106 C 
BRANCH  14  15
ATOM     15  C   UNL A   1      28.102  28.396  22.844  1.00  0.00     0.075 C 
BRANCH  15  16
ATOM     16  C   UNL A   1      28.354  29.856  22.420  1.00  0.00     0.182 C 
ATOM     17  C   UNL A   1      27.820  30.830  23.474  1.00  0.00     0.065 C 
ATOM     18  N   UNL A   1      27.785  30.259  21.123  1.00  0.00    -0.344 N 
ATOM     19  C   UNL A   1      28.351  32.236  23.210  1.00  0.00     0.012 C 
ATOM     20  C   UNL A   1      28.331  31.580  20.752  1.00  0.00     0.260 C 
ATOM     21  H   UNL A   1      26.769  30.317  21.198  1.00  0.00     0.346 HD
ATOM     22  H   UNL A   1      28.027  29.571  20.409  1.00  0.00     0.346 HD
ATOM     23  C   UNL A   1      28.014  32.668  21.786  1.00  0.00     0.062 C 
ENDBRANCH  15  16
ENDBRANCH  14  15
ENDBRANCH  12  14
ENDBRANCH   9  12
ENDBRANCH   3   6
ENDBRANCH   1   2
BRANCH   1  24
ATOM     24  C   UNL A   1      31.980  31.949  27.213  1.00  0.00     0.042 C 
BRANCH  24  25
ATOM     25  C   UNL A   1      32.816  33.156  26.797  1.00  0.00     0.118 C 
BRANCH  25  26
ATOM     26  N   UNL A   1      32.729  34.270  27.731  1.00  0.00    -0.352 N 
ATOM     27  C   UNL A   1      33.431  34.518  28.890  1.00  0.00     0.251 C 
ATOM     28  H   UNL A   1      32.061  34.955  27.498  1.00  0.00     0.163 HD
ATOM     29  O   UNL A   1      33.079  35.421  29.632  1.00  0.00    -0.269 OA
BRANCH  27  30
ATOM     30  C   UNL A   1      34.578  33.655  29.247  1.00  0.00     0.039 A 
ATOM     31  C   UNL A   1      35.870  34.076  28.927  1.00  0.00     0.014 A 
ATOM     32  C   UNL A   1      34.380  32.453  29.927  1.00  0.00     0.014 A 
ATOM     33  C   UNL A   1      36.966  33.337  29.378  1.00  0.00     0.010 A 
ATOM     34  C   UNL A   1      35.469  31.783  30.471  1.00  0.00     0.010 A 
ATOM     35  C   UNL A   1      36.776  32.215  30.203  1.00  0.00    -0.014 A 
BRANCH  35  36
ATOM     36  C   UNL A   1      37.924  31.473  30.786  1.00  0.00     0.031 A 
ATOM     37  C   UNL A   1      38.400  31.801  32.177  1.00  0.00     0.074 A 
ATOM     38  C   UNL A   1      38.582  30.560  30.042  1.00  0.00     0.049 A 
ATOM     39  N   UNL A   1      39.442  31.346  32.826  1.00  0.00    -0.248 NA
ATOM     40  C   UNL A   1      37.624  32.807  32.920  1.00  0.00     0.031 C 
ATOM     41  C   UNL A   1      38.246  30.189  28.665  1.00  0.00     0.029 A 
ATOM     42  N   UNL A   1      39.674  29.782  30.334  1.00  0.00    -0.354 N 
ATOM     43  C   UNL A   1      39.454  32.020  34.042  1.00  0.00     0.074 A 
ATOM     44  C   UNL A   1      38.363  32.971  34.005  1.00  0.00     0.031 C 
ATOM     45  C   UNL A   1      39.088  29.231  28.248  1.00  0.00     0.029 A 
ATOM     46  C   UNL A   1      40.059  28.956  29.302  1.00  0.00     0.049 A 
ATOM     47  H   UNL A   1      40.140  29.812  31.200  1.00  0.00     0.167 HD
ATOM     48  C   UNL A   1      40.278  31.843  35.104  1.00  0.00     0.034 A 
ATOM     49  C   UNL A   1      41.084  28.086  29.211  1.00  0.00     0.034 A 
ATOM     50  C   UNL A   1      41.346  30.875  35.131  1.00  0.00     0.049 A 
ATOM     51  C   UNL A   1      42.003  27.921  30.396  1.00  0.00     0.074 A 
ATOM     52  C   UNL A   1      42.209  30.572  36.171  1.00  0.00     0.029 A 
ATOM     53  N   UNL A   1      41.704  30.055  34.068  1.00  0.00    -0.354 N 
ATOM     54  N   UNL A   1      41.972  28.534  31.557  1.00  0.00    -0.248 NA
ATOM     55  C   UNL A   1      43.087  26.940  30.262  1.00  0.00     0.031 C 
ATOM     56  C   UNL A   1      43.128  29.623  35.715  1.00  0.00     0.029 A 
ATOM     57  C   UNL A   1      42.791  29.269  34.418  1.00  0.00     0.049 A 
ATOM     58  H   UNL A   1      41.251  30.035  33.195  1.00  0.00     0.167 HD
ATOM     59  C   UNL A   1      43.011  27.986  32.303  1.00  0.00     0.074 A 
ATOM     60  C   UNL A   1      43.639  26.984  31.466  1.00  0.00     0.031 C 
ATOM     61  C   UNL A   1      43.410  28.278  33.568  1.00  0.00     0.034 A 
BRANCH  48  62
ATOM     62  C   UNL A   1      40.059  32.728  36.309  1.00  0.00     0.023 A 
ATOM     63  C   UNL A   1      39.219  32.338  37.368  1.00  0.00     0.031 A 
ATOM     64  C   UNL A   1      40.670  33.991  36.389  1.00  0.00     0.131 A 
ATOM     65  C   UNL A   1      38.946  33.232  38.414  1.00  0.00     0.055 A 
ATOM     66  C   UNL A   1      40.466  34.841  37.478  1.00  0.00     0.041 A 
ATOM     67  F   UNL A   1      41.465  34.430  35.400  1.00  0.00    -0.206 F 
ATOM     68  C   UNL A   1      39.586  34.471  38.490  1.00  0.00     0.022 A 
BRANCH  65  69
ATOM     69  S   UNL A   1      37.626  32.816  39.585  1.00  0.00     0.124 S 
ATOM     70  O   UNL A   1      38.144  31.589  40.187  1.00  0.00    -0.237 OA
ATOM     71  O   UNL A   1      37.593  33.988  40.453  1.00  0.00    -0.237 OA
ATOM     72  O   UNL A   1      36.454  32.636  38.732  1.00  0.00    -0.744 OA
ENDBRANCH  65  69
ENDBRANCH  48  62
BRANCH  49  73
ATOM     73  C   UNL A   1      41.307  27.301  27.960  1.00  0.00     0.023 A 
ATOM     74  C   UNL A   1      40.995  25.934  27.901  1.00  0.00     0.031 A 
ATOM     75  C   UNL A   1      41.878  27.895  26.821  1.00  0.00     0.131 A 
ATOM     76  C   UNL A   1      41.304  25.194  26.748  1.00  0.00     0.055 A 
ATOM     77  C   UNL A   1      42.130  27.168  25.656  1.00  0.00     0.041 A 
ATOM     78  F   UNL A   1      42.192  29.201  26.820  1.00  0.00    -0.206 F 
ATOM     79  C   UNL A   1      41.856  25.804  25.621  1.00  0.00     0.022 A 
BRANCH  76  80
ATOM     80  S   UNL A   1      41.059  23.397  26.778  1.00  0.00     0.124 S 
ATOM     81  O   UNL A   1      41.430  23.070  28.150  1.00  0.00    -0.237 OA
ATOM     82  O   UNL A   1      39.642  23.280  26.450  1.00  0.00    -0.237 OA
ATOM     83  O   UNL A   1      41.976  22.911  25.751  1.00  0.00    -0.744 OA
ENDBRANCH  76  80
ENDBRANCH  49  73
BRANCH  61  84
ATOM     84  C   UNL A   1      44.547  27.465  34.136  1.00  0.00     0.023 A 
ATOM     85  C   UNL A   1      44.326  26.267  34.837  1.00  0.00     0.031 A 
ATOM     86  C   UNL A   1      45.874  27.903  33.977  1.00  0.00     0.131 A 
ATOM     87  C   UNL A   1      45.409  25.578  35.402  1.00  0.00     0.055 A 
ATOM     88  C   UNL A   1      46.954  27.178  34.484  1.00  0.00     0.041 A 
ATOM     89  F   UNL A   1      46.145  29.042  33.319  1.00  0.00    -0.206 F 
ATOM     90  C   UNL A   1      46.723  26.016  35.214  1.00  0.00     0.022 A 
BRANCH  87  91
ATOM     91  S   UNL A   1      45.072  24.152  36.471  1.00  0.00     0.124 S 
ATOM     92  O   UNL A   1      46.414  23.637  36.722  1.00  0.00    -0.237 OA
ATOM     93  O   UNL A   1      44.401  24.768  37.610  1.00  0.00    -0.237 OA
ATOM     94  O   UNL A   1      44.224  23.296  35.643  1.00  0.00    -0.744 OA
ENDBRANCH  87  91
ENDBRANCH  61  84
ENDBRANCH  35  36
ENDBRANCH  27  30
ENDBRANCH  25  26
ENDBRANCH  24  25
ENDBRANCH   1  24
TORSDOF 17
ENDMDL
MODEL 2
REMARK VINA RESULT:     -11.3      1.608      7.775
REMARK SMILES C[C@@H]1[C@@H](C(=O)NCCCNC(=O)c2ccc(-c3c4nc(c(-c5cc(S(=O)(=O)[O-])ccc5F)c5ccc([nH]5)c(-c5cc(S(=O)(=O)[O-])ccc5F)c5nc(c(-c6cc(S(=O)(=O)[O-])ccc6F)c6ccc3[nH]6)C=C5)C=C4)cc2)CCN1C(=O)CC[C@@H]1CCCC[NH2+]1
REMARK SMILES IDX 7 1 6 2 4 3 5 4 3 6 1 7 2 8 78 9 76 10 77 11 79 12 80 13
REMARK SMILES IDX 81 14 82 15 83 16 84 17 88 18 85 19 87 20 86 23 8 24 9 25
REMARK SMILES IDX 10 26 11 27 12 29 13 30 14 31 75 32 15 33 74 34 16 35 17 36
REMARK SMILES IDX 18 37 68 38 19 39 73 40 67 41 69 42 20 43 72 44 66 45 65 46
REMARK SMILES IDX 21 48 53 49 33 50 52 51 34 52 37 53 51 54 70 55 35 56 36 57
REMARK SMILES IDX 50 59 71 60 38 61 22 62 23 63 31 64 24 65 30 66 32 67 29 68
REMARK SMILES IDX 25 69 26 70 27 71 28 72 54 73 55 74 63 75 56 76 62 77 64 78
REMARK SMILES IDX 61 79 57 80 58 81 59 82 60 83 39 84 40 85 48 86 41 87 47 88
REMARK SMILES IDX 49 89 46 90 42 91 43 92 44 93 45 94
REMARK H PARENT 6 5 88 21 88 22 10 28 69 47 37 58
REMARK Flexibility Score: inf
ROOT
ATOM      1  C   UNL A   1      32.715  30.630  27.107  1.00  0.00     0.117 C 
ENDROOT
BRANCH   1   2
ATOM      2  N   UNL A   1      31.819  29.507  27.255  1.00  0.00    -0.356 N 
ATOM      3  C   UNL A   1      31.957  28.237  26.815  1.00  0.00     0.225 C 
ATOM      4  O   UNL A   1      31.240  27.396  27.351  1.00  0.00    -0.275 OA
ATOM      5  H   UNL A   1      30.988  29.695  27.748  1.00  0.00     0.163 HD
BRANCH   3   6
ATOM      6  C   UNL A   1      32.980  27.904  25.738  1.00  0.00     0.102 C 
ATOM      7  C   UNL A   1      33.704  28.755  23.452  1.00  0.00     0.032 C 
ATOM      8  C   UNL A   1      32.527  28.453  24.376  1.00  0.00     0.094 C 
ATOM      9  N   UNL A   1      31.632  27.433  23.840  1.00  0.00    -0.339 N 
ATOM     10  C   UNL A   1      33.010  26.403  25.489  1.00  0.00     0.037 C 
ATOM     11  C   UNL A   1      31.798  26.185  24.581  1.00  0.00     0.120 C 
BRANCH   9  12
ATOM     12  C   UNL A   1      30.496  27.629  23.069  1.00  0.00     0.223 C 
ATOM     13  O   UNL A   1      30.562  27.641  21.836  1.00  0.00    -0.275 OA
BRANCH  12  14
ATOM     14  C   UNL A   1      29.162  27.973  23.743  1.00  0.00     0.106 C 
BRANCH  14  15
ATOM     15  C   UNL A   1      27.981  28.435  22.868  1.00  0.00     0.075 C 
BRANCH  15  16
ATOM     16  C   UNL A   1      27.941  29.963  22.671  1.00  0.00     0.182 C 
ATOM     17  C   UNL A   1      28.305  30.338  21.232  1.00  0.00     0.065 C 
ATOM     18  N   UNL A   1      28.808  30.751  23.562  1.00  0.00    -0.344 N 
ATOM     19  C   UNL A   1      27.954  31.798  20.963  1.00  0.00     0.012 C 
ATOM     20  C   UNL A   1      28.460  32.180  23.427  1.00  0.00     0.260 C 
ATOM     21  H   UNL A   1      29.785  30.610  23.302  1.00  0.00     0.346 HD
ATOM     22  H   UNL A   1      28.675  30.453  24.529  1.00  0.00     0.346 HD
ATOM     23  C   UNL A   1      28.627  32.700  21.993  1.00  0.00     0.062 C 
ENDBRANCH  15  16
ENDBRANCH  14  15
ENDBRANCH  12  14
ENDBRANCH   9  12
ENDBRANCH   3   6
ENDBRANCH   1   2
BRANCH   1  24
ATOM     24  C   UNL A   1      32.003  31.964  27.269  1.00  0.00     0.042 C 
BRANCH  24  25
ATOM     25  C   UNL A   1      32.838  33.183  26.890  1.00  0.00     0.118 C 
BRANCH  25  26
ATOM     26  N   UNL A   1      32.586  34.342  27.734  1.00  0.00    -0.352 N 
ATOM     27  C   UNL A   1      33.164  34.720  28.926  1.00  0.00     0.251 C 
ATOM     28  H   UNL A   1      31.890  34.954  27.400  1.00  0.00     0.163 HD
ATOM     29  O   UNL A   1      32.680  35.636  29.572  1.00  0.00    -0.269 OA
BRANCH  27  30
ATOM     30  C   UNL A   1      34.338  33.978  29.435  1.00  0.00     0.039 A 
ATOM     31  C   UNL A   1      35.618  34.411  29.084  1.00  0.00     0.014 A 
ATOM     32  C   UNL A   1      34.176  32.882  30.283  1.00  0.00     0.014 A 
ATOM     33  C   UNL A   1      36.733  33.803  29.666  1.00  0.00     0.010 A 
ATOM     34  C   UNL A   1      35.278  32.356  30.946  1.00  0.00     0.010 A 
ATOM     35  C   UNL A   1      36.571  32.809  30.645  1.00  0.00    -0.014 A 
BRANCH  35  36
ATOM     36  C   UNL A   1      37.735  32.220  31.359  1.00  0.00     0.031 A 
ATOM     37  C   UNL A   1      38.501  31.084  30.733  1.00  0.00     0.074 A 
ATOM     38  C   UNL A   1      38.054  32.654  32.595  1.00  0.00     0.049 A 
ATOM     39  N   UNL A   1      39.476  30.368  31.232  1.00  0.00    -0.248 NA
ATOM     40  C   UNL A   1      38.088  30.675  29.381  1.00  0.00     0.031 C 
ATOM     41  C   UNL A   1      37.357  33.716  33.327  1.00  0.00     0.029 A 
ATOM     42  N   UNL A   1      39.042  32.254  33.460  1.00  0.00    -0.354 N 
ATOM     43  C   UNL A   1      39.778  29.416  30.265  1.00  0.00     0.074 A 
ATOM     44  C   UNL A   1      38.831  29.598  29.186  1.00  0.00     0.031 C 
ATOM     45  C   UNL A   1      37.962  33.907  34.510  1.00  0.00     0.029 A 
ATOM     46  C   UNL A   1      39.053  32.948  34.648  1.00  0.00     0.049 A 
ATOM     47  H   UNL A   1      39.683  31.537  33.250  1.00  0.00     0.167 HD
ATOM     48  C   UNL A   1      40.773  28.493  30.261  1.00  0.00     0.034 A 
ATOM     49  C   UNL A   1      39.845  32.819  35.732  1.00  0.00     0.034 A 
ATOM     50  C   UNL A   1      41.722  28.341  31.336  1.00  0.00     0.049 A 
ATOM     51  C   UNL A   1      40.931  31.772  35.716  1.00  0.00     0.074 A 
ATOM     52  C   UNL A   1      42.802  27.478  31.417  1.00  0.00     0.029 A 
ATOM     53  N   UNL A   1      41.703  29.064  32.523  1.00  0.00    -0.354 N 
ATOM     54  N   UNL A   1      41.233  30.909  34.772  1.00  0.00    -0.248 NA
ATOM     55  C   UNL A   1      41.787  31.688  36.905  1.00  0.00     0.031 C 
ATOM     56  C   UNL A   1      43.391  27.630  32.675  1.00  0.00     0.029 A 
ATOM     57  C   UNL A   1      42.733  28.646  33.351  1.00  0.00     0.049 A 
ATOM     58  H   UNL A   1      41.054  29.769  32.742  1.00  0.00     0.167 HD
ATOM     59  C   UNL A   1      42.338  30.205  35.243  1.00  0.00     0.074 A 
ATOM     60  C   UNL A   1      42.656  30.754  36.546  1.00  0.00     0.031 C 
ATOM     61  C   UNL A   1      43.032  29.199  34.651  1.00  0.00     0.034 A 
BRANCH  48  62
ATOM     62  C   UNL A   1      40.866  27.577  29.064  1.00  0.00     0.023 A 
ATOM     63  C   UNL A   1      41.813  27.786  28.046  1.00  0.00     0.031 A 
ATOM     64  C   UNL A   1      39.978  26.497  28.920  1.00  0.00     0.131 A 
ATOM     65  C   UNL A   1      41.795  26.986  26.894  1.00  0.00     0.055 A 
ATOM     66  C   UNL A   1      40.024  25.647  27.813  1.00  0.00     0.041 A 
ATOM     67  F   UNL A   1      39.037  26.257  29.847  1.00  0.00    -0.206 F 
ATOM     68  C   UNL A   1      40.924  25.900  26.782  1.00  0.00     0.022 A 
BRANCH  65  69
ATOM     69  S   UNL A   1      42.815  27.483  25.480  1.00  0.00     0.124 S 
ATOM     70  O   UNL A   1      42.741  26.295  24.632  1.00  0.00    -0.237 OA
ATOM     71  O   UNL A   1      42.118  28.664  24.986  1.00  0.00    -0.237 OA
ATOM     72  O   UNL A   1      44.126  27.733  26.073  1.00  0.00    -0.744 OA
ENDBRANCH  65  69
ENDBRANCH  48  62
BRANCH  49  73
ATOM     73  C   UNL A   1      39.650  33.694  36.925  1.00  0.00     0.023 A 
ATOM     74  C   UNL A   1      39.032  33.205  38.087  1.00  0.00     0.031 A 
ATOM     75  C   UNL A   1      40.037  35.047  36.907  1.00  0.00     0.131 A 
ATOM     76  C   UNL A   1      38.771  34.071  39.161  1.00  0.00     0.055 A 
ATOM     77  C   UNL A   1      39.827  35.890  37.999  1.00  0.00     0.041 A 
ATOM     78  F   UNL A   1      40.637  35.567  35.824  1.00  0.00    -0.206 F 
ATOM     79  C   UNL A   1      39.177  35.406  39.131  1.00  0.00     0.022 A 
BRANCH  76  80
ATOM     80  S   UNL A   1      37.806  33.447  40.564  1.00  0.00     0.124 S 
ATOM     81  O   UNL A   1      37.448  34.683  41.250  1.00  0.00    -0.237 OA
ATOM     82  O   UNL A   1      36.716  32.746  39.894  1.00  0.00    -0.237 OA
ATOM     83  O   UNL A   1      38.753  32.590  41.274  1.00  0.00    -0.744 OA
ENDBRANCH  76  80
ENDBRANCH  49  73
BRANCH  61  84
ATOM     84  C   UNL A   1      44.235  28.666  35.391  1.00  0.00     0.023 A 
ATOM     85  C   UNL A   1      44.131  27.610  36.313  1.00  0.00     0.031 A 
ATOM     86  C   UNL A   1      45.504  29.231  35.173  1.00  0.00     0.131 A 
ATOM     87  C   UNL A   1      45.265  27.190  37.025  1.00  0.00     0.055 A 
ATOM     88  C   UNL A   1      46.641  28.765  35.835  1.00  0.00     0.041 A 
ATOM     89  F   UNL A   1      45.662  30.244  34.306  1.00  0.00    -0.206 F 
ATOM     90  C   UNL A   1      46.523  27.748  36.778  1.00  0.00     0.022 A 
BRANCH  87  91
ATOM     91  S   UNL A   1      45.058  25.970  38.350  1.00  0.00     0.124 S 
ATOM     92  O   UNL A   1      46.433  25.541  38.585  1.00  0.00    -0.237 OA
ATOM     93  O   UNL A   1      44.447  26.763  39.412  1.00  0.00    -0.237 OA
ATOM     94  O   UNL A   1      44.186  24.960  37.753  1.00  0.00    -0.744 OA
ENDBRANCH  87  91
ENDBRANCH  61  84
ENDBRANCH  35  36
ENDBRANCH  27  30
ENDBRANCH  25  26
ENDBRANCH  24  25
ENDBRANCH   1  24
TORSDOF 17
ENDMDL
MODEL 3
REMARK VINA RESULT:     -11.3      3.333      8.997
REMARK SMILES C[C@@H]1[C@@H](C(=O)NCCCNC(=O)c2ccc(-c3c4nc(c(-c5cc(S(=O)(=O)[O-])ccc5F)c5ccc([nH]5)c(-c5cc(S(=O)(=O)[O-])ccc5F)c5nc(c(-c6cc(S(=O)(=O)[O-])ccc6F)c6ccc3[nH]6)C=C5)C=C4)cc2)CCN1C(=O)CC[C@@H]1CCCC[NH2+]1
REMARK SMILES IDX 7 1 6 2 4 3 5 4 3 6 1 7 2 8 78 9 76 10 77 11 79 12 80 13
REMARK SMILES IDX 81 14 82 15 83 16 84 17 88 18 85 19 87 20 86 23 8 24 9 25
REMARK SMILES IDX 10 26 11 27 12 29 13 30 14 31 75 32 15 33 74 34 16 35 17 36
REMARK SMILES IDX 18 37 68 38 19 39 73 40 67 41 69 42 20 43 72 44 66 45 65 46
REMARK SMILES IDX 21 48 53 49 33 50 52 51 34 52 37 53 51 54 70 55 35 56 36 57
REMARK SMILES IDX 50 59 71 60 38 61 22 62 23 63 31 64 24 65 30 66 32 67 29 68
REMARK SMILES IDX 25 69 26 70 27 71 28 72 54 73 55 74 63 75 56 76 62 77 64 78
REMARK SMILES IDX 61 79 57 80 58 81 59 82 60 83 39 84 40 85 48 86 41 87 47 88
REMARK SMILES IDX 49 89 46 90 42 91 43 92 44 93 45 94
REMARK H PARENT 6 5 88 21 88 22 10 28 69 47 37 58
REMARK Flexibility Score: inf
ROOT
ATOM      1  C   UNL A   1      32.099  28.333  23.343  1.00  0.00     0.117 C 
ENDROOT
BRANCH   1   2
ATOM      2  N   UNL A   1      32.827  27.485  22.429  1.00  0.00    -0.356 N 
ATOM      3  C   UNL A   1      33.396  26.279  22.647  1.00  0.00     0.225 C 
ATOM      4  O   UNL A   1      33.652  25.610  21.649  1.00  0.00    -0.275 OA
ATOM      5  H   UNL A   1      32.922  27.836  21.514  1.00  0.00     0.163 HD
BRANCH   3   6
ATOM      6  C   UNL A   1      33.657  25.799  24.068  1.00  0.00     0.102 C 
ATOM      7  C   UNL A   1      35.019  24.018  25.271  1.00  0.00     0.032 C 
ATOM      8  C   UNL A   1      34.142  24.341  24.064  1.00  0.00     0.094 C 
ATOM      9  N   UNL A   1      32.923  23.540  24.017  1.00  0.00    -0.339 N 
ATOM     10  C   UNL A   1      32.346  25.701  24.837  1.00  0.00     0.037 C 
ATOM     11  C   UNL A   1      31.770  24.368  24.359  1.00  0.00     0.120 C 
BRANCH   9  12
ATOM     12  C   UNL A   1      32.733  22.332  23.365  1.00  0.00     0.223 C 
ATOM     13  O   UNL A   1      32.903  22.236  22.145  1.00  0.00    -0.275 OA
BRANCH  12  14
ATOM     14  C   UNL A   1      32.174  21.126  24.131  1.00  0.00     0.106 C 
BRANCH  14  15
ATOM     15  C   UNL A   1      33.013  20.508  25.266  1.00  0.00     0.075 C 
BRANCH  15  16
ATOM     16  C   UNL A   1      33.386  19.036  25.003  1.00  0.00     0.182 C 
ATOM     17  C   UNL A   1      32.878  18.580  23.632  1.00  0.00     0.065 C 
ATOM     18  N   UNL A   1      32.904  18.061  25.996  1.00  0.00    -0.344 N 
ATOM     19  C   UNL A   1      33.519  17.251  23.248  1.00  0.00     0.012 C 
ATOM     20  C   UNL A   1      33.559  16.761  25.744  1.00  0.00     0.260 C 
ATOM     21  H   UNL A   1      31.892  17.958  25.911  1.00  0.00     0.346 HD
ATOM     22  H   UNL A   1      33.128  18.385  26.937  1.00  0.00     0.346 HD
ATOM     23  C   UNL A   1      33.274  16.213  24.339  1.00  0.00     0.062 C 
ENDBRANCH  15  16
ENDBRANCH  14  15
ENDBRANCH  12  14
ENDBRANCH   9  12
ENDBRANCH   3   6
ENDBRANCH   1   2
BRANCH   1  24
ATOM     24  C   UNL A   1      33.003  29.328  24.053  1.00  0.00     0.042 C 
BRANCH  24  25
ATOM     25  C   UNL A   1      32.831  29.377  25.568  1.00  0.00     0.118 C 
BRANCH  25  26
ATOM     26  N   UNL A   1      32.445  30.692  26.064  1.00  0.00    -0.352 N 
ATOM     27  C   UNL A   1      33.030  31.491  27.021  1.00  0.00     0.251 C 
ATOM     28  H   UNL A   1      31.636  31.069  25.648  1.00  0.00     0.163 HD
ATOM     29  O   UNL A   1      32.443  32.482  27.425  1.00  0.00    -0.269 OA
BRANCH  27  30
ATOM     30  C   UNL A   1      34.343  31.111  27.585  1.00  0.00     0.039 A 
ATOM     31  C   UNL A   1      35.324  32.093  27.741  1.00  0.00     0.014 A 
ATOM     32  C   UNL A   1      34.592  29.800  27.991  1.00  0.00     0.014 A 
ATOM     33  C   UNL A   1      36.516  31.775  28.396  1.00  0.00     0.010 A 
ATOM     34  C   UNL A   1      35.726  29.515  28.741  1.00  0.00     0.010 A 
ATOM     35  C   UNL A   1      36.704  30.499  28.952  1.00  0.00    -0.014 A 
BRANCH  35  36
ATOM     36  C   UNL A   1      37.915  30.165  29.747  1.00  0.00     0.031 A 
ATOM     37  C   UNL A   1      38.938  29.209  29.189  1.00  0.00     0.074 A 
ATOM     38  C   UNL A   1      38.058  30.659  30.994  1.00  0.00     0.049 A 
ATOM     39  N   UNL A   1      40.004  28.711  29.760  1.00  0.00    -0.248 NA
ATOM     40  C   UNL A   1      38.706  28.720  27.821  1.00  0.00     0.031 C 
ATOM     41  C   UNL A   1      37.112  31.556  31.663  1.00  0.00     0.029 A 
ATOM     42  N   UNL A   1      39.049  30.474  31.925  1.00  0.00    -0.354 N 
ATOM     43  C   UNL A   1      40.558  27.839  28.829  1.00  0.00     0.074 A 
ATOM     44  C   UNL A   1      39.665  27.818  27.690  1.00  0.00     0.031 C 
ATOM     45  C   UNL A   1      37.587  31.872  32.878  1.00  0.00     0.029 A 
ATOM     46  C   UNL A   1      38.841  31.159  33.100  1.00  0.00     0.049 A 
ATOM     47  H   UNL A   1      39.836  29.904  31.767  1.00  0.00     0.167 HD
ATOM     48  C   UNL A   1      41.719  27.141  28.902  1.00  0.00     0.034 A 
ATOM     49  C   UNL A   1      39.571  31.200  34.233  1.00  0.00     0.034 A 
ATOM     50  C   UNL A   1      42.608  27.191  30.037  1.00  0.00     0.049 A 
ATOM     51  C   UNL A   1      40.847  30.399  34.302  1.00  0.00     0.074 A 
ATOM     52  C   UNL A   1      43.834  26.570  30.199  1.00  0.00     0.029 A 
ATOM     53  N   UNL A   1      42.364  27.898  31.208  1.00  0.00    -0.354 N 
ATOM     54  N   UNL A   1      41.381  29.614  33.393  1.00  0.00    -0.248 NA
ATOM     55  C   UNL A   1      41.625  30.497  35.544  1.00  0.00     0.031 C 
ATOM     56  C   UNL A   1      44.298  26.843  31.489  1.00  0.00     0.029 A 
ATOM     57  C   UNL A   1      43.403  27.704  32.106  1.00  0.00     0.049 A 
ATOM     58  H   UNL A   1      41.571  28.456  31.375  1.00  0.00     0.167 HD
ATOM     59  C   UNL A   1      42.574  29.154  33.943  1.00  0.00     0.074 A 
ATOM     60  C   UNL A   1      42.688  29.761  35.254  1.00  0.00     0.031 C 
ATOM     61  C   UNL A   1      43.497  28.312  33.413  1.00  0.00     0.034 A 
BRANCH  48  62
ATOM     62  C   UNL A   1      42.076  26.260  27.728  1.00  0.00     0.023 A 
ATOM     63  C   UNL A   1      41.609  24.937  27.631  1.00  0.00     0.031 A 
ATOM     64  C   UNL A   1      42.919  26.734  26.708  1.00  0.00     0.131 A 
ATOM     65  C   UNL A   1      42.054  24.110  26.589  1.00  0.00     0.055 A 
ATOM     66  C   UNL A   1      43.286  25.934  25.624  1.00  0.00     0.041 A 
ATOM     67  F   UNL A   1      43.414  27.981  26.755  1.00  0.00    -0.206 F 
ATOM     68  C   UNL A   1      42.868  24.608  25.569  1.00  0.00     0.022 A 
BRANCH  65  69
ATOM     69  S   UNL A   1      41.682  22.337  26.673  1.00  0.00     0.124 S 
ATOM     70  O   UNL A   1      42.274  21.853  25.427  1.00  0.00    -0.237 OA
ATOM     71  O   UNL A   1      42.358  21.931  27.899  1.00  0.00    -0.237 OA
ATOM     72  O   UNL A   1      40.223  22.294  26.718  1.00  0.00    -0.744 OA
ENDBRANCH  65  69
ENDBRANCH  48  62
BRANCH  49  73
ATOM     73  C   UNL A   1      39.123  32.020  35.398  1.00  0.00     0.023 A 
ATOM     74  C   UNL A   1      38.496  31.423  36.502  1.00  0.00     0.031 A 
ATOM     75  C   UNL A   1      39.276  33.418  35.404  1.00  0.00     0.131 A 
ATOM     76  C   UNL A   1      37.996  32.223  37.542  1.00  0.00     0.055 A 
ATOM     77  C   UNL A   1      38.828  34.204  36.467  1.00  0.00     0.041 A 
ATOM     78  F   UNL A   1      39.873  34.041  34.376  1.00  0.00    -0.206 F 
ATOM     79  C   UNL A   1      38.170  33.608  37.539  1.00  0.00     0.022 A 
BRANCH  76  80
ATOM     80  S   UNL A   1      37.028  31.434  38.857  1.00  0.00     0.124 S 
ATOM     81  O   UNL A   1      37.919  31.572  40.003  1.00  0.00    -0.237 OA
ATOM     82  O   UNL A   1      35.822  32.254  38.878  1.00  0.00    -0.237 OA
ATOM     83  O   UNL A   1      36.843  30.069  38.370  1.00  0.00    -0.744 OA
ENDBRANCH  76  80
ENDBRANCH  49  73
BRANCH  61  84
ATOM     84  C   UNL A   1      44.734  28.040  34.235  1.00  0.00     0.023 A 
ATOM     85  C   UNL A   1      45.880  28.848  34.140  1.00  0.00     0.031 A 
ATOM     86  C   UNL A   1      44.764  26.951  35.123  1.00  0.00     0.131 A 
ATOM     87  C   UNL A   1      47.029  28.519  34.876  1.00  0.00     0.055 A 
ATOM     88  C   UNL A   1      45.886  26.668  35.904  1.00  0.00     0.041 A 
ATOM     89  F   UNL A   1      43.698  26.144  35.253  1.00  0.00    -0.206 F 
ATOM     90  C   UNL A   1      47.032  27.446  35.771  1.00  0.00     0.022 A 
BRANCH  87  91
ATOM     91  S   UNL A   1      48.552  29.456  34.576  1.00  0.00     0.124 S 
ATOM     92  O   UNL A   1      48.128  30.404  33.550  1.00  0.00    -0.237 OA
ATOM     93  O   UNL A   1      48.834  30.023  35.890  1.00  0.00    -0.237 OA
ATOM     94  O   UNL A   1      49.499  28.437  34.126  1.00  0.00    -0.744 OA
ENDBRANCH  87  91
ENDBRANCH  61  84
ENDBRANCH  35  36
ENDBRANCH  27  30
ENDBRANCH  25  26
ENDBRANCH  24  25
ENDBRANCH   1  24
TORSDOF 17
ENDMDL
