MODEL 1
REMARK VINA RESULT:     -12.5      0.000      0.000
REMARK SMILES Cc1cc2c(c(C)c1Br)C=C(C(=O)NCCCNC(=O)c1ccc(-c3c4nc(c(-c5cc(S(=O)(=O)[O-])ccc5F)c5ccc([nH]5)c(-c5cc(S(=O)(=O)[O-])ccc5F)c5nc(c(-c6cc(S(=O)(=O)[O-])ccc6F)c6ccc3[nH]6)C=C5)C=C4)cc1)[C@@H](C(F)(F)F)O2
REMARK SMILES IDX 17 1 16 2 15 3 14 4 12 5 13 6 11 8 1 9 2 10 3 11 8 12 4 13
REMARK SMILES IDX 6 14 9 15 5 16 89 17 7 18 10 19 84 20 85 21 86 22 87 23
REMARK SMILES IDX 88 24 18 25 19 26 20 28 21 29 22 30 83 31 23 32 82 33 24 34
REMARK SMILES IDX 25 35 26 36 76 37 27 38 81 39 75 40 77 41 28 42 80 43 74 44
REMARK SMILES IDX 73 45 29 47 61 48 41 49 60 50 42 51 45 52 59 53 78 54 43 55
REMARK SMILES IDX 44 56 58 58 79 59 46 60 30 61 31 62 39 63 32 64 38 65 40 66
REMARK SMILES IDX 37 67 33 68 34 69 35 70 36 71 62 72 63 73 71 74 64 75 70 76
REMARK SMILES IDX 72 77 69 78 65 79 66 80 67 81 68 82 47 83 48 84 56 85 49 86
REMARK SMILES IDX 55 87 57 88 54 89 50 90 51 91 52 92 53 93
REMARK H PARENT 14 7 18 27 77 46 45 57
REMARK Flexibility Score: inf
ROOT
ATOM      1  C   UNL A   1      33.532  29.332  24.838  1.00  0.00     0.118 C 
ENDROOT
BRANCH   1   2
ATOM      2  C   UNL A   1      32.728  28.832  23.644  1.00  0.00     0.042 C 
BRANCH   2   3
ATOM      3  C   UNL A   1      32.220  27.412  23.845  1.00  0.00     0.118 C 
BRANCH   3   4
ATOM      4  N   UNL A   1      31.835  27.161  25.227  1.00  0.00    -0.352 N 
ATOM      5  C   UNL A   1      31.725  26.094  26.051  1.00  0.00     0.251 C 
ATOM      6  O   UNL A   1      31.357  26.354  27.201  1.00  0.00    -0.270 OA
ATOM      7  H   UNL A   1      31.588  27.996  25.687  1.00  0.00     0.163 HD
BRANCH   5   8
ATOM      8  C   UNL A   1      32.021  24.681  25.672  1.00  0.00     0.067 C 
ATOM      9  C   UNL A   1      34.459  18.772  24.472  1.00  0.00     0.046 C 
ATOM     10  C   UNL A   1      34.248  20.224  24.808  1.00  0.00    -0.033 A 
ATOM     11  C   UNL A   1      32.931  20.688  24.866  1.00  0.00     0.051 A 
ATOM     12  C   UNL A   1      35.298  21.117  25.117  1.00  0.00     0.024 A 
ATOM     13  C   UNL A   1      32.658  22.012  25.187  1.00  0.00     0.128 A 
ATOM     14  C   UNL A   1      35.033  22.474  25.440  1.00  0.00    -0.026 A 
ATOM     15  Br  UNL A   1      37.090  20.443  25.122  1.00  0.00    -0.050 Br
ATOM     16  C   UNL A   1      33.685  22.913  25.478  1.00  0.00     0.021 A 
ATOM     17  O   UNL A   1      31.334  22.337  25.237  1.00  0.00    -0.475 OA
ATOM     18  C   UNL A   1      36.132  23.462  25.759  1.00  0.00     0.046 C 
ATOM     19  C   UNL A   1      33.292  24.276  25.856  1.00  0.00     0.026 C 
ATOM     20  C   UNL A   1      31.011  23.742  25.088  1.00  0.00     0.314 C 
BRANCH  20  21
ATOM     21  C   UNL A   1      30.704  24.041  23.609  1.00  0.00     0.429 C 
ATOM     22  F   UNL A   1      31.828  24.430  22.959  1.00  0.00    -0.167 F 
ATOM     23  F   UNL A   1      30.231  22.960  22.944  1.00  0.00    -0.167 F 
ATOM     24  F   UNL A   1      29.787  25.023  23.454  1.00  0.00    -0.167 F 
ENDBRANCH  20  21
ENDBRANCH   5   8
ENDBRANCH   3   4
ENDBRANCH   2   3
ENDBRANCH   1   2
BRANCH   1  25
ATOM     25  N   UNL A   1      32.870  30.449  25.505  1.00  0.00    -0.352 N 
ATOM     26  C   UNL A   1      33.102  31.005  26.739  1.00  0.00     0.251 C 
ATOM     27  H   UNL A   1      32.143  30.870  24.991  1.00  0.00     0.163 HD
ATOM     28  O   UNL A   1      32.253  31.736  27.242  1.00  0.00    -0.269 OA
BRANCH  26  29
ATOM     29  C   UNL A   1      34.361  30.715  27.453  1.00  0.00     0.039 A 
ATOM     30  C   UNL A   1      35.308  31.728  27.618  1.00  0.00     0.014 A 
ATOM     31  C   UNL A   1      34.611  29.431  27.944  1.00  0.00     0.014 A 
ATOM     32  C   UNL A   1      36.474  31.467  28.341  1.00  0.00     0.010 A 
ATOM     33  C   UNL A   1      35.722  29.201  28.744  1.00  0.00     0.010 A 
ATOM     34  C   UNL A   1      36.671  30.213  28.941  1.00  0.00    -0.014 A 
BRANCH  34  35
ATOM     35  C   UNL A   1      37.876  29.925  29.758  1.00  0.00     0.031 A 
ATOM     36  C   UNL A   1      38.961  29.045  29.201  1.00  0.00     0.074 A 
ATOM     37  C   UNL A   1      37.965  30.415  31.010  1.00  0.00     0.049 A 
ATOM     38  N   UNL A   1      40.049  28.611  29.780  1.00  0.00    -0.248 NA
ATOM     39  C   UNL A   1      38.785  28.563  27.819  1.00  0.00     0.031 C 
ATOM     40  C   UNL A   1      36.956  31.253  31.665  1.00  0.00     0.029 A 
ATOM     41  N   UNL A   1      38.950  30.286  31.955  1.00  0.00    -0.354 N 
ATOM     42  C   UNL A   1      40.682  27.805  28.840  1.00  0.00     0.074 A 
ATOM     43  C   UNL A   1      39.824  27.753  27.678  1.00  0.00     0.031 C 
ATOM     44  C   UNL A   1      37.396  31.600  32.884  1.00  0.00     0.029 A 
ATOM     45  C   UNL A   1      38.693  30.972  33.120  1.00  0.00     0.049 A 
ATOM     46  H   UNL A   1      39.765  29.752  31.815  1.00  0.00     0.167 HD
ATOM     47  C   UNL A   1      41.885  27.191  28.928  1.00  0.00     0.034 A 
ATOM     48  C   UNL A   1      39.420  31.082  34.249  1.00  0.00     0.034 A 
ATOM     49  C   UNL A   1      42.744  27.278  30.079  1.00  0.00     0.049 A 
ATOM     50  C   UNL A   1      40.743  30.365  34.332  1.00  0.00     0.074 A 
ATOM     51  C   UNL A   1      44.002  26.730  30.255  1.00  0.00     0.029 A 
ATOM     52  N   UNL A   1      42.438  27.964  31.245  1.00  0.00    -0.354 N 
ATOM     53  N   UNL A   1      41.328  29.614  33.429  1.00  0.00    -0.248 NA
ATOM     54  C   UNL A   1      41.500  30.510  35.582  1.00  0.00     0.031 C 
ATOM     55  C   UNL A   1      44.433  27.038  31.549  1.00  0.00     0.029 A 
ATOM     56  C   UNL A   1      43.473  27.834  32.155  1.00  0.00     0.049 A 
ATOM     57  H   UNL A   1      41.608  28.468  31.403  1.00  0.00     0.167 HD
ATOM     58  C   UNL A   1      42.536  29.216  33.993  1.00  0.00     0.074 A 
ATOM     59  C   UNL A   1      42.597  29.813  35.312  1.00  0.00     0.031 C 
ATOM     60  C   UNL A   1      43.508  28.431  33.466  1.00  0.00     0.034 A 
BRANCH  47  61
ATOM     61  C   UNL A   1      42.344  26.379  27.746  1.00  0.00     0.023 A 
ATOM     62  C   UNL A   1      41.937  25.046  27.574  1.00  0.00     0.031 A 
ATOM     63  C   UNL A   1      43.180  26.949  26.770  1.00  0.00     0.131 A 
ATOM     64  C   UNL A   1      42.402  24.310  26.474  1.00  0.00     0.055 A 
ATOM     65  C   UNL A   1      43.586  26.232  25.643  1.00  0.00     0.041 A 
ATOM     66  F   UNL A   1      43.613  28.213  26.896  1.00  0.00    -0.206 F 
ATOM     67  C   UNL A   1      43.202  24.901  25.494  1.00  0.00     0.022 A 
BRANCH  64  68
ATOM     68  S   UNL A   1      42.007  22.543  26.383  1.00  0.00     0.124 S 
ATOM     69  O   UNL A   1      40.546  22.569  26.380  1.00  0.00    -0.237 OA
ATOM     70  O   UNL A   1      42.640  22.139  25.133  1.00  0.00    -0.237 OA
ATOM     71  O   UNL A   1      42.613  21.995  27.595  1.00  0.00    -0.744 OA
ENDBRANCH  64  68
ENDBRANCH  47  61
BRANCH  48  72
ATOM     72  C   UNL A   1      38.920  31.904  35.385  1.00  0.00     0.023 A 
ATOM     73  C   UNL A   1      38.313  31.300  36.497  1.00  0.00     0.031 A 
ATOM     74  C   UNL A   1      39.041  33.305  35.378  1.00  0.00     0.131 A 
ATOM     75  C   UNL A   1      37.826  32.096  37.546  1.00  0.00     0.055 A 
ATOM     76  C   UNL A   1      38.591  34.090  36.441  1.00  0.00     0.041 A 
ATOM     77  F   UNL A   1      39.624  33.930  34.342  1.00  0.00    -0.206 F 
ATOM     78  C   UNL A   1      37.971  33.485  37.531  1.00  0.00     0.022 A 
BRANCH  75  79
ATOM     79  S   UNL A   1      36.960  31.289  38.921  1.00  0.00     0.124 S 
ATOM     80  O   UNL A   1      37.918  31.451  40.009  1.00  0.00    -0.237 OA
ATOM     81  O   UNL A   1      35.738  32.078  39.017  1.00  0.00    -0.237 OA
ATOM     82  O   UNL A   1      36.776  29.918  38.448  1.00  0.00    -0.744 OA
ENDBRANCH  75  79
ENDBRANCH  48  72
BRANCH  60  83
ATOM     83  C   UNL A   1      44.736  28.192  34.302  1.00  0.00     0.023 A 
ATOM     84  C   UNL A   1      44.836  27.080  35.153  1.00  0.00     0.031 A 
ATOM     85  C   UNL A   1      45.842  29.053  34.193  1.00  0.00     0.131 A 
ATOM     86  C   UNL A   1      46.015  26.868  35.881  1.00  0.00     0.055 A 
ATOM     87  C   UNL A   1      47.029  28.811  34.884  1.00  0.00     0.041 A 
ATOM     88  F   UNL A   1      45.794  30.126  33.386  1.00  0.00    -0.206 F 
ATOM     89  C   UNL A   1      47.118  27.715  35.737  1.00  0.00     0.022 A 
BRANCH  86  90
ATOM     90  S   UNL A   1      46.083  25.476  37.041  1.00  0.00     0.124 S 
ATOM     91  O   UNL A   1      45.909  26.146  38.327  1.00  0.00    -0.237 OA
ATOM     92  O   UNL A   1      44.968  24.643  36.601  1.00  0.00    -0.237 OA
ATOM     93  O   UNL A   1      47.408  24.904  36.813  1.00  0.00    -0.744 OA
ENDBRANCH  86  90
ENDBRANCH  60  83
ENDBRANCH  34  35
ENDBRANCH  26  29
ENDBRANCH   1  25
TORSDOF 14
ENDMDL
MODEL 2
REMARK VINA RESULT:     -12.4      2.468      3.342
REMARK SMILES Cc1cc2c(c(C)c1Br)C=C(C(=O)NCCCNC(=O)c1ccc(-c3c4nc(c(-c5cc(S(=O)(=O)[O-])ccc5F)c5ccc([nH]5)c(-c5cc(S(=O)(=O)[O-])ccc5F)c5nc(c(-c6cc(S(=O)(=O)[O-])ccc6F)c6ccc3[nH]6)C=C5)C=C4)cc1)[C@@H](C(F)(F)F)O2
REMARK SMILES IDX 17 1 16 2 15 3 14 4 12 5 13 6 11 8 1 9 2 10 3 11 8 12 4 13
REMARK SMILES IDX 6 14 9 15 5 16 89 17 7 18 10 19 84 20 85 21 86 22 87 23
REMARK SMILES IDX 88 24 18 25 19 26 20 28 21 29 22 30 83 31 23 32 82 33 24 34
REMARK SMILES IDX 25 35 26 36 76 37 27 38 81 39 75 40 77 41 28 42 80 43 74 44
REMARK SMILES IDX 73 45 29 47 61 48 41 49 60 50 42 51 45 52 59 53 78 54 43 55
REMARK SMILES IDX 44 56 58 58 79 59 46 60 30 61 31 62 39 63 32 64 38 65 40 66
REMARK SMILES IDX 37 67 33 68 34 69 35 70 36 71 62 72 63 73 71 74 64 75 70 76
REMARK SMILES IDX 72 77 69 78 65 79 66 80 67 81 68 82 47 83 48 84 56 85 49 86
REMARK SMILES IDX 55 87 57 88 54 89 50 90 51 91 52 92 53 93
REMARK H PARENT 14 7 18 27 77 46 45 57
REMARK Flexibility Score: inf
ROOT
ATOM      1  C   UNL A   1      32.670  32.396  27.250  1.00  0.00     0.118 C 
ENDROOT
BRANCH   1   2
ATOM      2  C   UNL A   1      31.492  31.857  26.447  1.00  0.00     0.042 C 
BRANCH   2   3
ATOM      3  C   UNL A   1      31.748  30.454  25.918  1.00  0.00     0.118 C 
BRANCH   3   4
ATOM      4  N   UNL A   1      33.033  29.930  26.362  1.00  0.00    -0.352 N 
ATOM      5  C   UNL A   1      33.760  28.802  26.191  1.00  0.00     0.251 C 
ATOM      6  O   UNL A   1      34.850  28.788  26.772  1.00  0.00    -0.270 OA
ATOM      7  H   UNL A   1      33.498  30.572  26.946  1.00  0.00     0.163 HD
BRANCH   5   8
ATOM      8  C   UNL A   1      33.345  27.629  25.369  1.00  0.00     0.067 C 
ATOM      9  C   UNL A   1      32.204  21.845  22.621  1.00  0.00     0.046 C 
ATOM     10  C   UNL A   1      32.718  22.993  23.448  1.00  0.00    -0.033 A 
ATOM     11  C   UNL A   1      32.089  24.231  23.293  1.00  0.00     0.051 A 
ATOM     12  C   UNL A   1      33.753  22.870  24.401  1.00  0.00     0.024 A 
ATOM     13  C   UNL A   1      32.498  25.332  24.036  1.00  0.00     0.128 A 
ATOM     14  C   UNL A   1      34.185  23.989  25.161  1.00  0.00    -0.026 A 
ATOM     15  Br  UNL A   1      34.543  21.146  24.665  1.00  0.00    -0.050 Br
ATOM     16  C   UNL A   1      33.532  25.233  24.970  1.00  0.00     0.021 A 
ATOM     17  O   UNL A   1      31.790  26.478  23.815  1.00  0.00    -0.475 OA
ATOM     18  C   UNL A   1      35.302  23.898  26.176  1.00  0.00     0.046 C 
ATOM     19  C   UNL A   1      33.855  26.439  25.741  1.00  0.00     0.026 C 
ATOM     20  C   UNL A   1      32.447  27.718  24.173  1.00  0.00     0.314 C 
BRANCH  20  21
ATOM     21  C   UNL A   1      33.159  28.294  22.935  1.00  0.00     0.429 C 
ATOM     22  F   UNL A   1      33.239  27.360  21.955  1.00  0.00    -0.167 F 
ATOM     23  F   UNL A   1      32.506  29.354  22.402  1.00  0.00    -0.167 F 
ATOM     24  F   UNL A   1      34.418  28.709  23.202  1.00  0.00    -0.167 F 
ENDBRANCH  20  21
ENDBRANCH   5   8
ENDBRANCH   3   4
ENDBRANCH   2   3
ENDBRANCH   1   2
BRANCH   1  25
ATOM     25  N   UNL A   1      32.527  33.823  27.527  1.00  0.00    -0.352 N 
ATOM     26  C   UNL A   1      33.078  34.588  28.524  1.00  0.00     0.251 C 
ATOM     27  H   UNL A   1      31.945  34.312  26.901  1.00  0.00     0.163 HD
ATOM     28  O   UNL A   1      32.606  35.697  28.766  1.00  0.00    -0.269 OA
BRANCH  26  29
ATOM     29  C   UNL A   1      34.223  34.075  29.302  1.00  0.00     0.039 A 
ATOM     30  C   UNL A   1      33.990  33.353  30.474  1.00  0.00     0.014 A 
ATOM     31  C   UNL A   1      35.530  34.325  28.877  1.00  0.00     0.014 A 
ATOM     32  C   UNL A   1      35.072  32.822  31.179  1.00  0.00     0.010 A 
ATOM     33  C   UNL A   1      36.596  33.715  29.523  1.00  0.00     0.010 A 
ATOM     34  C   UNL A   1      36.380  32.966  30.688  1.00  0.00    -0.014 A 
BRANCH  34  35
ATOM     35  C   UNL A   1      37.542  32.367  31.389  1.00  0.00     0.031 A 
ATOM     36  C   UNL A   1      38.288  31.225  30.755  1.00  0.00     0.074 A 
ATOM     37  C   UNL A   1      37.889  32.820  32.610  1.00  0.00     0.049 A 
ATOM     38  N   UNL A   1      39.274  30.517  31.237  1.00  0.00    -0.248 NA
ATOM     39  C   UNL A   1      37.847  30.804  29.414  1.00  0.00     0.031 C 
ATOM     40  C   UNL A   1      37.214  33.900  33.335  1.00  0.00     0.029 A 
ATOM     41  N   UNL A   1      38.896  32.434  33.457  1.00  0.00    -0.354 N 
ATOM     42  C   UNL A   1      39.568  29.567  30.265  1.00  0.00     0.074 A 
ATOM     43  C   UNL A   1      38.611  29.744  29.196  1.00  0.00     0.031 C 
ATOM     44  C   UNL A   1      37.855  34.121  34.493  1.00  0.00     0.029 A 
ATOM     45  C   UNL A   1      38.954  33.168  34.619  1.00  0.00     0.049 A 
ATOM     46  H   UNL A   1      39.519  31.699  33.253  1.00  0.00     0.167 HD
ATOM     47  C   UNL A   1      40.566  28.652  30.252  1.00  0.00     0.034 A 
ATOM     48  C   UNL A   1      39.797  33.082  35.667  1.00  0.00     0.034 A 
ATOM     49  C   UNL A   1      41.531  28.509  31.309  1.00  0.00     0.049 A 
ATOM     50  C   UNL A   1      40.882  32.036  35.640  1.00  0.00     0.074 A 
ATOM     51  C   UNL A   1      42.608  27.643  31.377  1.00  0.00     0.029 A 
ATOM     52  N   UNL A   1      41.542  29.256  32.478  1.00  0.00    -0.354 N 
ATOM     53  N   UNL A   1      41.148  31.152  34.707  1.00  0.00    -0.248 NA
ATOM     54  C   UNL A   1      41.776  31.976  36.803  1.00  0.00     0.031 C 
ATOM     55  C   UNL A   1      43.238  27.828  32.611  1.00  0.00     0.029 A 
ATOM     56  C   UNL A   1      42.594  28.856  33.284  1.00  0.00     0.049 A 
ATOM     57  H   UNL A   1      40.899  29.966  32.701  1.00  0.00     0.167 HD
ATOM     58  C   UNL A   1      42.257  30.446  35.162  1.00  0.00     0.074 A 
ATOM     59  C   UNL A   1      42.612  31.009  36.449  1.00  0.00     0.031 C 
ATOM     60  C   UNL A   1      42.924  29.426  34.566  1.00  0.00     0.034 A 
BRANCH  47  61
ATOM     61  C   UNL A   1      40.665  27.743  29.057  1.00  0.00     0.023 A 
ATOM     62  C   UNL A   1      41.574  28.000  28.017  1.00  0.00     0.031 A 
ATOM     63  C   UNL A   1      39.859  26.596  28.963  1.00  0.00     0.131 A 
ATOM     64  C   UNL A   1      41.625  27.145  26.906  1.00  0.00     0.055 A 
ATOM     65  C   UNL A   1      39.960  25.713  27.886  1.00  0.00     0.041 A 
ATOM     66  F   UNL A   1      38.960  26.314  29.919  1.00  0.00    -0.206 F 
ATOM     67  C   UNL A   1      40.843  25.990  26.846  1.00  0.00     0.022 A 
BRANCH  64  68
ATOM     68  S   UNL A   1      42.675  27.608  25.503  1.00  0.00     0.124 S 
ATOM     69  O   UNL A   1      42.579  26.418  24.660  1.00  0.00    -0.237 OA
ATOM     70  O   UNL A   1      42.019  28.806  24.994  1.00  0.00    -0.237 OA
ATOM     71  O   UNL A   1      43.985  27.827  26.114  1.00  0.00    -0.744 OA
ENDBRANCH  64  68
ENDBRANCH  47  61
BRANCH  48  72
ATOM     72  C   UNL A   1      39.657  34.013  36.820  1.00  0.00     0.023 A 
ATOM     73  C   UNL A   1      39.110  33.573  38.035  1.00  0.00     0.031 A 
ATOM     74  C   UNL A   1      40.066  35.354  36.726  1.00  0.00     0.131 A 
ATOM     75  C   UNL A   1      38.962  34.473  39.102  1.00  0.00     0.055 A 
ATOM     76  C   UNL A   1      39.954  36.236  37.803  1.00  0.00     0.041 A 
ATOM     77  F   UNL A   1      40.606  35.821  35.588  1.00  0.00    -0.206 F 
ATOM     78  C   UNL A   1      39.392  35.798  38.998  1.00  0.00     0.022 A 
BRANCH  75  79
ATOM     79  S   UNL A   1      38.163  33.895  40.624  1.00  0.00     0.124 S 
ATOM     80  O   UNL A   1      39.215  33.079  41.220  1.00  0.00    -0.237 OA
ATOM     81  O   UNL A   1      37.860  35.150  41.305  1.00  0.00    -0.237 OA
ATOM     82  O   UNL A   1      36.998  33.158  40.137  1.00  0.00    -0.744 OA
ENDBRANCH  75  79
ENDBRANCH  48  72
BRANCH  60  83
ATOM     83  C   UNL A   1      44.123  28.868  35.283  1.00  0.00     0.023 A 
ATOM     84  C   UNL A   1      43.997  27.832  36.221  1.00  0.00     0.031 A 
ATOM     85  C   UNL A   1      45.412  29.337  34.971  1.00  0.00     0.131 A 
ATOM     86  C   UNL A   1      45.144  27.309  36.834  1.00  0.00     0.055 A 
ATOM     87  C   UNL A   1      46.552  28.781  35.551  1.00  0.00     0.041 A 
ATOM     88  F   UNL A   1      45.581  30.323  34.075  1.00  0.00    -0.206 F 
ATOM     89  C   UNL A   1      46.421  27.763  36.491  1.00  0.00     0.022 A 
BRANCH  86  90
ATOM     90  S   UNL A   1      44.945  26.034  38.109  1.00  0.00     0.124 S 
ATOM     91  O   UNL A   1      46.237  26.082  38.787  1.00  0.00    -0.237 OA
ATOM     92  O   UNL A   1      43.805  26.529  38.875  1.00  0.00    -0.237 OA
ATOM     93  O   UNL A   1      44.691  24.817  37.341  1.00  0.00    -0.744 OA
ENDBRANCH  86  90
ENDBRANCH  60  83
ENDBRANCH  34  35
ENDBRANCH  26  29
ENDBRANCH   1  25
TORSDOF 14
ENDMDL
MODEL 3
REMARK VINA RESULT:     -12.3      5.830     10.618
REMARK SMILES Cc1cc2c(c(C)c1Br)C=C(C(=O)NCCCNC(=O)c1ccc(-c3c4nc(c(-c5cc(S(=O)(=O)[O-])ccc5F)c5ccc([nH]5)c(-c5cc(S(=O)(=O)[O-])ccc5F)c5nc(c(-c6cc(S(=O)(=O)[O-])ccc6F)c6ccc3[nH]6)C=C5)C=C4)cc1)[C@@H](C(F)(F)F)O2
REMARK SMILES IDX 17 1 16 2 15 3 14 4 12 5 13 6 11 8 1 9 2 10 3 11 8 12 4 13
REMARK SMILES IDX 6 14 9 15 5 16 89 17 7 18 10 19 84 20 85 21 86 22 87 23
REMARK SMILES IDX 88 24 18 25 19 26 20 28 21 29 22 30 83 31 23 32 82 33 24 34
REMARK SMILES IDX 25 35 26 36 76 37 27 38 81 39 75 40 77 41 28 42 80 43 74 44
REMARK SMILES IDX 73 45 29 47 61 48 41 49 60 50 42 51 45 52 59 53 78 54 43 55
REMARK SMILES IDX 44 56 58 58 79 59 46 60 30 61 31 62 39 63 32 64 38 65 40 66
REMARK SMILES IDX 37 67 33 68 34 69 35 70 36 71 62 72 63 73 71 74 64 75 70 76
REMARK SMILES IDX 72 77 69 78 65 79 66 80 67 81 68 82 47 83 48 84 56 85 49 86
REMARK SMILES IDX 55 87 57 88 54 89 50 90 51 91 52 92 53 93
REMARK H PARENT 14 7 18 27 77 46 45 57
REMARK Flexibility Score: inf
ROOT
ATOM      1  C   UNL A   1      39.044  20.411  25.759  1.00  0.00     0.118 C 
ENDROOT
BRANCH   1   2
ATOM      2  C   UNL A   1      37.953  19.954  24.798  1.00  0.00     0.042 C 
BRANCH   2   3
ATOM      3  C   UNL A   1      36.613  20.609  25.094  1.00  0.00     0.118 C 
BRANCH   3   4
ATOM      4  N   UNL A   1      35.506  19.672  24.956  1.00  0.00    -0.352 N 
ATOM      5  C   UNL A   1      34.155  19.727  24.919  1.00  0.00     0.251 C 
ATOM      6  O   UNL A   1      33.590  18.639  24.770  1.00  0.00    -0.270 OA
ATOM      7  H   UNL A   1      35.830  18.747  24.864  1.00  0.00     0.163 HD
BRANCH   5   8
ATOM      8  C   UNL A   1      33.342  20.973  25.034  1.00  0.00     0.067 C 
ATOM      9  C   UNL A   1      29.998  26.502  24.293  1.00  0.00     0.046 C 
ATOM     10  C   UNL A   1      30.887  25.299  24.124  1.00  0.00    -0.033 A 
ATOM     11  C   UNL A   1      30.907  24.361  25.160  1.00  0.00     0.051 A 
ATOM     12  C   UNL A   1      31.650  25.046  22.962  1.00  0.00     0.024 A 
ATOM     13  C   UNL A   1      31.690  23.217  25.066  1.00  0.00     0.128 A 
ATOM     14  C   UNL A   1      32.459  23.885  22.857  1.00  0.00    -0.026 A 
ATOM     15  Br  UNL A   1      31.540  26.296  21.516  1.00  0.00    -0.050 Br
ATOM     16  C   UNL A   1      32.464  22.960  23.932  1.00  0.00     0.021 A 
ATOM     17  O   UNL A   1      31.605  22.365  26.129  1.00  0.00    -0.475 OA
ATOM     18  C   UNL A   1      33.302  23.591  21.636  1.00  0.00     0.046 C 
ATOM     19  C   UNL A   1      33.216  21.700  23.907  1.00  0.00     0.026 C 
ATOM     20  C   UNL A   1      32.711  21.447  26.307  1.00  0.00     0.314 C 
BRANCH  20  21
ATOM     21  C   UNL A   1      33.731  22.061  27.285  1.00  0.00     0.429 C 
ATOM     22  F   UNL A   1      33.096  22.762  28.256  1.00  0.00    -0.167 F 
ATOM     23  F   UNL A   1      34.481  21.126  27.914  1.00  0.00    -0.167 F 
ATOM     24  F   UNL A   1      34.595  22.906  26.676  1.00  0.00    -0.167 F 
ENDBRANCH  20  21
ENDBRANCH   5   8
ENDBRANCH   3   4
ENDBRANCH   2   3
ENDBRANCH   1   2
BRANCH   1  25
ATOM     25  N   UNL A   1      40.047  19.370  25.972  1.00  0.00    -0.352 N 
ATOM     26  C   UNL A   1      41.411  19.468  26.086  1.00  0.00     0.251 C 
ATOM     27  H   UNL A   1      39.689  18.456  26.045  1.00  0.00     0.163 HD
ATOM     28  O   UNL A   1      42.102  18.460  25.963  1.00  0.00    -0.269 OA
BRANCH  26  29
ATOM     29  C   UNL A   1      42.038  20.780  26.346  1.00  0.00     0.039 A 
ATOM     30  C   UNL A   1      42.359  21.613  25.273  1.00  0.00     0.014 A 
ATOM     31  C   UNL A   1      42.324  21.174  27.656  1.00  0.00     0.014 A 
ATOM     32  C   UNL A   1      42.902  22.875  25.524  1.00  0.00     0.010 A 
ATOM     33  C   UNL A   1      42.770  22.464  27.907  1.00  0.00     0.010 A 
ATOM     34  C   UNL A   1      43.075  23.324  26.844  1.00  0.00    -0.014 A 
BRANCH  34  35
ATOM     35  C   UNL A   1      43.601  24.680  27.138  1.00  0.00     0.031 A 
ATOM     36  C   UNL A   1      42.674  25.742  27.664  1.00  0.00     0.074 A 
ATOM     37  C   UNL A   1      44.894  24.963  26.886  1.00  0.00     0.049 A 
ATOM     38  N   UNL A   1      42.917  27.002  27.907  1.00  0.00    -0.248 NA
ATOM     39  C   UNL A   1      41.279  25.341  27.921  1.00  0.00     0.031 C 
ATOM     40  C   UNL A   1      45.877  24.019  26.344  1.00  0.00     0.029 A 
ATOM     41  N   UNL A   1      45.609  26.120  27.055  1.00  0.00    -0.354 N 
ATOM     42  C   UNL A   1      41.712  27.543  28.340  1.00  0.00     0.074 A 
ATOM     43  C   UNL A   1      40.722  26.494  28.259  1.00  0.00     0.031 C 
ATOM     44  C   UNL A   1      47.073  24.623  26.271  1.00  0.00     0.029 A 
ATOM     45  C   UNL A   1      46.937  26.008  26.712  1.00  0.00     0.049 A 
ATOM     46  H   UNL A   1      45.209  26.956  27.390  1.00  0.00     0.167 HD
ATOM     47  C   UNL A   1      41.463  28.794  28.793  1.00  0.00     0.034 A 
ATOM     48  C   UNL A   1      47.930  26.917  26.749  1.00  0.00     0.034 A 
ATOM     49  C   UNL A   1      42.465  29.820  28.898  1.00  0.00     0.049 A 
ATOM     50  C   UNL A   1      47.620  28.310  27.232  1.00  0.00     0.074 A 
ATOM     51  C   UNL A   1      42.329  31.108  29.385  1.00  0.00     0.029 A 
ATOM     52  N   UNL A   1      43.792  29.672  28.521  1.00  0.00    -0.354 N 
ATOM     53  N   UNL A   1      46.474  28.801  27.644  1.00  0.00    -0.248 NA
ATOM     54  C   UNL A   1      48.731  29.270  27.253  1.00  0.00     0.031 C 
ATOM     55  C   UNL A   1      43.560  31.757  29.250  1.00  0.00     0.029 A 
ATOM     56  C   UNL A   1      44.480  30.853  28.741  1.00  0.00     0.049 A 
ATOM     57  H   UNL A   1      44.187  28.850  28.151  1.00  0.00     0.167 HD
ATOM     58  C   UNL A   1      46.734  30.121  27.997  1.00  0.00     0.074 A 
ATOM     59  C   UNL A   1      48.144  30.349  27.753  1.00  0.00     0.031 C 
ATOM     60  C   UNL A   1      45.883  31.059  28.483  1.00  0.00     0.034 A 
BRANCH  47  61
ATOM     61  C   UNL A   1      40.054  29.117  29.215  1.00  0.00     0.023 A 
ATOM     62  C   UNL A   1      39.679  29.119  30.568  1.00  0.00     0.031 A 
ATOM     63  C   UNL A   1      39.080  29.447  28.257  1.00  0.00     0.131 A 
ATOM     64  C   UNL A   1      38.352  29.401  30.925  1.00  0.00     0.055 A 
ATOM     65  C   UNL A   1      37.778  29.792  28.623  1.00  0.00     0.041 A 
ATOM     66  F   UNL A   1      39.381  29.443  26.948  1.00  0.00    -0.206 F 
ATOM     67  C   UNL A   1      37.405  29.763  29.964  1.00  0.00     0.022 A 
BRANCH  64  68
ATOM     68  S   UNL A   1      37.861  29.214  32.660  1.00  0.00     0.124 S 
ATOM     69  O   UNL A   1      38.980  29.850  33.352  1.00  0.00    -0.237 OA
ATOM     70  O   UNL A   1      36.590  29.926  32.711  1.00  0.00    -0.237 OA
ATOM     71  O   UNL A   1      37.771  27.765  32.835  1.00  0.00    -0.744 OA
ENDBRANCH  64  68
ENDBRANCH  47  61
BRANCH  48  72
ATOM     72  C   UNL A   1      49.307  26.540  26.327  1.00  0.00     0.023 A 
ATOM     73  C   UNL A   1      49.846  27.019  25.123  1.00  0.00     0.031 A 
ATOM     74  C   UNL A   1      50.105  25.696  27.119  1.00  0.00     0.131 A 
ATOM     75  C   UNL A   1      51.136  26.631  24.730  1.00  0.00     0.055 A 
ATOM     76  C   UNL A   1      51.404  25.345  26.744  1.00  0.00     0.041 A 
ATOM     77  F   UNL A   1      49.640  25.220  28.286  1.00  0.00    -0.206 F 
ATOM     78  C   UNL A   1      51.923  25.807  25.539  1.00  0.00     0.022 A 
BRANCH  75  79
ATOM     79  S   UNL A   1      51.762  27.190  23.123  1.00  0.00     0.124 S 
ATOM     80  O   UNL A   1      52.926  26.329  22.942  1.00  0.00    -0.237 OA
ATOM     81  O   UNL A   1      50.626  26.929  22.246  1.00  0.00    -0.237 OA
ATOM     82  O   UNL A   1      52.060  28.604  23.347  1.00  0.00    -0.744 OA
ENDBRANCH  75  79
ENDBRANCH  48  72
BRANCH  60  83
ATOM     83  C   UNL A   1      46.455  32.411  28.811  1.00  0.00     0.023 A 
ATOM     84  C   UNL A   1      46.511  33.434  27.852  1.00  0.00     0.031 A 
ATOM     85  C   UNL A   1      46.887  32.696  30.119  1.00  0.00     0.131 A 
ATOM     86  C   UNL A   1      47.009  34.694  28.209  1.00  0.00     0.055 A 
ATOM     87  C   UNL A   1      47.339  33.964  30.480  1.00  0.00     0.041 A 
ATOM     88  F   UNL A   1      46.846  31.750  31.072  1.00  0.00    -0.206 F 
ATOM     89  C   UNL A   1      47.405  34.971  29.522  1.00  0.00     0.022 A 
BRANCH  86  90
ATOM     90  S   UNL A   1      47.155  35.969  26.928  1.00  0.00     0.124 S 
ATOM     91  O   UNL A   1      47.666  35.201  25.796  1.00  0.00    -0.237 OA
ATOM     92  O   UNL A   1      45.783  36.450  26.804  1.00  0.00    -0.237 OA
ATOM     93  O   UNL A   1      48.096  36.927  27.503  1.00  0.00    -0.744 OA
ENDBRANCH  86  90
ENDBRANCH  60  83
ENDBRANCH  34  35
ENDBRANCH  26  29
ENDBRANCH   1  25
TORSDOF 14
ENDMDL
