MODEL 1
REMARK VINA RESULT:     -11.8      0.000      0.000
REMARK SMILES O=C(NCCCNC(=O)c1ccc(S(=O)(=O)Cc2cccs2)c(F)c1)c1ccc(-c2c3nc(c(-c4cc(S(=O)(=O)[O-])ccc4F)c4ccc([nH]4)c(-c4cc(S(=O)(=O)[O-])ccc4F)c4nc(c(-c5cc(S(=O)(=O)[O-])ccc5F)c5ccc2[nH]5)C=C4)C=C3)cc1
REMARK SMILES IDX 5 1 4 2 3 3 1 4 2 5 26 7 27 8 88 9 28 10 87 11 29 12 30 13
REMARK SMILES IDX 31 14 81 15 32 16 86 17 80 18 82 19 33 20 85 21 79 22 78 23
REMARK SMILES IDX 34 25 66 26 46 27 65 28 47 29 50 30 64 31 83 32 48 33 49 34
REMARK SMILES IDX 63 36 84 37 51 38 35 39 36 40 44 41 37 42 43 43 45 44 42 45
REMARK SMILES IDX 38 46 39 47 40 48 41 49 67 50 68 51 76 52 69 53 75 54 77 55
REMARK SMILES IDX 74 56 70 57 71 58 72 59 73 60 52 61 53 62 61 63 54 64 60 65
REMARK SMILES IDX 62 66 59 67 55 68 56 69 57 70 58 71 6 72 7 73 8 74 9 76
REMARK SMILES IDX 10 77 11 78 25 79 12 80 23 81 13 82 24 83 14 84 15 85 16 86
REMARK SMILES IDX 17 87 18 88 19 89 22 90 20 91 21 92
REMARK H PARENT 3 6 82 24 50 35 7 75
REMARK Flexibility Score: inf
ROOT
ATOM      1  C   UNL A   1      33.777  29.227  23.687  1.00  0.00     0.042 C 
ENDROOT
BRANCH   1   2
ATOM      2  C   UNL A   1      33.196  29.068  25.087  1.00  0.00     0.118 C 
BRANCH   2   3
ATOM      3  N   UNL A   1      32.687  30.320  25.638  1.00  0.00    -0.352 N 
ATOM      4  O   UNL A   1      32.412  31.994  27.115  1.00  0.00    -0.269 OA
ATOM      5  C   UNL A   1      33.103  31.056  26.723  1.00  0.00     0.251 C 
ATOM      6  H   UNL A   1      31.920  30.700  25.153  1.00  0.00     0.163 HD
BRANCH   5   7
ATOM      7  C   UNL A   1      34.356  30.713  27.430  1.00  0.00     0.039 A 
ATOM      8  C   UNL A   1      34.620  29.399  27.815  1.00  0.00     0.014 A 
ATOM      9  C   UNL A   1      35.292  31.716  27.700  1.00  0.00     0.014 A 
ATOM     10  C   UNL A   1      35.712  29.123  28.627  1.00  0.00     0.010 A 
ATOM     11  C   UNL A   1      36.451  31.414  28.425  1.00  0.00     0.010 A 
ATOM     12  C   UNL A   1      36.650  30.123  28.933  1.00  0.00    -0.014 A 
BRANCH  12  13
ATOM     13  C   UNL A   1      37.838  29.767  29.757  1.00  0.00     0.031 A 
ATOM     14  C   UNL A   1      38.952  28.927  29.192  1.00  0.00     0.074 A 
ATOM     15  C   UNL A   1      37.937  30.273  31.004  1.00  0.00     0.049 A 
ATOM     16  N   UNL A   1      40.070  28.558  29.764  1.00  0.00    -0.248 NA
ATOM     17  C   UNL A   1      38.796  28.432  27.814  1.00  0.00     0.031 C 
ATOM     18  C   UNL A   1      36.920  31.105  31.656  1.00  0.00     0.029 A 
ATOM     19  N   UNL A   1      38.944  30.200  31.932  1.00  0.00    -0.354 N 
ATOM     20  C   UNL A   1      40.742  27.779  28.827  1.00  0.00     0.074 A 
ATOM     21  C   UNL A   1      39.895  27.706  27.656  1.00  0.00     0.031 C 
ATOM     22  C   UNL A   1      37.385  31.522  32.842  1.00  0.00     0.029 A 
ATOM     23  C   UNL A   1      38.695  30.924  33.075  1.00  0.00     0.049 A 
ATOM     24  H   UNL A   1      39.767  29.677  31.794  1.00  0.00     0.167 HD
ATOM     25  C   UNL A   1      41.959  27.192  28.933  1.00  0.00     0.034 A 
ATOM     26  C   UNL A   1      39.423  31.079  34.198  1.00  0.00     0.034 A 
ATOM     27  C   UNL A   1      42.806  27.295  30.094  1.00  0.00     0.049 A 
ATOM     28  C   UNL A   1      40.749  30.379  34.303  1.00  0.00     0.074 A 
ATOM     29  C   UNL A   1      44.070  26.762  30.283  1.00  0.00     0.029 A 
ATOM     30  N   UNL A   1      42.483  27.974  31.260  1.00  0.00    -0.354 N 
ATOM     31  N   UNL A   1      41.355  29.632  33.410  1.00  0.00    -0.248 NA
ATOM     32  C   UNL A   1      41.482  30.526  35.567  1.00  0.00     0.031 C 
ATOM     33  C   UNL A   1      44.484  27.066  31.583  1.00  0.00     0.029 A 
ATOM     34  C   UNL A   1      43.509  27.846  32.182  1.00  0.00     0.049 A 
ATOM     35  H   UNL A   1      41.647  28.472  31.410  1.00  0.00     0.167 HD
ATOM     36  C   UNL A   1      42.544  29.225  34.004  1.00  0.00     0.074 A 
ATOM     37  C   UNL A   1      42.579  29.820  35.324  1.00  0.00     0.031 C 
ATOM     38  C   UNL A   1      43.519  28.430  33.499  1.00  0.00     0.034 A 
BRANCH  25  39
ATOM     39  C   UNL A   1      42.449  26.359  27.779  1.00  0.00     0.023 A 
ATOM     40  C   UNL A   1      42.071  25.015  27.626  1.00  0.00     0.031 A 
ATOM     41  C   UNL A   1      43.253  26.941  26.783  1.00  0.00     0.131 A 
ATOM     42  C   UNL A   1      42.516  24.289  26.510  1.00  0.00     0.055 A 
ATOM     43  C   UNL A   1      43.648  26.229  25.649  1.00  0.00     0.041 A 
ATOM     44  F   UNL A   1      43.653  28.218  26.888  1.00  0.00    -0.206 F 
ATOM     45  C   UNL A   1      43.282  24.894  25.510  1.00  0.00     0.022 A 
BRANCH  42  46
ATOM     46  S   UNL A   1      42.121  22.524  26.405  1.00  0.00     0.124 S 
ATOM     47  O   UNL A   1      42.775  22.150  25.154  1.00  0.00    -0.237 OA
ATOM     48  O   UNL A   1      42.721  21.988  27.622  1.00  0.00    -0.237 OA
ATOM     49  O   UNL A   1      40.660  22.501  26.371  1.00  0.00    -0.744 OA
ENDBRANCH  42  46
ENDBRANCH  25  39
BRANCH  26  50
ATOM     50  C   UNL A   1      38.889  31.894  35.323  1.00  0.00     0.023 A 
ATOM     51  C   UNL A   1      38.304  31.290  36.446  1.00  0.00     0.031 A 
ATOM     52  C   UNL A   1      38.964  33.299  35.289  1.00  0.00     0.131 A 
ATOM     53  C   UNL A   1      37.800  32.091  37.483  1.00  0.00     0.055 A 
ATOM     54  C   UNL A   1      38.503  34.088  36.343  1.00  0.00     0.041 A 
ATOM     55  F   UNL A   1      39.520  33.923  34.239  1.00  0.00    -0.206 F 
ATOM     56  C   UNL A   1      37.911  33.484  37.446  1.00  0.00     0.022 A 
BRANCH  53  57
ATOM     57  S   UNL A   1      36.962  31.287  38.876  1.00  0.00     0.124 S 
ATOM     58  O   UNL A   1      37.918  31.497  39.957  1.00  0.00    -0.237 OA
ATOM     59  O   UNL A   1      35.718  32.043  38.962  1.00  0.00    -0.237 OA
ATOM     60  O   UNL A   1      36.817  29.902  38.431  1.00  0.00    -0.744 OA
ENDBRANCH  53  57
ENDBRANCH  26  50
BRANCH  38  61
ATOM     61  C   UNL A   1      44.716  28.166  34.371  1.00  0.00     0.023 A 
ATOM     62  C   UNL A   1      44.747  27.077  35.255  1.00  0.00     0.031 A 
ATOM     63  C   UNL A   1      45.856  28.981  34.270  1.00  0.00     0.131 A 
ATOM     64  C   UNL A   1      45.894  26.841  36.026  1.00  0.00     0.055 A 
ATOM     65  C   UNL A   1      47.010  28.717  35.007  1.00  0.00     0.041 A 
ATOM     66  F   UNL A   1      45.872  30.032  33.434  1.00  0.00    -0.206 F 
ATOM     67  C   UNL A   1      47.032  27.644  35.894  1.00  0.00     0.022 A 
BRANCH  64  68
ATOM     68  S   UNL A   1      45.881  25.477  37.220  1.00  0.00     0.124 S 
ATOM     69  O   UNL A   1      46.190  26.168  38.468  1.00  0.00    -0.237 OA
ATOM     70  O   UNL A   1      44.521  24.961  37.097  1.00  0.00    -0.237 OA
ATOM     71  O   UNL A   1      46.927  24.582  36.731  1.00  0.00    -0.744 OA
ENDBRANCH  64  68
ENDBRANCH  38  61
ENDBRANCH  12  13
ENDBRANCH   5   7
ENDBRANCH   2   3
ENDBRANCH   1   2
BRANCH   1  72
ATOM     72  C   UNL A   1      33.153  28.296  22.655  1.00  0.00     0.118 C 
BRANCH  72  73
ATOM     73  N   UNL A   1      31.804  28.709  22.296  1.00  0.00    -0.352 N 
ATOM     74  C   UNL A   1      30.619  28.068  22.535  1.00  0.00     0.251 C 
ATOM     75  H   UNL A   1      31.736  29.565  21.815  1.00  0.00     0.163 HD
ATOM     76  O   UNL A   1      29.575  28.437  22.011  1.00  0.00    -0.269 OA
BRANCH  74  77
ATOM     77  C   UNL A   1      30.597  26.918  23.451  1.00  0.00     0.042 A 
ATOM     78  C   UNL A   1      30.687  25.618  22.942  1.00  0.00     0.015 A 
ATOM     79  C   UNL A   1      30.535  27.148  24.826  1.00  0.00     0.054 A 
ATOM     80  C   UNL A   1      30.711  24.536  23.820  1.00  0.00     0.024 A 
ATOM     81  C   UNL A   1      30.537  26.060  25.692  1.00  0.00     0.142 A 
ATOM     82  C   UNL A   1      30.649  24.764  25.201  1.00  0.00     0.103 A 
ATOM     83  F   UNL A   1      30.442  26.300  27.004  1.00  0.00    -0.206 F 
BRANCH  82  84
ATOM     84  S   UNL A   1      30.714  23.379  26.295  1.00  0.00     0.186 S 
ATOM     85  O   UNL A   1      29.650  23.599  27.258  1.00  0.00    -0.223 OA
ATOM     86  O   UNL A   1      30.677  22.192  25.456  1.00  0.00    -0.223 OA
BRANCH  84  87
ATOM     87  C   UNL A   1      32.266  23.392  27.176  1.00  0.00     0.188 C 
BRANCH  87  88
ATOM     88  C   UNL A   1      33.442  23.564  26.262  1.00  0.00     0.020 A 
ATOM     89  C   UNL A   1      34.091  24.727  25.889  1.00  0.00     0.016 A 
ATOM     90  S   UNL A   1      34.234  22.184  25.614  1.00  0.00    -0.148 S 
ATOM     91  C   UNL A   1      35.204  24.485  25.034  1.00  0.00     0.012 A 
ATOM     92  C   UNL A   1      35.400  23.142  24.813  1.00  0.00     0.065 A 
ENDBRANCH  87  88
ENDBRANCH  84  87
ENDBRANCH  82  84
ENDBRANCH  74  77
ENDBRANCH  72  73
ENDBRANCH   1  72
TORSDOF 16
ENDMDL
MODEL 2
REMARK VINA RESULT:     -11.7      0.810      7.576
REMARK SMILES O=C(NCCCNC(=O)c1ccc(S(=O)(=O)Cc2cccs2)c(F)c1)c1ccc(-c2c3nc(c(-c4cc(S(=O)(=O)[O-])ccc4F)c4ccc([nH]4)c(-c4cc(S(=O)(=O)[O-])ccc4F)c4nc(c(-c5cc(S(=O)(=O)[O-])ccc5F)c5ccc2[nH]5)C=C4)C=C3)cc1
REMARK SMILES IDX 5 1 4 2 3 3 1 4 2 5 26 7 27 8 88 9 28 10 87 11 29 12 30 13
REMARK SMILES IDX 31 14 81 15 32 16 86 17 80 18 82 19 33 20 85 21 79 22 78 23
REMARK SMILES IDX 34 25 66 26 46 27 65 28 47 29 50 30 64 31 83 32 48 33 49 34
REMARK SMILES IDX 63 36 84 37 51 38 35 39 36 40 44 41 37 42 43 43 45 44 42 45
REMARK SMILES IDX 38 46 39 47 40 48 41 49 67 50 68 51 76 52 69 53 75 54 77 55
REMARK SMILES IDX 74 56 70 57 71 58 72 59 73 60 52 61 53 62 61 63 54 64 60 65
REMARK SMILES IDX 62 66 59 67 55 68 56 69 57 70 58 71 6 72 7 73 8 74 9 76
REMARK SMILES IDX 10 77 11 78 25 79 12 80 23 81 13 82 24 83 14 84 15 85 16 86
REMARK SMILES IDX 17 87 18 88 19 89 22 90 20 91 21 92
REMARK H PARENT 3 6 82 24 50 35 7 75
REMARK Flexibility Score: inf
ROOT
ATOM      1  C   UNL A   1      33.440  29.304  23.694  1.00  0.00     0.042 C 
ENDROOT
BRANCH   1   2
ATOM      2  C   UNL A   1      33.231  29.218  25.201  1.00  0.00     0.118 C 
BRANCH   2   3
ATOM      3  N   UNL A   1      32.708  30.453  25.776  1.00  0.00    -0.352 N 
ATOM      4  O   UNL A   1      32.432  32.108  27.274  1.00  0.00    -0.269 OA
ATOM      5  C   UNL A   1      33.133  31.189  26.857  1.00  0.00     0.251 C 
ATOM      6  H   UNL A   1      31.921  30.820  25.313  1.00  0.00     0.163 HD
BRANCH   5   7
ATOM      7  C   UNL A   1      34.411  30.867  27.531  1.00  0.00     0.039 A 
ATOM      8  C   UNL A   1      34.675  29.573  27.977  1.00  0.00     0.014 A 
ATOM      9  C   UNL A   1      35.369  31.871  27.705  1.00  0.00     0.014 A 
ATOM     10  C   UNL A   1      35.797  29.328  28.759  1.00  0.00     0.010 A 
ATOM     11  C   UNL A   1      36.553  31.593  28.398  1.00  0.00     0.010 A 
ATOM     12  C   UNL A   1      36.758  30.329  28.970  1.00  0.00    -0.014 A 
BRANCH  12  13
ATOM     13  C   UNL A   1      37.975  30.003  29.763  1.00  0.00     0.031 A 
ATOM     14  C   UNL A   1      38.117  30.458  31.191  1.00  0.00     0.074 A 
ATOM     15  C   UNL A   1      38.924  29.225  29.203  1.00  0.00     0.049 A 
ATOM     16  N   UNL A   1      39.094  30.229  32.030  1.00  0.00    -0.248 NA
ATOM     17  C   UNL A   1      37.031  31.279  31.752  1.00  0.00     0.031 C 
ATOM     18  C   UNL A   1      38.891  28.718  27.827  1.00  0.00     0.029 A 
ATOM     19  N   UNL A   1      40.077  28.690  29.721  1.00  0.00    -0.354 N 
ATOM     20  C   UNL A   1      38.752  30.885  33.208  1.00  0.00     0.074 A 
ATOM     21  C   UNL A   1      37.487  31.545  32.969  1.00  0.00     0.031 C 
ATOM     22  C   UNL A   1      39.930  27.894  27.635  1.00  0.00     0.029 A 
ATOM     23  C   UNL A   1      40.750  27.874  28.842  1.00  0.00     0.049 A 
ATOM     24  H   UNL A   1      40.393  28.875  30.635  1.00  0.00     0.167 HD
ATOM     25  C   UNL A   1      39.427  30.921  34.382  1.00  0.00     0.034 A 
ATOM     26  C   UNL A   1      41.907  27.197  28.976  1.00  0.00     0.034 A 
ATOM     27  C   UNL A   1      40.673  30.236  34.618  1.00  0.00     0.049 A 
ATOM     28  C   UNL A   1      42.655  27.292  30.276  1.00  0.00     0.074 A 
ATOM     29  C   UNL A   1      41.416  30.186  35.785  1.00  0.00     0.029 A 
ATOM     30  N   UNL A   1      41.360  29.483  33.677  1.00  0.00    -0.354 N 
ATOM     31  N   UNL A   1      42.320  27.935  31.370  1.00  0.00    -0.248 NA
ATOM     32  C   UNL A   1      43.941  26.588  30.357  1.00  0.00     0.031 C 
ATOM     33  C   UNL A   1      42.580  29.456  35.533  1.00  0.00     0.029 A 
ATOM     34  C   UNL A   1      42.532  28.992  34.228  1.00  0.00     0.049 A 
ATOM     35  H   UNL A   1      41.058  29.322  32.754  1.00  0.00     0.167 HD
ATOM     36  C   UNL A   1      43.352  27.707  32.272  1.00  0.00     0.074 A 
ATOM     37  C   UNL A   1      44.314  26.857  31.602  1.00  0.00     0.031 C 
ATOM     38  C   UNL A   1      43.489  28.162  33.541  1.00  0.00     0.034 A 
BRANCH  25  39
ATOM     39  C   UNL A   1      38.856  31.744  35.506  1.00  0.00     0.023 A 
ATOM     40  C   UNL A   1      38.237  31.148  36.617  1.00  0.00     0.031 A 
ATOM     41  C   UNL A   1      38.994  33.144  35.494  1.00  0.00     0.131 A 
ATOM     42  C   UNL A   1      37.758  31.952  37.663  1.00  0.00     0.055 A 
ATOM     43  C   UNL A   1      38.564  33.934  36.562  1.00  0.00     0.041 A 
ATOM     44  F   UNL A   1      39.566  33.764  34.450  1.00  0.00    -0.206 F 
ATOM     45  C   UNL A   1      37.939  33.338  37.653  1.00  0.00     0.022 A 
BRANCH  42  46
ATOM     46  S   UNL A   1      36.850  31.166  39.020  1.00  0.00     0.124 S 
ATOM     47  O   UNL A   1      36.657  29.814  38.501  1.00  0.00    -0.237 OA
ATOM     48  O   UNL A   1      37.776  31.292  40.140  1.00  0.00    -0.237 OA
ATOM     49  O   UNL A   1      35.633  31.967  39.127  1.00  0.00    -0.744 OA
ENDBRANCH  42  46
ENDBRANCH  25  39
BRANCH  26  50
ATOM     50  C   UNL A   1      42.445  26.412  27.830  1.00  0.00     0.023 A 
ATOM     51  C   UNL A   1      42.057  25.081  27.614  1.00  0.00     0.031 A 
ATOM     52  C   UNL A   1      43.355  26.993  26.928  1.00  0.00     0.131 A 
ATOM     53  C   UNL A   1      42.593  24.368  26.531  1.00  0.00     0.055 A 
ATOM     54  C   UNL A   1      43.849  26.294  25.827  1.00  0.00     0.041 A 
ATOM     55  F   UNL A   1      43.751  28.265  27.089  1.00  0.00    -0.206 F 
ATOM     56  C   UNL A   1      43.473  24.971  25.627  1.00  0.00     0.022 A 
BRANCH  53  57
ATOM     57  S   UNL A   1      42.150  22.620  26.333  1.00  0.00     0.124 S 
ATOM     58  O   UNL A   1      42.872  22.006  27.442  1.00  0.00    -0.237 OA
ATOM     59  O   UNL A   1      40.697  22.658  26.454  1.00  0.00    -0.237 OA
ATOM     60  O   UNL A   1      42.653  22.291  25.002  1.00  0.00    -0.744 OA
ENDBRANCH  53  57
ENDBRANCH  26  50
BRANCH  38  61
ATOM     61  C   UNL A   1      44.717  27.739  34.299  1.00  0.00     0.023 A 
ATOM     62  C   UNL A   1      44.660  26.730  35.273  1.00  0.00     0.031 A 
ATOM     63  C   UNL A   1      45.964  28.311  33.999  1.00  0.00     0.131 A 
ATOM     64  C   UNL A   1      45.832  26.336  35.934  1.00  0.00     0.055 A 
ATOM     65  C   UNL A   1      47.134  27.886  34.628  1.00  0.00     0.041 A 
ATOM     66  F   UNL A   1      46.066  29.277  33.071  1.00  0.00    -0.206 F 
ATOM     67  C   UNL A   1      47.071  26.895  35.604  1.00  0.00     0.022 A 
BRANCH  64  68
ATOM     68  S   UNL A   1      45.720  25.090  37.246  1.00  0.00     0.124 S 
ATOM     69  O   UNL A   1      46.346  25.780  38.369  1.00  0.00    -0.237 OA
ATOM     70  O   UNL A   1      44.281  24.872  37.354  1.00  0.00    -0.237 OA
ATOM     71  O   UNL A   1      46.477  23.960  36.711  1.00  0.00    -0.744 OA
ENDBRANCH  64  68
ENDBRANCH  38  61
ENDBRANCH  12  13
ENDBRANCH   5   7
ENDBRANCH   2   3
ENDBRANCH   1   2
BRANCH   1  72
ATOM     72  C   UNL A   1      32.621  28.293  22.903  1.00  0.00     0.118 C 
BRANCH  72  73
ATOM     73  N   UNL A   1      31.200  28.606  22.928  1.00  0.00    -0.352 N 
ATOM     74  C   UNL A   1      30.156  27.820  23.336  1.00  0.00     0.251 C 
ATOM     75  H   UNL A   1      30.956  29.505  22.608  1.00  0.00     0.163 HD
ATOM     76  O   UNL A   1      28.993  28.142  23.126  1.00  0.00    -0.269 OA
BRANCH  74  77
ATOM     77  C   UNL A   1      30.438  26.567  24.053  1.00  0.00     0.042 A 
ATOM     78  C   UNL A   1      30.682  26.591  25.430  1.00  0.00     0.015 A 
ATOM     79  C   UNL A   1      30.408  25.363  23.349  1.00  0.00     0.054 A 
ATOM     80  C   UNL A   1      30.903  25.394  26.109  1.00  0.00     0.024 A 
ATOM     81  C   UNL A   1      30.653  24.177  24.032  1.00  0.00     0.142 A 
ATOM     82  C   UNL A   1      30.875  24.184  25.404  1.00  0.00     0.103 A 
ATOM     83  F   UNL A   1      30.655  23.037  23.333  1.00  0.00    -0.206 F 
BRANCH  82  84
ATOM     84  S   UNL A   1      31.125  22.677  26.292  1.00  0.00     0.186 S 
ATOM     85  O   UNL A   1      31.539  23.079  27.625  1.00  0.00    -0.223 OA
ATOM     86  O   UNL A   1      29.905  21.901  26.133  1.00  0.00    -0.223 OA
BRANCH  84  87
ATOM     87  C   UNL A   1      32.468  21.766  25.549  1.00  0.00     0.188 C 
BRANCH  87  88
ATOM     88  C   UNL A   1      33.633  22.644  25.202  1.00  0.00     0.020 A 
ATOM     89  C   UNL A   1      34.034  23.107  23.962  1.00  0.00     0.016 A 
ATOM     90  S   UNL A   1      34.609  23.306  26.450  1.00  0.00    -0.148 S 
ATOM     91  C   UNL A   1      35.171  23.962  24.037  1.00  0.00     0.012 A 
ATOM     92  C   UNL A   1      35.579  24.162  25.335  1.00  0.00     0.065 A 
ENDBRANCH  87  88
ENDBRANCH  84  87
ENDBRANCH  82  84
ENDBRANCH  74  77
ENDBRANCH  72  73
ENDBRANCH   1  72
TORSDOF 16
ENDMDL
MODEL 3
REMARK VINA RESULT:     -11.5      5.238      7.519
REMARK SMILES O=C(NCCCNC(=O)c1ccc(S(=O)(=O)Cc2cccs2)c(F)c1)c1ccc(-c2c3nc(c(-c4cc(S(=O)(=O)[O-])ccc4F)c4ccc([nH]4)c(-c4cc(S(=O)(=O)[O-])ccc4F)c4nc(c(-c5cc(S(=O)(=O)[O-])ccc5F)c5ccc2[nH]5)C=C4)C=C3)cc1
REMARK SMILES IDX 5 1 4 2 3 3 1 4 2 5 26 7 27 8 88 9 28 10 87 11 29 12 30 13
REMARK SMILES IDX 31 14 81 15 32 16 86 17 80 18 82 19 33 20 85 21 79 22 78 23
REMARK SMILES IDX 34 25 66 26 46 27 65 28 47 29 50 30 64 31 83 32 48 33 49 34
REMARK SMILES IDX 63 36 84 37 51 38 35 39 36 40 44 41 37 42 43 43 45 44 42 45
REMARK SMILES IDX 38 46 39 47 40 48 41 49 67 50 68 51 76 52 69 53 75 54 77 55
REMARK SMILES IDX 74 56 70 57 71 58 72 59 73 60 52 61 53 62 61 63 54 64 60 65
REMARK SMILES IDX 62 66 59 67 55 68 56 69 57 70 58 71 6 72 7 73 8 74 9 76
REMARK SMILES IDX 10 77 11 78 25 79 12 80 23 81 13 82 24 83 14 84 15 85 16 86
REMARK SMILES IDX 17 87 18 88 19 89 22 90 20 91 21 92
REMARK H PARENT 3 6 82 24 50 35 7 75
REMARK Flexibility Score: inf
ROOT
ATOM      1  C   UNL A   1      34.691  22.009  26.457  1.00  0.00     0.042 C 
ENDROOT
BRANCH   1   2
ATOM      2  C   UNL A   1      35.905  22.343  25.599  1.00  0.00     0.118 C 
BRANCH   2   3
ATOM      3  N   UNL A   1      36.866  21.248  25.520  1.00  0.00    -0.352 N 
ATOM      4  O   UNL A   1      38.867  20.226  25.414  1.00  0.00    -0.269 OA
ATOM      5  C   UNL A   1      38.228  21.234  25.707  1.00  0.00     0.251 C 
ATOM      6  H   UNL A   1      36.474  20.373  25.295  1.00  0.00     0.163 HD
BRANCH   5   7
ATOM      7  C   UNL A   1      38.927  22.428  26.234  1.00  0.00     0.039 A 
ATOM      8  C   UNL A   1      38.379  23.700  26.078  1.00  0.00     0.014 A 
ATOM      9  C   UNL A   1      40.141  22.272  26.910  1.00  0.00     0.014 A 
ATOM     10  C   UNL A   1      39.126  24.820  26.421  1.00  0.00     0.010 A 
ATOM     11  C   UNL A   1      40.841  23.400  27.356  1.00  0.00     0.010 A 
ATOM     12  C   UNL A   1      40.361  24.687  27.076  1.00  0.00    -0.014 A 
BRANCH  12  13
ATOM     13  C   UNL A   1      41.098  25.916  27.479  1.00  0.00     0.031 A 
ATOM     14  C   UNL A   1      42.480  26.200  26.955  1.00  0.00     0.074 A 
ATOM     15  C   UNL A   1      40.475  26.815  28.270  1.00  0.00     0.049 A 
ATOM     16  N   UNL A   1      43.244  27.239  27.180  1.00  0.00    -0.248 NA
ATOM     17  C   UNL A   1      43.091  25.192  26.072  1.00  0.00     0.031 C 
ATOM     18  C   UNL A   1      39.131  26.649  28.833  1.00  0.00     0.029 A 
ATOM     19  N   UNL A   1      40.863  28.056  28.707  1.00  0.00    -0.354 N 
ATOM     20  C   UNL A   1      44.424  27.007  26.482  1.00  0.00     0.074 A 
ATOM     21  C   UNL A   1      44.289  25.715  25.846  1.00  0.00     0.031 C 
ATOM     22  C   UNL A   1      38.782  27.772  29.477  1.00  0.00     0.029 A 
ATOM     23  C   UNL A   1      39.901  28.706  29.446  1.00  0.00     0.049 A 
ATOM     24  H   UNL A   1      41.747  28.444  28.511  1.00  0.00     0.167 HD
ATOM     25  C   UNL A   1      45.513  27.806  26.374  1.00  0.00     0.034 A 
ATOM     26  C   UNL A   1      39.917  29.909  30.050  1.00  0.00     0.034 A 
ATOM     27  C   UNL A   1      45.626  29.105  26.990  1.00  0.00     0.049 A 
ATOM     28  C   UNL A   1      41.156  30.754  29.950  1.00  0.00     0.074 A 
ATOM     29  C   UNL A   1      46.676  30.002  26.911  1.00  0.00     0.029 A 
ATOM     30  N   UNL A   1      44.660  29.693  27.794  1.00  0.00    -0.354 N 
ATOM     31  N   UNL A   1      42.268  30.504  29.299  1.00  0.00    -0.248 NA
ATOM     32  C   UNL A   1      41.153  32.031  30.674  1.00  0.00     0.031 C 
ATOM     33  C   UNL A   1      46.373  31.104  27.715  1.00  0.00     0.029 A 
ATOM     34  C   UNL A   1      45.104  30.926  28.242  1.00  0.00     0.049 A 
ATOM     35  H   UNL A   1      43.787  29.292  28.013  1.00  0.00     0.167 HD
ATOM     36  C   UNL A   1      43.095  31.597  29.532  1.00  0.00     0.074 A 
ATOM     37  C   UNL A   1      42.350  32.515  30.369  1.00  0.00     0.031 C 
ATOM     38  C   UNL A   1      44.357  31.819  29.090  1.00  0.00     0.034 A 
BRANCH  25  39
ATOM     39  C   UNL A   1      46.690  27.301  25.583  1.00  0.00     0.023 A 
ATOM     40  C   UNL A   1      46.931  27.726  24.267  1.00  0.00     0.031 A 
ATOM     41  C   UNL A   1      47.620  26.432  26.181  1.00  0.00     0.131 A 
ATOM     42  C   UNL A   1      48.066  27.264  23.581  1.00  0.00     0.055 A 
ATOM     43  C   UNL A   1      48.774  26.019  25.514  1.00  0.00     0.041 A 
ATOM     44  F   UNL A   1      47.430  25.986  27.433  1.00  0.00    -0.206 F 
ATOM     45  C   UNL A   1      49.000  26.432  24.205  1.00  0.00     0.022 A 
BRANCH  42  46
ATOM     46  S   UNL A   1      48.282  27.727  21.843  1.00  0.00     0.124 S 
ATOM     47  O   UNL A   1      49.455  28.595  21.913  1.00  0.00    -0.237 OA
ATOM     48  O   UNL A   1      48.483  26.437  21.192  1.00  0.00    -0.237 OA
ATOM     49  O   UNL A   1      47.031  28.403  21.509  1.00  0.00    -0.744 OA
ENDBRANCH  42  46
ENDBRANCH  25  39
BRANCH  26  50
ATOM     50  C   UNL A   1      38.738  30.359  30.840  1.00  0.00     0.023 A 
ATOM     51  C   UNL A   1      37.697  31.087  30.244  1.00  0.00     0.031 A 
ATOM     52  C   UNL A   1      38.635  30.057  32.210  1.00  0.00     0.131 A 
ATOM     53  C   UNL A   1      36.606  31.504  31.021  1.00  0.00     0.055 A 
ATOM     54  C   UNL A   1      37.527  30.435  32.967  1.00  0.00     0.041 A 
ATOM     55  F   UNL A   1      39.602  29.357  32.825  1.00  0.00    -0.206 F 
ATOM     56  C   UNL A   1      36.506  31.169  32.374  1.00  0.00     0.022 A 
BRANCH  53  57
ATOM     57  S   UNL A   1      35.324  32.527  30.246  1.00  0.00     0.124 S 
ATOM     58  O   UNL A   1      34.359  32.663  31.330  1.00  0.00    -0.237 OA
ATOM     59  O   UNL A   1      36.067  33.732  29.892  1.00  0.00    -0.237 OA
ATOM     60  O   UNL A   1      34.882  31.717  29.113  1.00  0.00    -0.744 OA
ENDBRANCH  53  57
ENDBRANCH  26  50
BRANCH  38  61
ATOM     61  C   UNL A   1      45.012  33.112  29.491  1.00  0.00     0.023 A 
ATOM     62  C   UNL A   1      44.839  34.281  28.733  1.00  0.00     0.031 A 
ATOM     63  C   UNL A   1      45.768  33.185  30.673  1.00  0.00     0.131 A 
ATOM     64  C   UNL A   1      45.435  35.477  29.157  1.00  0.00     0.055 A 
ATOM     65  C   UNL A   1      46.323  34.386  31.112  1.00  0.00     0.041 A 
ATOM     66  F   UNL A   1      45.956  32.092  31.430  1.00  0.00    -0.206 F 
ATOM     67  C   UNL A   1      46.161  35.540  30.351  1.00  0.00     0.022 A 
BRANCH  64  68
ATOM     68  S   UNL A   1      45.265  36.954  28.120  1.00  0.00     0.124 S 
ATOM     69  O   UNL A   1      46.536  36.964  27.401  1.00  0.00    -0.237 OA
ATOM     70  O   UNL A   1      44.083  36.648  27.321  1.00  0.00    -0.237 OA
ATOM     71  O   UNL A   1      45.093  38.035  29.088  1.00  0.00    -0.744 OA
ENDBRANCH  64  68
ENDBRANCH  38  61
ENDBRANCH  12  13
ENDBRANCH   5   7
ENDBRANCH   2   3
ENDBRANCH   1   2
BRANCH   1  72
ATOM     72  C   UNL A   1      33.367  22.447  25.843  1.00  0.00     0.118 C 
BRANCH  72  73
ATOM     73  N   UNL A   1      33.212  21.958  24.481  1.00  0.00    -0.352 N 
ATOM     74  C   UNL A   1      32.624  22.576  23.410  1.00  0.00     0.251 C 
ATOM     75  H   UNL A   1      33.581  21.062  24.305  1.00  0.00     0.163 HD
ATOM     76  O   UNL A   1      32.396  21.971  22.369  1.00  0.00    -0.269 OA
BRANCH  74  77
ATOM     77  C   UNL A   1      32.267  23.999  23.509  1.00  0.00     0.042 A 
ATOM     78  C   UNL A   1      33.143  24.973  23.019  1.00  0.00     0.015 A 
ATOM     79  C   UNL A   1      31.031  24.351  24.050  1.00  0.00     0.054 A 
ATOM     80  C   UNL A   1      32.777  26.317  23.075  1.00  0.00     0.024 A 
ATOM     81  C   UNL A   1      30.686  25.697  24.122  1.00  0.00     0.142 A 
ATOM     82  C   UNL A   1      31.536  26.674  23.618  1.00  0.00     0.103 A 
ATOM     83  F   UNL A   1      29.511  26.016  24.676  1.00  0.00    -0.206 F 
BRANCH  82  84
ATOM     84  S   UNL A   1      31.081  28.380  23.649  1.00  0.00     0.186 S 
ATOM     85  O   UNL A   1      31.154  28.773  25.045  1.00  0.00    -0.223 OA
ATOM     86  O   UNL A   1      31.933  29.049  22.678  1.00  0.00    -0.223 OA
BRANCH  84  87
ATOM     87  C   UNL A   1      29.387  28.551  23.116  1.00  0.00     0.188 C 
BRANCH  87  88
ATOM     88  C   UNL A   1      28.994  29.983  22.906  1.00  0.00     0.020 A 
ATOM     89  C   UNL A   1      29.089  31.049  23.782  1.00  0.00     0.016 A 
ATOM     90  S   UNL A   1      28.432  30.502  21.368  1.00  0.00    -0.148 S 
ATOM     91  C   UNL A   1      28.655  32.275  23.204  1.00  0.00     0.012 A 
ATOM     92  C   UNL A   1      28.280  32.120  21.890  1.00  0.00     0.065 A 
ENDBRANCH  87  88
ENDBRANCH  84  87
ENDBRANCH  82  84
ENDBRANCH  74  77
ENDBRANCH  72  73
ENDBRANCH   1  72
TORSDOF 16
ENDMDL
