MODEL 1
REMARK VINA RESULT:     -11.8      0.000      0.000
REMARK SMILES CN(CC(=O)NCCCNC(=O)c1ccc(-c2c3nc(c(-c4cc(S(=O)(=O)[O-])ccc4F)c4ccc([nH]4)c(-c4cc(S(=O)(=O)[O-])ccc4F)c4nc(c(-c5cc(S(=O)(=O)[O-])ccc5F)c5ccc2[nH]5)C=C4)C=C3)cc1)c1nc2cc(N)ccc2[nH]1
REMARK SMILES IDX 8 1 7 2 6 3 4 4 5 5 3 7 2 8 1 9 76 10 77 11 85 12 78 13
REMARK SMILES IDX 84 14 79 16 83 17 80 18 82 19 81 20 9 23 10 24 11 25 12 27
REMARK SMILES IDX 13 28 14 29 75 30 15 31 74 32 16 33 17 34 18 35 68 36 19 37
REMARK SMILES IDX 73 38 67 39 69 40 20 41 72 42 66 43 65 44 21 46 53 47 33 48
REMARK SMILES IDX 52 49 34 50 37 51 51 52 70 53 35 54 36 55 50 57 71 58 38 59
REMARK SMILES IDX 22 60 23 61 31 62 24 63 30 64 32 65 29 66 25 67 26 68 27 69
REMARK SMILES IDX 28 70 54 71 55 72 63 73 56 74 62 75 64 76 61 77 57 78 58 79
REMARK SMILES IDX 59 80 60 81 39 82 40 83 48 84 41 85 47 86 49 87 46 88 42 89
REMARK SMILES IDX 43 90 44 91 45 92
REMARK H PARENT 6 6 85 15 81 21 81 22 10 26 69 45 37 56
REMARK Flexibility Score: inf
ROOT
ATOM      1  C   UNL A   1      31.824  28.577  26.345  1.00  0.00     0.042 C 
ENDROOT
BRANCH   1   2
ATOM      2  C   UNL A   1      32.519  27.229  26.487  1.00  0.00     0.117 C 
BRANCH   2   3
ATOM      3  N   UNL A   1      31.652  26.177  26.969  1.00  0.00    -0.354 N 
ATOM      4  C   UNL A   1      31.556  24.886  26.525  1.00  0.00     0.239 C 
ATOM      5  O   UNL A   1      30.937  24.080  27.227  1.00  0.00    -0.273 OA
ATOM      6  H   UNL A   1      31.054  26.422  27.711  1.00  0.00     0.163 HD
BRANCH   4   7
ATOM      7  C   UNL A   1      32.319  24.447  25.264  1.00  0.00     0.219 C 
BRANCH   7   8
ATOM      8  N   UNL A   1      31.501  24.388  24.036  1.00  0.00    -0.336 N 
ATOM      9  C   UNL A   1      31.245  23.105  23.417  1.00  0.00     0.147 C 
BRANCH   8  10
ATOM     10  C   UNL A   1      30.891  25.534  23.643  1.00  0.00     0.204 A 
ATOM     11  N   UNL A   1      31.469  26.563  23.071  1.00  0.00    -0.213 NA
ATOM     12  N   UNL A   1      29.556  25.792  23.850  1.00  0.00    -0.324 N 
ATOM     13  C   UNL A   1      30.503  27.518  22.927  1.00  0.00     0.093 A 
ATOM     14  C   UNL A   1      29.295  27.079  23.448  1.00  0.00     0.067 A 
ATOM     15  H   UNL A   1      28.899  25.160  24.222  1.00  0.00     0.170 HD
ATOM     16  C   UNL A   1      30.601  28.802  22.379  1.00  0.00     0.056 A 
ATOM     17  C   UNL A   1      28.159  27.888  23.502  1.00  0.00     0.030 A 
ATOM     18  C   UNL A   1      29.472  29.628  22.365  1.00  0.00     0.034 A 
ATOM     19  C   UNL A   1      28.287  29.180  22.965  1.00  0.00     0.028 A 
BRANCH  18  20
ATOM     20  N   UNL A   1      29.577  30.934  21.898  1.00  0.00    -0.399 N 
ATOM     21  H   UNL A   1      30.425  31.423  21.992  1.00  0.00     0.156 HD
ATOM     22  H   UNL A   1      28.803  31.368  21.473  1.00  0.00     0.156 HD
ENDBRANCH  18  20
ENDBRANCH   8  10
ENDBRANCH   7   8
ENDBRANCH   4   7
ENDBRANCH   2   3
ENDBRANCH   1   2
BRANCH   1  23
ATOM     23  C   UNL A   1      32.686  29.672  25.721  1.00  0.00     0.118 C 
BRANCH  23  24
ATOM     24  N   UNL A   1      32.395  30.998  26.254  1.00  0.00    -0.352 N 
ATOM     25  C   UNL A   1      33.052  31.758  27.194  1.00  0.00     0.251 C 
ATOM     26  H   UNL A   1      31.590  31.422  25.878  1.00  0.00     0.163 HD
ATOM     27  O   UNL A   1      32.511  32.770  27.626  1.00  0.00    -0.269 OA
BRANCH  25  28
ATOM     28  C   UNL A   1      34.379  31.350  27.706  1.00  0.00     0.039 A 
ATOM     29  C   UNL A   1      35.374  32.323  27.844  1.00  0.00     0.014 A 
ATOM     30  C   UNL A   1      34.657  30.021  28.032  1.00  0.00     0.014 A 
ATOM     31  C   UNL A   1      36.608  31.984  28.407  1.00  0.00     0.010 A 
ATOM     32  C   UNL A   1      35.862  29.696  28.655  1.00  0.00     0.010 A 
ATOM     33  C   UNL A   1      36.839  30.679  28.872  1.00  0.00    -0.014 A 
BRANCH  33  34
ATOM     34  C   UNL A   1      38.064  30.338  29.645  1.00  0.00     0.031 A 
ATOM     35  C   UNL A   1      39.058  29.349  29.108  1.00  0.00     0.074 A 
ATOM     36  C   UNL A   1      38.226  30.860  30.879  1.00  0.00     0.049 A 
ATOM     37  N   UNL A   1      40.113  28.837  29.691  1.00  0.00    -0.248 NA
ATOM     38  C   UNL A   1      38.826  28.855  27.744  1.00  0.00     0.031 C 
ATOM     39  C   UNL A   1      37.316  31.813  31.517  1.00  0.00     0.029 A 
ATOM     40  N   UNL A   1      39.200  30.652  31.824  1.00  0.00    -0.354 N 
ATOM     41  C   UNL A   1      40.667  27.955  28.770  1.00  0.00     0.074 A 
ATOM     42  C   UNL A   1      39.801  27.967  27.609  1.00  0.00     0.031 C 
ATOM     43  C   UNL A   1      37.780  32.117  32.738  1.00  0.00     0.029 A 
ATOM     44  C   UNL A   1      38.983  31.333  32.999  1.00  0.00     0.049 A 
ATOM     45  H   UNL A   1      39.979  30.069  31.675  1.00  0.00     0.167 HD
ATOM     46  C   UNL A   1      41.800  27.217  28.880  1.00  0.00     0.034 A 
ATOM     47  C   UNL A   1      39.654  31.309  34.169  1.00  0.00     0.034 A 
ATOM     48  C   UNL A   1      42.648  27.216  30.048  1.00  0.00     0.049 A 
ATOM     49  C   UNL A   1      40.866  30.419  34.293  1.00  0.00     0.074 A 
ATOM     50  C   UNL A   1      43.848  26.553  30.240  1.00  0.00     0.029 A 
ATOM     51  N   UNL A   1      42.378  27.892  31.231  1.00  0.00    -0.354 N 
ATOM     52  N   UNL A   1      41.408  29.633  33.392  1.00  0.00    -0.248 NA
ATOM     53  C   UNL A   1      41.554  30.412  35.591  1.00  0.00     0.031 C 
ATOM     54  C   UNL A   1      44.258  26.758  31.562  1.00  0.00     0.029 A 
ATOM     55  C   UNL A   1      43.360  27.619  32.173  1.00  0.00     0.049 A 
ATOM     56  H   UNL A   1      41.603  28.480  31.380  1.00  0.00     0.167 HD
ATOM     57  C   UNL A   1      42.511  29.052  34.011  1.00  0.00     0.074 A 
ATOM     58  C   UNL A   1      42.570  29.597  35.352  1.00  0.00     0.031 C 
ATOM     59  C   UNL A   1      43.394  28.148  33.517  1.00  0.00     0.034 A 
BRANCH  46  60
ATOM     60  C   UNL A   1      42.168  26.323  27.719  1.00  0.00     0.023 A 
ATOM     61  C   UNL A   1      41.743  24.985  27.651  1.00  0.00     0.031 A 
ATOM     62  C   UNL A   1      42.963  26.814  26.667  1.00  0.00     0.131 A 
ATOM     63  C   UNL A   1      42.169  24.167  26.594  1.00  0.00     0.055 A 
ATOM     64  C   UNL A   1      43.317  26.017  25.577  1.00  0.00     0.041 A 
ATOM     65  F   UNL A   1      43.418  28.077  26.686  1.00  0.00    -0.206 F 
ATOM     66  C   UNL A   1      42.932  24.681  25.543  1.00  0.00     0.022 A 
BRANCH  63  67
ATOM     67  S   UNL A   1      41.831  22.388  26.687  1.00  0.00     0.124 S 
ATOM     68  O   UNL A   1      42.709  21.976  27.780  1.00  0.00    -0.237 OA
ATOM     69  O   UNL A   1      40.401  22.353  26.970  1.00  0.00    -0.237 OA
ATOM     70  O   UNL A   1      42.219  21.895  25.367  1.00  0.00    -0.744 OA
ENDBRANCH  63  67
ENDBRANCH  46  60
BRANCH  47  71
ATOM     71  C   UNL A   1      39.179  32.113  35.332  1.00  0.00     0.023 A 
ATOM     72  C   UNL A   1      39.628  33.427  35.534  1.00  0.00     0.031 A 
ATOM     73  C   UNL A   1      38.301  31.563  36.286  1.00  0.00     0.131 A 
ATOM     74  C   UNL A   1      39.237  34.130  36.685  1.00  0.00     0.055 A 
ATOM     75  C   UNL A   1      37.868  32.288  37.397  1.00  0.00     0.041 A 
ATOM     76  F   UNL A   1      37.841  30.310  36.143  1.00  0.00    -0.206 F 
ATOM     77  C   UNL A   1      38.348  33.577  37.608  1.00  0.00     0.022 A 
BRANCH  74  78
ATOM     78  S   UNL A   1      39.986  35.750  37.006  1.00  0.00     0.124 S 
ATOM     79  O   UNL A   1      39.294  36.161  38.222  1.00  0.00    -0.237 OA
ATOM     80  O   UNL A   1      41.396  35.407  37.153  1.00  0.00    -0.237 OA
ATOM     81  O   UNL A   1      39.656  36.520  35.809  1.00  0.00    -0.744 OA
ENDBRANCH  74  78
ENDBRANCH  47  71
BRANCH  59  82
ATOM     82  C   UNL A   1      44.511  27.707  34.432  1.00  0.00     0.023 A 
ATOM     83  C   UNL A   1      44.376  26.585  35.268  1.00  0.00     0.031 A 
ATOM     84  C   UNL A   1      45.724  28.417  34.470  1.00  0.00     0.131 A 
ATOM     85  C   UNL A   1      45.416  26.233  36.141  1.00  0.00     0.055 A 
ATOM     86  C   UNL A   1      46.780  28.025  35.295  1.00  0.00     0.041 A 
ATOM     87  F   UNL A   1      45.906  29.501  33.700  1.00  0.00    -0.206 F 
ATOM     88  C   UNL A   1      46.625  26.933  36.144  1.00  0.00     0.022 A 
BRANCH  85  89
ATOM     89  S   UNL A   1      45.139  24.894  37.332  1.00  0.00     0.124 S 
ATOM     90  O   UNL A   1      45.271  23.709  36.491  1.00  0.00    -0.237 OA
ATOM     91  O   UNL A   1      46.209  25.109  38.301  1.00  0.00    -0.237 OA
ATOM     92  O   UNL A   1      43.790  25.153  37.832  1.00  0.00    -0.744 OA
ENDBRANCH  85  89
ENDBRANCH  59  82
ENDBRANCH  33  34
ENDBRANCH  25  28
ENDBRANCH  23  24
ENDBRANCH   1  23
TORSDOF 16
ENDMDL
MODEL 2
REMARK VINA RESULT:     -11.7      2.529      3.349
REMARK SMILES CN(CC(=O)NCCCNC(=O)c1ccc(-c2c3nc(c(-c4cc(S(=O)(=O)[O-])ccc4F)c4ccc([nH]4)c(-c4cc(S(=O)(=O)[O-])ccc4F)c4nc(c(-c5cc(S(=O)(=O)[O-])ccc5F)c5ccc2[nH]5)C=C4)C=C3)cc1)c1nc2cc(N)ccc2[nH]1
REMARK SMILES IDX 8 1 7 2 6 3 4 4 5 5 3 7 2 8 1 9 76 10 77 11 85 12 78 13
REMARK SMILES IDX 84 14 79 16 83 17 80 18 82 19 81 20 9 23 10 24 11 25 12 27
REMARK SMILES IDX 13 28 14 29 75 30 15 31 74 32 16 33 17 34 18 35 68 36 19 37
REMARK SMILES IDX 73 38 67 39 69 40 20 41 72 42 66 43 65 44 21 46 53 47 33 48
REMARK SMILES IDX 52 49 34 50 37 51 51 52 70 53 35 54 36 55 50 57 71 58 38 59
REMARK SMILES IDX 22 60 23 61 31 62 24 63 30 64 32 65 29 66 25 67 26 68 27 69
REMARK SMILES IDX 28 70 54 71 55 72 63 73 56 74 62 75 64 76 61 77 57 78 58 79
REMARK SMILES IDX 59 80 60 81 39 82 40 83 48 84 41 85 47 86 49 87 46 88 42 89
REMARK SMILES IDX 43 90 44 91 45 92
REMARK H PARENT 6 6 85 15 81 21 81 22 10 26 69 45 37 56
REMARK Flexibility Score: inf
ROOT
ATOM      1  C   UNL A   1      31.956  31.262  26.606  1.00  0.00     0.042 C 
ENDROOT
BRANCH   1   2
ATOM      2  C   UNL A   1      31.947  29.750  26.790  1.00  0.00     0.117 C 
BRANCH   2   3
ATOM      3  N   UNL A   1      33.005  29.072  26.076  1.00  0.00    -0.354 N 
ATOM      4  C   UNL A   1      32.895  28.122  25.096  1.00  0.00     0.239 C 
ATOM      5  O   UNL A   1      33.907  27.848  24.443  1.00  0.00    -0.273 OA
ATOM      6  H   UNL A   1      33.922  29.324  26.328  1.00  0.00     0.163 HD
BRANCH   4   7
ATOM      7  C   UNL A   1      31.519  27.531  24.748  1.00  0.00     0.219 C 
BRANCH   7   8
ATOM      8  N   UNL A   1      31.124  27.675  23.332  1.00  0.00    -0.336 N 
ATOM      9  C   UNL A   1      31.409  26.600  22.406  1.00  0.00     0.147 C 
BRANCH   8  10
ATOM     10  C   UNL A   1      30.361  28.749  23.009  1.00  0.00     0.204 A 
ATOM     11  N   UNL A   1      29.902  29.042  21.816  1.00  0.00    -0.213 NA
ATOM     12  N   UNL A   1      30.005  29.724  23.910  1.00  0.00    -0.324 N 
ATOM     13  C   UNL A   1      29.260  30.242  21.935  1.00  0.00     0.093 A 
ATOM     14  C   UNL A   1      29.344  30.720  23.233  1.00  0.00     0.067 A 
ATOM     15  H   UNL A   1      30.192  29.710  24.877  1.00  0.00     0.170 HD
ATOM     16  C   UNL A   1      28.601  30.995  20.956  1.00  0.00     0.056 A 
ATOM     17  C   UNL A   1      28.840  31.965  23.613  1.00  0.00     0.030 A 
ATOM     18  C   UNL A   1      28.035  32.226  21.305  1.00  0.00     0.034 A 
ATOM     19  C   UNL A   1      28.202  32.712  22.609  1.00  0.00     0.028 A 
BRANCH  18  20
ATOM     20  N   UNL A   1      27.451  33.021  20.324  1.00  0.00    -0.399 N 
ATOM     21  H   UNL A   1      27.776  33.938  20.175  1.00  0.00     0.156 HD
ATOM     22  H   UNL A   1      26.712  32.666  19.779  1.00  0.00     0.156 HD
ENDBRANCH  18  20
ENDBRANCH   8  10
ENDBRANCH   7   8
ENDBRANCH   4   7
ENDBRANCH   2   3
ENDBRANCH   1   2
BRANCH   1  23
ATOM     23  C   UNL A   1      33.028  31.991  27.413  1.00  0.00     0.118 C 
BRANCH  23  24
ATOM     24  N   UNL A   1      32.700  33.391  27.659  1.00  0.00    -0.352 N 
ATOM     25  C   UNL A   1      33.222  34.297  28.553  1.00  0.00     0.251 C 
ATOM     26  H   UNL A   1      31.983  33.749  27.087  1.00  0.00     0.163 HD
ATOM     27  O   UNL A   1      32.654  35.372  28.713  1.00  0.00    -0.269 OA
BRANCH  25  28
ATOM     28  C   UNL A   1      34.433  33.975  29.340  1.00  0.00     0.039 A 
ATOM     29  C   UNL A   1      34.287  33.285  30.547  1.00  0.00     0.014 A 
ATOM     30  C   UNL A   1      35.705  34.363  28.911  1.00  0.00     0.014 A 
ATOM     31  C   UNL A   1      35.419  32.892  31.267  1.00  0.00     0.010 A 
ATOM     32  C   UNL A   1      36.834  33.913  29.593  1.00  0.00     0.010 A 
ATOM     33  C   UNL A   1      36.704  33.151  30.764  1.00  0.00    -0.014 A 
BRANCH  33  34
ATOM     34  C   UNL A   1      37.918  32.580  31.407  1.00  0.00     0.031 A 
ATOM     35  C   UNL A   1      38.644  31.424  30.780  1.00  0.00     0.074 A 
ATOM     36  C   UNL A   1      38.308  33.053  32.608  1.00  0.00     0.049 A 
ATOM     37  N   UNL A   1      39.640  30.719  31.254  1.00  0.00    -0.248 NA
ATOM     38  C   UNL A   1      38.177  30.992  29.456  1.00  0.00     0.031 C 
ATOM     39  C   UNL A   1      37.668  34.157  33.327  1.00  0.00     0.029 A 
ATOM     40  N   UNL A   1      39.321  32.659  33.447  1.00  0.00    -0.354 N 
ATOM     41  C   UNL A   1      39.915  29.754  30.291  1.00  0.00     0.074 A 
ATOM     42  C   UNL A   1      38.946  29.937  29.230  1.00  0.00     0.031 C 
ATOM     43  C   UNL A   1      38.310  34.360  34.487  1.00  0.00     0.029 A 
ATOM     44  C   UNL A   1      39.364  33.362  34.629  1.00  0.00     0.049 A 
ATOM     45  H   UNL A   1      39.956  31.941  33.223  1.00  0.00     0.167 HD
ATOM     46  C   UNL A   1      40.894  28.813  30.289  1.00  0.00     0.034 A 
ATOM     47  C   UNL A   1      40.141  33.203  35.720  1.00  0.00     0.034 A 
ATOM     48  C   UNL A   1      41.847  28.645  31.361  1.00  0.00     0.049 A 
ATOM     49  C   UNL A   1      41.169  32.100  35.726  1.00  0.00     0.074 A 
ATOM     50  C   UNL A   1      42.913  27.765  31.432  1.00  0.00     0.029 A 
ATOM     51  N   UNL A   1      41.839  29.352  32.556  1.00  0.00    -0.354 N 
ATOM     52  N   UNL A   1      41.453  31.231  34.784  1.00  0.00    -0.248 NA
ATOM     53  C   UNL A   1      41.979  31.954  36.943  1.00  0.00     0.031 C 
ATOM     54  C   UNL A   1      43.495  27.881  32.700  1.00  0.00     0.029 A 
ATOM     55  C   UNL A   1      42.847  28.892  33.391  1.00  0.00     0.049 A 
ATOM     56  H   UNL A   1      41.210  30.075  32.779  1.00  0.00     0.167 HD
ATOM     57  C   UNL A   1      42.487  30.447  35.289  1.00  0.00     0.074 A 
ATOM     58  C   UNL A   1      42.792  30.963  36.608  1.00  0.00     0.031 C 
ATOM     59  C   UNL A   1      43.125  29.396  34.716  1.00  0.00     0.034 A 
BRANCH  46  60
ATOM     60  C   UNL A   1      40.959  27.874  29.109  1.00  0.00     0.023 A 
ATOM     61  C   UNL A   1      41.920  28.027  28.094  1.00  0.00     0.031 A 
ATOM     62  C   UNL A   1      40.043  26.813  28.991  1.00  0.00     0.131 A 
ATOM     63  C   UNL A   1      41.900  27.180  26.976  1.00  0.00     0.055 A 
ATOM     64  C   UNL A   1      40.080  25.924  27.916  1.00  0.00     0.041 A 
ATOM     65  F   UNL A   1      39.089  26.629  29.917  1.00  0.00    -0.206 F 
ATOM     66  C   UNL A   1      41.003  26.113  26.892  1.00  0.00     0.022 A 
BRANCH  63  67
ATOM     67  S   UNL A   1      42.970  27.580  25.568  1.00  0.00     0.124 S 
ATOM     68  O   UNL A   1      43.276  26.252  25.041  1.00  0.00    -0.237 OA
ATOM     69  O   UNL A   1      42.104  28.410  24.739  1.00  0.00    -0.237 OA
ATOM     70  O   UNL A   1      44.101  28.274  26.182  1.00  0.00    -0.744 OA
ENDBRANCH  63  67
ENDBRANCH  46  60
BRANCH  47  71
ATOM     71  C   UNL A   1      39.954  34.075  36.916  1.00  0.00     0.023 A 
ATOM     72  C   UNL A   1      39.369  33.576  38.090  1.00  0.00     0.031 A 
ATOM     73  C   UNL A   1      40.316  35.435  36.887  1.00  0.00     0.131 A 
ATOM     74  C   UNL A   1      39.121  34.440  39.169  1.00  0.00     0.055 A 
ATOM     75  C   UNL A   1      40.121  36.275  37.984  1.00  0.00     0.041 A 
ATOM     76  F   UNL A   1      40.878  35.966  35.789  1.00  0.00    -0.206 F 
ATOM     77  C   UNL A   1      39.508  35.781  39.131  1.00  0.00     0.022 A 
BRANCH  74  78
ATOM     78  S   UNL A   1      38.195  33.803  40.592  1.00  0.00     0.124 S 
ATOM     79  O   UNL A   1      39.182  32.937  41.226  1.00  0.00    -0.237 OA
ATOM     80  O   UNL A   1      37.861  35.029  41.309  1.00  0.00    -0.237 OA
ATOM     81  O   UNL A   1      37.061  33.115  39.978  1.00  0.00    -0.744 OA
ENDBRANCH  74  78
ENDBRANCH  47  71
BRANCH  59  82
ATOM     82  C   UNL A   1      44.230  28.746  35.513  1.00  0.00     0.023 A 
ATOM     83  C   UNL A   1      43.977  27.663  36.373  1.00  0.00     0.031 A 
ATOM     84  C   UNL A   1      45.552  29.215  35.411  1.00  0.00     0.131 A 
ATOM     85  C   UNL A   1      45.020  27.116  37.134  1.00  0.00     0.055 A 
ATOM     86  C   UNL A   1      46.598  28.625  36.123  1.00  0.00     0.041 A 
ATOM     87  F   UNL A   1      45.851  30.251  34.612  1.00  0.00    -0.206 F 
ATOM     88  C   UNL A   1      46.332  27.575  36.999  1.00  0.00     0.022 A 
BRANCH  85  89
ATOM     89  S   UNL A   1      44.626  25.844  38.366  1.00  0.00     0.124 S 
ATOM     90  O   UNL A   1      43.756  24.950  37.608  1.00  0.00    -0.237 OA
ATOM     91  O   UNL A   1      45.943  25.316  38.704  1.00  0.00    -0.237 OA
ATOM     92  O   UNL A   1      43.966  26.594  39.433  1.00  0.00    -0.744 OA
ENDBRANCH  85  89
ENDBRANCH  59  82
ENDBRANCH  33  34
ENDBRANCH  25  28
ENDBRANCH  23  24
ENDBRANCH   1  23
TORSDOF 16
ENDMDL
MODEL 3
REMARK VINA RESULT:     -11.6      1.484      1.784
REMARK SMILES CN(CC(=O)NCCCNC(=O)c1ccc(-c2c3nc(c(-c4cc(S(=O)(=O)[O-])ccc4F)c4ccc([nH]4)c(-c4cc(S(=O)(=O)[O-])ccc4F)c4nc(c(-c5cc(S(=O)(=O)[O-])ccc5F)c5ccc2[nH]5)C=C4)C=C3)cc1)c1nc2cc(N)ccc2[nH]1
REMARK SMILES IDX 8 1 7 2 6 3 4 4 5 5 3 7 2 8 1 9 76 10 77 11 85 12 78 13
REMARK SMILES IDX 84 14 79 16 83 17 80 18 82 19 81 20 9 23 10 24 11 25 12 27
REMARK SMILES IDX 13 28 14 29 75 30 15 31 74 32 16 33 17 34 18 35 68 36 19 37
REMARK SMILES IDX 73 38 67 39 69 40 20 41 72 42 66 43 65 44 21 46 53 47 33 48
REMARK SMILES IDX 52 49 34 50 37 51 51 52 70 53 35 54 36 55 50 57 71 58 38 59
REMARK SMILES IDX 22 60 23 61 31 62 24 63 30 64 32 65 29 66 25 67 26 68 27 69
REMARK SMILES IDX 28 70 54 71 55 72 63 73 56 74 62 75 64 76 61 77 57 78 58 79
REMARK SMILES IDX 59 80 60 81 39 82 40 83 48 84 41 85 47 86 49 87 46 88 42 89
REMARK SMILES IDX 43 90 44 91 45 92
REMARK H PARENT 6 6 85 15 81 21 81 22 10 26 69 45 37 56
REMARK Flexibility Score: inf
ROOT
ATOM      1  C   UNL A   1      32.903  29.910  25.519  1.00  0.00     0.042 C 
ENDROOT
BRANCH   1   2
ATOM      2  C   UNL A   1      33.311  28.442  25.545  1.00  0.00     0.117 C 
BRANCH   2   3
ATOM      3  N   UNL A   1      32.406  27.601  26.296  1.00  0.00    -0.354 N 
ATOM      4  C   UNL A   1      31.960  26.345  25.985  1.00  0.00     0.239 C 
ATOM      5  O   UNL A   1      31.391  25.700  26.873  1.00  0.00    -0.273 OA
ATOM      6  H   UNL A   1      32.067  27.981  27.138  1.00  0.00     0.163 HD
BRANCH   4   7
ATOM      7  C   UNL A   1      32.290  25.727  24.617  1.00  0.00     0.219 C 
BRANCH   7   8
ATOM      8  N   UNL A   1      31.124  25.518  23.735  1.00  0.00    -0.336 N 
ATOM      9  C   UNL A   1      30.649  24.171  23.498  1.00  0.00     0.147 C 
BRANCH   8  10
ATOM     10  C   UNL A   1      30.454  26.623  23.323  1.00  0.00     0.204 A 
ATOM     11  N   UNL A   1      30.978  27.675  22.743  1.00  0.00    -0.213 NA
ATOM     12  N   UNL A   1      29.104  26.807  23.514  1.00  0.00    -0.324 N 
ATOM     13  C   UNL A   1      29.961  28.572  22.579  1.00  0.00     0.093 A 
ATOM     14  C   UNL A   1      28.775  28.073  23.094  1.00  0.00     0.067 A 
ATOM     15  H   UNL A   1      28.481  26.143  23.888  1.00  0.00     0.170 HD
ATOM     16  C   UNL A   1      29.992  29.853  22.015  1.00  0.00     0.056 A 
ATOM     17  C   UNL A   1      27.595  28.816  23.127  1.00  0.00     0.030 A 
ATOM     18  C   UNL A   1      28.818  30.614  21.980  1.00  0.00     0.034 A 
ATOM     19  C   UNL A   1      27.654  30.106  22.575  1.00  0.00     0.028 A 
BRANCH  18  20
ATOM     20  N   UNL A   1      28.853  31.918  21.498  1.00  0.00    -0.399 N 
ATOM     21  H   UNL A   1      28.331  32.622  21.945  1.00  0.00     0.156 HD
ATOM     22  H   UNL A   1      29.401  32.136  20.710  1.00  0.00     0.156 HD
ENDBRANCH  18  20
ENDBRANCH   8  10
ENDBRANCH   7   8
ENDBRANCH   4   7
ENDBRANCH   2   3
ENDBRANCH   1   2
BRANCH   1  23
ATOM     23  C   UNL A   1      32.187  30.390  26.779  1.00  0.00     0.118 C 
BRANCH  23  24
ATOM     24  N   UNL A   1      32.219  31.840  26.933  1.00  0.00    -0.352 N 
ATOM     25  C   UNL A   1      33.140  32.666  27.535  1.00  0.00     0.251 C 
ATOM     26  H   UNL A   1      31.449  32.310  26.537  1.00  0.00     0.163 HD
ATOM     27  O   UNL A   1      32.858  33.846  27.710  1.00  0.00    -0.269 OA
BRANCH  25  28
ATOM     28  C   UNL A   1      34.442  32.138  27.999  1.00  0.00     0.039 A 
ATOM     29  C   UNL A   1      35.551  32.989  27.999  1.00  0.00     0.014 A 
ATOM     30  C   UNL A   1      34.585  30.812  28.414  1.00  0.00     0.014 A 
ATOM     31  C   UNL A   1      36.772  32.544  28.513  1.00  0.00     0.010 A 
ATOM     32  C   UNL A   1      35.783  30.389  28.988  1.00  0.00     0.010 A 
ATOM     33  C   UNL A   1      36.881  31.258  29.067  1.00  0.00    -0.014 A 
BRANCH  33  34
ATOM     34  C   UNL A   1      38.108  30.827  29.791  1.00  0.00     0.031 A 
ATOM     35  C   UNL A   1      39.027  29.799  29.196  1.00  0.00     0.074 A 
ATOM     36  C   UNL A   1      38.337  31.305  31.032  1.00  0.00     0.049 A 
ATOM     37  N   UNL A   1      40.068  29.213  29.731  1.00  0.00    -0.248 NA
ATOM     38  C   UNL A   1      38.725  29.357  27.828  1.00  0.00     0.031 C 
ATOM     39  C   UNL A   1      37.503  32.289  31.724  1.00  0.00     0.029 A 
ATOM     40  N   UNL A   1      39.326  31.016  31.940  1.00  0.00    -0.354 N 
ATOM     41  C   UNL A   1      40.542  28.328  28.770  1.00  0.00     0.074 A 
ATOM     42  C   UNL A   1      39.643  28.420  27.639  1.00  0.00     0.031 C 
ATOM     43  C   UNL A   1      38.021  32.532  32.937  1.00  0.00     0.029 A 
ATOM     44  C   UNL A   1      39.185  31.676  33.139  1.00  0.00     0.049 A 
ATOM     45  H   UNL A   1      40.066  30.395  31.750  1.00  0.00     0.167 HD
ATOM     46  C   UNL A   1      41.635  27.524  28.824  1.00  0.00     0.034 A 
ATOM     47  C   UNL A   1      39.889  31.581  34.285  1.00  0.00     0.034 A 
ATOM     48  C   UNL A   1      42.517  27.443  29.965  1.00  0.00     0.049 A 
ATOM     49  C   UNL A   1      41.051  30.622  34.347  1.00  0.00     0.074 A 
ATOM     50  C   UNL A   1      43.682  26.708  30.100  1.00  0.00     0.029 A 
ATOM     51  N   UNL A   1      42.322  28.100  31.173  1.00  0.00    -0.354 N 
ATOM     52  N   UNL A   1      41.520  29.832  33.409  1.00  0.00    -0.248 NA
ATOM     53  C   UNL A   1      41.777  30.540  35.621  1.00  0.00     0.031 C 
ATOM     54  C   UNL A   1      44.144  26.853  31.413  1.00  0.00     0.029 A 
ATOM     55  C   UNL A   1      43.316  27.746  32.075  1.00  0.00     0.049 A 
ATOM     56  H   UNL A   1      41.587  28.726  31.362  1.00  0.00     0.167 HD
ATOM     57  C   UNL A   1      42.606  29.172  33.976  1.00  0.00     0.074 A 
ATOM     58  C   UNL A   1      42.738  29.676  35.328  1.00  0.00     0.031 C 
ATOM     59  C   UNL A   1      43.421  28.235  33.430  1.00  0.00     0.034 A 
BRANCH  46  60
ATOM     60  C   UNL A   1      41.916  26.644  27.629  1.00  0.00     0.023 A 
ATOM     61  C   UNL A   1      41.593  25.276  27.626  1.00  0.00     0.031 A 
ATOM     62  C   UNL A   1      42.522  27.179  26.478  1.00  0.00     0.131 A 
ATOM     63  C   UNL A   1      41.939  24.477  26.525  1.00  0.00     0.055 A 
ATOM     64  C   UNL A   1      42.790  26.395  25.355  1.00  0.00     0.041 A 
ATOM     65  F   UNL A   1      42.873  28.474  26.430  1.00  0.00    -0.206 F 
ATOM     66  C   UNL A   1      42.512  25.032  25.379  1.00  0.00     0.022 A 
BRANCH  63  67
ATOM     67  S   UNL A   1      41.759  22.678  26.672  1.00  0.00     0.124 S 
ATOM     68  O   UNL A   1      40.325  22.544  26.920  1.00  0.00    -0.237 OA
ATOM     69  O   UNL A   1      42.228  22.208  25.374  1.00  0.00    -0.237 OA
ATOM     70  O   UNL A   1      42.615  22.339  27.807  1.00  0.00    -0.744 OA
ENDBRANCH  63  67
ENDBRANCH  46  60
BRANCH  47  71
ATOM     71  C   UNL A   1      39.496  32.377  35.483  1.00  0.00     0.023 A 
ATOM     72  C   UNL A   1      38.709  31.814  36.500  1.00  0.00     0.031 A 
ATOM     73  C   UNL A   1      39.864  33.731  35.609  1.00  0.00     0.131 A 
ATOM     74  C   UNL A   1      38.277  32.611  37.572  1.00  0.00     0.055 A 
ATOM     75  C   UNL A   1      39.480  34.502  36.707  1.00  0.00     0.041 A 
ATOM     76  F   UNL A   1      40.614  34.321  34.665  1.00  0.00    -0.206 F 
ATOM     77  C   UNL A   1      38.670  33.946  37.691  1.00  0.00     0.022 A 
BRANCH  74  78
ATOM     78  S   UNL A   1      37.109  31.900  38.764  1.00  0.00     0.124 S 
ATOM     79  O   UNL A   1      37.791  32.144  40.029  1.00  0.00    -0.237 OA
ATOM     80  O   UNL A   1      35.908  32.690  38.518  1.00  0.00    -0.237 OA
ATOM     81  O   UNL A   1      37.024  30.499  38.359  1.00  0.00    -0.744 OA
ENDBRANCH  74  78
ENDBRANCH  47  71
BRANCH  59  82
ATOM     82  C   UNL A   1      44.538  27.706  34.297  1.00  0.00     0.023 A 
ATOM     83  C   UNL A   1      44.415  26.493  34.996  1.00  0.00     0.031 A 
ATOM     84  C   UNL A   1      45.740  28.424  34.427  1.00  0.00     0.131 A 
ATOM     85  C   UNL A   1      45.455  26.057  35.830  1.00  0.00     0.055 A 
ATOM     86  C   UNL A   1      46.797  27.954  35.209  1.00  0.00     0.041 A 
ATOM     87  F   UNL A   1      45.911  29.594  33.789  1.00  0.00    -0.206 F 
ATOM     88  C   UNL A   1      46.653  26.769  35.925  1.00  0.00     0.022 A 
BRANCH  85  89
ATOM     89  S   UNL A   1      45.190  24.585  36.857  1.00  0.00     0.124 S 
ATOM     90  O   UNL A   1      46.522  24.361  37.412  1.00  0.00    -0.237 OA
ATOM     91  O   UNL A   1      44.175  25.039  37.802  1.00  0.00    -0.237 OA
ATOM     92  O   UNL A   1      44.739  23.576  35.900  1.00  0.00    -0.744 OA
ENDBRANCH  85  89
ENDBRANCH  59  82
ENDBRANCH  33  34
ENDBRANCH  25  28
ENDBRANCH  23  24
ENDBRANCH   1  23
TORSDOF 16
ENDMDL
