MODEL 1
REMARK VINA RESULT:     -12.0      0.000      0.000
REMARK SMILES CC[C@]1(C(=O)NCCCNC(=O)c2ccc(-c3c4nc(c(-c5cc(S(=O)(=O)[O-])ccc5F)c5ccc([nH]5)c(-c5cc(S(=O)(=O)[O-])ccc5F)c5nc(c(-c6cc(S(=O)(=O)[O-])ccc6F)c6ccc3[nH]6)C=C5)C=C4)cc2)CC[N@@H+](Cc2nc(C)ccc2O)C1
REMARK SMILES IDX 8 1 7 2 6 3 4 4 5 5 3 7 76 8 88 9 77 10 78 11 2 13 1 14
REMARK SMILES IDX 79 15 80 16 81 17 86 18 82 19 85 20 83 21 84 22 87 23 9 25
REMARK SMILES IDX 10 26 11 27 12 29 13 30 14 31 75 32 15 33 74 34 16 35 17 36
REMARK SMILES IDX 18 37 68 38 19 39 73 40 67 41 69 42 20 43 72 44 66 45 65 46
REMARK SMILES IDX 21 48 53 49 33 50 52 51 34 52 37 53 51 54 70 55 35 56 36 57
REMARK SMILES IDX 50 59 71 60 38 61 22 62 23 63 31 64 24 65 30 66 32 67 29 68
REMARK SMILES IDX 25 69 26 70 27 71 28 72 54 73 55 74 63 75 56 76 62 77 64 78
REMARK SMILES IDX 61 79 57 80 58 81 59 82 60 83 39 84 40 85 48 86 41 87 47 88
REMARK SMILES IDX 49 89 46 90 42 91 43 92 44 93 45 94
REMARK H PARENT 6 6 78 12 87 24 10 28 69 47 37 58
REMARK Flexibility Score: inf
ROOT
ATOM      1  C   UNL A   1      35.633  20.637  24.749  1.00  0.00     0.042 C 
ENDROOT
BRANCH   1   2
ATOM      2  C   UNL A   1      34.356  21.143  25.493  1.00  0.00     0.117 C 
BRANCH   2   3
ATOM      3  N   UNL A   1      33.501  22.105  24.744  1.00  0.00    -0.355 N 
ATOM      4  C   UNL A   1      33.449  23.464  25.017  1.00  0.00     0.232 C 
ATOM      5  O   UNL A   1      34.386  24.124  24.555  1.00  0.00    -0.274 OA
ATOM      6  H   UNL A   1      32.940  21.757  24.012  1.00  0.00     0.163 HD
BRANCH   4   7
ATOM      7  C   UNL A   1      32.144  24.181  25.573  1.00  0.00     0.103 C 
ATOM      8  C   UNL A   1      32.471  25.622  26.033  1.00  0.00     0.084 C 
ATOM      9  C   UNL A   1      30.919  24.419  24.640  1.00  0.00     0.279 C 
ATOM     10  C   UNL A   1      31.152  26.386  25.940  1.00  0.00     0.263 C 
ATOM     11  N   UNL A   1      30.457  25.821  24.788  1.00  0.00    -0.329 N 
ATOM     12  H   UNL A   1      29.448  25.760  24.928  1.00  0.00     0.348 HD
BRANCH   7  13
ATOM     13  C   UNL A   1      31.695  23.405  26.864  1.00  0.00     0.020 C 
ATOM     14  C   UNL A   1      30.270  22.863  26.851  1.00  0.00     0.005 C 
ENDBRANCH   7  13
BRANCH  11  15
ATOM     15  C   UNL A   1      30.431  26.728  23.594  1.00  0.00     0.323 C 
BRANCH  15  16
ATOM     16  C   UNL A   1      29.434  27.891  23.598  1.00  0.00     0.136 A 
ATOM     17  N   UNL A   1      29.822  29.190  23.504  1.00  0.00    -0.248 NA
ATOM     18  C   UNL A   1      28.101  27.571  23.564  1.00  0.00     0.142 A 
ATOM     19  C   UNL A   1      28.843  30.118  23.268  1.00  0.00     0.038 A 
ATOM     20  C   UNL A   1      27.177  28.468  23.070  1.00  0.00     0.050 A 
ATOM     21  C   UNL A   1      29.101  31.557  23.606  1.00  0.00     0.067 C 
ATOM     22  C   UNL A   1      27.545  29.780  22.918  1.00  0.00     0.027 A 
BRANCH  18  23
ATOM     23  O   UNL A   1      27.725  26.332  23.935  1.00  0.00    -0.506 OA
ATOM     24  H   UNL A   1      26.835  26.163  24.170  1.00  0.00     0.293 HD
ENDBRANCH  18  23
ENDBRANCH  15  16
ENDBRANCH  11  15
ENDBRANCH   4   7
ENDBRANCH   2   3
ENDBRANCH   1   2
BRANCH   1  25
ATOM     25  C   UNL A   1      36.955  21.418  24.920  1.00  0.00     0.118 C 
BRANCH  25  26
ATOM     26  N   UNL A   1      37.952  20.564  25.556  1.00  0.00    -0.352 N 
ATOM     27  C   UNL A   1      39.219  20.791  26.040  1.00  0.00     0.251 C 
ATOM     28  H   UNL A   1      37.656  19.631  25.662  1.00  0.00     0.163 HD
ATOM     29  O   UNL A   1      39.999  19.838  25.977  1.00  0.00    -0.269 OA
BRANCH  27  30
ATOM     30  C   UNL A   1      39.684  22.046  26.709  1.00  0.00     0.039 A 
ATOM     31  C   UNL A   1      39.196  23.265  26.201  1.00  0.00     0.014 A 
ATOM     32  C   UNL A   1      40.734  22.094  27.629  1.00  0.00     0.014 A 
ATOM     33  C   UNL A   1      39.767  24.497  26.564  1.00  0.00     0.010 A 
ATOM     34  C   UNL A   1      41.288  23.336  28.019  1.00  0.00     0.010 A 
ATOM     35  C   UNL A   1      40.836  24.551  27.466  1.00  0.00    -0.014 A 
BRANCH  35  36
ATOM     36  C   UNL A   1      41.526  25.853  27.758  1.00  0.00     0.031 A 
ATOM     37  C   UNL A   1      40.818  26.937  28.541  1.00  0.00     0.074 A 
ATOM     38  C   UNL A   1      42.788  26.079  27.336  1.00  0.00     0.049 A 
ATOM     39  N   UNL A   1      41.219  28.150  28.842  1.00  0.00    -0.248 NA
ATOM     40  C   UNL A   1      39.473  26.616  29.035  1.00  0.00     0.031 C 
ATOM     41  C   UNL A   1      43.606  25.128  26.583  1.00  0.00     0.029 A 
ATOM     42  N   UNL A   1      43.602  27.181  27.470  1.00  0.00    -0.354 N 
ATOM     43  C   UNL A   1      40.168  28.745  29.537  1.00  0.00     0.074 A 
ATOM     44  C   UNL A   1      39.100  27.766  29.578  1.00  0.00     0.031 C 
ATOM     45  C   UNL A   1      44.802  25.686  26.324  1.00  0.00     0.029 A 
ATOM     46  C   UNL A   1      44.829  27.046  26.858  1.00  0.00     0.049 A 
ATOM     47  H   UNL A   1      43.332  27.992  27.960  1.00  0.00     0.167 HD
ATOM     48  C   UNL A   1      40.098  29.981  30.099  1.00  0.00     0.034 A 
ATOM     49  C   UNL A   1      45.853  27.916  26.724  1.00  0.00     0.034 A 
ATOM     50  C   UNL A   1      41.175  30.946  30.082  1.00  0.00     0.049 A 
ATOM     51  C   UNL A   1      45.749  29.292  27.338  1.00  0.00     0.074 A 
ATOM     52  C   UNL A   1      41.218  32.201  30.668  1.00  0.00     0.029 A 
ATOM     53  N   UNL A   1      42.397  30.769  29.447  1.00  0.00    -0.354 N 
ATOM     54  N   UNL A   1      44.754  29.825  28.008  1.00  0.00    -0.248 NA
ATOM     55  C   UNL A   1      46.911  30.179  27.184  1.00  0.00     0.031 C 
ATOM     56  C   UNL A   1      42.436  32.806  30.334  1.00  0.00     0.029 A 
ATOM     57  C   UNL A   1      43.185  31.901  29.600  1.00  0.00     0.049 A 
ATOM     58  H   UNL A   1      42.665  29.957  28.958  1.00  0.00     0.167 HD
ATOM     59  C   UNL A   1      45.184  31.096  28.380  1.00  0.00     0.074 A 
ATOM     60  C   UNL A   1      46.530  31.247  27.872  1.00  0.00     0.031 C 
ATOM     61  C   UNL A   1      44.524  32.052  29.083  1.00  0.00     0.034 A 
BRANCH  48  62
ATOM     62  C   UNL A   1      38.791  30.381  30.749  1.00  0.00     0.023 A 
ATOM     63  C   UNL A   1      37.783  31.057  30.040  1.00  0.00     0.031 A 
ATOM     64  C   UNL A   1      38.555  30.092  32.106  1.00  0.00     0.131 A 
ATOM     65  C   UNL A   1      36.627  31.491  30.705  1.00  0.00     0.055 A 
ATOM     66  C   UNL A   1      37.367  30.456  32.744  1.00  0.00     0.041 A 
ATOM     67  F   UNL A   1      39.484  29.459  32.842  1.00  0.00    -0.206 F 
ATOM     68  C   UNL A   1      36.401  31.174  32.047  1.00  0.00     0.022 A 
BRANCH  65  69
ATOM     69  S   UNL A   1      35.485  32.603  29.840  1.00  0.00     0.124 S 
ATOM     70  O   UNL A   1      35.252  31.868  28.593  1.00  0.00    -0.237 OA
ATOM     71  O   UNL A   1      34.347  32.661  30.761  1.00  0.00    -0.237 OA
ATOM     72  O   UNL A   1      36.237  33.835  29.697  1.00  0.00    -0.744 OA
ENDBRANCH  65  69
ENDBRANCH  48  62
BRANCH  49  73
ATOM     73  C   UNL A   1      47.069  27.532  25.948  1.00  0.00     0.023 A 
ATOM     74  C   UNL A   1      47.195  27.850  24.586  1.00  0.00     0.031 A 
ATOM     75  C   UNL A   1      48.105  26.796  26.551  1.00  0.00     0.131 A 
ATOM     76  C   UNL A   1      48.310  27.398  23.862  1.00  0.00     0.055 A 
ATOM     77  C   UNL A   1      49.235  26.391  25.838  1.00  0.00     0.041 A 
ATOM     78  F   UNL A   1      48.035  26.466  27.850  1.00  0.00    -0.206 F 
ATOM     79  C   UNL A   1      49.337  26.683  24.481  1.00  0.00     0.022 A 
BRANCH  76  80
ATOM     80  S   UNL A   1      48.363  27.692  22.072  1.00  0.00     0.124 S 
ATOM     81  O   UNL A   1      47.062  28.308  21.833  1.00  0.00    -0.237 OA
ATOM     82  O   UNL A   1      49.521  28.569  21.944  1.00  0.00    -0.237 OA
ATOM     83  O   UNL A   1      48.532  26.353  21.511  1.00  0.00    -0.744 OA
ENDBRANCH  76  80
ENDBRANCH  49  73
BRANCH  61  84
ATOM     84  C   UNL A   1      45.272  33.330  29.380  1.00  0.00     0.023 A 
ATOM     85  C   UNL A   1      45.296  34.404  28.473  1.00  0.00     0.031 A 
ATOM     86  C   UNL A   1      45.981  33.469  30.587  1.00  0.00     0.131 A 
ATOM     87  C   UNL A   1      46.056  35.549  28.762  1.00  0.00     0.055 A 
ATOM     88  C   UNL A   1      46.692  34.631  30.893  1.00  0.00     0.041 A 
ATOM     89  F   UNL A   1      45.994  32.475  31.490  1.00  0.00    -0.206 F 
ATOM     90  C   UNL A   1      46.742  35.674  29.973  1.00  0.00     0.022 A 
BRANCH  87  91
ATOM     91  S   UNL A   1      46.203  36.843  27.499  1.00  0.00     0.124 S 
ATOM     92  O   UNL A   1      45.902  36.108  26.275  1.00  0.00    -0.237 OA
ATOM     93  O   UNL A   1      45.197  37.811  27.926  1.00  0.00    -0.237 OA
ATOM     94  O   UNL A   1      47.588  37.293  27.628  1.00  0.00    -0.744 OA
ENDBRANCH  87  91
ENDBRANCH  61  84
ENDBRANCH  35  36
ENDBRANCH  27  30
ENDBRANCH  25  26
ENDBRANCH   1  25
TORSDOF 17
ENDMDL
MODEL 2
REMARK VINA RESULT:     -12.0      5.066      8.379
REMARK SMILES CC[C@]1(C(=O)NCCCNC(=O)c2ccc(-c3c4nc(c(-c5cc(S(=O)(=O)[O-])ccc5F)c5ccc([nH]5)c(-c5cc(S(=O)(=O)[O-])ccc5F)c5nc(c(-c6cc(S(=O)(=O)[O-])ccc6F)c6ccc3[nH]6)C=C5)C=C4)cc2)CC[N@@H+](Cc2nc(C)ccc2O)C1
REMARK SMILES IDX 8 1 7 2 6 3 4 4 5 5 3 7 76 8 88 9 77 10 78 11 2 13 1 14
REMARK SMILES IDX 79 15 80 16 81 17 86 18 82 19 85 20 83 21 84 22 87 23 9 25
REMARK SMILES IDX 10 26 11 27 12 29 13 30 14 31 75 32 15 33 74 34 16 35 17 36
REMARK SMILES IDX 18 37 68 38 19 39 73 40 67 41 69 42 20 43 72 44 66 45 65 46
REMARK SMILES IDX 21 48 53 49 33 50 52 51 34 52 37 53 51 54 70 55 35 56 36 57
REMARK SMILES IDX 50 59 71 60 38 61 22 62 23 63 31 64 24 65 30 66 32 67 29 68
REMARK SMILES IDX 25 69 26 70 27 71 28 72 54 73 55 74 63 75 56 76 62 77 64 78
REMARK SMILES IDX 61 79 57 80 58 81 59 82 60 83 39 84 40 85 48 86 41 87 47 88
REMARK SMILES IDX 49 89 46 90 42 91 43 92 44 93 45 94
REMARK H PARENT 6 6 78 12 87 24 10 28 69 47 37 58
REMARK Flexibility Score: inf
ROOT
ATOM      1  C   UNL A   1      32.284  30.025  25.438  1.00  0.00     0.042 C 
ENDROOT
BRANCH   1   2
ATOM      2  C   UNL A   1      32.886  28.593  25.603  1.00  0.00     0.117 C 
BRANCH   2   3
ATOM      3  N   UNL A   1      32.098  27.479  25.005  1.00  0.00    -0.355 N 
ATOM      4  C   UNL A   1      32.385  26.137  25.210  1.00  0.00     0.232 C 
ATOM      5  O   UNL A   1      31.989  25.678  26.287  1.00  0.00    -0.274 OA
ATOM      6  H   UNL A   1      31.329  27.708  24.433  1.00  0.00     0.163 HD
BRANCH   4   7
ATOM      7  C   UNL A   1      32.869  25.173  24.042  1.00  0.00     0.103 C 
ATOM      8  C   UNL A   1      34.132  24.391  24.474  1.00  0.00     0.084 C 
ATOM      9  C   UNL A   1      31.945  24.024  23.537  1.00  0.00     0.279 C 
ATOM     10  C   UNL A   1      34.135  23.124  23.622  1.00  0.00     0.263 C 
ATOM     11  N   UNL A   1      32.731  22.768  23.452  1.00  0.00    -0.329 N 
ATOM     12  H   UNL A   1      32.531  22.386  22.527  1.00  0.00     0.348 HD
BRANCH   7  13
ATOM     13  C   UNL A   1      33.310  26.079  22.837  1.00  0.00     0.020 C 
ATOM     14  C   UNL A   1      32.783  25.665  21.467  1.00  0.00     0.005 C 
ENDBRANCH   7  13
BRANCH  11  15
ATOM     15  C   UNL A   1      32.310  21.570  24.250  1.00  0.00     0.323 C 
BRANCH  15  16
ATOM     16  C   UNL A   1      32.791  20.192  23.782  1.00  0.00     0.136 A 
ATOM     17  N   UNL A   1      33.562  19.384  24.555  1.00  0.00    -0.248 NA
ATOM     18  C   UNL A   1      32.298  19.731  22.589  1.00  0.00     0.142 A 
ATOM     19  C   UNL A   1      33.720  18.088  24.138  1.00  0.00     0.038 A 
ATOM     20  C   UNL A   1      32.248  18.378  22.326  1.00  0.00     0.050 A 
ATOM     21  C   UNL A   1      34.885  17.292  24.649  1.00  0.00     0.067 C 
ATOM     22  C   UNL A   1      32.978  17.525  23.113  1.00  0.00     0.027 A 
BRANCH  18  23
ATOM     23  O   UNL A   1      31.781  20.619  21.718  1.00  0.00    -0.506 OA
ATOM     24  H   UNL A   1      30.854  20.743  21.670  1.00  0.00     0.293 HD
ENDBRANCH  18  23
ENDBRANCH  15  16
ENDBRANCH  11  15
ENDBRANCH   4   7
ENDBRANCH   2   3
ENDBRANCH   1   2
BRANCH   1  25
ATOM     25  C   UNL A   1      31.625  30.702  26.661  1.00  0.00     0.118 C 
BRANCH  25  26
ATOM     26  N   UNL A   1      32.074  32.087  26.756  1.00  0.00    -0.352 N 
ATOM     27  C   UNL A   1      33.061  32.711  27.482  1.00  0.00     0.251 C 
ATOM     28  H   UNL A   1      31.565  32.702  26.180  1.00  0.00     0.163 HD
ATOM     29  O   UNL A   1      32.839  33.882  27.799  1.00  0.00    -0.269 OA
BRANCH  27  30
ATOM     30  C   UNL A   1      34.393  32.123  27.826  1.00  0.00     0.039 A 
ATOM     31  C   UNL A   1      34.415  30.779  28.244  1.00  0.00     0.014 A 
ATOM     32  C   UNL A   1      35.559  32.878  27.985  1.00  0.00     0.014 A 
ATOM     33  C   UNL A   1      35.551  30.213  28.846  1.00  0.00     0.010 A 
ATOM     34  C   UNL A   1      36.713  32.298  28.562  1.00  0.00     0.010 A 
ATOM     35  C   UNL A   1      36.715  30.969  29.032  1.00  0.00    -0.014 A 
BRANCH  35  36
ATOM     36  C   UNL A   1      37.884  30.403  29.785  1.00  0.00     0.031 A 
ATOM     37  C   UNL A   1      38.137  30.802  31.222  1.00  0.00     0.074 A 
ATOM     38  C   UNL A   1      38.725  29.524  29.200  1.00  0.00     0.049 A 
ATOM     39  N   UNL A   1      39.124  30.472  32.021  1.00  0.00    -0.248 NA
ATOM     40  C   UNL A   1      37.155  31.708  31.833  1.00  0.00     0.031 C 
ATOM     41  C   UNL A   1      38.607  29.031  27.827  1.00  0.00     0.029 A 
ATOM     42  N   UNL A   1      39.852  28.895  29.680  1.00  0.00    -0.354 N 
ATOM     43  C   UNL A   1      38.897  31.148  33.218  1.00  0.00     0.074 A 
ATOM     44  C   UNL A   1      37.696  31.934  33.022  1.00  0.00     0.031 C 
ATOM     45  C   UNL A   1      39.616  28.179  27.578  1.00  0.00     0.029 A 
ATOM     46  C   UNL A   1      40.477  28.087  28.755  1.00  0.00     0.049 A 
ATOM     47  H   UNL A   1      40.181  29.011  30.602  1.00  0.00     0.167 HD
ATOM     48  C   UNL A   1      39.609  31.112  34.376  1.00  0.00     0.034 A 
ATOM     49  C   UNL A   1      41.617  27.368  28.833  1.00  0.00     0.034 A 
ATOM     50  C   UNL A   1      40.791  30.305  34.581  1.00  0.00     0.049 A 
ATOM     51  C   UNL A   1      42.405  27.357  30.121  1.00  0.00     0.074 A 
ATOM     52  C   UNL A   1      41.549  30.161  35.732  1.00  0.00     0.029 A 
ATOM     53  N   UNL A   1      41.391  29.507  33.616  1.00  0.00    -0.354 N 
ATOM     54  N   UNL A   1      42.160  27.987  31.246  1.00  0.00    -0.248 NA
ATOM     55  C   UNL A   1      43.620  26.528  30.151  1.00  0.00     0.031 C 
ATOM     56  C   UNL A   1      42.639  29.330  35.445  1.00  0.00     0.029 A 
ATOM     57  C   UNL A   1      42.524  28.896  34.136  1.00  0.00     0.049 A 
ATOM     58  H   UNL A   1      41.060  29.392  32.695  1.00  0.00     0.167 HD
ATOM     59  C   UNL A   1      43.173  27.606  32.124  1.00  0.00     0.074 A 
ATOM     60  C   UNL A   1      44.024  26.683  31.404  1.00  0.00     0.031 C 
ATOM     61  C   UNL A   1      43.377  27.983  33.412  1.00  0.00     0.034 A 
BRANCH  48  62
ATOM     62  C   UNL A   1      39.151  32.007  35.507  1.00  0.00     0.023 A 
ATOM     63  C   UNL A   1      39.568  33.345  35.614  1.00  0.00     0.031 A 
ATOM     64  C   UNL A   1      38.292  31.508  36.504  1.00  0.00     0.131 A 
ATOM     65  C   UNL A   1      39.195  34.110  36.728  1.00  0.00     0.055 A 
ATOM     66  C   UNL A   1      37.858  32.300  37.570  1.00  0.00     0.041 A 
ATOM     67  F   UNL A   1      37.867  30.235  36.467  1.00  0.00    -0.206 F 
ATOM     68  C   UNL A   1      38.323  33.605  37.696  1.00  0.00     0.022 A 
BRANCH  65  69
ATOM     69  S   UNL A   1      39.978  35.727  36.981  1.00  0.00     0.124 S 
ATOM     70  O   UNL A   1      39.307  36.187  38.201  1.00  0.00    -0.237 OA
ATOM     71  O   UNL A   1      41.391  35.370  37.133  1.00  0.00    -0.237 OA
ATOM     72  O   UNL A   1      39.647  36.467  35.779  1.00  0.00    -0.744 OA
ENDBRANCH  65  69
ENDBRANCH  48  62
BRANCH  49  73
ATOM     73  C   UNL A   1      42.113  26.613  27.645  1.00  0.00     0.023 A 
ATOM     74  C   UNL A   1      41.839  25.245  27.483  1.00  0.00     0.031 A 
ATOM     75  C   UNL A   1      42.914  27.243  26.675  1.00  0.00     0.131 A 
ATOM     76  C   UNL A   1      42.394  24.543  26.403  1.00  0.00     0.055 A 
ATOM     77  C   UNL A   1      43.423  26.550  25.575  1.00  0.00     0.041 A 
ATOM     78  F   UNL A   1      43.206  28.549  26.781  1.00  0.00    -0.206 F 
ATOM     79  C   UNL A   1      43.173  25.189  25.440  1.00  0.00     0.022 A 
BRANCH  76  80
ATOM     80  S   UNL A   1      42.148  22.747  26.312  1.00  0.00     0.124 S 
ATOM     81  O   UNL A   1      40.704  22.636  26.486  1.00  0.00    -0.237 OA
ATOM     82  O   UNL A   1      42.661  22.438  24.982  1.00  0.00    -0.237 OA
ATOM     83  O   UNL A   1      42.951  22.237  27.422  1.00  0.00    -0.744 OA
ENDBRANCH  76  80
ENDBRANCH  49  73
BRANCH  61  84
ATOM     84  C   UNL A   1      44.545  27.360  34.137  1.00  0.00     0.023 A 
ATOM     85  C   UNL A   1      44.397  26.210  34.932  1.00  0.00     0.031 A 
ATOM     86  C   UNL A   1      45.825  27.936  34.041  1.00  0.00     0.131 A 
ATOM     87  C   UNL A   1      45.498  25.701  35.641  1.00  0.00     0.055 A 
ATOM     88  C   UNL A   1      46.927  27.395  34.705  1.00  0.00     0.041 A 
ATOM     89  F   UNL A   1      46.025  29.036  33.297  1.00  0.00    -0.206 F 
ATOM     90  C   UNL A   1      46.764  26.278  35.520  1.00  0.00     0.022 A 
BRANCH  87  91
ATOM     91  S   UNL A   1      45.237  24.320  36.787  1.00  0.00     0.124 S 
ATOM     92  O   UNL A   1      44.217  24.857  37.683  1.00  0.00    -0.237 OA
ATOM     93  O   UNL A   1      44.802  23.250  35.894  1.00  0.00    -0.237 OA
ATOM     94  O   UNL A   1      46.553  24.123  37.393  1.00  0.00    -0.744 OA
ENDBRANCH  87  91
ENDBRANCH  61  84
ENDBRANCH  35  36
ENDBRANCH  27  30
ENDBRANCH  25  26
ENDBRANCH   1  25
TORSDOF 17
ENDMDL
MODEL 3
REMARK VINA RESULT:     -12.0      1.747      7.754
REMARK SMILES CC[C@]1(C(=O)NCCCNC(=O)c2ccc(-c3c4nc(c(-c5cc(S(=O)(=O)[O-])ccc5F)c5ccc([nH]5)c(-c5cc(S(=O)(=O)[O-])ccc5F)c5nc(c(-c6cc(S(=O)(=O)[O-])ccc6F)c6ccc3[nH]6)C=C5)C=C4)cc2)CC[N@@H+](Cc2nc(C)ccc2O)C1
REMARK SMILES IDX 8 1 7 2 6 3 4 4 5 5 3 7 76 8 88 9 77 10 78 11 2 13 1 14
REMARK SMILES IDX 79 15 80 16 81 17 86 18 82 19 85 20 83 21 84 22 87 23 9 25
REMARK SMILES IDX 10 26 11 27 12 29 13 30 14 31 75 32 15 33 74 34 16 35 17 36
REMARK SMILES IDX 18 37 68 38 19 39 73 40 67 41 69 42 20 43 72 44 66 45 65 46
REMARK SMILES IDX 21 48 53 49 33 50 52 51 34 52 37 53 51 54 70 55 35 56 36 57
REMARK SMILES IDX 50 59 71 60 38 61 22 62 23 63 31 64 24 65 30 66 32 67 29 68
REMARK SMILES IDX 25 69 26 70 27 71 28 72 54 73 55 74 63 75 56 76 62 77 64 78
REMARK SMILES IDX 61 79 57 80 58 81 59 82 60 83 39 84 40 85 48 86 41 87 47 88
REMARK SMILES IDX 49 89 46 90 42 91 43 92 44 93 45 94
REMARK H PARENT 6 6 78 12 87 24 10 28 69 47 37 58
REMARK Flexibility Score: inf
ROOT
ATOM      1  C   UNL A   1      36.117  21.211  25.286  1.00  0.00     0.042 C 
ENDROOT
BRANCH   1   2
ATOM      2  C   UNL A   1      34.843  20.395  24.896  1.00  0.00     0.117 C 
BRANCH   2   3
ATOM      3  N   UNL A   1      33.544  21.113  25.015  1.00  0.00    -0.355 N 
ATOM      4  C   UNL A   1      33.397  22.478  24.810  1.00  0.00     0.232 C 
ATOM      5  O   UNL A   1      33.341  22.822  23.624  1.00  0.00    -0.274 OA
ATOM      6  H   UNL A   1      32.743  20.590  25.252  1.00  0.00     0.163 HD
BRANCH   4   7
ATOM      7  C   UNL A   1      32.990  23.483  25.971  1.00  0.00     0.103 C 
ATOM      8  C   UNL A   1      33.281  24.944  25.550  1.00  0.00     0.084 C 
ATOM      9  C   UNL A   1      31.508  23.582  26.443  1.00  0.00     0.279 C 
ATOM     10  C   UNL A   1      32.332  25.802  26.383  1.00  0.00     0.263 C 
ATOM     11  N   UNL A   1      31.115  25.010  26.523  1.00  0.00    -0.329 N 
ATOM     12  H   UNL A   1      30.677  25.119  27.439  1.00  0.00     0.348 HD
BRANCH   7  13
ATOM     13  C   UNL A   1      33.928  23.190  27.197  1.00  0.00     0.020 C 
ATOM     14  C   UNL A   1      33.329  22.320  28.298  1.00  0.00     0.005 C 
ENDBRANCH   7  13
BRANCH  11  15
ATOM     15  C   UNL A   1      29.967  25.515  25.700  1.00  0.00     0.323 C 
BRANCH  15  16
ATOM     16  C   UNL A   1      30.281  26.112  24.324  1.00  0.00     0.136 A 
ATOM     17  N   UNL A   1      30.311  27.451  24.096  1.00  0.00    -0.248 NA
ATOM     18  C   UNL A   1      30.671  25.241  23.339  1.00  0.00     0.142 A 
ATOM     19  C   UNL A   1      30.842  27.869  22.904  1.00  0.00     0.038 A 
ATOM     20  C   UNL A   1      31.434  25.680  22.277  1.00  0.00     0.050 A 
ATOM     21  C   UNL A   1      30.498  29.235  22.388  1.00  0.00     0.067 C 
ATOM     22  C   UNL A   1      31.526  27.027  22.041  1.00  0.00     0.027 A 
BRANCH  18  23
ATOM     23  O   UNL A   1      30.374  23.935  23.479  1.00  0.00    -0.506 OA
ATOM     24  H   UNL A   1      30.975  23.282  23.177  1.00  0.00     0.293 HD
ENDBRANCH  18  23
ENDBRANCH  15  16
ENDBRANCH  11  15
ENDBRANCH   4   7
ENDBRANCH   2   3
ENDBRANCH   1   2
BRANCH   1  25
ATOM     25  C   UNL A   1      37.437  20.941  24.529  1.00  0.00     0.118 C 
BRANCH  25  26
ATOM     26  N   UNL A   1      38.323  20.134  25.362  1.00  0.00    -0.352 N 
ATOM     27  C   UNL A   1      39.498  20.403  26.024  1.00  0.00     0.251 C 
ATOM     28  H   UNL A   1      38.016  19.206  25.473  1.00  0.00     0.163 HD
ATOM     29  O   UNL A   1      40.280  19.457  26.139  1.00  0.00    -0.269 OA
BRANCH  27  30
ATOM     30  C   UNL A   1      39.848  21.699  26.685  1.00  0.00     0.039 A 
ATOM     31  C   UNL A   1      39.269  22.868  26.157  1.00  0.00     0.014 A 
ATOM     32  C   UNL A   1      40.878  21.842  27.619  1.00  0.00     0.014 A 
ATOM     33  C   UNL A   1      39.733  24.146  26.513  1.00  0.00     0.010 A 
ATOM     34  C   UNL A   1      41.323  23.129  28.002  1.00  0.00     0.010 A 
ATOM     35  C   UNL A   1      40.781  24.297  27.429  1.00  0.00    -0.014 A 
BRANCH  35  36
ATOM     36  C   UNL A   1      41.357  25.654  27.716  1.00  0.00     0.031 A 
ATOM     37  C   UNL A   1      42.753  26.008  27.253  1.00  0.00     0.074 A 
ATOM     38  C   UNL A   1      40.642  26.584  28.384  1.00  0.00     0.049 A 
ATOM     39  N   UNL A   1      43.450  27.101  27.455  1.00  0.00    -0.248 NA
ATOM     40  C   UNL A   1      43.464  24.986  26.472  1.00  0.00     0.031 C 
ATOM     41  C   UNL A   1      39.279  26.399  28.883  1.00  0.00     0.029 A 
ATOM     42  N   UNL A   1      40.962  27.867  28.767  1.00  0.00    -0.354 N 
ATOM     43  C   UNL A   1      44.688  26.890  26.850  1.00  0.00     0.074 A 
ATOM     44  C   UNL A   1      44.653  25.547  26.307  1.00  0.00     0.031 C 
ATOM     45  C   UNL A   1      38.882  27.523  29.503  1.00  0.00     0.029 A 
ATOM     46  C   UNL A   1      39.968  28.500  29.481  1.00  0.00     0.049 A 
ATOM     47  H   UNL A   1      41.824  28.293  28.550  1.00  0.00     0.167 HD
ATOM     48  C   UNL A   1      45.749  27.733  26.744  1.00  0.00     0.034 A 
ATOM     49  C   UNL A   1      39.935  29.717  30.065  1.00  0.00     0.034 A 
ATOM     50  C   UNL A   1      45.772  29.083  27.261  1.00  0.00     0.049 A 
ATOM     51  C   UNL A   1      41.132  30.631  29.954  1.00  0.00     0.074 A 
ATOM     52  C   UNL A   1      46.780  30.029  27.158  1.00  0.00     0.029 A 
ATOM     53  N   UNL A   1      44.747  29.681  27.981  1.00  0.00    -0.354 N 
ATOM     54  N   UNL A   1      42.283  30.418  29.361  1.00  0.00    -0.248 NA
ATOM     55  C   UNL A   1      41.020  31.955  30.585  1.00  0.00     0.031 C 
ATOM     56  C   UNL A   1      46.390  31.172  27.867  1.00  0.00     0.029 A 
ATOM     57  C   UNL A   1      45.110  30.968  28.353  1.00  0.00     0.049 A 
ATOM     58  H   UNL A   1      43.886  29.253  28.197  1.00  0.00     0.167 HD
ATOM     59  C   UNL A   1      43.017  31.591  29.521  1.00  0.00     0.074 A 
ATOM     60  C   UNL A   1      42.177  32.512  30.256  1.00  0.00     0.031 C 
ATOM     61  C   UNL A   1      44.273  31.881  29.095  1.00  0.00     0.034 A 
BRANCH  48  62
ATOM     62  C   UNL A   1      46.998  27.204  26.074  1.00  0.00     0.023 A 
ATOM     63  C   UNL A   1      47.968  26.469  26.779  1.00  0.00     0.031 A 
ATOM     64  C   UNL A   1      47.230  27.449  24.708  1.00  0.00     0.131 A 
ATOM     65  C   UNL A   1      49.154  26.079  26.141  1.00  0.00     0.055 A 
ATOM     66  C   UNL A   1      48.377  26.988  24.057  1.00  0.00     0.041 A 
ATOM     67  F   UNL A   1      46.348  28.155  23.981  1.00  0.00    -0.206 F 
ATOM     68  C   UNL A   1      49.355  26.312  24.778  1.00  0.00     0.022 A 
BRANCH  65  69
ATOM     69  S   UNL A   1      50.501  25.391  27.143  1.00  0.00     0.124 S 
ATOM     70  O   UNL A   1      49.827  24.272  27.807  1.00  0.00    -0.237 OA
ATOM     71  O   UNL A   1      51.489  25.020  26.126  1.00  0.00    -0.237 OA
ATOM     72  O   UNL A   1      50.883  26.486  28.014  1.00  0.00    -0.744 OA
ENDBRANCH  65  69
ENDBRANCH  48  62
BRANCH  49  73
ATOM     73  C   UNL A   1      38.735  30.145  30.844  1.00  0.00     0.023 A 
ATOM     74  C   UNL A   1      37.690  30.860  30.237  1.00  0.00     0.031 A 
ATOM     75  C   UNL A   1      38.643  29.886  32.223  1.00  0.00     0.131 A 
ATOM     76  C   UNL A   1      36.618  31.327  31.014  1.00  0.00     0.055 A 
ATOM     77  C   UNL A   1      37.550  30.310  32.982  1.00  0.00     0.041 A 
ATOM     78  F   UNL A   1      39.615  29.207  32.853  1.00  0.00    -0.206 F 
ATOM     79  C   UNL A   1      36.534  31.045  32.380  1.00  0.00     0.022 A 
BRANCH  76  80
ATOM     80  S   UNL A   1      35.366  32.379  30.228  1.00  0.00     0.124 S 
ATOM     81  O   UNL A   1      36.139  33.575  29.911  1.00  0.00    -0.237 OA
ATOM     82  O   UNL A   1      34.954  31.562  29.093  1.00  0.00    -0.237 OA
ATOM     83  O   UNL A   1      34.357  32.546  31.272  1.00  0.00    -0.744 OA
ENDBRANCH  76  80
ENDBRANCH  49  73
BRANCH  61  84
ATOM     84  C   UNL A   1      44.795  33.270  29.377  1.00  0.00     0.023 A 
ATOM     85  C   UNL A   1      44.525  34.352  28.521  1.00  0.00     0.031 A 
ATOM     86  C   UNL A   1      45.586  33.509  30.515  1.00  0.00     0.131 A 
ATOM     87  C   UNL A   1      45.084  35.612  28.788  1.00  0.00     0.055 A 
ATOM     88  C   UNL A   1      46.095  34.776  30.804  1.00  0.00     0.041 A 
ATOM     89  F   UNL A   1      45.877  32.512  31.367  1.00  0.00    -0.206 F 
ATOM     90  C   UNL A   1      45.855  35.834  29.931  1.00  0.00     0.022 A 
BRANCH  87  91
ATOM     91  S   UNL A   1      44.856  36.943  27.576  1.00  0.00     0.124 S 
ATOM     92  O   UNL A   1      43.786  36.412  26.738  1.00  0.00    -0.237 OA
ATOM     93  O   UNL A   1      44.500  38.078  28.422  1.00  0.00    -0.237 OA
ATOM     94  O   UNL A   1      46.162  37.043  26.926  1.00  0.00    -0.744 OA
ENDBRANCH  87  91
ENDBRANCH  61  84
ENDBRANCH  35  36
ENDBRANCH  27  30
ENDBRANCH  25  26
ENDBRANCH   1  25
TORSDOF 17
ENDMDL
