MODEL 1
REMARK VINA RESULT:     -11.8      0.000      0.000
REMARK SMILES COC(=O)[C@H]1Sc2nnc(CCC(=O)NCCCNC(=O)c3ccc(-c4c5nc(c(-c6cc(S(=O)(=O)[O-])ccc6F)c6ccc([nH]6)c(-c6cc(S(=O)(=O)[O-])ccc6F)c6nc(c(-c7cc(S(=O)(=O)[O-])ccc7F)c7ccc4[nH]7)C=C6)C=C5)cc3)c(=O)n2N=C1C
REMARK SMILES IDX 16 1 15 2 13 3 14 4 12 6 11 7 10 8 5 9 6 10 89 11 7 12 88 13
REMARK SMILES IDX 90 14 8 15 87 16 9 17 85 18 86 19 3 20 4 21 2 22 1 23 17 24
REMARK SMILES IDX 18 25 19 26 20 27 21 29 22 30 23 31 84 32 24 33 83 34 25 35
REMARK SMILES IDX 26 36 27 37 77 38 28 39 82 40 76 41 78 42 29 43 81 44 75 45
REMARK SMILES IDX 74 46 30 48 62 49 42 50 61 51 43 52 46 53 60 54 79 55 44 56
REMARK SMILES IDX 45 57 59 59 80 60 47 61 31 62 32 63 40 64 33 65 39 66 41 67
REMARK SMILES IDX 38 68 34 69 35 70 36 71 37 72 63 73 64 74 72 75 65 76 71 77
REMARK SMILES IDX 73 78 70 79 66 80 67 81 68 82 69 83 48 84 49 85 57 86 50 87
REMARK SMILES IDX 56 88 58 89 55 90 51 91 52 92 53 93 54 94
REMARK H PARENT 15 5 19 28 78 47 46 58
REMARK Flexibility Score: inf
ROOT
ATOM      1  C   UNL A   1      36.447  20.341  25.043  1.00  0.00     0.117 C 
ENDROOT
BRANCH   1   2
ATOM      2  N   UNL A   1      35.365  19.377  24.857  1.00  0.00    -0.356 N 
ATOM      3  C   UNL A   1      34.002  19.510  24.840  1.00  0.00     0.220 C 
ATOM      4  O   UNL A   1      33.342  18.521  24.512  1.00  0.00    -0.275 OA
ATOM      5  H   UNL A   1      35.675  18.453  24.717  1.00  0.00     0.163 HD
BRANCH   3   6
ATOM      6  C   UNL A   1      33.296  20.825  25.159  1.00  0.00     0.106 C 
BRANCH   6   7
ATOM      7  C   UNL A   1      33.379  21.219  26.641  1.00  0.00     0.074 C 
BRANCH   7   8
ATOM      8  C   UNL A   1      32.906  22.636  26.835  1.00  0.00     0.131 A 
ATOM      9  C   UNL A   1      31.685  26.742  24.376  1.00  0.00     0.210 C 
ATOM     10  S   UNL A   1      31.482  26.764  26.205  1.00  0.00    -0.063 SA
ATOM     11  C   UNL A   1      32.991  26.036  24.029  1.00  0.00     0.061 C 
ATOM     12  C   UNL A   1      31.983  25.112  26.475  1.00  0.00     0.214 A 
ATOM     13  N   UNL A   1      33.697  25.277  24.797  1.00  0.00    -0.171 NA
ATOM     14  C   UNL A   1      33.671  26.137  22.701  1.00  0.00     0.065 C 
ATOM     15  N   UNL A   1      31.281  24.285  27.184  1.00  0.00    -0.123 NA
ATOM     16  N   UNL A   1      33.183  24.780  25.923  1.00  0.00    -0.169 N 
ATOM     17  N   UNL A   1      31.694  22.919  27.209  1.00  0.00    -0.147 NA
ATOM     18  C   UNL A   1      33.864  23.698  26.406  1.00  0.00     0.296 A 
ATOM     19  O   UNL A   1      35.059  23.492  26.408  1.00  0.00    -0.265 OA
BRANCH   9  20
ATOM     20  C   UNL A   1      30.342  26.311  23.791  1.00  0.00     0.325 C 
ATOM     21  O   UNL A   1      30.124  25.197  23.324  1.00  0.00    -0.250 OA
BRANCH  20  22
ATOM     22  O   UNL A   1      29.392  27.289  23.740  1.00  0.00    -0.468 OA
ATOM     23  C   UNL A   1      29.615  28.298  22.733  1.00  0.00     0.282 C 
ENDBRANCH  20  22
ENDBRANCH   9  20
ENDBRANCH   7   8
ENDBRANCH   6   7
ENDBRANCH   3   6
ENDBRANCH   1   2
BRANCH   1  24
ATOM     24  C   UNL A   1      37.846  19.823  24.654  1.00  0.00     0.042 C 
BRANCH  24  25
ATOM     25  C   UNL A   1      38.854  19.283  25.712  1.00  0.00     0.118 C 
BRANCH  25  26
ATOM     26  N   UNL A   1      40.000  20.233  25.888  1.00  0.00    -0.352 N 
ATOM     27  C   UNL A   1      40.540  20.691  27.095  1.00  0.00     0.251 C 
ATOM     28  H   UNL A   1      40.418  20.572  25.064  1.00  0.00     0.163 HD
ATOM     29  O   UNL A   1      40.718  19.956  28.055  1.00  0.00    -0.269 OA
BRANCH  27  30
ATOM     30  C   UNL A   1      40.803  22.189  27.198  1.00  0.00     0.039 A 
ATOM     31  C   UNL A   1      40.115  23.187  26.497  1.00  0.00     0.014 A 
ATOM     32  C   UNL A   1      41.786  22.613  28.094  1.00  0.00     0.014 A 
ATOM     33  C   UNL A   1      40.339  24.571  26.771  1.00  0.00     0.010 A 
ATOM     34  C   UNL A   1      41.923  23.969  28.451  1.00  0.00     0.010 A 
ATOM     35  C   UNL A   1      41.229  24.985  27.776  1.00  0.00    -0.014 A 
BRANCH  35  36
ATOM     36  C   UNL A   1      41.613  26.421  28.051  1.00  0.00     0.031 A 
ATOM     37  C   UNL A   1      43.010  26.880  27.659  1.00  0.00     0.074 A 
ATOM     38  C   UNL A   1      40.837  27.292  28.737  1.00  0.00     0.049 A 
ATOM     39  N   UNL A   1      43.623  28.016  27.890  1.00  0.00    -0.248 NA
ATOM     40  C   UNL A   1      43.844  25.890  26.961  1.00  0.00     0.031 C 
ATOM     41  C   UNL A   1      39.503  27.017  29.267  1.00  0.00     0.029 A 
ATOM     42  N   UNL A   1      41.081  28.594  29.137  1.00  0.00    -0.354 N 
ATOM     43  C   UNL A   1      44.912  27.863  27.384  1.00  0.00     0.074 A 
ATOM     44  C   UNL A   1      45.019  26.494  26.931  1.00  0.00     0.031 C 
ATOM     45  C   UNL A   1      39.051  28.106  29.920  1.00  0.00     0.029 A 
ATOM     46  C   UNL A   1      40.059  29.166  29.864  1.00  0.00     0.049 A 
ATOM     47  H   UNL A   1      41.915  29.070  28.922  1.00  0.00     0.167 HD
ATOM     48  C   UNL A   1      45.910  28.773  27.255  1.00  0.00     0.034 A 
ATOM     49  C   UNL A   1      39.932  30.399  30.410  1.00  0.00     0.034 A 
ATOM     50  C   UNL A   1      45.809  30.148  27.671  1.00  0.00     0.049 A 
ATOM     51  C   UNL A   1      41.036  31.419  30.249  1.00  0.00     0.074 A 
ATOM     52  C   UNL A   1      46.725  31.171  27.494  1.00  0.00     0.029 A 
ATOM     53  N   UNL A   1      44.730  30.693  28.350  1.00  0.00    -0.354 N 
ATOM     54  N   UNL A   1      42.210  31.279  29.679  1.00  0.00    -0.248 NA
ATOM     55  C   UNL A   1      40.790  32.769  30.783  1.00  0.00     0.031 C 
ATOM     56  C   UNL A   1      46.225  32.320  28.116  1.00  0.00     0.029 A 
ATOM     57  C   UNL A   1      44.969  32.030  28.624  1.00  0.00     0.049 A 
ATOM     58  H   UNL A   1      43.915  30.201  28.601  1.00  0.00     0.167 HD
ATOM     59  C   UNL A   1      42.827  32.528  29.761  1.00  0.00     0.074 A 
ATOM     60  C   UNL A   1      41.899  33.410  30.435  1.00  0.00     0.031 C 
ATOM     61  C   UNL A   1      44.049  32.906  29.306  1.00  0.00     0.034 A 
BRANCH  48  62
ATOM     62  C   UNL A   1      47.195  28.305  26.612  1.00  0.00     0.023 A 
ATOM     63  C   UNL A   1      47.344  28.286  25.213  1.00  0.00     0.031 A 
ATOM     64  C   UNL A   1      48.272  27.851  27.393  1.00  0.00     0.131 A 
ATOM     65  C   UNL A   1      48.499  27.742  24.637  1.00  0.00     0.055 A 
ATOM     66  C   UNL A   1      49.456  27.389  26.814  1.00  0.00     0.041 A 
ATOM     67  F   UNL A   1      48.186  27.834  28.733  1.00  0.00    -0.206 F 
ATOM     68  C   UNL A   1      49.569  27.317  25.427  1.00  0.00     0.022 A 
BRANCH  65  69
ATOM     69  S   UNL A   1      48.530  27.486  22.843  1.00  0.00     0.124 S 
ATOM     70  O   UNL A   1      49.813  28.085  22.484  1.00  0.00    -0.237 OA
ATOM     71  O   UNL A   1      48.450  26.034  22.728  1.00  0.00    -0.237 OA
ATOM     72  O   UNL A   1      47.353  28.214  22.372  1.00  0.00    -0.744 OA
ENDBRANCH  65  69
ENDBRANCH  48  62
BRANCH  49  73
ATOM     73  C   UNL A   1      38.676  30.770  31.130  1.00  0.00     0.023 A 
ATOM     74  C   UNL A   1      37.653  31.467  30.468  1.00  0.00     0.031 A 
ATOM     75  C   UNL A   1      38.476  30.429  32.479  1.00  0.00     0.131 A 
ATOM     76  C   UNL A   1      36.472  31.801  31.153  1.00  0.00     0.055 A 
ATOM     77  C   UNL A   1      37.291  30.744  33.150  1.00  0.00     0.041 A 
ATOM     78  F   UNL A   1      39.425  29.766  33.158  1.00  0.00    -0.206 F 
ATOM     79  C   UNL A   1      36.279  31.432  32.486  1.00  0.00     0.022 A 
BRANCH  76  80
ATOM     80  S   UNL A   1      35.178  32.717  30.268  1.00  0.00     0.124 S 
ATOM     81  O   UNL A   1      35.884  33.934  29.883  1.00  0.00    -0.237 OA
ATOM     82  O   UNL A   1      34.842  31.799  29.184  1.00  0.00    -0.237 OA
ATOM     83  O   UNL A   1      34.134  32.891  31.275  1.00  0.00    -0.744 OA
ENDBRANCH  76  80
ENDBRANCH  49  73
BRANCH  61  84
ATOM     84  C   UNL A   1      44.457  34.345  29.489  1.00  0.00     0.023 A 
ATOM     85  C   UNL A   1      44.073  35.342  28.577  1.00  0.00     0.031 A 
ATOM     86  C   UNL A   1      45.189  34.733  30.628  1.00  0.00     0.131 A 
ATOM     87  C   UNL A   1      44.446  36.676  28.803  1.00  0.00     0.055 A 
ATOM     88  C   UNL A   1      45.518  36.067  30.870  1.00  0.00     0.041 A 
ATOM     89  F   UNL A   1      45.573  33.821  31.535  1.00  0.00    -0.206 F 
ATOM     90  C   UNL A   1      45.150  37.048  29.951  1.00  0.00     0.022 A 
BRANCH  87  91
ATOM     91  S   UNL A   1      44.022  37.925  27.558  1.00  0.00     0.124 S 
ATOM     92  O   UNL A   1      45.232  37.960  26.742  1.00  0.00    -0.237 OA
ATOM     93  O   UNL A   1      42.841  37.349  26.922  1.00  0.00    -0.237 OA
ATOM     94  O   UNL A   1      43.773  39.128  28.349  1.00  0.00    -0.744 OA
ENDBRANCH  87  91
ENDBRANCH  61  84
ENDBRANCH  35  36
ENDBRANCH  27  30
ENDBRANCH  25  26
ENDBRANCH  24  25
ENDBRANCH   1  24
TORSDOF 17
ENDMDL
MODEL 2
REMARK VINA RESULT:     -11.8      4.832     10.571
REMARK SMILES COC(=O)[C@H]1Sc2nnc(CCC(=O)NCCCNC(=O)c3ccc(-c4c5nc(c(-c6cc(S(=O)(=O)[O-])ccc6F)c6ccc([nH]6)c(-c6cc(S(=O)(=O)[O-])ccc6F)c6nc(c(-c7cc(S(=O)(=O)[O-])ccc7F)c7ccc4[nH]7)C=C6)C=C5)cc3)c(=O)n2N=C1C
REMARK SMILES IDX 16 1 15 2 13 3 14 4 12 6 11 7 10 8 5 9 6 10 89 11 7 12 88 13
REMARK SMILES IDX 90 14 8 15 87 16 9 17 85 18 86 19 3 20 4 21 2 22 1 23 17 24
REMARK SMILES IDX 18 25 19 26 20 27 21 29 22 30 23 31 84 32 24 33 83 34 25 35
REMARK SMILES IDX 26 36 27 37 77 38 28 39 82 40 76 41 78 42 29 43 81 44 75 45
REMARK SMILES IDX 74 46 30 48 62 49 42 50 61 51 43 52 46 53 60 54 79 55 44 56
REMARK SMILES IDX 45 57 59 59 80 60 47 61 31 62 32 63 40 64 33 65 39 66 41 67
REMARK SMILES IDX 38 68 34 69 35 70 36 71 37 72 63 73 64 74 72 75 65 76 71 77
REMARK SMILES IDX 73 78 70 79 66 80 67 81 68 82 69 83 48 84 49 85 57 86 50 87
REMARK SMILES IDX 56 88 58 89 55 90 51 91 52 92 53 93 54 94
REMARK H PARENT 15 5 19 28 78 47 46 58
REMARK Flexibility Score: inf
ROOT
ATOM      1  C   UNL A   1      32.366  30.512  26.246  1.00  0.00     0.117 C 
ENDROOT
BRANCH   1   2
ATOM      2  N   UNL A   1      31.939  29.230  26.801  1.00  0.00    -0.356 N 
ATOM      3  C   UNL A   1      31.422  28.099  26.226  1.00  0.00     0.220 C 
ATOM      4  O   UNL A   1      31.291  27.107  26.946  1.00  0.00    -0.275 OA
ATOM      5  H   UNL A   1      32.043  29.165  27.778  1.00  0.00     0.163 HD
BRANCH   3   6
ATOM      6  C   UNL A   1      31.059  28.019  24.746  1.00  0.00     0.106 C 
BRANCH   6   7
ATOM      7  C   UNL A   1      32.222  27.556  23.855  1.00  0.00     0.074 C 
BRANCH   7   8
ATOM      8  C   UNL A   1      31.991  26.144  23.381  1.00  0.00     0.131 A 
ATOM      9  C   UNL A   1      33.703  21.530  23.802  1.00  0.00     0.210 C 
ATOM     10  S   UNL A   1      32.194  21.778  22.778  1.00  0.00    -0.063 SA
ATOM     11  C   UNL A   1      34.688  22.659  23.517  1.00  0.00     0.061 C 
ATOM     12  C   UNL A   1      32.056  23.498  23.052  1.00  0.00     0.214 A 
ATOM     13  N   UNL A   1      34.441  23.786  22.941  1.00  0.00    -0.171 NA
ATOM     14  C   UNL A   1      36.141  22.611  23.870  1.00  0.00     0.065 C 
ATOM     15  N   UNL A   1      30.946  24.050  23.433  1.00  0.00    -0.123 NA
ATOM     16  N   UNL A   1      33.186  24.213  22.791  1.00  0.00    -0.169 N 
ATOM     17  N   UNL A   1      30.981  25.433  23.784  1.00  0.00    -0.147 NA
ATOM     18  C   UNL A   1      33.088  25.556  22.556  1.00  0.00     0.296 A 
ATOM     19  O   UNL A   1      33.815  26.265  21.894  1.00  0.00    -0.265 OA
BRANCH   9  20
ATOM     20  C   UNL A   1      33.225  21.198  25.213  1.00  0.00     0.325 C 
ATOM     21  O   UNL A   1      33.716  21.674  26.232  1.00  0.00    -0.250 OA
BRANCH  20  22
ATOM     22  O   UNL A   1      32.247  20.250  25.285  1.00  0.00    -0.468 OA
ATOM     23  C   UNL A   1      32.725  18.893  25.398  1.00  0.00     0.282 C 
ENDBRANCH  20  22
ENDBRANCH   9  20
ENDBRANCH   7   8
ENDBRANCH   6   7
ENDBRANCH   3   6
ENDBRANCH   1   2
BRANCH   1  24
ATOM     24  C   UNL A   1      31.444  31.700  26.585  1.00  0.00     0.042 C 
BRANCH  24  25
ATOM     25  C   UNL A   1      31.995  33.142  26.797  1.00  0.00     0.118 C 
BRANCH  25  26
ATOM     26  N   UNL A   1      33.005  33.168  27.904  1.00  0.00    -0.352 N 
ATOM     27  C   UNL A   1      34.344  33.564  27.817  1.00  0.00     0.251 C 
ATOM     28  H   UNL A   1      32.692  32.874  28.790  1.00  0.00     0.163 HD
ATOM     29  O   UNL A   1      34.698  34.542  27.176  1.00  0.00    -0.269 OA
BRANCH  27  30
ATOM     30  C   UNL A   1      35.369  32.648  28.477  1.00  0.00     0.039 A 
ATOM     31  C   UNL A   1      35.146  31.322  28.866  1.00  0.00     0.014 A 
ATOM     32  C   UNL A   1      36.654  33.156  28.679  1.00  0.00     0.014 A 
ATOM     33  C   UNL A   1      36.214  30.502  29.345  1.00  0.00     0.010 A 
ATOM     34  C   UNL A   1      37.729  32.318  29.037  1.00  0.00     0.010 A 
ATOM     35  C   UNL A   1      37.533  30.980  29.411  1.00  0.00    -0.014 A 
BRANCH  35  36
ATOM     36  C   UNL A   1      38.696  30.225  30.013  1.00  0.00     0.031 A 
ATOM     37  C   UNL A   1      39.156  30.609  31.411  1.00  0.00     0.074 A 
ATOM     38  C   UNL A   1      39.433  29.313  29.338  1.00  0.00     0.049 A 
ATOM     39  N   UNL A   1      40.194  30.201  32.101  1.00  0.00    -0.248 NA
ATOM     40  C   UNL A   1      38.362  31.641  32.094  1.00  0.00     0.031 C 
ATOM     41  C   UNL A   1      39.202  28.870  27.964  1.00  0.00     0.029 A 
ATOM     42  N   UNL A   1      40.563  28.609  29.717  1.00  0.00    -0.354 N 
ATOM     43  C   UNL A   1      40.182  30.942  33.281  1.00  0.00     0.074 A 
ATOM     44  C   UNL A   1      39.098  31.890  33.163  1.00  0.00     0.031 C 
ATOM     45  C   UNL A   1      40.154  27.981  27.617  1.00  0.00     0.029 A 
ATOM     46  C   UNL A   1      41.073  27.783  28.739  1.00  0.00     0.049 A 
ATOM     47  H   UNL A   1      40.968  28.694  30.611  1.00  0.00     0.167 HD
ATOM     48  C   UNL A   1      40.958  30.827  34.388  1.00  0.00     0.034 A 
ATOM     49  C   UNL A   1      42.142  26.952  28.740  1.00  0.00     0.034 A 
ATOM     50  C   UNL A   1      42.021  29.867  34.535  1.00  0.00     0.049 A 
ATOM     51  C   UNL A   1      42.994  26.809  29.980  1.00  0.00     0.074 A 
ATOM     52  C   UNL A   1      42.798  29.606  35.651  1.00  0.00     0.029 A 
ATOM     53  N   UNL A   1      42.460  29.013  33.536  1.00  0.00    -0.354 N 
ATOM     54  N   UNL A   1      42.901  27.452  31.121  1.00  0.00    -0.248 NA
ATOM     55  C   UNL A   1      44.079  25.815  29.942  1.00  0.00     0.031 C 
ATOM     56  C   UNL A   1      43.744  28.634  35.309  1.00  0.00     0.029 A 
ATOM     57  C   UNL A   1      43.515  28.243  34.000  1.00  0.00     0.049 A 
ATOM     58  H   UNL A   1      42.079  28.961  32.629  1.00  0.00     0.167 HD
ATOM     59  C   UNL A   1      43.895  26.919  31.942  1.00  0.00     0.074 A 
ATOM     60  C   UNL A   1      44.577  25.903  31.169  1.00  0.00     0.031 C 
ATOM     61  C   UNL A   1      44.203  27.239  33.225  1.00  0.00     0.034 A 
BRANCH  48  62
ATOM     62  C   UNL A   1      40.661  31.759  35.541  1.00  0.00     0.023 A 
ATOM     63  C   UNL A   1      39.508  31.596  36.330  1.00  0.00     0.031 A 
ATOM     64  C   UNL A   1      41.517  32.832  35.843  1.00  0.00     0.131 A 
ATOM     65  C   UNL A   1      39.195  32.537  37.319  1.00  0.00     0.055 A 
ATOM     66  C   UNL A   1      41.243  33.718  36.888  1.00  0.00     0.041 A 
ATOM     67  F   UNL A   1      42.628  33.047  35.119  1.00  0.00    -0.206 F 
ATOM     68  C   UNL A   1      40.068  33.585  37.622  1.00  0.00     0.022 A 
BRANCH  65  69
ATOM     69  S   UNL A   1      37.571  32.441  38.118  1.00  0.00     0.124 S 
ATOM     70  O   UNL A   1      37.832  33.106  39.392  1.00  0.00    -0.237 OA
ATOM     71  O   UNL A   1      36.715  33.166  37.185  1.00  0.00    -0.237 OA
ATOM     72  O   UNL A   1      37.317  31.004  38.209  1.00  0.00    -0.744 OA
ENDBRANCH  65  69
ENDBRANCH  48  62
BRANCH  49  73
ATOM     73  C   UNL A   1      42.450  26.131  27.529  1.00  0.00     0.023 A 
ATOM     74  C   UNL A   1      42.087  24.776  27.472  1.00  0.00     0.031 A 
ATOM     75  C   UNL A   1      43.098  26.688  26.413  1.00  0.00     0.131 A 
ATOM     76  C   UNL A   1      42.373  24.019  26.324  1.00  0.00     0.055 A 
ATOM     77  C   UNL A   1      43.360  25.936  25.264  1.00  0.00     0.041 A 
ATOM     78  F   UNL A   1      43.469  27.977  26.418  1.00  0.00    -0.206 F 
ATOM     79  C   UNL A   1      42.995  24.593  25.213  1.00  0.00     0.022 A 
BRANCH  76  80
ATOM     80  S   UNL A   1      41.903  22.265  26.294  1.00  0.00     0.124 S 
ATOM     81  O   UNL A   1      42.673  21.769  25.160  1.00  0.00    -0.237 OA
ATOM     82  O   UNL A   1      42.336  21.811  27.612  1.00  0.00    -0.237 OA
ATOM     83  O   UNL A   1      40.455  22.303  26.099  1.00  0.00    -0.744 OA
ENDBRANCH  76  80
ENDBRANCH  49  73
BRANCH  61  84
ATOM     84  C   UNL A   1      45.308  26.469  33.901  1.00  0.00     0.023 A 
ATOM     85  C   UNL A   1      45.057  25.268  34.585  1.00  0.00     0.031 A 
ATOM     86  C   UNL A   1      46.640  26.914  33.805  1.00  0.00     0.131 A 
ATOM     87  C   UNL A   1      46.121  24.563  35.171  1.00  0.00     0.055 A 
ATOM     88  C   UNL A   1      47.698  26.186  34.352  1.00  0.00     0.041 A 
ATOM     89  F   UNL A   1      46.934  28.051  33.156  1.00  0.00    -0.206 F 
ATOM     90  C   UNL A   1      47.441  25.006  35.044  1.00  0.00     0.022 A 
BRANCH  87  91
ATOM     91  S   UNL A   1      45.756  23.069  36.132  1.00  0.00     0.124 S 
ATOM     92  O   UNL A   1      45.727  23.588  37.496  1.00  0.00    -0.237 OA
ATOM     93  O   UNL A   1      44.471  22.647  35.583  1.00  0.00    -0.237 OA
ATOM     94  O   UNL A   1      46.878  22.183  35.829  1.00  0.00    -0.744 OA
ENDBRANCH  87  91
ENDBRANCH  61  84
ENDBRANCH  35  36
ENDBRANCH  27  30
ENDBRANCH  25  26
ENDBRANCH  24  25
ENDBRANCH   1  24
TORSDOF 17
ENDMDL
MODEL 3
REMARK VINA RESULT:     -11.3      1.779      2.133
REMARK SMILES COC(=O)[C@H]1Sc2nnc(CCC(=O)NCCCNC(=O)c3ccc(-c4c5nc(c(-c6cc(S(=O)(=O)[O-])ccc6F)c6ccc([nH]6)c(-c6cc(S(=O)(=O)[O-])ccc6F)c6nc(c(-c7cc(S(=O)(=O)[O-])ccc7F)c7ccc4[nH]7)C=C6)C=C5)cc3)c(=O)n2N=C1C
REMARK SMILES IDX 16 1 15 2 13 3 14 4 12 6 11 7 10 8 5 9 6 10 89 11 7 12 88 13
REMARK SMILES IDX 90 14 8 15 87 16 9 17 85 18 86 19 3 20 4 21 2 22 1 23 17 24
REMARK SMILES IDX 18 25 19 26 20 27 21 29 22 30 23 31 84 32 24 33 83 34 25 35
REMARK SMILES IDX 26 36 27 37 77 38 28 39 82 40 76 41 78 42 29 43 81 44 75 45
REMARK SMILES IDX 74 46 30 48 62 49 42 50 61 51 43 52 46 53 60 54 79 55 44 56
REMARK SMILES IDX 45 57 59 59 80 60 47 61 31 62 32 63 40 64 33 65 39 66 41 67
REMARK SMILES IDX 38 68 34 69 35 70 36 71 37 72 63 73 64 74 72 75 65 76 71 77
REMARK SMILES IDX 73 78 70 79 66 80 67 81 68 82 69 83 48 84 49 85 57 86 50 87
REMARK SMILES IDX 56 88 58 89 55 90 51 91 52 92 53 93 54 94
REMARK H PARENT 15 5 19 28 78 47 46 58
REMARK Flexibility Score: inf
ROOT
ATOM      1  C   UNL A   1      37.306  21.316  25.303  1.00  0.00     0.117 C 
ENDROOT
BRANCH   1   2
ATOM      2  N   UNL A   1      36.527  21.993  24.270  1.00  0.00    -0.356 N 
ATOM      3  C   UNL A   1      35.331  22.660  24.302  1.00  0.00     0.220 C 
ATOM      4  O   UNL A   1      34.991  23.261  23.280  1.00  0.00    -0.275 OA
ATOM      5  H   UNL A   1      36.941  21.966  23.377  1.00  0.00     0.163 HD
BRANCH   3   6
ATOM      6  C   UNL A   1      34.452  22.720  25.548  1.00  0.00     0.106 C 
BRANCH   6   7
ATOM      7  C   UNL A   1      33.161  21.898  25.426  1.00  0.00     0.074 C 
BRANCH   7   8
ATOM      8  C   UNL A   1      32.006  22.787  25.042  1.00  0.00     0.131 A 
ATOM      9  C   UNL A   1      30.621  27.519  24.749  1.00  0.00     0.210 C 
ATOM     10  S   UNL A   1      29.429  26.254  24.144  1.00  0.00    -0.063 SA
ATOM     11  C   UNL A   1      31.268  27.019  26.036  1.00  0.00     0.061 C 
ATOM     12  C   UNL A   1      30.455  24.870  24.432  1.00  0.00     0.214 A 
ATOM     13  N   UNL A   1      31.279  25.810  26.486  1.00  0.00    -0.171 NA
ATOM     14  C   UNL A   1      31.999  27.896  27.001  1.00  0.00     0.065 C 
ATOM     15  N   UNL A   1      30.675  23.972  23.523  1.00  0.00    -0.123 NA
ATOM     16  N   UNL A   1      30.963  24.785  25.694  1.00  0.00    -0.169 N 
ATOM     17  N   UNL A   1      31.653  22.971  23.805  1.00  0.00    -0.147 NA
ATOM     18  C   UNL A   1      31.405  23.577  26.157  1.00  0.00     0.296 A 
ATOM     19  O   UNL A   1      31.456  23.175  27.300  1.00  0.00    -0.265 OA
BRANCH   9  20
ATOM     20  C   UNL A   1      31.441  27.961  23.539  1.00  0.00     0.325 C 
ATOM     21  O   UNL A   1      32.322  27.280  23.024  1.00  0.00    -0.250 OA
BRANCH  20  22
ATOM     22  O   UNL A   1      31.189  29.227  23.100  1.00  0.00    -0.468 OA
ATOM     23  C   UNL A   1      29.889  29.744  23.451  1.00  0.00     0.282 C 
ENDBRANCH  20  22
ENDBRANCH   9  20
ENDBRANCH   7   8
ENDBRANCH   6   7
ENDBRANCH   3   6
ENDBRANCH   1   2
BRANCH   1  24
ATOM     24  C   UNL A   1      37.745  19.883  24.945  1.00  0.00     0.042 C 
BRANCH  24  25
ATOM     25  C   UNL A   1      38.949  19.184  25.646  1.00  0.00     0.118 C 
BRANCH  25  26
ATOM     26  N   UNL A   1      40.085  20.144  25.832  1.00  0.00    -0.352 N 
ATOM     27  C   UNL A   1      40.616  20.600  27.043  1.00  0.00     0.251 C 
ATOM     28  H   UNL A   1      40.504  20.491  25.011  1.00  0.00     0.163 HD
ATOM     29  O   UNL A   1      40.796  19.861  28.000  1.00  0.00    -0.269 OA
BRANCH  27  30
ATOM     30  C   UNL A   1      40.865  22.100  27.156  1.00  0.00     0.039 A 
ATOM     31  C   UNL A   1      40.192  23.094  26.434  1.00  0.00     0.014 A 
ATOM     32  C   UNL A   1      41.816  22.530  28.083  1.00  0.00     0.014 A 
ATOM     33  C   UNL A   1      40.397  24.479  26.716  1.00  0.00     0.010 A 
ATOM     34  C   UNL A   1      41.932  23.887  28.445  1.00  0.00     0.010 A 
ATOM     35  C   UNL A   1      41.252  24.899  27.749  1.00  0.00    -0.014 A 
BRANCH  35  36
ATOM     36  C   UNL A   1      41.616  26.337  28.037  1.00  0.00     0.031 A 
ATOM     37  C   UNL A   1      43.021  26.806  27.689  1.00  0.00     0.074 A 
ATOM     38  C   UNL A   1      40.813  27.202  28.700  1.00  0.00     0.049 A 
ATOM     39  N   UNL A   1      43.618  27.947  27.940  1.00  0.00    -0.248 NA
ATOM     40  C   UNL A   1      43.884  25.823  27.017  1.00  0.00     0.031 C 
ATOM     41  C   UNL A   1      39.465  26.916  29.187  1.00  0.00     0.029 A 
ATOM     42  N   UNL A   1      41.034  28.505  29.108  1.00  0.00    -0.354 N 
ATOM     43  C   UNL A   1      44.924  27.804  27.475  1.00  0.00     0.074 A 
ATOM     44  C   UNL A   1      45.055  26.437  27.025  1.00  0.00     0.031 C 
ATOM     45  C   UNL A   1      38.985  28.001  29.827  1.00  0.00     0.029 A 
ATOM     46  C   UNL A   1      39.986  29.069  29.803  1.00  0.00     0.049 A 
ATOM     47  H   UNL A   1      41.872  28.988  28.919  1.00  0.00     0.167 HD
ATOM     48  C   UNL A   1      45.918  28.722  27.379  1.00  0.00     0.034 A 
ATOM     49  C   UNL A   1      39.833  30.299  30.346  1.00  0.00     0.034 A 
ATOM     50  C   UNL A   1      45.795  30.095  27.792  1.00  0.00     0.049 A 
ATOM     51  C   UNL A   1      40.934  31.328  30.220  1.00  0.00     0.074 A 
ATOM     52  C   UNL A   1      46.708  31.125  27.646  1.00  0.00     0.029 A 
ATOM     53  N   UNL A   1      44.691  30.631  28.438  1.00  0.00    -0.354 N 
ATOM     54  N   UNL A   1      42.126  31.198  29.687  1.00  0.00    -0.248 NA
ATOM     55  C   UNL A   1      40.661  32.675  30.747  1.00  0.00     0.031 C 
ATOM     56  C   UNL A   1      46.180  32.269  28.252  1.00  0.00     0.029 A 
ATOM     57  C   UNL A   1      44.911  31.970  28.720  1.00  0.00     0.049 A 
ATOM     58  H   UNL A   1      43.872  30.134  28.662  1.00  0.00     0.167 HD
ATOM     59  C   UNL A   1      42.731  32.451  29.790  1.00  0.00     0.074 A 
ATOM     60  C   UNL A   1      41.775  33.325  30.435  1.00  0.00     0.031 C 
ATOM     61  C   UNL A   1      43.964  32.839  29.374  1.00  0.00     0.034 A 
BRANCH  48  62
ATOM     62  C   UNL A   1      47.227  28.263  26.776  1.00  0.00     0.023 A 
ATOM     63  C   UNL A   1      47.386  28.151  25.383  1.00  0.00     0.031 A 
ATOM     64  C   UNL A   1      48.316  27.912  27.592  1.00  0.00     0.131 A 
ATOM     65  C   UNL A   1      48.567  27.617  24.851  1.00  0.00     0.055 A 
ATOM     66  C   UNL A   1      49.523  27.461  27.051  1.00  0.00     0.041 A 
ATOM     67  F   UNL A   1      48.222  27.987  28.929  1.00  0.00    -0.206 F 
ATOM     68  C   UNL A   1      49.649  27.295  25.674  1.00  0.00     0.022 A 
BRANCH  65  69
ATOM     69  S   UNL A   1      48.621  27.235  23.080  1.00  0.00     0.124 S 
ATOM     70  O   UNL A   1      49.990  27.615  22.740  1.00  0.00    -0.237 OA
ATOM     71  O   UNL A   1      48.332  25.805  23.055  1.00  0.00    -0.237 OA
ATOM     72  O   UNL A   1      47.581  28.092  22.513  1.00  0.00    -0.744 OA
ENDBRANCH  65  69
ENDBRANCH  48  62
BRANCH  49  73
ATOM     73  C   UNL A   1      38.553  30.661  31.027  1.00  0.00     0.023 A 
ATOM     74  C   UNL A   1      37.557  31.378  30.342  1.00  0.00     0.031 A 
ATOM     75  C   UNL A   1      38.300  30.291  32.359  1.00  0.00     0.131 A 
ATOM     76  C   UNL A   1      36.353  31.702  30.990  1.00  0.00     0.055 A 
ATOM     77  C   UNL A   1      37.092  30.596  32.992  1.00  0.00     0.041 A 
ATOM     78  F   UNL A   1      39.220  29.608  33.057  1.00  0.00    -0.206 F 
ATOM     79  C   UNL A   1      36.108  31.305  32.306  1.00  0.00     0.022 A 
BRANCH  76  80
ATOM     80  S   UNL A   1      35.097  32.644  30.078  1.00  0.00     0.124 S 
ATOM     81  O   UNL A   1      34.127  32.941  31.126  1.00  0.00    -0.237 OA
ATOM     82  O   UNL A   1      35.869  33.777  29.578  1.00  0.00    -0.237 OA
ATOM     83  O   UNL A   1      34.644  31.705  29.054  1.00  0.00    -0.744 OA
ENDBRANCH  76  80
ENDBRANCH  49  73
BRANCH  61  84
ATOM     84  C   UNL A   1      44.355  34.281  29.571  1.00  0.00     0.023 A 
ATOM     85  C   UNL A   1      45.072  34.701  30.703  1.00  0.00     0.031 A 
ATOM     86  C   UNL A   1      44.058  35.235  28.580  1.00  0.00     0.131 A 
ATOM     87  C   UNL A   1      45.447  36.047  30.832  1.00  0.00     0.055 A 
ATOM     88  C   UNL A   1      44.472  36.563  28.692  1.00  0.00     0.041 A 
ATOM     89  F   UNL A   1      43.382  34.884  27.475  1.00  0.00    -0.206 F 
ATOM     90  C   UNL A   1      45.167  36.977  29.826  1.00  0.00     0.022 A 
BRANCH  87  91
ATOM     91  S   UNL A   1      46.285  36.581  32.349  1.00  0.00     0.124 S 
ATOM     92  O   UNL A   1      45.867  37.976  32.449  1.00  0.00    -0.237 OA
ATOM     93  O   UNL A   1      45.730  35.676  33.350  1.00  0.00    -0.237 OA
ATOM     94  O   UNL A   1      47.701  36.378  32.050  1.00  0.00    -0.744 OA
ENDBRANCH  87  91
ENDBRANCH  61  84
ENDBRANCH  35  36
ENDBRANCH  27  30
ENDBRANCH  25  26
ENDBRANCH  24  25
ENDBRANCH   1  24
TORSDOF 17
ENDMDL
