MODEL 1
REMARK VINA RESULT:     -13.9      0.000      0.000
REMARK SMILES Cc1ccc(C(=O)NC2CC2)cc1NC(=O)[C@@H]1[C@@H](C(=O)NCCCNC(=O)c2ccc(-c3c4nc(c(-c5cc(S(=O)(=O)[O-])ccc5F)c5ccc([nH]5)c(-c5cc(S(=O)(=O)[O-])ccc5F)c5nc(c(-c6cc(S(=O)(=O)[O-])ccc6F)c6ccc3[nH]6)C=C5)C=C4)cc2)[C@H]2C=C[C@@H]1C2
REMARK SMILES IDX 22 1 21 2 19 3 20 4 18 6 17 7 94 8 91 9 93 10 95 11 92 12
REMARK SMILES IDX 15 13 14 14 16 16 13 17 1 18 2 19 3 20 4 21 12 22 5 23 6 24
REMARK SMILES IDX 7 25 8 26 9 28 10 29 11 30 23 31 24 32 25 33 26 34 27 36
REMARK SMILES IDX 28 37 29 38 90 39 30 40 89 41 31 42 32 43 33 44 83 45 34 46
REMARK SMILES IDX 88 47 82 48 84 49 35 50 87 51 81 52 80 53 36 55 68 56 48 57
REMARK SMILES IDX 67 58 49 59 52 60 66 61 85 62 50 63 51 64 65 66 86 67 53 68
REMARK SMILES IDX 37 69 38 70 46 71 39 72 45 73 47 74 44 75 40 76 41 77 42 78
REMARK SMILES IDX 43 79 69 80 70 81 78 82 71 83 77 84 79 85 76 86 72 87 73 88
REMARK SMILES IDX 74 89 75 90 54 91 55 92 63 93 56 94 62 95 64 96 61 97 57 98
REMARK SMILES IDX 58 99 59 100 60 101
REMARK H PARENT 21 5 14 15 8 27 25 35 84 54 52 65
REMARK Flexibility Score: inf
ROOT
ATOM      1  C   UNL A   1      32.622  29.420  25.740  1.00  0.00     0.117 C 
ENDROOT
BRANCH   1   2
ATOM      2  N   UNL A   1      33.440  28.217  25.705  1.00  0.00    -0.356 N 
ATOM      3  C   UNL A   1      33.174  26.910  25.485  1.00  0.00     0.224 C 
ATOM      4  O   UNL A   1      34.124  26.123  25.605  1.00  0.00    -0.275 OA
ATOM      5  H   UNL A   1      34.392  28.394  25.880  1.00  0.00     0.163 HD
BRANCH   3   6
ATOM      6  C   UNL A   1      31.788  26.334  25.195  1.00  0.00     0.098 C 
ATOM      7  C   UNL A   1      31.915  24.757  25.134  1.00  0.00     0.099 C 
ATOM      8  C   UNL A   1      31.101  24.388  23.865  1.00  0.00     0.025 C 
ATOM      9  C   UNL A   1      31.060  26.625  23.866  1.00  0.00     0.025 C 
ATOM     10  C   UNL A   1      31.896  24.840  22.666  1.00  0.00    -0.027 C 
ATOM     11  C   UNL A   1      30.034  25.484  23.851  1.00  0.00     0.017 C 
ATOM     12  C   UNL A   1      31.887  26.180  22.678  1.00  0.00    -0.027 C 
BRANCH   7  13
ATOM     13  C   UNL A   1      31.405  23.995  26.344  1.00  0.00     0.228 C 
ATOM     14  N   UNL A   1      31.764  22.683  26.562  1.00  0.00    -0.326 N 
ATOM     15  H   UNL A   1      31.343  22.284  27.357  1.00  0.00     0.169 HD
ATOM     16  O   UNL A   1      30.566  24.480  27.109  1.00  0.00    -0.274 OA
BRANCH  14  17
ATOM     17  C   UNL A   1      32.620  21.796  25.866  1.00  0.00     0.044 A 
ATOM     18  C   UNL A   1      34.693  22.975  26.853  1.00  0.00     0.046 C 
ATOM     19  C   UNL A   1      34.012  21.889  26.063  1.00  0.00    -0.027 A 
ATOM     20  C   UNL A   1      34.844  20.926  25.470  1.00  0.00     0.006 A 
ATOM     21  C   UNL A   1      34.313  19.891  24.700  1.00  0.00     0.014 A 
ATOM     22  C   UNL A   1      32.129  20.826  24.975  1.00  0.00     0.040 A 
ATOM     23  C   UNL A   1      32.940  19.827  24.428  1.00  0.00     0.041 A 
BRANCH  23  24
ATOM     24  C   UNL A   1      32.479  18.689  23.562  1.00  0.00     0.251 C 
ATOM     25  O   UNL A   1      32.238  18.921  22.374  1.00  0.00    -0.269 OA
ATOM     26  N   UNL A   1      32.340  17.385  23.989  1.00  0.00    -0.349 N 
ATOM     27  H   UNL A   1      32.044  16.761  23.288  1.00  0.00     0.164 HD
BRANCH  26  28
ATOM     28  C   UNL A   1      32.545  16.781  25.257  1.00  0.00     0.082 C 
ATOM     29  C   UNL A   1      32.631  15.284  25.371  1.00  0.00     0.027 C 
ATOM     30  C   UNL A   1      33.845  16.125  25.625  1.00  0.00     0.027 C 
ENDBRANCH  26  28
ENDBRANCH  23  24
ENDBRANCH  14  17
ENDBRANCH   7  13
ENDBRANCH   3   6
ENDBRANCH   1   2
BRANCH   1  31
ATOM     31  C   UNL A   1      32.950  30.298  26.936  1.00  0.00     0.042 C 
BRANCH  31  32
ATOM     32  C   UNL A   1      34.183  29.802  27.679  1.00  0.00     0.118 C 
BRANCH  32  33
ATOM     33  N   UNL A   1      34.851  30.837  28.471  1.00  0.00    -0.352 N 
ATOM     34  C   UNL A   1      36.057  30.770  29.152  1.00  0.00     0.251 C 
ATOM     35  H   UNL A   1      34.378  31.699  28.528  1.00  0.00     0.163 HD
ATOM     36  O   UNL A   1      36.479  31.714  29.801  1.00  0.00    -0.269 OA
BRANCH  34  37
ATOM     37  C   UNL A   1      36.896  29.564  28.967  1.00  0.00     0.039 A 
ATOM     38  C   UNL A   1      37.302  28.879  30.118  1.00  0.00     0.014 A 
ATOM     39  C   UNL A   1      37.487  29.299  27.736  1.00  0.00     0.014 A 
ATOM     40  C   UNL A   1      38.468  28.123  30.079  1.00  0.00     0.010 A 
ATOM     41  C   UNL A   1      38.702  28.644  27.720  1.00  0.00     0.010 A 
ATOM     42  C   UNL A   1      39.223  28.110  28.903  1.00  0.00    -0.014 A 
BRANCH  42  43
ATOM     43  C   UNL A   1      40.618  27.688  28.873  1.00  0.00     0.031 A 
ATOM     44  C   UNL A   1      40.991  26.352  28.374  1.00  0.00     0.074 A 
ATOM     45  C   UNL A   1      41.588  28.516  29.323  1.00  0.00     0.049 A 
ATOM     46  N   UNL A   1      41.966  25.653  28.852  1.00  0.00    -0.248 NA
ATOM     47  C   UNL A   1      40.259  25.676  27.308  1.00  0.00     0.031 C 
ATOM     48  C   UNL A   1      43.032  28.325  29.220  1.00  0.00     0.029 A 
ATOM     49  N   UNL A   1      41.440  29.599  30.186  1.00  0.00    -0.354 N 
ATOM     50  C   UNL A   1      42.162  24.590  28.005  1.00  0.00     0.074 A 
ATOM     51  C   UNL A   1      41.035  24.609  27.099  1.00  0.00     0.031 C 
ATOM     52  C   UNL A   1      43.633  29.066  30.165  1.00  0.00     0.029 A 
ATOM     53  C   UNL A   1      42.594  29.661  30.985  1.00  0.00     0.049 A 
ATOM     54  H   UNL A   1      40.668  30.208  30.230  1.00  0.00     0.167 HD
ATOM     55  C   UNL A   1      43.322  23.880  28.045  1.00  0.00     0.034 A 
ATOM     56  C   UNL A   1      42.513  29.585  32.345  1.00  0.00     0.034 A 
ATOM     57  C   UNL A   1      44.255  24.410  29.030  1.00  0.00     0.049 A 
ATOM     58  C   UNL A   1      43.237  28.390  32.924  1.00  0.00     0.074 A 
ATOM     59  C   UNL A   1      45.336  25.271  28.920  1.00  0.00     0.029 A 
ATOM     60  N   UNL A   1      43.962  24.316  30.386  1.00  0.00    -0.354 N 
ATOM     61  N   UNL A   1      43.663  27.381  32.215  1.00  0.00    -0.248 NA
ATOM     62  C   UNL A   1      43.513  28.225  34.347  1.00  0.00     0.031 C 
ATOM     63  C   UNL A   1      45.648  25.750  30.217  1.00  0.00     0.029 A 
ATOM     64  C   UNL A   1      44.785  25.153  31.119  1.00  0.00     0.049 A 
ATOM     65  H   UNL A   1      43.268  23.735  30.771  1.00  0.00     0.167 HD
ATOM     66  C   UNL A   1      44.208  26.433  33.044  1.00  0.00     0.074 A 
ATOM     67  C   UNL A   1      44.123  27.027  34.367  1.00  0.00     0.031 C 
ATOM     68  C   UNL A   1      44.663  25.234  32.568  1.00  0.00     0.034 A 
BRANCH  55  69
ATOM     69  C   UNL A   1      43.704  22.924  26.948  1.00  0.00     0.023 A 
ATOM     70  C   UNL A   1      43.132  21.637  26.908  1.00  0.00     0.031 A 
ATOM     71  C   UNL A   1      44.651  23.211  25.948  1.00  0.00     0.131 A 
ATOM     72  C   UNL A   1      43.574  20.674  25.983  1.00  0.00     0.055 A 
ATOM     73  C   UNL A   1      45.133  22.237  25.063  1.00  0.00     0.041 A 
ATOM     74  F   UNL A   1      45.136  24.453  25.786  1.00  0.00    -0.206 F 
ATOM     75  C   UNL A   1      44.603  20.953  25.089  1.00  0.00     0.022 A 
BRANCH  72  76
ATOM     76  S   UNL A   1      42.775  19.046  25.966  1.00  0.00     0.124 S 
ATOM     77  O   UNL A   1      41.491  19.335  25.334  1.00  0.00    -0.237 OA
ATOM     78  O   UNL A   1      43.714  18.250  25.184  1.00  0.00    -0.237 OA
ATOM     79  O   UNL A   1      42.697  18.692  27.383  1.00  0.00    -0.744 OA
ENDBRANCH  72  76
ENDBRANCH  55  69
BRANCH  56  80
ATOM     80  C   UNL A   1      41.272  30.205  32.893  1.00  0.00     0.023 A 
ATOM     81  C   UNL A   1      41.165  31.609  32.799  1.00  0.00     0.031 A 
ATOM     82  C   UNL A   1      40.098  29.471  33.104  1.00  0.00     0.131 A 
ATOM     83  C   UNL A   1      39.905  32.222  32.737  1.00  0.00     0.055 A 
ATOM     84  C   UNL A   1      38.843  30.099  33.119  1.00  0.00     0.041 A 
ATOM     85  F   UNL A   1      40.129  28.132  33.169  1.00  0.00    -0.206 F 
ATOM     86  C   UNL A   1      38.739  31.472  32.888  1.00  0.00     0.022 A 
BRANCH  83  87
ATOM     87  S   UNL A   1      39.824  33.941  32.158  1.00  0.00     0.124 S 
ATOM     88  O   UNL A   1      39.706  34.686  33.406  1.00  0.00    -0.237 OA
ATOM     89  O   UNL A   1      41.090  34.093  31.443  1.00  0.00    -0.237 OA
ATOM     90  O   UNL A   1      38.647  33.967  31.293  1.00  0.00    -0.744 OA
ENDBRANCH  83  87
ENDBRANCH  56  80
BRANCH  68  91
ATOM     91  C   UNL A   1      45.111  24.056  33.408  1.00  0.00     0.023 A 
ATOM     92  C   UNL A   1      46.383  23.960  33.989  1.00  0.00     0.031 A 
ATOM     93  C   UNL A   1      44.215  23.003  33.719  1.00  0.00     0.131 A 
ATOM     94  C   UNL A   1      46.752  22.837  34.752  1.00  0.00     0.055 A 
ATOM     95  C   UNL A   1      44.556  21.929  34.548  1.00  0.00     0.041 A 
ATOM     96  F   UNL A   1      42.965  22.971  33.235  1.00  0.00    -0.206 F 
ATOM     97  C   UNL A   1      45.840  21.830  35.057  1.00  0.00     0.022 A 
BRANCH  94  98
ATOM     98  S   UNL A   1      48.481  22.685  35.276  1.00  0.00     0.124 S 
ATOM     99  O   UNL A   1      49.149  23.625  34.380  1.00  0.00    -0.237 OA
ATOM    100  O   UNL A   1      48.419  23.082  36.678  1.00  0.00    -0.237 OA
ATOM    101  O   UNL A   1      48.791  21.277  35.041  1.00  0.00    -0.744 OA
ENDBRANCH  94  98
ENDBRANCH  68  91
ENDBRANCH  42  43
ENDBRANCH  34  37
ENDBRANCH  32  33
ENDBRANCH  31  32
ENDBRANCH   1  31
TORSDOF 17
ENDMDL
MODEL 2
REMARK VINA RESULT:     -13.7      4.412     10.955
REMARK SMILES Cc1ccc(C(=O)NC2CC2)cc1NC(=O)[C@@H]1[C@@H](C(=O)NCCCNC(=O)c2ccc(-c3c4nc(c(-c5cc(S(=O)(=O)[O-])ccc5F)c5ccc([nH]5)c(-c5cc(S(=O)(=O)[O-])ccc5F)c5nc(c(-c6cc(S(=O)(=O)[O-])ccc6F)c6ccc3[nH]6)C=C5)C=C4)cc2)[C@H]2C=C[C@@H]1C2
REMARK SMILES IDX 22 1 21 2 19 3 20 4 18 6 17 7 94 8 91 9 93 10 95 11 92 12
REMARK SMILES IDX 15 13 14 14 16 16 13 17 1 18 2 19 3 20 4 21 12 22 5 23 6 24
REMARK SMILES IDX 7 25 8 26 9 28 10 29 11 30 23 31 24 32 25 33 26 34 27 36
REMARK SMILES IDX 28 37 29 38 90 39 30 40 89 41 31 42 32 43 33 44 83 45 34 46
REMARK SMILES IDX 88 47 82 48 84 49 35 50 87 51 81 52 80 53 36 55 68 56 48 57
REMARK SMILES IDX 67 58 49 59 52 60 66 61 85 62 50 63 51 64 65 66 86 67 53 68
REMARK SMILES IDX 37 69 38 70 46 71 39 72 45 73 47 74 44 75 40 76 41 77 42 78
REMARK SMILES IDX 43 79 69 80 70 81 78 82 71 83 77 84 79 85 76 86 72 87 73 88
REMARK SMILES IDX 74 89 75 90 54 91 55 92 63 93 56 94 62 95 64 96 61 97 57 98
REMARK SMILES IDX 58 99 59 100 60 101
REMARK H PARENT 21 5 14 15 8 27 25 35 84 54 52 65
REMARK Flexibility Score: inf
ROOT
ATOM      1  C   UNL A   1      35.993  22.317  25.854  1.00  0.00     0.117 C 
ENDROOT
BRANCH   1   2
ATOM      2  N   UNL A   1      35.383  23.626  26.023  1.00  0.00    -0.356 N 
ATOM      3  C   UNL A   1      34.411  24.298  25.367  1.00  0.00     0.224 C 
ATOM      4  O   UNL A   1      34.185  25.456  25.745  1.00  0.00    -0.275 OA
ATOM      5  H   UNL A   1      35.760  24.131  26.779  1.00  0.00     0.163 HD
BRANCH   3   6
ATOM      6  C   UNL A   1      33.650  23.771  24.150  1.00  0.00     0.098 C 
ATOM      7  C   UNL A   1      32.686  24.919  23.639  1.00  0.00     0.099 C 
ATOM      8  C   UNL A   1      31.348  24.172  23.396  1.00  0.00     0.025 C 
ATOM      9  C   UNL A   1      32.666  22.588  24.269  1.00  0.00     0.025 C 
ATOM     10  C   UNL A   1      30.771  23.817  24.744  1.00  0.00    -0.027 C 
ATOM     11  C   UNL A   1      31.839  22.781  22.991  1.00  0.00     0.017 C 
ATOM     12  C   UNL A   1      31.572  22.883  25.274  1.00  0.00    -0.027 C 
BRANCH   7  13
ATOM     13  C   UNL A   1      33.127  25.660  22.389  1.00  0.00     0.228 C 
ATOM     14  N   UNL A   1      32.639  26.914  22.097  1.00  0.00    -0.326 N 
ATOM     15  H   UNL A   1      32.968  27.278  21.243  1.00  0.00     0.169 HD
ATOM     16  O   UNL A   1      33.842  25.124  21.538  1.00  0.00    -0.274 OA
BRANCH  14  17
ATOM     17  C   UNL A   1      31.757  27.783  22.782  1.00  0.00     0.044 A 
ATOM     18  C   UNL A   1      33.643  28.462  24.408  1.00  0.00     0.046 C 
ATOM     19  C   UNL A   1      32.255  28.575  23.837  1.00  0.00    -0.027 A 
ATOM     20  C   UNL A   1      31.406  29.526  24.427  1.00  0.00     0.006 A 
ATOM     21  C   UNL A   1      30.093  29.692  23.984  1.00  0.00     0.014 A 
ATOM     22  C   UNL A   1      30.393  27.879  22.453  1.00  0.00     0.040 A 
ATOM     23  C   UNL A   1      29.556  28.861  22.992  1.00  0.00     0.041 A 
BRANCH  23  24
ATOM     24  C   UNL A   1      28.124  29.108  22.612  1.00  0.00     0.251 C 
ATOM     25  O   UNL A   1      27.263  28.343  23.058  1.00  0.00    -0.269 OA
ATOM     26  N   UNL A   1      27.689  30.155  21.828  1.00  0.00    -0.349 N 
ATOM     27  H   UNL A   1      26.715  30.178  21.691  1.00  0.00     0.164 HD
BRANCH  26  28
ATOM     28  C   UNL A   1      28.393  31.204  21.180  1.00  0.00     0.082 C 
ATOM     29  C   UNL A   1      27.679  32.478  20.821  1.00  0.00     0.027 C 
ATOM     30  C   UNL A   1      28.734  32.486  21.885  1.00  0.00     0.027 C 
ENDBRANCH  26  28
ENDBRANCH  23  24
ENDBRANCH  14  17
ENDBRANCH   7  13
ENDBRANCH   3   6
ENDBRANCH   1   2
BRANCH   1  31
ATOM     31  C   UNL A   1      37.448  22.416  25.426  1.00  0.00     0.042 C 
BRANCH  31  32
ATOM     32  C   UNL A   1      38.097  23.700  25.927  1.00  0.00     0.118 C 
BRANCH  32  33
ATOM     33  N   UNL A   1      39.520  23.558  26.242  1.00  0.00    -0.352 N 
ATOM     34  C   UNL A   1      40.374  24.469  26.844  1.00  0.00     0.251 C 
ATOM     35  H   UNL A   1      39.926  22.696  25.991  1.00  0.00     0.163 HD
ATOM     36  O   UNL A   1      41.556  24.220  27.019  1.00  0.00    -0.269 OA
BRANCH  34  37
ATOM     37  C   UNL A   1      39.789  25.712  27.398  1.00  0.00     0.039 A 
ATOM     38  C   UNL A   1      40.094  26.912  26.747  1.00  0.00     0.014 A 
ATOM     39  C   UNL A   1      39.210  25.716  28.662  1.00  0.00     0.014 A 
ATOM     40  C   UNL A   1      40.057  28.101  27.468  1.00  0.00     0.010 A 
ATOM     41  C   UNL A   1      39.279  26.874  29.411  1.00  0.00     0.010 A 
ATOM     42  C   UNL A   1      39.761  28.052  28.832  1.00  0.00    -0.014 A 
BRANCH  42  43
ATOM     43  C   UNL A   1      40.071  29.149  29.741  1.00  0.00     0.031 A 
ATOM     44  C   UNL A   1      39.053  30.161  30.075  1.00  0.00     0.074 A 
ATOM     45  C   UNL A   1      41.309  29.260  30.274  1.00  0.00     0.049 A 
ATOM     46  N   UNL A   1      39.320  31.406  30.285  1.00  0.00    -0.248 NA
ATOM     47  C   UNL A   1      37.630  29.849  30.163  1.00  0.00     0.031 C 
ATOM     48  C   UNL A   1      41.744  30.189  31.312  1.00  0.00     0.029 A 
ATOM     49  N   UNL A   1      42.489  28.696  29.794  1.00  0.00    -0.354 N 
ATOM     50  C   UNL A   1      38.184  31.990  30.791  1.00  0.00     0.074 A 
ATOM     51  C   UNL A   1      37.142  31.001  30.633  1.00  0.00     0.031 C 
ATOM     52  C   UNL A   1      43.076  30.335  31.230  1.00  0.00     0.029 A 
ATOM     53  C   UNL A   1      43.528  29.602  30.061  1.00  0.00     0.049 A 
ATOM     54  H   UNL A   1      42.577  27.823  29.348  1.00  0.00     0.167 HD
ATOM     55  C   UNL A   1      38.251  33.189  31.429  1.00  0.00     0.034 A 
ATOM     56  C   UNL A   1      44.296  30.108  29.054  1.00  0.00     0.034 A 
ATOM     57  C   UNL A   1      39.615  33.694  31.509  1.00  0.00     0.049 A 
ATOM     58  C   UNL A   1      44.196  31.611  28.920  1.00  0.00     0.074 A 
ATOM     59  C   UNL A   1      40.570  33.641  32.511  1.00  0.00     0.029 A 
ATOM     60  N   UNL A   1      40.277  34.091  30.353  1.00  0.00    -0.354 N 
ATOM     61  N   UNL A   1      43.282  32.337  29.502  1.00  0.00    -0.248 NA
ATOM     62  C   UNL A   1      45.101  32.410  28.100  1.00  0.00     0.031 C 
ATOM     63  C   UNL A   1      41.829  33.941  31.933  1.00  0.00     0.029 A 
ATOM     64  C   UNL A   1      41.634  34.215  30.590  1.00  0.00     0.049 A 
ATOM     65  H   UNL A   1      39.842  34.261  29.487  1.00  0.00     0.167 HD
ATOM     66  C   UNL A   1      43.423  33.648  29.121  1.00  0.00     0.074 A 
ATOM     67  C   UNL A   1      44.601  33.647  28.271  1.00  0.00     0.031 C 
ATOM     68  C   UNL A   1      42.543  34.615  29.524  1.00  0.00     0.034 A 
BRANCH  55  69
ATOM     69  C   UNL A   1      37.108  33.710  32.259  1.00  0.00     0.023 A 
ATOM     70  C   UNL A   1      35.987  34.285  31.627  1.00  0.00     0.031 A 
ATOM     71  C   UNL A   1      37.088  33.703  33.666  1.00  0.00     0.131 A 
ATOM     72  C   UNL A   1      34.971  34.907  32.374  1.00  0.00     0.055 A 
ATOM     73  C   UNL A   1      36.107  34.372  34.410  1.00  0.00     0.041 A 
ATOM     74  F   UNL A   1      38.017  33.036  34.369  1.00  0.00    -0.206 F 
ATOM     75  C   UNL A   1      35.047  34.992  33.761  1.00  0.00     0.022 A 
BRANCH  72  76
ATOM     76  S   UNL A   1      33.542  35.601  31.500  1.00  0.00     0.124 S 
ATOM     77  O   UNL A   1      33.805  35.217  30.117  1.00  0.00    -0.237 OA
ATOM     78  O   UNL A   1      32.425  34.930  32.154  1.00  0.00    -0.237 OA
ATOM     79  O   UNL A   1      33.643  37.035  31.771  1.00  0.00    -0.744 OA
ENDBRANCH  72  76
ENDBRANCH  55  69
BRANCH  56  80
ATOM     80  C   UNL A   1      44.505  29.143  27.937  1.00  0.00     0.023 A 
ATOM     81  C   UNL A   1      45.365  28.052  28.188  1.00  0.00     0.031 A 
ATOM     82  C   UNL A   1      43.621  29.044  26.856  1.00  0.00     0.131 A 
ATOM     83  C   UNL A   1      45.203  26.846  27.491  1.00  0.00     0.055 A 
ATOM     84  C   UNL A   1      43.516  27.861  26.110  1.00  0.00     0.041 A 
ATOM     85  F   UNL A   1      42.757  30.033  26.585  1.00  0.00    -0.206 F 
ATOM     86  C   UNL A   1      44.275  26.740  26.456  1.00  0.00     0.022 A 
BRANCH  83  87
ATOM     87  S   UNL A   1      46.003  25.361  28.163  1.00  0.00     0.124 S 
ATOM     88  O   UNL A   1      45.123  24.295  27.700  1.00  0.00    -0.237 OA
ATOM     89  O   UNL A   1      47.327  25.409  27.543  1.00  0.00    -0.237 OA
ATOM     90  O   UNL A   1      46.016  25.588  29.606  1.00  0.00    -0.744 OA
ENDBRANCH  83  87
ENDBRANCH  56  80
BRANCH  68  91
ATOM     91  C   UNL A   1      42.499  36.043  29.022  1.00  0.00     0.023 A 
ATOM     92  C   UNL A   1      43.144  37.109  29.665  1.00  0.00     0.031 A 
ATOM     93  C   UNL A   1      41.852  36.365  27.803  1.00  0.00     0.131 A 
ATOM     94  C   UNL A   1      43.062  38.420  29.161  1.00  0.00     0.055 A 
ATOM     95  C   UNL A   1      41.843  37.653  27.259  1.00  0.00     0.041 A 
ATOM     96  F   UNL A   1      41.201  35.440  27.082  1.00  0.00    -0.206 F 
ATOM     97  C   UNL A   1      42.436  38.698  27.948  1.00  0.00     0.022 A 
BRANCH  94  98
ATOM     98  S   UNL A   1      43.730  39.771  30.168  1.00  0.00     0.124 S 
ATOM     99  O   UNL A   1      44.648  40.416  29.233  1.00  0.00    -0.237 OA
ATOM    100  O   UNL A   1      42.533  40.532  30.506  1.00  0.00    -0.237 OA
ATOM    101  O   UNL A   1      44.368  39.084  31.288  1.00  0.00    -0.744 OA
ENDBRANCH  94  98
ENDBRANCH  68  91
ENDBRANCH  42  43
ENDBRANCH  34  37
ENDBRANCH  32  33
ENDBRANCH  31  32
ENDBRANCH   1  31
TORSDOF 17
ENDMDL
MODEL 3
REMARK VINA RESULT:     -13.6      4.043     10.696
REMARK SMILES Cc1ccc(C(=O)NC2CC2)cc1NC(=O)[C@@H]1[C@@H](C(=O)NCCCNC(=O)c2ccc(-c3c4nc(c(-c5cc(S(=O)(=O)[O-])ccc5F)c5ccc([nH]5)c(-c5cc(S(=O)(=O)[O-])ccc5F)c5nc(c(-c6cc(S(=O)(=O)[O-])ccc6F)c6ccc3[nH]6)C=C5)C=C4)cc2)[C@H]2C=C[C@@H]1C2
REMARK SMILES IDX 22 1 21 2 19 3 20 4 18 6 17 7 94 8 91 9 93 10 95 11 92 12
REMARK SMILES IDX 15 13 14 14 16 16 13 17 1 18 2 19 3 20 4 21 12 22 5 23 6 24
REMARK SMILES IDX 7 25 8 26 9 28 10 29 11 30 23 31 24 32 25 33 26 34 27 36
REMARK SMILES IDX 28 37 29 38 90 39 30 40 89 41 31 42 32 43 33 44 83 45 34 46
REMARK SMILES IDX 88 47 82 48 84 49 35 50 87 51 81 52 80 53 36 55 68 56 48 57
REMARK SMILES IDX 67 58 49 59 52 60 66 61 85 62 50 63 51 64 65 66 86 67 53 68
REMARK SMILES IDX 37 69 38 70 46 71 39 72 45 73 47 74 44 75 40 76 41 77 42 78
REMARK SMILES IDX 43 79 69 80 70 81 78 82 71 83 77 84 79 85 76 86 72 87 73 88
REMARK SMILES IDX 74 89 75 90 54 91 55 92 63 93 56 94 62 95 64 96 61 97 57 98
REMARK SMILES IDX 58 99 59 100 60 101
REMARK H PARENT 21 5 14 15 8 27 25 35 84 54 52 65
REMARK Flexibility Score: inf
ROOT
ATOM      1  C   UNL A   1      37.158  21.015  25.729  1.00  0.00     0.117 C 
ENDROOT
BRANCH   1   2
ATOM      2  N   UNL A   1      36.101  21.666  26.486  1.00  0.00    -0.356 N 
ATOM      3  C   UNL A   1      34.865  22.117  26.172  1.00  0.00     0.224 C 
ATOM      4  O   UNL A   1      34.244  22.702  27.071  1.00  0.00    -0.275 OA
ATOM      5  H   UNL A   1      36.336  21.810  27.430  1.00  0.00     0.163 HD
BRANCH   3   6
ATOM      6  C   UNL A   1      34.230  22.038  24.784  1.00  0.00     0.098 C 
ATOM      7  C   UNL A   1      33.581  23.446  24.460  1.00  0.00     0.099 C 
ATOM      8  C   UNL A   1      32.189  23.068  23.888  1.00  0.00     0.025 C 
ATOM      9  C   UNL A   1      33.046  21.091  24.495  1.00  0.00     0.025 C 
ATOM     10  C   UNL A   1      31.348  22.559  25.032  1.00  0.00    -0.027 C 
ATOM     11  C   UNL A   1      32.484  21.726  23.216  1.00  0.00     0.017 C 
ATOM     12  C   UNL A   1      31.873  21.386  25.408  1.00  0.00    -0.027 C 
BRANCH   7  13
ATOM     13  C   UNL A   1      34.343  24.330  23.489  1.00  0.00     0.228 C 
ATOM     14  N   UNL A   1      33.931  25.617  23.225  1.00  0.00    -0.326 N 
ATOM     15  H   UNL A   1      34.482  26.079  22.552  1.00  0.00     0.169 HD
ATOM     16  O   UNL A   1      35.284  23.894  22.819  1.00  0.00    -0.274 OA
BRANCH  14  17
ATOM     17  C   UNL A   1      32.871  26.406  23.731  1.00  0.00     0.044 A 
ATOM     18  C   UNL A   1      31.650  26.271  21.461  1.00  0.00     0.046 C 
ATOM     19  C   UNL A   1      31.750  26.655  22.913  1.00  0.00    -0.027 A 
ATOM     20  C   UNL A   1      30.648  27.330  23.464  1.00  0.00     0.006 A 
ATOM     21  C   UNL A   1      30.652  27.748  24.795  1.00  0.00     0.014 A 
ATOM     22  C   UNL A   1      32.898  26.960  25.023  1.00  0.00     0.040 A 
ATOM     23  C   UNL A   1      31.786  27.580  25.600  1.00  0.00     0.041 A 
BRANCH  23  24
ATOM     24  C   UNL A   1      31.692  28.095  27.009  1.00  0.00     0.251 C 
ATOM     25  O   UNL A   1      31.062  27.425  27.833  1.00  0.00    -0.269 OA
ATOM     26  N   UNL A   1      32.294  29.249  27.464  1.00  0.00    -0.349 N 
ATOM     27  H   UNL A   1      32.145  29.431  28.419  1.00  0.00     0.164 HD
BRANCH  26  28
ATOM     28  C   UNL A   1      33.087  30.223  26.802  1.00  0.00     0.082 C 
ATOM     29  C   UNL A   1      33.896  31.204  27.605  1.00  0.00     0.027 C 
ATOM     30  C   UNL A   1      34.587  30.153  26.792  1.00  0.00     0.027 C 
ENDBRANCH  26  28
ENDBRANCH  23  24
ENDBRANCH  14  17
ENDBRANCH   7  13
ENDBRANCH   3   6
ENDBRANCH   1   2
BRANCH   1  31
ATOM     31  C   UNL A   1      38.148  22.014  25.155  1.00  0.00     0.042 C 
BRANCH  31  32
ATOM     32  C   UNL A   1      38.604  23.021  26.203  1.00  0.00     0.118 C 
BRANCH  32  33
ATOM     33  N   UNL A   1      40.059  23.113  26.339  1.00  0.00    -0.352 N 
ATOM     34  C   UNL A   1      40.837  24.219  26.646  1.00  0.00     0.251 C 
ATOM     35  H   UNL A   1      40.553  22.274  26.193  1.00  0.00     0.163 HD
ATOM     36  O   UNL A   1      42.055  24.152  26.697  1.00  0.00    -0.269 OA
BRANCH  34  37
ATOM     37  C   UNL A   1      40.147  25.468  27.043  1.00  0.00     0.039 A 
ATOM     38  C   UNL A   1      40.565  26.656  26.434  1.00  0.00     0.014 A 
ATOM     39  C   UNL A   1      39.333  25.495  28.170  1.00  0.00     0.014 A 
ATOM     40  C   UNL A   1      40.380  27.861  27.104  1.00  0.00     0.010 A 
ATOM     41  C   UNL A   1      39.246  26.670  28.888  1.00  0.00     0.010 A 
ATOM     42  C   UNL A   1      39.824  27.840  28.386  1.00  0.00    -0.014 A 
BRANCH  42  43
ATOM     43  C   UNL A   1      39.944  28.962  29.309  1.00  0.00     0.031 A 
ATOM     44  C   UNL A   1      38.883  29.982  29.398  1.00  0.00     0.074 A 
ATOM     45  C   UNL A   1      41.044  29.089  30.085  1.00  0.00     0.049 A 
ATOM     46  N   UNL A   1      39.106  31.232  29.626  1.00  0.00    -0.248 NA
ATOM     47  C   UNL A   1      37.471  29.671  29.196  1.00  0.00     0.031 C 
ATOM     48  C   UNL A   1      41.258  30.045  31.166  1.00  0.00     0.029 A 
ATOM     49  N   UNL A   1      42.295  28.513  29.876  1.00  0.00    -0.354 N 
ATOM     50  C   UNL A   1      37.893  31.828  29.869  1.00  0.00     0.074 A 
ATOM     51  C   UNL A   1      36.902  30.834  29.524  1.00  0.00     0.031 C 
ATOM     52  C   UNL A   1      42.579  30.190  31.359  1.00  0.00     0.029 A 
ATOM     53  C   UNL A   1      43.260  29.427  30.329  1.00  0.00     0.049 A 
ATOM     54  H   UNL A   1      42.470  27.628  29.482  1.00  0.00     0.167 HD
ATOM     55  C   UNL A   1      37.830  33.044  30.475  1.00  0.00     0.034 A 
ATOM     56  C   UNL A   1      44.223  29.906  29.491  1.00  0.00     0.034 A 
ATOM     57  C   UNL A   1      39.151  33.553  30.823  1.00  0.00     0.049 A 
ATOM     58  C   UNL A   1      44.161  31.405  29.299  1.00  0.00     0.074 A 
ATOM     59  C   UNL A   1      39.877  33.527  32.003  1.00  0.00     0.029 A 
ATOM     60  N   UNL A   1      40.041  33.919  29.820  1.00  0.00    -0.354 N 
ATOM     61  N   UNL A   1      43.149  32.146  29.658  1.00  0.00    -0.248 NA
ATOM     62  C   UNL A   1      45.220  32.183  28.664  1.00  0.00     0.031 C 
ATOM     63  C   UNL A   1      41.229  33.813  31.691  1.00  0.00     0.029 A 
ATOM     64  C   UNL A   1      41.319  34.050  30.331  1.00  0.00     0.049 A 
ATOM     65  H   UNL A   1      39.795  34.065  28.878  1.00  0.00     0.167 HD
ATOM     66  C   UNL A   1      43.371  33.446  29.281  1.00  0.00     0.074 A 
ATOM     67  C   UNL A   1      44.700  33.423  28.695  1.00  0.00     0.031 C 
ATOM     68  C   UNL A   1      42.431  34.423  29.466  1.00  0.00     0.034 A 
BRANCH  55  69
ATOM     69  C   UNL A   1      36.543  33.586  31.034  1.00  0.00     0.023 A 
ATOM     70  C   UNL A   1      35.596  34.175  30.173  1.00  0.00     0.031 A 
ATOM     71  C   UNL A   1      36.216  33.586  32.403  1.00  0.00     0.131 A 
ATOM     72  C   UNL A   1      34.452  34.816  30.680  1.00  0.00     0.055 A 
ATOM     73  C   UNL A   1      35.108  34.272  32.915  1.00  0.00     0.041 A 
ATOM     74  F   UNL A   1      36.959  32.908  33.293  1.00  0.00    -0.206 F 
ATOM     75  C   UNL A   1      34.225  34.906  32.050  1.00  0.00     0.022 A 
BRANCH  72  76
ATOM     76  S   UNL A   1      33.258  35.528  29.515  1.00  0.00     0.124 S 
ATOM     77  O   UNL A   1      32.517  34.352  29.069  1.00  0.00    -0.237 OA
ATOM     78  O   UNL A   1      32.529  36.469  30.357  1.00  0.00    -0.237 OA
ATOM     79  O   UNL A   1      34.107  36.144  28.495  1.00  0.00    -0.744 OA
ENDBRANCH  72  76
ENDBRANCH  55  69
BRANCH  56  80
ATOM     80  C   UNL A   1      44.656  28.912  28.467  1.00  0.00     0.023 A 
ATOM     81  C   UNL A   1      45.470  27.849  28.914  1.00  0.00     0.031 A 
ATOM     82  C   UNL A   1      43.993  28.759  27.243  1.00  0.00     0.131 A 
ATOM     83  C   UNL A   1      45.463  26.619  28.242  1.00  0.00     0.055 A 
ATOM     84  C   UNL A   1      44.051  27.551  26.533  1.00  0.00     0.041 A 
ATOM     85  F   UNL A   1      43.179  29.719  26.780  1.00  0.00    -0.206 F 
ATOM     86  C   UNL A   1      44.749  26.459  27.054  1.00  0.00     0.022 A 
BRANCH  83  87
ATOM     87  S   UNL A   1      46.146  25.174  29.104  1.00  0.00     0.124 S 
ATOM     88  O   UNL A   1      46.475  25.719  30.416  1.00  0.00    -0.237 OA
ATOM     89  O   UNL A   1      45.030  24.230  29.068  1.00  0.00    -0.237 OA
ATOM     90  O   UNL A   1      47.286  24.777  28.281  1.00  0.00    -0.744 OA
ENDBRANCH  83  87
ENDBRANCH  56  80
BRANCH  68  91
ATOM     91  C   UNL A   1      42.500  35.837  28.929  1.00  0.00     0.023 A 
ATOM     92  C   UNL A   1      43.301  36.840  29.491  1.00  0.00     0.031 A 
ATOM     93  C   UNL A   1      41.798  36.201  27.752  1.00  0.00     0.131 A 
ATOM     94  C   UNL A   1      43.318  38.142  28.957  1.00  0.00     0.055 A 
ATOM     95  C   UNL A   1      41.883  37.472  27.174  1.00  0.00     0.041 A 
ATOM     96  F   UNL A   1      41.000  35.336  27.109  1.00  0.00    -0.206 F 
ATOM     97  C   UNL A   1      42.633  38.461  27.788  1.00  0.00     0.022 A 
BRANCH  94  98
ATOM     98  S   UNL A   1      44.200  39.434  29.874  1.00  0.00     0.124 S 
ATOM     99  O   UNL A   1      45.295  38.679  30.476  1.00  0.00    -0.237 OA
ATOM    100  O   UNL A   1      44.579  40.365  28.816  1.00  0.00    -0.237 OA
ATOM    101  O   UNL A   1      43.201  39.934  30.815  1.00  0.00    -0.744 OA
ENDBRANCH  94  98
ENDBRANCH  68  91
ENDBRANCH  42  43
ENDBRANCH  34  37
ENDBRANCH  32  33
ENDBRANCH  31  32
ENDBRANCH   1  31
TORSDOF 17
ENDMDL
