MODEL 1
REMARK VINA RESULT:     -13.5      0.000      0.000
REMARK SMILES O=C(NCCCNC(=O)c1ccc2c(c1)C(=O)O[C@H]2c1ccc(F)cc1)c1ccc(-c2c3nc(c(-c4cc(S(=O)(=O)[O-])ccc4F)c4ccc([nH]4)c(-c4cc(S(=O)(=O)[O-])ccc4F)c4nc(c(-c5cc(S(=O)(=O)[O-])ccc5F)c5ccc2[nH]5)C=C4)C=C3)cc1
REMARK SMILES IDX 4 1 3 2 1 3 2 4 27 6 28 7 89 8 29 9 88 10 30 11 31 12 32 13
REMARK SMILES IDX 82 14 33 15 87 16 81 17 83 18 34 19 86 20 80 21 79 22 35 24
REMARK SMILES IDX 67 25 47 26 66 27 48 28 51 29 65 30 84 31 49 32 50 33 64 35
REMARK SMILES IDX 85 36 52 37 36 38 37 39 45 40 38 41 44 42 46 43 43 44 39 45
REMARK SMILES IDX 40 46 41 47 42 48 68 49 69 50 77 51 70 52 76 53 78 54 75 55
REMARK SMILES IDX 71 56 72 57 73 58 74 59 53 60 54 61 62 62 55 63 61 64 63 65
REMARK SMILES IDX 60 66 56 67 57 68 58 69 59 70 5 71 6 72 7 73 8 74 9 76 10 77
REMARK SMILES IDX 11 78 15 79 12 80 14 81 13 82 16 83 19 84 17 85 18 86 20 87
REMARK SMILES IDX 21 88 26 89 22 90 25 91 23 92 24 93
REMARK H PARENT 3 5 83 23 51 34 7 75
REMARK Flexibility Score: inf
ROOT
ATOM      1  C   UNL A   1      37.029  21.980  24.375  1.00  0.00     0.118 C 
ENDROOT
BRANCH   1   2
ATOM      2  N   UNL A   1      37.727  20.859  24.994  1.00  0.00    -0.352 N 
ATOM      3  O   UNL A   1      39.360  19.763  26.087  1.00  0.00    -0.269 OA
ATOM      4  C   UNL A   1      38.838  20.838  25.804  1.00  0.00     0.251 C 
ATOM      5  H   UNL A   1      37.339  19.975  24.801  1.00  0.00     0.163 HD
BRANCH   4   6
ATOM      6  C   UNL A   1      39.419  22.102  26.306  1.00  0.00     0.039 A 
ATOM      7  C   UNL A   1      38.820  23.326  26.014  1.00  0.00     0.014 A 
ATOM      8  C   UNL A   1      40.585  22.065  27.078  1.00  0.00     0.014 A 
ATOM      9  C   UNL A   1      39.485  24.509  26.311  1.00  0.00     0.010 A 
ATOM     10  C   UNL A   1      41.190  23.260  27.481  1.00  0.00     0.010 A 
ATOM     11  C   UNL A   1      40.671  24.494  27.062  1.00  0.00    -0.014 A 
BRANCH  11  12
ATOM     12  C   UNL A   1      41.321  25.784  27.414  1.00  0.00     0.031 A 
ATOM     13  C   UNL A   1      42.690  26.134  26.887  1.00  0.00     0.074 A 
ATOM     14  C   UNL A   1      40.639  26.672  28.167  1.00  0.00     0.049 A 
ATOM     15  N   UNL A   1      43.394  27.216  27.094  1.00  0.00    -0.248 NA
ATOM     16  C   UNL A   1      43.356  25.144  26.024  1.00  0.00     0.031 C 
ATOM     17  C   UNL A   1      39.300  26.450  28.723  1.00  0.00     0.029 A 
ATOM     18  N   UNL A   1      40.954  27.943  28.575  1.00  0.00    -0.354 N 
ATOM     19  C   UNL A   1      44.586  27.037  26.400  1.00  0.00     0.074 A 
ATOM     20  C   UNL A   1      44.525  25.727  25.790  1.00  0.00     0.031 C 
ATOM     21  C   UNL A   1      38.888  27.565  29.343  1.00  0.00     0.029 A 
ATOM     22  C   UNL A   1      39.960  28.551  29.308  1.00  0.00     0.049 A 
ATOM     23  H   UNL A   1      41.811  28.380  28.364  1.00  0.00     0.167 HD
ATOM     24  C   UNL A   1      45.627  27.894  26.276  1.00  0.00     0.034 A 
ATOM     25  C   UNL A   1      39.920  29.755  29.911  1.00  0.00     0.034 A 
ATOM     26  C   UNL A   1      45.667  29.207  26.868  1.00  0.00     0.049 A 
ATOM     27  C   UNL A   1      41.120  30.656  29.811  1.00  0.00     0.074 A 
ATOM     28  C   UNL A   1      46.665  30.161  26.769  1.00  0.00     0.029 A 
ATOM     29  N   UNL A   1      44.672  29.753  27.666  1.00  0.00    -0.354 N 
ATOM     30  N   UNL A   1      42.239  30.461  29.154  1.00  0.00    -0.248 NA
ATOM     31  C   UNL A   1      41.060  31.929  30.540  1.00  0.00     0.031 C 
ATOM     32  C   UNL A   1      46.306  31.253  27.561  1.00  0.00     0.029 A 
ATOM     33  C   UNL A   1      45.052  31.013  28.097  1.00  0.00     0.049 A 
ATOM     34  H   UNL A   1      43.823  29.309  27.894  1.00  0.00     0.167 HD
ATOM     35  C   UNL A   1      43.014  31.591  29.386  1.00  0.00     0.074 A 
ATOM     36  C   UNL A   1      42.229  32.472  30.227  1.00  0.00     0.031 C 
ATOM     37  C   UNL A   1      44.264  31.873  28.945  1.00  0.00     0.034 A 
BRANCH  24  38
ATOM     38  C   UNL A   1      46.831  27.450  25.486  1.00  0.00     0.023 A 
ATOM     39  C   UNL A   1      46.995  27.799  24.137  1.00  0.00     0.031 A 
ATOM     40  C   UNL A   1      47.867  26.741  26.121  1.00  0.00     0.131 A 
ATOM     41  C   UNL A   1      48.165  27.427  23.458  1.00  0.00     0.055 A 
ATOM     42  C   UNL A   1      49.051  26.420  25.456  1.00  0.00     0.041 A 
ATOM     43  F   UNL A   1      47.754  26.374  27.407  1.00  0.00    -0.206 F 
ATOM     44  C   UNL A   1      49.204  26.762  24.115  1.00  0.00     0.022 A 
BRANCH  41  45
ATOM     45  S   UNL A   1      48.299  27.791  21.687  1.00  0.00     0.124 S 
ATOM     46  O   UNL A   1      48.622  26.475  21.139  1.00  0.00    -0.237 OA
ATOM     47  O   UNL A   1      46.972  28.304  21.365  1.00  0.00    -0.237 OA
ATOM     48  O   UNL A   1      49.380  28.772  21.618  1.00  0.00    -0.744 OA
ENDBRANCH  41  45
ENDBRANCH  24  38
BRANCH  25  49
ATOM     49  C   UNL A   1      38.725  30.152  30.707  1.00  0.00     0.023 A 
ATOM     50  C   UNL A   1      37.692  30.911  30.138  1.00  0.00     0.031 A 
ATOM     51  C   UNL A   1      38.608  29.785  32.061  1.00  0.00     0.131 A 
ATOM     52  C   UNL A   1      36.599  31.304  30.927  1.00  0.00     0.055 A 
ATOM     53  C   UNL A   1      37.495  30.134  32.827  1.00  0.00     0.041 A 
ATOM     54  F   UNL A   1      39.567  29.056  32.652  1.00  0.00    -0.206 F 
ATOM     55  C   UNL A   1      36.487  30.907  32.262  1.00  0.00     0.022 A 
BRANCH  52  56
ATOM     56  S   UNL A   1      35.347  32.392  30.196  1.00  0.00     0.124 S 
ATOM     57  O   UNL A   1      34.874  31.589  29.074  1.00  0.00    -0.237 OA
ATOM     58  O   UNL A   1      34.410  32.564  31.303  1.00  0.00    -0.237 OA
ATOM     59  O   UNL A   1      36.105  33.587  29.834  1.00  0.00    -0.744 OA
ENDBRANCH  52  56
ENDBRANCH  25  49
BRANCH  37  60
ATOM     60  C   UNL A   1      44.864  33.191  29.349  1.00  0.00     0.023 A 
ATOM     61  C   UNL A   1      44.654  34.350  28.587  1.00  0.00     0.031 A 
ATOM     62  C   UNL A   1      45.597  33.299  30.544  1.00  0.00     0.131 A 
ATOM     63  C   UNL A   1      45.188  35.573  29.018  1.00  0.00     0.055 A 
ATOM     64  C   UNL A   1      46.087  34.526  30.992  1.00  0.00     0.041 A 
ATOM     65  F   UNL A   1      45.821  32.219  31.309  1.00  0.00    -0.206 F 
ATOM     66  C   UNL A   1      45.886  35.671  30.226  1.00  0.00     0.022 A 
BRANCH  63  67
ATOM     67  S   UNL A   1      44.975  37.036  27.970  1.00  0.00     0.124 S 
ATOM     68  O   UNL A   1      45.770  36.685  26.797  1.00  0.00    -0.237 OA
ATOM     69  O   UNL A   1      43.529  37.075  27.771  1.00  0.00    -0.237 OA
ATOM     70  O   UNL A   1      45.516  38.123  28.784  1.00  0.00    -0.744 OA
ENDBRANCH  63  67
ENDBRANCH  37  60
ENDBRANCH  11  12
ENDBRANCH   4   6
ENDBRANCH   1   2
BRANCH   1  71
ATOM     71  C   UNL A   1      35.568  22.070  24.781  1.00  0.00     0.042 C 
BRANCH  71  72
ATOM     72  C   UNL A   1      35.045  20.826  25.478  1.00  0.00     0.118 C 
BRANCH  72  73
ATOM     73  N   UNL A   1      34.220  20.003  24.602  1.00  0.00    -0.352 N 
ATOM     74  C   UNL A   1      32.944  20.198  24.144  1.00  0.00     0.251 C 
ATOM     75  H   UNL A   1      34.648  19.173  24.290  1.00  0.00     0.163 HD
ATOM     76  O   UNL A   1      32.352  19.294  23.563  1.00  0.00    -0.269 OA
BRANCH  74  77
ATOM     77  C   UNL A   1      32.269  21.497  24.336  1.00  0.00     0.040 A 
ATOM     78  C   UNL A   1      32.367  22.467  23.318  1.00  0.00     0.014 A 
ATOM     79  C   UNL A   1      31.609  21.787  25.532  1.00  0.00     0.030 A 
ATOM     80  C   UNL A   1      31.775  23.725  23.474  1.00  0.00     0.009 A 
ATOM     81  C   UNL A   1      30.991  23.015  25.631  1.00  0.00     0.068 A 
ATOM     82  C   UNL A   1      31.086  23.978  24.650  1.00  0.00     0.012 A 
ATOM     83  C   UNL A   1      30.204  23.534  26.738  1.00  0.00     0.339 C 
ATOM     84  C   UNL A   1      30.442  25.221  25.148  1.00  0.00     0.238 C 
ATOM     85  O   UNL A   1      29.921  22.940  27.760  1.00  0.00    -0.246 OA
ATOM     86  O   UNL A   1      29.859  24.811  26.409  1.00  0.00    -0.449 OA
BRANCH  84  87
ATOM     87  C   UNL A   1      31.428  26.342  25.414  1.00  0.00    -0.003 A 
ATOM     88  C   UNL A   1      32.702  26.077  25.958  1.00  0.00     0.011 A 
ATOM     89  C   UNL A   1      31.091  27.668  25.106  1.00  0.00     0.011 A 
ATOM     90  C   UNL A   1      33.618  27.105  26.168  1.00  0.00     0.039 A 
ATOM     91  C   UNL A   1      32.008  28.699  25.323  1.00  0.00     0.039 A 
ATOM     92  C   UNL A   1      33.263  28.407  25.848  1.00  0.00     0.123 A 
ATOM     93  F   UNL A   1      34.142  29.396  26.048  1.00  0.00    -0.207 F 
ENDBRANCH  84  87
ENDBRANCH  74  77
ENDBRANCH  72  73
ENDBRANCH  71  72
ENDBRANCH   1  71
TORSDOF 14
ENDMDL
MODEL 2
REMARK VINA RESULT:     -13.3      5.870      9.143
REMARK SMILES O=C(NCCCNC(=O)c1ccc2c(c1)C(=O)O[C@H]2c1ccc(F)cc1)c1ccc(-c2c3nc(c(-c4cc(S(=O)(=O)[O-])ccc4F)c4ccc([nH]4)c(-c4cc(S(=O)(=O)[O-])ccc4F)c4nc(c(-c5cc(S(=O)(=O)[O-])ccc5F)c5ccc2[nH]5)C=C4)C=C3)cc1
REMARK SMILES IDX 4 1 3 2 1 3 2 4 27 6 28 7 89 8 29 9 88 10 30 11 31 12 32 13
REMARK SMILES IDX 82 14 33 15 87 16 81 17 83 18 34 19 86 20 80 21 79 22 35 24
REMARK SMILES IDX 67 25 47 26 66 27 48 28 51 29 65 30 84 31 49 32 50 33 64 35
REMARK SMILES IDX 85 36 52 37 36 38 37 39 45 40 38 41 44 42 46 43 43 44 39 45
REMARK SMILES IDX 40 46 41 47 42 48 68 49 69 50 77 51 70 52 76 53 78 54 75 55
REMARK SMILES IDX 71 56 72 57 73 58 74 59 53 60 54 61 62 62 55 63 61 64 63 65
REMARK SMILES IDX 60 66 56 67 57 68 58 69 59 70 5 71 6 72 7 73 8 74 9 76 10 77
REMARK SMILES IDX 11 78 15 79 12 80 14 81 13 82 16 83 19 84 17 85 18 86 20 87
REMARK SMILES IDX 21 88 26 89 22 90 25 91 23 92 24 93
REMARK H PARENT 3 5 83 23 51 34 7 75
REMARK Flexibility Score: inf
ROOT
ATOM      1  C   UNL A   1      32.829  33.070  27.174  1.00  0.00     0.118 C 
ENDROOT
BRANCH   1   2
ATOM      2  N   UNL A   1      32.511  34.400  27.680  1.00  0.00    -0.352 N 
ATOM      3  O   UNL A   1      32.479  36.137  29.110  1.00  0.00    -0.269 OA
ATOM      4  C   UNL A   1      33.006  35.082  28.768  1.00  0.00     0.251 C 
ATOM      5  H   UNL A   1      31.833  34.888  27.159  1.00  0.00     0.163 HD
BRANCH   4   6
ATOM      6  C   UNL A   1      34.144  34.535  29.537  1.00  0.00     0.039 A 
ATOM      7  C   UNL A   1      35.445  34.626  29.044  1.00  0.00     0.014 A 
ATOM      8  C   UNL A   1      33.909  33.915  30.768  1.00  0.00     0.014 A 
ATOM      9  C   UNL A   1      36.471  33.928  29.670  1.00  0.00     0.010 A 
ATOM     10  C   UNL A   1      34.966  33.316  31.459  1.00  0.00     0.010 A 
ATOM     11  C   UNL A   1      36.250  33.276  30.894  1.00  0.00    -0.014 A 
BRANCH  11  12
ATOM     12  C   UNL A   1      37.388  32.593  31.565  1.00  0.00     0.031 A 
ATOM     13  C   UNL A   1      38.125  31.466  30.889  1.00  0.00     0.074 A 
ATOM     14  C   UNL A   1      37.794  33.039  32.772  1.00  0.00     0.049 A 
ATOM     15  N   UNL A   1      39.139  30.769  31.332  1.00  0.00    -0.248 NA
ATOM     16  C   UNL A   1      37.667  31.065  29.548  1.00  0.00     0.031 C 
ATOM     17  C   UNL A   1      37.165  34.134  33.520  1.00  0.00     0.029 A 
ATOM     18  N   UNL A   1      38.839  32.656  33.573  1.00  0.00    -0.354 N 
ATOM     19  C   UNL A   1      39.433  29.843  30.337  1.00  0.00     0.074 A 
ATOM     20  C   UNL A   1      38.472  30.045  29.275  1.00  0.00     0.031 C 
ATOM     21  C   UNL A   1      37.871  34.372  34.633  1.00  0.00     0.029 A 
ATOM     22  C   UNL A   1      38.949  33.395  34.729  1.00  0.00     0.049 A 
ATOM     23  H   UNL A   1      39.453  31.922  33.344  1.00  0.00     0.167 HD
ATOM     24  C   UNL A   1      40.424  28.920  30.310  1.00  0.00     0.034 A 
ATOM     25  C   UNL A   1      39.802  33.289  35.767  1.00  0.00     0.034 A 
ATOM     26  C   UNL A   1      41.393  28.744  31.361  1.00  0.00     0.049 A 
ATOM     27  C   UNL A   1      40.848  32.208  35.736  1.00  0.00     0.074 A 
ATOM     28  C   UNL A   1      42.455  27.857  31.407  1.00  0.00     0.029 A 
ATOM     29  N   UNL A   1      41.421  29.462  32.548  1.00  0.00    -0.354 N 
ATOM     30  N   UNL A   1      41.103  31.340  34.786  1.00  0.00    -0.248 NA
ATOM     31  C   UNL A   1      41.712  32.083  36.917  1.00  0.00     0.031 C 
ATOM     32  C   UNL A   1      43.083  27.992  32.648  1.00  0.00     0.029 A 
ATOM     33  C   UNL A   1      42.458  29.011  33.347  1.00  0.00     0.049 A 
ATOM     34  H   UNL A   1      40.796  30.184  32.787  1.00  0.00     0.167 HD
ATOM     35  C   UNL A   1      42.161  30.570  35.252  1.00  0.00     0.074 A 
ATOM     36  C   UNL A   1      42.511  31.087  36.560  1.00  0.00     0.031 C 
ATOM     37  C   UNL A   1      42.786  29.527  34.653  1.00  0.00     0.034 A 
BRANCH  24  38
ATOM     38  C   UNL A   1      40.518  28.005  29.117  1.00  0.00     0.023 A 
ATOM     39  C   UNL A   1      41.419  28.251  28.069  1.00  0.00     0.031 A 
ATOM     40  C   UNL A   1      39.755  26.823  29.075  1.00  0.00     0.131 A 
ATOM     41  C   UNL A   1      41.525  27.335  27.012  1.00  0.00     0.055 A 
ATOM     42  C   UNL A   1      39.904  25.890  28.047  1.00  0.00     0.041 A 
ATOM     43  F   UNL A   1      38.871  26.547  30.046  1.00  0.00    -0.206 F 
ATOM     44  C   UNL A   1      40.793  26.144  27.007  1.00  0.00     0.022 A 
BRANCH  41  45
ATOM     45  S   UNL A   1      42.611  27.736  25.617  1.00  0.00     0.124 S 
ATOM     46  O   UNL A   1      41.950  28.912  25.056  1.00  0.00    -0.237 OA
ATOM     47  O   UNL A   1      43.893  27.978  26.269  1.00  0.00    -0.237 OA
ATOM     48  O   UNL A   1      42.554  26.538  24.781  1.00  0.00    -0.744 OA
ENDBRANCH  41  45
ENDBRANCH  24  38
BRANCH  25  49
ATOM     49  C   UNL A   1      39.665  34.192  36.943  1.00  0.00     0.023 A 
ATOM     50  C   UNL A   1      39.110  33.737  38.148  1.00  0.00     0.031 A 
ATOM     51  C   UNL A   1      40.080  35.536  36.871  1.00  0.00     0.131 A 
ATOM     52  C   UNL A   1      38.958  34.625  39.225  1.00  0.00     0.055 A 
ATOM     53  C   UNL A   1      39.974  36.401  37.961  1.00  0.00     0.041 A 
ATOM     54  F   UNL A   1      40.621  36.019  35.742  1.00  0.00    -0.206 F 
ATOM     55  C   UNL A   1      39.400  35.948  39.144  1.00  0.00     0.022 A 
BRANCH  52  56
ATOM     56  S   UNL A   1      38.119  34.040  40.721  1.00  0.00     0.124 S 
ATOM     57  O   UNL A   1      39.192  33.322  41.400  1.00  0.00    -0.237 OA
ATOM     58  O   UNL A   1      37.692  35.291  41.340  1.00  0.00    -0.237 OA
ATOM     59  O   UNL A   1      37.039  33.205  40.201  1.00  0.00    -0.744 OA
ENDBRANCH  52  56
ENDBRANCH  25  49
BRANCH  37  60
ATOM     60  C   UNL A   1      43.920  28.876  35.395  1.00  0.00     0.023 A 
ATOM     61  C   UNL A   1      43.695  27.800  36.268  1.00  0.00     0.031 A 
ATOM     62  C   UNL A   1      45.243  29.294  35.175  1.00  0.00     0.131 A 
ATOM     63  C   UNL A   1      44.781  27.185  36.908  1.00  0.00     0.055 A 
ATOM     64  C   UNL A   1      46.324  28.649  35.778  1.00  0.00     0.041 A 
ATOM     65  F   UNL A   1      45.509  30.316  34.345  1.00  0.00    -0.206 F 
ATOM     66  C   UNL A   1      46.095  27.590  36.652  1.00  0.00     0.022 A 
BRANCH  63  67
ATOM     67  S   UNL A   1      44.454  25.856  38.095  1.00  0.00     0.124 S 
ATOM     68  O   UNL A   1      45.779  25.263  38.256  1.00  0.00    -0.237 OA
ATOM     69  O   UNL A   1      43.938  26.583  39.250  1.00  0.00    -0.237 OA
ATOM     70  O   UNL A   1      43.477  25.014  37.408  1.00  0.00    -0.744 OA
ENDBRANCH  63  67
ENDBRANCH  37  60
ENDBRANCH  11  12
ENDBRANCH   4   6
ENDBRANCH   1   2
BRANCH   1  71
ATOM     71  C   UNL A   1      31.595  32.230  26.891  1.00  0.00     0.042 C 
BRANCH  71  72
ATOM     72  C   UNL A   1      31.901  30.779  26.560  1.00  0.00     0.118 C 
BRANCH  72  73
ATOM     73  N   UNL A   1      33.233  30.378  26.995  1.00  0.00    -0.352 N 
ATOM     74  C   UNL A   1      33.885  29.180  26.865  1.00  0.00     0.251 C 
ATOM     75  H   UNL A   1      33.746  31.079  27.456  1.00  0.00     0.163 HD
ATOM     76  O   UNL A   1      34.936  28.982  27.466  1.00  0.00    -0.269 OA
BRANCH  74  77
ATOM     77  C   UNL A   1      33.336  28.119  25.997  1.00  0.00     0.040 A 
ATOM     78  C   UNL A   1      32.485  27.150  26.567  1.00  0.00     0.014 A 
ATOM     79  C   UNL A   1      33.710  28.033  24.654  1.00  0.00     0.030 A 
ATOM     80  C   UNL A   1      31.972  26.106  25.790  1.00  0.00     0.009 A 
ATOM     81  C   UNL A   1      33.145  27.025  23.904  1.00  0.00     0.068 A 
ATOM     82  C   UNL A   1      32.320  26.064  24.448  1.00  0.00     0.012 A 
ATOM     83  C   UNL A   1      33.328  26.752  22.487  1.00  0.00     0.339 C 
ATOM     84  C   UNL A   1      32.024  25.052  23.401  1.00  0.00     0.238 C 
ATOM     85  O   UNL A   1      33.989  27.411  21.709  1.00  0.00    -0.246 OA
ATOM     86  O   UNL A   1      32.625  25.618  22.212  1.00  0.00    -0.449 OA
BRANCH  84  87
ATOM     87  C   UNL A   1      32.665  23.704  23.672  1.00  0.00    -0.003 A 
ATOM     88  C   UNL A   1      34.059  23.585  23.853  1.00  0.00     0.011 A 
ATOM     89  C   UNL A   1      31.873  22.550  23.763  1.00  0.00     0.011 A 
ATOM     90  C   UNL A   1      34.640  22.351  24.136  1.00  0.00     0.039 A 
ATOM     91  C   UNL A   1      32.458  21.313  24.040  1.00  0.00     0.039 A 
ATOM     92  C   UNL A   1      33.834  21.226  24.228  1.00  0.00     0.123 A 
ATOM     93  F   UNL A   1      34.390  20.039  24.501  1.00  0.00    -0.207 F 
ENDBRANCH  84  87
ENDBRANCH  74  77
ENDBRANCH  72  73
ENDBRANCH  71  72
ENDBRANCH   1  71
TORSDOF 14
ENDMDL
MODEL 3
REMARK VINA RESULT:     -13.2      0.909      7.539
REMARK SMILES O=C(NCCCNC(=O)c1ccc2c(c1)C(=O)O[C@H]2c1ccc(F)cc1)c1ccc(-c2c3nc(c(-c4cc(S(=O)(=O)[O-])ccc4F)c4ccc([nH]4)c(-c4cc(S(=O)(=O)[O-])ccc4F)c4nc(c(-c5cc(S(=O)(=O)[O-])ccc5F)c5ccc2[nH]5)C=C4)C=C3)cc1
REMARK SMILES IDX 4 1 3 2 1 3 2 4 27 6 28 7 89 8 29 9 88 10 30 11 31 12 32 13
REMARK SMILES IDX 82 14 33 15 87 16 81 17 83 18 34 19 86 20 80 21 79 22 35 24
REMARK SMILES IDX 67 25 47 26 66 27 48 28 51 29 65 30 84 31 49 32 50 33 64 35
REMARK SMILES IDX 85 36 52 37 36 38 37 39 45 40 38 41 44 42 46 43 43 44 39 45
REMARK SMILES IDX 40 46 41 47 42 48 68 49 69 50 77 51 70 52 76 53 78 54 75 55
REMARK SMILES IDX 71 56 72 57 73 58 74 59 53 60 54 61 62 62 55 63 61 64 63 65
REMARK SMILES IDX 60 66 56 67 57 68 58 69 59 70 5 71 6 72 7 73 8 74 9 76 10 77
REMARK SMILES IDX 11 78 15 79 12 80 14 81 13 82 16 83 19 84 17 85 18 86 20 87
REMARK SMILES IDX 21 88 26 89 22 90 25 91 23 92 24 93
REMARK H PARENT 3 5 83 23 51 34 7 75
REMARK Flexibility Score: inf
ROOT
ATOM      1  C   UNL A   1      37.292  21.772  24.690  1.00  0.00     0.118 C 
ENDROOT
BRANCH   1   2
ATOM      2  N   UNL A   1      38.084  20.718  25.312  1.00  0.00    -0.352 N 
ATOM      3  O   UNL A   1      39.829  19.760  26.362  1.00  0.00    -0.269 OA
ATOM      4  C   UNL A   1      39.231  20.791  26.068  1.00  0.00     0.251 C 
ATOM      5  H   UNL A   1      37.742  19.805  25.168  1.00  0.00     0.163 HD
BRANCH   4   6
ATOM      6  C   UNL A   1      39.756  22.105  26.499  1.00  0.00     0.039 A 
ATOM      7  C   UNL A   1      39.123  23.285  26.116  1.00  0.00     0.014 A 
ATOM      8  C   UNL A   1      40.905  22.159  27.296  1.00  0.00     0.014 A 
ATOM      9  C   UNL A   1      39.740  24.508  26.349  1.00  0.00     0.010 A 
ATOM     10  C   UNL A   1      41.460  23.397  27.633  1.00  0.00     0.010 A 
ATOM     11  C   UNL A   1      40.909  24.583  27.124  1.00  0.00    -0.014 A 
BRANCH  11  12
ATOM     12  C   UNL A   1      41.506  25.916  27.405  1.00  0.00     0.031 A 
ATOM     13  C   UNL A   1      40.776  26.933  28.244  1.00  0.00     0.074 A 
ATOM     14  C   UNL A   1      42.747  26.182  26.946  1.00  0.00     0.049 A 
ATOM     15  N   UNL A   1      41.157  28.136  28.587  1.00  0.00    -0.248 NA
ATOM     16  C   UNL A   1      39.449  26.557  28.761  1.00  0.00     0.031 C 
ATOM     17  C   UNL A   1      43.557  25.269  26.133  1.00  0.00     0.029 A 
ATOM     18  N   UNL A   1      43.557  27.276  27.113  1.00  0.00    -0.354 N 
ATOM     19  C   UNL A   1      40.120  28.665  29.347  1.00  0.00     0.074 A 
ATOM     20  C   UNL A   1      39.077  27.664  29.392  1.00  0.00     0.031 C 
ATOM     21  C   UNL A   1      44.764  25.813  25.927  1.00  0.00     0.029 A 
ATOM     22  C   UNL A   1      44.790  27.147  26.514  1.00  0.00     0.049 A 
ATOM     23  H   UNL A   1      43.284  28.078  27.615  1.00  0.00     0.167 HD
ATOM     24  C   UNL A   1      40.053  29.871  29.961  1.00  0.00     0.034 A 
ATOM     25  C   UNL A   1      45.819  28.011  26.419  1.00  0.00     0.034 A 
ATOM     26  C   UNL A   1      41.109  30.851  29.931  1.00  0.00     0.049 A 
ATOM     27  C   UNL A   1      45.686  29.368  27.054  1.00  0.00     0.074 A 
ATOM     28  C   UNL A   1      41.146  32.088  30.552  1.00  0.00     0.029 A 
ATOM     29  N   UNL A   1      42.309  30.711  29.249  1.00  0.00    -0.354 N 
ATOM     30  N   UNL A   1      44.692  29.848  27.762  1.00  0.00    -0.248 NA
ATOM     31  C   UNL A   1      46.804  30.303  26.867  1.00  0.00     0.031 C 
ATOM     32  C   UNL A   1      42.336  32.723  30.189  1.00  0.00     0.029 A 
ATOM     33  C   UNL A   1      43.074  31.855  29.402  1.00  0.00     0.049 A 
ATOM     34  H   UNL A   1      42.575  29.917  28.731  1.00  0.00     0.167 HD
ATOM     35  C   UNL A   1      45.068  31.140  28.112  1.00  0.00     0.074 A 
ATOM     36  C   UNL A   1      46.386  31.358  27.554  1.00  0.00     0.031 C 
ATOM     37  C   UNL A   1      44.381  32.062  28.829  1.00  0.00     0.034 A 
BRANCH  24  38
ATOM     38  C   UNL A   1      38.795  30.226  30.709  1.00  0.00     0.023 A 
ATOM     39  C   UNL A   1      37.772  30.980  30.112  1.00  0.00     0.031 A 
ATOM     40  C   UNL A   1      38.582  29.725  32.007  1.00  0.00     0.131 A 
ATOM     41  C   UNL A   1      36.585  31.226  30.819  1.00  0.00     0.055 A 
ATOM     42  C   UNL A   1      37.379  29.929  32.684  1.00  0.00     0.041 A 
ATOM     43  F   UNL A   1      39.534  29.008  32.625  1.00  0.00    -0.206 F 
ATOM     44  C   UNL A   1      36.372  30.684  32.090  1.00  0.00     0.022 A 
BRANCH  41  45
ATOM     45  S   UNL A   1      35.331  32.299  30.069  1.00  0.00     0.124 S 
ATOM     46  O   UNL A   1      36.132  33.451  29.662  1.00  0.00    -0.237 OA
ATOM     47  O   UNL A   1      34.810  31.472  28.986  1.00  0.00    -0.237 OA
ATOM     48  O   UNL A   1      34.396  32.552  31.164  1.00  0.00    -0.744 OA
ENDBRANCH  41  45
ENDBRANCH  24  38
BRANCH  25  49
ATOM     49  C   UNL A   1      47.038  27.639  25.649  1.00  0.00     0.023 A 
ATOM     50  C   UNL A   1      47.143  27.913  24.277  1.00  0.00     0.031 A 
ATOM     51  C   UNL A   1      48.118  26.989  26.278  1.00  0.00     0.131 A 
ATOM     52  C   UNL A   1      48.289  27.513  23.572  1.00  0.00     0.055 A 
ATOM     53  C   UNL A   1      49.276  26.640  25.583  1.00  0.00     0.041 A 
ATOM     54  F   UNL A   1      48.069  26.708  27.589  1.00  0.00    -0.206 F 
ATOM     55  C   UNL A   1      49.362  26.893  24.218  1.00  0.00     0.022 A 
BRANCH  52  56
ATOM     56  S   UNL A   1      48.336  27.765  21.777  1.00  0.00     0.124 S 
ATOM     57  O   UNL A   1      48.555  26.407  21.293  1.00  0.00    -0.237 OA
ATOM     58  O   UNL A   1      47.019  28.338  21.515  1.00  0.00    -0.237 OA
ATOM     59  O   UNL A   1      49.459  28.683  21.593  1.00  0.00    -0.744 OA
ENDBRANCH  52  56
ENDBRANCH  25  49
BRANCH  37  60
ATOM     60  C   UNL A   1      45.041  33.392  29.064  1.00  0.00     0.023 A 
ATOM     61  C   UNL A   1      44.793  34.487  28.222  1.00  0.00     0.031 A 
ATOM     62  C   UNL A   1      45.874  33.583  30.180  1.00  0.00     0.131 A 
ATOM     63  C   UNL A   1      45.387  35.726  28.498  1.00  0.00     0.055 A 
ATOM     64  C   UNL A   1      46.427  34.829  30.476  1.00  0.00     0.041 A 
ATOM     65  F   UNL A   1      46.139  32.566  31.017  1.00  0.00    -0.206 F 
ATOM     66  C   UNL A   1      46.187  35.909  29.630  1.00  0.00     0.022 A 
BRANCH  63  67
ATOM     67  S   UNL A   1      45.118  37.099  27.345  1.00  0.00     0.124 S 
ATOM     68  O   UNL A   1      46.123  36.833  26.320  1.00  0.00    -0.237 OA
ATOM     69  O   UNL A   1      43.729  36.905  26.941  1.00  0.00    -0.237 OA
ATOM     70  O   UNL A   1      45.364  38.286  28.161  1.00  0.00    -0.744 OA
ENDBRANCH  63  67
ENDBRANCH  37  60
ENDBRANCH  11  12
ENDBRANCH   4   6
ENDBRANCH   1   2
BRANCH   1  71
ATOM     71  C   UNL A   1      35.837  21.384  24.487  1.00  0.00     0.042 C 
BRANCH  71  72
ATOM     72  C   UNL A   1      35.181  20.793  25.722  1.00  0.00     0.118 C 
BRANCH  72  73
ATOM     73  N   UNL A   1      34.215  19.752  25.395  1.00  0.00    -0.352 N 
ATOM     74  C   UNL A   1      32.904  19.847  25.010  1.00  0.00     0.251 C 
ATOM     75  H   UNL A   1      34.559  18.832  25.463  1.00  0.00     0.163 HD
ATOM     76  O   UNL A   1      32.201  18.843  24.960  1.00  0.00    -0.269 OA
BRANCH  74  77
ATOM     77  C   UNL A   1      32.324  21.155  24.642  1.00  0.00     0.040 A 
ATOM     78  C   UNL A   1      32.403  21.575  23.298  1.00  0.00     0.014 A 
ATOM     79  C   UNL A   1      31.774  21.991  25.616  1.00  0.00     0.030 A 
ATOM     80  C   UNL A   1      31.900  22.822  22.912  1.00  0.00     0.009 A 
ATOM     81  C   UNL A   1      31.240  23.188  25.194  1.00  0.00     0.068 A 
ATOM     82  C   UNL A   1      31.318  23.619  23.886  1.00  0.00     0.012 A 
ATOM     83  C   UNL A   1      30.572  24.202  25.993  1.00  0.00     0.339 C 
ATOM     84  C   UNL A   1      30.789  25.005  23.817  1.00  0.00     0.238 C 
ATOM     85  O   UNL A   1      30.332  24.136  27.182  1.00  0.00    -0.246 OA
ATOM     86  O   UNL A   1      30.280  25.235  25.153  1.00  0.00    -0.449 OA
BRANCH  84  87
ATOM     87  C   UNL A   1      31.857  26.041  23.523  1.00  0.00    -0.003 A 
ATOM     88  C   UNL A   1      32.202  26.373  22.196  1.00  0.00     0.011 A 
ATOM     89  C   UNL A   1      32.512  26.699  24.574  1.00  0.00     0.011 A 
ATOM     90  C   UNL A   1      33.159  27.350  21.929  1.00  0.00     0.039 A 
ATOM     91  C   UNL A   1      33.476  27.673  24.304  1.00  0.00     0.039 A 
ATOM     92  C   UNL A   1      33.787  27.992  22.986  1.00  0.00     0.123 A 
ATOM     93  F   UNL A   1      34.706  28.931  22.732  1.00  0.00    -0.207 F 
ENDBRANCH  84  87
ENDBRANCH  74  77
ENDBRANCH  72  73
ENDBRANCH  71  72
ENDBRANCH   1  71
TORSDOF 14
ENDMDL
