MODEL 1
REMARK VINA RESULT:     -12.6      0.000      0.000
REMARK SMILES O=C(NCCCNC(=O)c1ccc(-c2c3nc(c(-c4cc(S(=O)(=O)[O-])ccc4F)c4ccc([nH]4)c(-c4cc(S(=O)(=O)[O-])ccc4F)c4nc(c(-c5cc(S(=O)(=O)[O-])ccc5F)c5ccc2[nH]5)C=C4)C=C3)cc1)C1=Cc2cc(Cl)cc(Cl)c2O[C@@H]1C(F)(F)F
REMARK SMILES IDX 6 1 5 2 4 3 3 4 1 5 2 6 73 8 74 9 84 10 75 11 83 12 76 13
REMARK SMILES IDX 82 14 77 15 80 16 78 17 79 18 81 19 85 20 86 21 87 22 88 23
REMARK SMILES IDX 7 24 8 25 9 27 10 28 11 29 72 30 12 31 71 32 13 33 14 34
REMARK SMILES IDX 15 35 65 36 16 37 70 38 64 39 66 40 17 41 69 42 63 43 62 44
REMARK SMILES IDX 18 46 50 47 30 48 49 49 31 50 34 51 48 52 67 53 32 54 33 55
REMARK SMILES IDX 47 57 68 58 35 59 19 60 20 61 28 62 21 63 27 64 29 65 26 66
REMARK SMILES IDX 22 67 23 68 24 69 25 70 51 71 52 72 60 73 53 74 59 75 61 76
REMARK SMILES IDX 58 77 54 78 55 79 56 80 57 81 36 82 37 83 45 84 38 85 44 86
REMARK SMILES IDX 46 87 43 88 39 89 40 90 41 91 42 92
REMARK H PARENT 3 7 7 26 66 45 34 56
REMARK Flexibility Score: inf
ROOT
ATOM      1  C   UNL A   1      32.576  29.594  25.841  1.00  0.00     0.118 C 
ENDROOT
BRANCH   1   2
ATOM      2  C   UNL A   1      31.763  28.477  26.492  1.00  0.00     0.042 C 
BRANCH   2   3
ATOM      3  C   UNL A   1      32.487  27.135  26.495  1.00  0.00     0.118 C 
BRANCH   3   4
ATOM      4  N   UNL A   1      31.693  26.052  27.086  1.00  0.00    -0.352 N 
ATOM      5  O   UNL A   1      30.545  24.098  27.146  1.00  0.00    -0.270 OA
ATOM      6  C   UNL A   1      30.963  25.048  26.500  1.00  0.00     0.251 C 
ATOM      7  H   UNL A   1      31.682  26.043  28.070  1.00  0.00     0.163 HD
BRANCH   6   8
ATOM      8  C   UNL A   1      30.768  25.119  25.042  1.00  0.00     0.067 C 
ATOM      9  C   UNL A   1      29.765  25.876  24.581  1.00  0.00     0.025 C 
ATOM     10  C   UNL A   1      31.900  24.662  24.180  1.00  0.00     0.314 C 
ATOM     11  C   UNL A   1      30.216  26.827  23.557  1.00  0.00     0.020 A 
ATOM     12  O   UNL A   1      32.364  25.692  23.278  1.00  0.00    -0.474 OA
ATOM     13  C   UNL A   1      29.473  28.005  23.414  1.00  0.00     0.032 A 
ATOM     14  C   UNL A   1      31.535  26.768  23.062  1.00  0.00     0.146 A 
ATOM     15  C   UNL A   1      30.071  29.137  22.865  1.00  0.00     0.043 A 
ATOM     16  C   UNL A   1      32.110  27.912  22.490  1.00  0.00     0.085 A 
ATOM     17  Cl  UNL A   1      29.206  30.624  22.855  1.00  0.00    -0.084 Cl
ATOM     18  C   UNL A   1      31.388  29.103  22.416  1.00  0.00     0.045 A 
ATOM     19  Cl  UNL A   1      33.773  27.932  22.018  1.00  0.00    -0.080 Cl
BRANCH  10  20
ATOM     20  C   UNL A   1      31.510  23.395  23.401  1.00  0.00     0.429 C 
ATOM     21  F   UNL A   1      32.400  23.134  22.413  1.00  0.00    -0.167 F 
ATOM     22  F   UNL A   1      31.478  22.299  24.194  1.00  0.00    -0.167 F 
ATOM     23  F   UNL A   1      30.292  23.505  22.820  1.00  0.00    -0.167 F 
ENDBRANCH  10  20
ENDBRANCH   6   8
ENDBRANCH   3   4
ENDBRANCH   2   3
ENDBRANCH   1   2
BRANCH   1  24
ATOM     24  N   UNL A   1      32.258  30.933  26.323  1.00  0.00    -0.352 N 
ATOM     25  C   UNL A   1      32.978  31.788  27.138  1.00  0.00     0.251 C 
ATOM     26  H   UNL A   1      31.390  31.285  26.019  1.00  0.00     0.163 HD
ATOM     27  O   UNL A   1      32.482  32.853  27.463  1.00  0.00    -0.269 OA
BRANCH  25  28
ATOM     28  C   UNL A   1      34.313  31.392  27.660  1.00  0.00     0.039 A 
ATOM     29  C   UNL A   1      35.272  32.386  27.883  1.00  0.00     0.014 A 
ATOM     30  C   UNL A   1      34.620  30.065  27.960  1.00  0.00     0.014 A 
ATOM     31  C   UNL A   1      36.482  32.060  28.507  1.00  0.00     0.010 A 
ATOM     32  C   UNL A   1      35.763  29.766  28.693  1.00  0.00     0.010 A 
ATOM     33  C   UNL A   1      36.711  30.758  28.979  1.00  0.00    -0.014 A 
BRANCH  33  34
ATOM     34  C   UNL A   1      37.925  30.408  29.771  1.00  0.00     0.031 A 
ATOM     35  C   UNL A   1      38.958  29.471  29.193  1.00  0.00     0.074 A 
ATOM     36  C   UNL A   1      38.051  30.852  31.039  1.00  0.00     0.049 A 
ATOM     37  N   UNL A   1      40.008  28.941  29.763  1.00  0.00    -0.248 NA
ATOM     38  C   UNL A   1      38.748  29.032  27.804  1.00  0.00     0.031 C 
ATOM     39  C   UNL A   1      37.084  31.705  31.740  1.00  0.00     0.029 A 
ATOM     40  N   UNL A   1      39.036  30.644  31.973  1.00  0.00    -0.354 N 
ATOM     41  C   UNL A   1      40.561  28.081  28.819  1.00  0.00     0.074 A 
ATOM     42  C   UNL A   1      39.686  28.108  27.668  1.00  0.00     0.031 C 
ATOM     43  C   UNL A   1      37.543  31.976  32.971  1.00  0.00     0.029 A 
ATOM     44  C   UNL A   1      38.808  31.279  33.174  1.00  0.00     0.049 A 
ATOM     45  H   UNL A   1      39.832  30.092  31.800  1.00  0.00     0.167 HD
ATOM     46  C   UNL A   1      41.707  27.359  28.892  1.00  0.00     0.034 A 
ATOM     47  C   UNL A   1      39.530  31.291  34.313  1.00  0.00     0.034 A 
ATOM     48  C   UNL A   1      42.594  27.387  30.028  1.00  0.00     0.049 A 
ATOM     49  C   UNL A   1      40.820  30.512  34.356  1.00  0.00     0.074 A 
ATOM     50  C   UNL A   1      43.822  26.768  30.179  1.00  0.00     0.029 A 
ATOM     51  N   UNL A   1      42.350  28.078  31.209  1.00  0.00    -0.354 N 
ATOM     52  N   UNL A   1      41.358  29.753  33.428  1.00  0.00    -0.248 NA
ATOM     53  C   UNL A   1      41.606  30.600  35.592  1.00  0.00     0.031 C 
ATOM     54  C   UNL A   1      44.291  27.032  31.470  1.00  0.00     0.029 A 
ATOM     55  C   UNL A   1      43.393  27.879  32.100  1.00  0.00     0.049 A 
ATOM     56  H   UNL A   1      41.553  28.627  31.386  1.00  0.00     0.167 HD
ATOM     57  C   UNL A   1      42.561  29.299  33.961  1.00  0.00     0.074 A 
ATOM     58  C   UNL A   1      42.677  29.887  35.280  1.00  0.00     0.031 C 
ATOM     59  C   UNL A   1      43.486  28.469  33.414  1.00  0.00     0.034 A 
BRANCH  46  60
ATOM     60  C   UNL A   1      42.057  26.478  27.714  1.00  0.00     0.023 A 
ATOM     61  C   UNL A   1      41.628  25.141  27.636  1.00  0.00     0.031 A 
ATOM     62  C   UNL A   1      42.850  26.974  26.665  1.00  0.00     0.131 A 
ATOM     63  C   UNL A   1      42.059  24.325  26.579  1.00  0.00     0.055 A 
ATOM     64  C   UNL A   1      43.204  26.182  25.570  1.00  0.00     0.041 A 
ATOM     65  F   UNL A   1      43.308  28.235  26.690  1.00  0.00    -0.206 F 
ATOM     66  C   UNL A   1      42.822  24.843  25.531  1.00  0.00     0.022 A 
BRANCH  63  67
ATOM     67  S   UNL A   1      41.728  22.544  26.670  1.00  0.00     0.124 S 
ATOM     68  O   UNL A   1      42.242  22.084  25.381  1.00  0.00    -0.237 OA
ATOM     69  O   UNL A   1      42.492  22.140  27.844  1.00  0.00    -0.237 OA
ATOM     70  O   UNL A   1      40.276  22.472  26.814  1.00  0.00    -0.744 OA
ENDBRANCH  63  67
ENDBRANCH  46  60
BRANCH  47  71
ATOM     71  C   UNL A   1      39.062  32.057  35.505  1.00  0.00     0.023 A 
ATOM     72  C   UNL A   1      38.435  31.408  36.581  1.00  0.00     0.031 A 
ATOM     73  C   UNL A   1      39.192  33.456  35.569  1.00  0.00     0.131 A 
ATOM     74  C   UNL A   1      37.913  32.159  37.646  1.00  0.00     0.055 A 
ATOM     75  C   UNL A   1      38.722  34.193  36.657  1.00  0.00     0.041 A 
ATOM     76  F   UNL A   1      39.790  34.129  34.571  1.00  0.00    -0.206 F 
ATOM     77  C   UNL A   1      38.064  33.546  37.699  1.00  0.00     0.022 A 
BRANCH  74  78
ATOM     78  S   UNL A   1      36.945  31.303  38.921  1.00  0.00     0.124 S 
ATOM     79  O   UNL A   1      37.836  31.381  40.072  1.00  0.00    -0.237 OA
ATOM     80  O   UNL A   1      35.740  32.124  38.986  1.00  0.00    -0.237 OA
ATOM     81  O   UNL A   1      36.756  29.966  38.365  1.00  0.00    -0.744 OA
ENDBRANCH  74  78
ENDBRANCH  47  71
BRANCH  59  82
ATOM     82  C   UNL A   1      44.722  28.192  34.233  1.00  0.00     0.023 A 
ATOM     83  C   UNL A   1      44.795  27.095  35.109  1.00  0.00     0.031 A 
ATOM     84  C   UNL A   1      45.834  29.046  34.145  1.00  0.00     0.131 A 
ATOM     85  C   UNL A   1      45.932  26.918  35.910  1.00  0.00     0.055 A 
ATOM     86  C   UNL A   1      46.989  28.828  34.897  1.00  0.00     0.041 A 
ATOM     87  F   UNL A   1      45.818  30.109  33.325  1.00  0.00    -0.206 F 
ATOM     88  C   UNL A   1      47.037  27.766  35.797  1.00  0.00     0.022 A 
BRANCH  85  89
ATOM     89  S   UNL A   1      45.909  25.620  37.176  1.00  0.00     0.124 S 
ATOM     90  O   UNL A   1      45.758  24.413  36.370  1.00  0.00    -0.237 OA
ATOM     91  O   UNL A   1      47.204  25.794  37.826  1.00  0.00    -0.237 OA
ATOM     92  O   UNL A   1      44.752  25.965  37.999  1.00  0.00    -0.744 OA
ENDBRANCH  85  89
ENDBRANCH  59  82
ENDBRANCH  33  34
ENDBRANCH  25  28
ENDBRANCH   1  24
TORSDOF 14
ENDMDL
MODEL 2
REMARK VINA RESULT:     -12.6      5.305     10.073
REMARK SMILES O=C(NCCCNC(=O)c1ccc(-c2c3nc(c(-c4cc(S(=O)(=O)[O-])ccc4F)c4ccc([nH]4)c(-c4cc(S(=O)(=O)[O-])ccc4F)c4nc(c(-c5cc(S(=O)(=O)[O-])ccc5F)c5ccc2[nH]5)C=C4)C=C3)cc1)C1=Cc2cc(Cl)cc(Cl)c2O[C@@H]1C(F)(F)F
REMARK SMILES IDX 6 1 5 2 4 3 3 4 1 5 2 6 73 8 74 9 84 10 75 11 83 12 76 13
REMARK SMILES IDX 82 14 77 15 80 16 78 17 79 18 81 19 85 20 86 21 87 22 88 23
REMARK SMILES IDX 7 24 8 25 9 27 10 28 11 29 72 30 12 31 71 32 13 33 14 34
REMARK SMILES IDX 15 35 65 36 16 37 70 38 64 39 66 40 17 41 69 42 63 43 62 44
REMARK SMILES IDX 18 46 50 47 30 48 49 49 31 50 34 51 48 52 67 53 32 54 33 55
REMARK SMILES IDX 47 57 68 58 35 59 19 60 20 61 28 62 21 63 27 64 29 65 26 66
REMARK SMILES IDX 22 67 23 68 24 69 25 70 51 71 52 72 60 73 53 74 59 75 61 76
REMARK SMILES IDX 58 77 54 78 55 79 56 80 57 81 36 82 37 83 45 84 38 85 44 86
REMARK SMILES IDX 46 87 43 88 39 89 40 90 41 91 42 92
REMARK H PARENT 3 7 7 26 66 45 34 56
REMARK Flexibility Score: inf
ROOT
ATOM      1  C   UNL A   1      37.314  21.455  24.952  1.00  0.00     0.118 C 
ENDROOT
BRANCH   1   2
ATOM      2  C   UNL A   1      36.014  21.442  25.753  1.00  0.00     0.042 C 
BRANCH   2   3
ATOM      3  C   UNL A   1      34.783  21.180  24.892  1.00  0.00     0.118 C 
BRANCH   3   4
ATOM      4  N   UNL A   1      34.681  22.084  23.740  1.00  0.00    -0.352 N 
ATOM      5  O   UNL A   1      34.269  24.020  22.635  1.00  0.00    -0.270 OA
ATOM      6  C   UNL A   1      34.064  23.302  23.604  1.00  0.00     0.251 C 
ATOM      7  H   UNL A   1      35.132  21.761  22.927  1.00  0.00     0.163 HD
BRANCH   6   8
ATOM      8  C   UNL A   1      33.202  23.749  24.711  1.00  0.00     0.067 C 
ATOM      9  C   UNL A   1      33.667  24.711  25.517  1.00  0.00     0.025 C 
ATOM     10  C   UNL A   1      31.755  23.382  24.639  1.00  0.00     0.314 C 
ATOM     11  C   UNL A   1      32.716  25.821  25.659  1.00  0.00     0.020 A 
ATOM     12  O   UNL A   1      30.885  24.536  24.667  1.00  0.00    -0.474 OA
ATOM     13  C   UNL A   1      33.249  27.079  25.962  1.00  0.00     0.032 A 
ATOM     14  C   UNL A   1      31.422  25.724  25.106  1.00  0.00     0.146 A 
ATOM     15  C   UNL A   1      32.536  28.230  25.633  1.00  0.00     0.043 A 
ATOM     16  C   UNL A   1      30.710  26.895  24.806  1.00  0.00     0.085 A 
ATOM     17  Cl  UNL A   1      33.275  29.768  25.850  1.00  0.00    -0.084 Cl
ATOM     18  C   UNL A   1      31.278  28.146  25.044  1.00  0.00     0.045 A 
ATOM     19  Cl  UNL A   1      29.193  26.828  23.980  1.00  0.00    -0.080 Cl
BRANCH  10  20
ATOM     20  C   UNL A   1      31.389  22.399  25.763  1.00  0.00     0.429 C 
ATOM     21  F   UNL A   1      30.110  22.579  26.175  1.00  0.00    -0.167 F 
ATOM     22  F   UNL A   1      31.491  21.109  25.365  1.00  0.00    -0.167 F 
ATOM     23  F   UNL A   1      32.182  22.546  26.851  1.00  0.00    -0.167 F 
ENDBRANCH  10  20
ENDBRANCH   6   8
ENDBRANCH   3   4
ENDBRANCH   2   3
ENDBRANCH   1   2
BRANCH   1  24
ATOM     24  N   UNL A   1      38.279  20.437  25.348  1.00  0.00    -0.352 N 
ATOM     25  C   UNL A   1      39.453  20.547  26.071  1.00  0.00     0.251 C 
ATOM     26  H   UNL A   1      38.060  19.524  25.052  1.00  0.00     0.163 HD
ATOM     27  O   UNL A   1      40.142  19.555  26.235  1.00  0.00    -0.269 OA
BRANCH  25  28
ATOM     28  C   UNL A   1      39.901  21.865  26.593  1.00  0.00     0.039 A 
ATOM     29  C   UNL A   1      40.937  21.902  27.534  1.00  0.00     0.014 A 
ATOM     30  C   UNL A   1      39.338  23.060  26.149  1.00  0.00     0.014 A 
ATOM     31  C   UNL A   1      41.473  23.132  27.933  1.00  0.00     0.010 A 
ATOM     32  C   UNL A   1      39.955  24.271  26.446  1.00  0.00     0.010 A 
ATOM     33  C   UNL A   1      41.032  24.326  27.341  1.00  0.00    -0.014 A 
BRANCH  33  34
ATOM     34  C   UNL A   1      41.676  25.638  27.638  1.00  0.00     0.031 A 
ATOM     35  C   UNL A   1      40.926  26.685  28.425  1.00  0.00     0.074 A 
ATOM     36  C   UNL A   1      42.889  25.923  27.118  1.00  0.00     0.049 A 
ATOM     37  N   UNL A   1      41.252  27.927  28.674  1.00  0.00    -0.248 NA
ATOM     38  C   UNL A   1      39.610  26.296  28.957  1.00  0.00     0.031 C 
ATOM     39  C   UNL A   1      43.685  25.023  26.277  1.00  0.00     0.029 A 
ATOM     40  N   UNL A   1      43.665  27.053  27.210  1.00  0.00    -0.354 N 
ATOM     41  C   UNL A   1      40.169  28.474  29.357  1.00  0.00     0.074 A 
ATOM     42  C   UNL A   1      39.151  27.449  29.416  1.00  0.00     0.031 C 
ATOM     43  C   UNL A   1      44.846  25.618  25.966  1.00  0.00     0.029 A 
ATOM     44  C   UNL A   1      44.862  26.961  26.536  1.00  0.00     0.049 A 
ATOM     45  H   UNL A   1      43.389  27.854  27.711  1.00  0.00     0.167 HD
ATOM     46  C   UNL A   1      40.047  29.707  29.910  1.00  0.00     0.034 A 
ATOM     47  C   UNL A   1      45.857  27.860  26.386  1.00  0.00     0.034 A 
ATOM     48  C   UNL A   1      41.094  30.697  29.887  1.00  0.00     0.049 A 
ATOM     49  C   UNL A   1      45.714  29.209  27.042  1.00  0.00     0.074 A 
ATOM     50  C   UNL A   1      41.116  31.943  30.487  1.00  0.00     0.029 A 
ATOM     51  N   UNL A   1      42.311  30.550  29.232  1.00  0.00    -0.354 N 
ATOM     52  N   UNL A   1      44.706  29.687  27.738  1.00  0.00    -0.248 NA
ATOM     53  C   UNL A   1      46.844  30.135  26.906  1.00  0.00     0.031 C 
ATOM     54  C   UNL A   1      42.317  32.574  30.145  1.00  0.00     0.029 A 
ATOM     55  C   UNL A   1      43.079  31.693  29.394  1.00  0.00     0.049 A 
ATOM     56  H   UNL A   1      42.587  29.752  28.727  1.00  0.00     0.167 HD
ATOM     57  C   UNL A   1      45.097  30.959  28.145  1.00  0.00     0.074 A 
ATOM     58  C   UNL A   1      46.438  31.162  27.638  1.00  0.00     0.031 C 
ATOM     59  C   UNL A   1      44.412  31.879  28.872  1.00  0.00     0.034 A 
BRANCH  46  60
ATOM     60  C   UNL A   1      38.733  30.049  30.576  1.00  0.00     0.023 A 
ATOM     61  C   UNL A   1      37.709  30.727  29.891  1.00  0.00     0.031 A 
ATOM     62  C   UNL A   1      38.510  29.712  31.923  1.00  0.00     0.131 A 
ATOM     63  C   UNL A   1      36.547  31.118  30.574  1.00  0.00     0.055 A 
ATOM     64  C   UNL A   1      37.314  30.027  32.573  1.00  0.00     0.041 A 
ATOM     65  F   UNL A   1      39.456  29.083  32.637  1.00  0.00    -0.206 F 
ATOM     66  C   UNL A   1      36.330  30.749  31.902  1.00  0.00     0.022 A 
BRANCH  63  67
ATOM     67  S   UNL A   1      35.390  32.237  29.739  1.00  0.00     0.124 S 
ATOM     68  O   UNL A   1      36.271  33.338  29.355  1.00  0.00    -0.237 OA
ATOM     69  O   UNL A   1      34.884  31.414  28.648  1.00  0.00    -0.237 OA
ATOM     70  O   UNL A   1      34.416  32.562  30.779  1.00  0.00    -0.744 OA
ENDBRANCH  63  67
ENDBRANCH  46  60
BRANCH  47  71
ATOM     71  C   UNL A   1      47.072  27.526  25.586  1.00  0.00     0.023 A 
ATOM     72  C   UNL A   1      47.175  27.902  24.237  1.00  0.00     0.031 A 
ATOM     73  C   UNL A   1      48.130  26.787  26.144  1.00  0.00     0.131 A 
ATOM     74  C   UNL A   1      48.281  27.490  23.476  1.00  0.00     0.055 A 
ATOM     75  C   UNL A   1      49.255  26.429  25.399  1.00  0.00     0.041 A 
ATOM     76  F   UNL A   1      48.089  26.407  27.432  1.00  0.00    -0.206 F 
ATOM     77  C   UNL A   1      49.329  26.769  24.051  1.00  0.00     0.022 A 
BRANCH  74  78
ATOM     78  S   UNL A   1      48.286  27.832  21.694  1.00  0.00     0.124 S 
ATOM     79  O   UNL A   1      48.574  26.513  21.140  1.00  0.00    -0.237 OA
ATOM     80  O   UNL A   1      46.933  28.335  21.480  1.00  0.00    -0.237 OA
ATOM     81  O   UNL A   1      49.349  28.821  21.539  1.00  0.00    -0.744 OA
ENDBRANCH  74  78
ENDBRANCH  47  71
BRANCH  59  82
ATOM     82  C   UNL A   1      45.129  33.166  29.193  1.00  0.00     0.023 A 
ATOM     83  C   UNL A   1      45.100  34.264  28.315  1.00  0.00     0.031 A 
ATOM     84  C   UNL A   1      45.863  33.289  30.385  1.00  0.00     0.131 A 
ATOM     85  C   UNL A   1      45.844  35.414  28.613  1.00  0.00     0.055 A 
ATOM     86  C   UNL A   1      46.548  34.461  30.707  1.00  0.00     0.041 A 
ATOM     87  F   UNL A   1      45.925  32.271  31.258  1.00  0.00    -0.206 F 
ATOM     88  C   UNL A   1      46.553  35.527  29.812  1.00  0.00     0.022 A 
BRANCH  85  89
ATOM     89  S   UNL A   1      45.953  36.725  27.366  1.00  0.00     0.124 S 
ATOM     90  O   UNL A   1      46.093  35.959  26.132  1.00  0.00    -0.237 OA
ATOM     91  O   UNL A   1      44.686  37.428  27.540  1.00  0.00    -0.237 OA
ATOM     92  O   UNL A   1      47.139  37.481  27.765  1.00  0.00    -0.744 OA
ENDBRANCH  85  89
ENDBRANCH  59  82
ENDBRANCH  33  34
ENDBRANCH  25  28
ENDBRANCH   1  24
TORSDOF 14
ENDMDL
MODEL 3
REMARK VINA RESULT:     -12.6      5.204      7.556
REMARK SMILES O=C(NCCCNC(=O)c1ccc(-c2c3nc(c(-c4cc(S(=O)(=O)[O-])ccc4F)c4ccc([nH]4)c(-c4cc(S(=O)(=O)[O-])ccc4F)c4nc(c(-c5cc(S(=O)(=O)[O-])ccc5F)c5ccc2[nH]5)C=C4)C=C3)cc1)C1=Cc2cc(Cl)cc(Cl)c2O[C@@H]1C(F)(F)F
REMARK SMILES IDX 6 1 5 2 4 3 3 4 1 5 2 6 73 8 74 9 84 10 75 11 83 12 76 13
REMARK SMILES IDX 82 14 77 15 80 16 78 17 79 18 81 19 85 20 86 21 87 22 88 23
REMARK SMILES IDX 7 24 8 25 9 27 10 28 11 29 72 30 12 31 71 32 13 33 14 34
REMARK SMILES IDX 15 35 65 36 16 37 70 38 64 39 66 40 17 41 69 42 63 43 62 44
REMARK SMILES IDX 18 46 50 47 30 48 49 49 31 50 34 51 48 52 67 53 32 54 33 55
REMARK SMILES IDX 47 57 68 58 35 59 19 60 20 61 28 62 21 63 27 64 29 65 26 66
REMARK SMILES IDX 22 67 23 68 24 69 25 70 51 71 52 72 60 73 53 74 59 75 61 76
REMARK SMILES IDX 58 77 54 78 55 79 56 80 57 81 36 82 37 83 45 84 38 85 44 86
REMARK SMILES IDX 46 87 43 88 39 89 40 90 41 91 42 92
REMARK H PARENT 3 7 7 26 66 45 34 56
REMARK Flexibility Score: inf
ROOT
ATOM      1  C   UNL A   1      37.569  21.135  25.092  1.00  0.00     0.118 C 
ENDROOT
BRANCH   1   2
ATOM      2  C   UNL A   1      36.186  20.488  25.058  1.00  0.00     0.042 C 
BRANCH   2   3
ATOM      3  C   UNL A   1      35.050  21.502  25.148  1.00  0.00     0.118 C 
BRANCH   3   4
ATOM      4  N   UNL A   1      34.976  22.391  23.983  1.00  0.00    -0.352 N 
ATOM      5  O   UNL A   1      34.538  24.297  22.835  1.00  0.00    -0.270 OA
ATOM      6  C   UNL A   1      34.309  23.576  23.796  1.00  0.00     0.251 C 
ATOM      7  H   UNL A   1      35.493  22.086  23.202  1.00  0.00     0.163 HD
BRANCH   6   8
ATOM      8  C   UNL A   1      33.357  23.986  24.843  1.00  0.00     0.067 C 
ATOM      9  C   UNL A   1      33.735  24.952  25.689  1.00  0.00     0.025 C 
ATOM     10  C   UNL A   1      31.931  23.578  24.664  1.00  0.00     0.314 C 
ATOM     11  C   UNL A   1      32.744  26.033  25.772  1.00  0.00     0.020 A 
ATOM     12  O   UNL A   1      31.027  24.707  24.641  1.00  0.00    -0.474 OA
ATOM     13  C   UNL A   1      33.216  27.302  26.123  1.00  0.00     0.032 A 
ATOM     14  C   UNL A   1      31.496  25.905  25.126  1.00  0.00     0.146 A 
ATOM     15  C   UNL A   1      32.495  28.436  25.754  1.00  0.00     0.043 A 
ATOM     16  C   UNL A   1      30.773  27.058  24.786  1.00  0.00     0.085 A 
ATOM     17  Cl  UNL A   1      33.171  29.992  26.035  1.00  0.00    -0.084 Cl
ATOM     18  C   UNL A   1      31.285  28.322  25.075  1.00  0.00     0.045 A 
ATOM     19  Cl  UNL A   1      29.321  26.955  23.854  1.00  0.00    -0.080 Cl
BRANCH  10  20
ATOM     20  C   UNL A   1      31.515  22.573  25.751  1.00  0.00     0.429 C 
ATOM     21  F   UNL A   1      31.727  21.297  25.346  1.00  0.00    -0.167 F 
ATOM     22  F   UNL A   1      32.219  22.740  26.895  1.00  0.00    -0.167 F 
ATOM     23  F   UNL A   1      30.202  22.677  26.070  1.00  0.00    -0.167 F 
ENDBRANCH  10  20
ENDBRANCH   6   8
ENDBRANCH   3   4
ENDBRANCH   2   3
ENDBRANCH   1   2
BRANCH   1  24
ATOM     24  N   UNL A   1      38.641  20.248  25.525  1.00  0.00    -0.352 N 
ATOM     25  C   UNL A   1      39.793  20.516  26.243  1.00  0.00     0.251 C 
ATOM     26  H   UNL A   1      38.527  19.305  25.264  1.00  0.00     0.163 HD
ATOM     27  O   UNL A   1      40.588  19.615  26.443  1.00  0.00    -0.269 OA
BRANCH  25  28
ATOM     28  C   UNL A   1      40.088  21.895  26.715  1.00  0.00     0.039 A 
ATOM     29  C   UNL A   1      41.038  22.073  27.726  1.00  0.00     0.014 A 
ATOM     30  C   UNL A   1      39.466  23.011  26.157  1.00  0.00     0.014 A 
ATOM     31  C   UNL A   1      41.438  23.365  28.089  1.00  0.00     0.010 A 
ATOM     32  C   UNL A   1      39.955  24.285  26.424  1.00  0.00     0.010 A 
ATOM     33  C   UNL A   1      40.949  24.482  27.393  1.00  0.00    -0.014 A 
BRANCH  33  34
ATOM     34  C   UNL A   1      41.457  25.859  27.655  1.00  0.00     0.031 A 
ATOM     35  C   UNL A   1      42.824  26.266  27.161  1.00  0.00     0.074 A 
ATOM     36  C   UNL A   1      40.734  26.707  28.418  1.00  0.00     0.049 A 
ATOM     37  N   UNL A   1      43.498  27.362  27.395  1.00  0.00    -0.248 NA
ATOM     38  C   UNL A   1      43.547  25.286  26.336  1.00  0.00     0.031 C 
ATOM     39  C   UNL A   1      39.430  26.407  29.018  1.00  0.00     0.029 A 
ATOM     40  N   UNL A   1      40.993  27.991  28.830  1.00  0.00    -0.354 N 
ATOM     41  C   UNL A   1      44.735  27.186  26.780  1.00  0.00     0.074 A 
ATOM     42  C   UNL A   1      44.740  25.850  26.227  1.00  0.00     0.031 C 
ATOM     43  C   UNL A   1      38.989  27.485  29.684  1.00  0.00     0.029 A 
ATOM     44  C   UNL A   1      39.996  28.538  29.607  1.00  0.00     0.049 A 
ATOM     45  H   UNL A   1      41.815  28.476  28.591  1.00  0.00     0.167 HD
ATOM     46  C   UNL A   1      45.759  28.067  26.662  1.00  0.00     0.034 A 
ATOM     47  C   UNL A   1      39.907  29.746  30.199  1.00  0.00     0.034 A 
ATOM     48  C   UNL A   1      45.714  29.414  27.174  1.00  0.00     0.049 A 
ATOM     49  C   UNL A   1      41.041  30.722  30.021  1.00  0.00     0.074 A 
ATOM     50  C   UNL A   1      46.653  30.420  27.038  1.00  0.00     0.029 A 
ATOM     51  N   UNL A   1      44.668  29.946  27.918  1.00  0.00    -0.354 N 
ATOM     52  N   UNL A   1      42.178  30.559  29.382  1.00  0.00    -0.248 NA
ATOM     53  C   UNL A   1      40.878  32.047  30.629  1.00  0.00     0.031 C 
ATOM     54  C   UNL A   1      46.206  31.538  27.750  1.00  0.00     0.029 A 
ATOM     55  C   UNL A   1      44.951  31.256  28.269  1.00  0.00     0.049 A 
ATOM     56  H   UNL A   1      43.846  29.462  28.162  1.00  0.00     0.167 HD
ATOM     57  C   UNL A   1      42.850  31.773  29.489  1.00  0.00     0.074 A 
ATOM     58  C   UNL A   1      41.982  32.662  30.233  1.00  0.00     0.031 C 
ATOM     59  C   UNL A   1      44.074  32.124  29.018  1.00  0.00     0.034 A 
BRANCH  46  60
ATOM     60  C   UNL A   1      47.011  27.596  25.958  1.00  0.00     0.023 A 
ATOM     61  C   UNL A   1      47.269  27.913  24.612  1.00  0.00     0.031 A 
ATOM     62  C   UNL A   1      47.951  26.799  26.634  1.00  0.00     0.131 A 
ATOM     63  C   UNL A   1      48.389  27.371  23.965  1.00  0.00     0.055 A 
ATOM     64  C   UNL A   1      49.110  26.334  26.009  1.00  0.00     0.041 A 
ATOM     65  F   UNL A   1      47.753  26.444  27.914  1.00  0.00    -0.206 F 
ATOM     66  C   UNL A   1      49.327  26.606  24.660  1.00  0.00     0.022 A 
BRANCH  63  67
ATOM     67  S   UNL A   1      48.526  27.563  22.166  1.00  0.00     0.124 S 
ATOM     68  O   UNL A   1      48.703  26.178  21.735  1.00  0.00    -0.237 OA
ATOM     69  O   UNL A   1      47.253  28.183  21.817  1.00  0.00    -0.237 OA
ATOM     70  O   UNL A   1      49.702  28.415  22.000  1.00  0.00    -0.744 OA
ENDBRANCH  63  67
ENDBRANCH  46  60
BRANCH  47  71
ATOM     71  C   UNL A   1      38.710  30.109  31.015  1.00  0.00     0.023 A 
ATOM     72  C   UNL A   1      37.668  30.874  30.468  1.00  0.00     0.031 A 
ATOM     73  C   UNL A   1      38.612  29.738  32.368  1.00  0.00     0.131 A 
ATOM     74  C   UNL A   1      36.601  31.290  31.281  1.00  0.00     0.055 A 
ATOM     75  C   UNL A   1      37.521  30.105  33.158  1.00  0.00     0.041 A 
ATOM     76  F   UNL A   1      39.577  29.001  32.942  1.00  0.00    -0.206 F 
ATOM     77  C   UNL A   1      36.513  30.899  32.619  1.00  0.00     0.022 A 
BRANCH  74  78
ATOM     78  S   UNL A   1      35.373  32.432  30.587  1.00  0.00     0.124 S 
ATOM     79  O   UNL A   1      36.169  33.639  30.392  1.00  0.00    -0.237 OA
ATOM     80  O   UNL A   1      34.961  31.733  29.375  1.00  0.00    -0.237 OA
ATOM     81  O   UNL A   1      34.357  32.516  31.633  1.00  0.00    -0.744 OA
ENDBRANCH  74  78
ENDBRANCH  47  71
BRANCH  59  82
ATOM     82  C   UNL A   1      44.517  33.545  29.261  1.00  0.00     0.023 A 
ATOM     83  C   UNL A   1      44.257  34.567  28.331  1.00  0.00     0.031 A 
ATOM     84  C   UNL A   1      45.220  33.877  30.431  1.00  0.00     0.131 A 
ATOM     85  C   UNL A   1      44.754  35.859  28.558  1.00  0.00     0.055 A 
ATOM     86  C   UNL A   1      45.656  35.178  30.683  1.00  0.00     0.041 A 
ATOM     87  F   UNL A   1      45.496  32.939  31.352  1.00  0.00    -0.206 F 
ATOM     88  C   UNL A   1      45.436  36.175  29.736  1.00  0.00     0.022 A 
BRANCH  85  89
ATOM     89  S   UNL A   1      44.583  37.097  27.246  1.00  0.00     0.124 S 
ATOM     90  O   UNL A   1      43.330  36.698  26.613  1.00  0.00    -0.237 OA
ATOM     91  O   UNL A   1      44.548  38.347  27.998  1.00  0.00    -0.237 OA
ATOM     92  O   UNL A   1      45.780  36.900  26.430  1.00  0.00    -0.744 OA
ENDBRANCH  85  89
ENDBRANCH  59  82
ENDBRANCH  33  34
ENDBRANCH  25  28
ENDBRANCH   1  24
TORSDOF 14
ENDMDL
