MODEL 1
REMARK VINA RESULT:     -12.8      0.000      0.000
REMARK SMILES O=C1CC[C@H](CNC(=O)N[C@@H]2C=C[C@@H](C(=O)NCCCNC(=O)c3ccc(-c4c5nc(c(-c6cc(S(=O)(=O)[O-])ccc6F)c6ccc([nH]6)c(-c6cc(S(=O)(=O)[O-])ccc6F)c6nc(c(-c7cc(S(=O)(=O)[O-])ccc7F)c7ccc4[nH]7)C=C6)C=C5)cc3)C2)N1
REMARK SMILES IDX 19 1 18 2 17 3 15 4 16 5 14 7 11 8 12 9 87 10 13 11 10 12
REMARK SMILES IDX 7 13 8 14 9 16 6 18 5 19 1 20 2 21 3 22 88 23 4 24 20 26
REMARK SMILES IDX 21 27 22 28 23 30 24 31 25 32 86 33 26 34 85 35 27 36 28 37
REMARK SMILES IDX 29 38 79 39 30 40 84 41 78 42 80 43 31 44 83 45 77 46 76 47
REMARK SMILES IDX 32 49 64 50 44 51 63 52 45 53 48 54 62 55 81 56 46 57 47 58
REMARK SMILES IDX 61 60 82 61 49 62 33 63 34 64 42 65 35 66 41 67 43 68 40 69
REMARK SMILES IDX 36 70 37 71 38 72 39 73 65 74 66 75 74 76 67 77 73 78 75 79
REMARK SMILES IDX 72 80 68 81 69 82 70 83 71 84 50 85 51 86 59 87 52 88 58 89
REMARK SMILES IDX 60 90 57 91 53 92 54 93 55 94 56 95
REMARK H PARENT 17 6 7 15 10 17 88 25 21 29 80 48 48 59
REMARK Flexibility Score: inf
ROOT
ATOM      1  C   UNL A   1      31.622  28.424  25.682  1.00  0.00     0.042 C 
ENDROOT
BRANCH   1   2
ATOM      2  C   UNL A   1      32.106  27.392  26.697  1.00  0.00     0.117 C 
BRANCH   2   3
ATOM      3  N   UNL A   1      31.249  26.225  26.795  1.00  0.00    -0.356 N 
ATOM      4  C   UNL A   1      31.468  24.914  26.501  1.00  0.00     0.227 C 
ATOM      5  O   UNL A   1      30.606  24.107  26.867  1.00  0.00    -0.274 OA
ATOM      6  H   UNL A   1      30.345  26.416  27.136  1.00  0.00     0.163 HD
BRANCH   4   7
ATOM      7  C   UNL A   1      32.669  24.417  25.686  1.00  0.00     0.103 C 
ATOM      8  C   UNL A   1      33.469  22.096  25.416  1.00  0.00     0.107 C 
ATOM      9  C   UNL A   1      32.915  22.662  24.145  1.00  0.00    -0.006 C 
ATOM     10  C   UNL A   1      33.418  23.285  26.386  1.00  0.00     0.047 C 
ATOM     11  C   UNL A   1      32.427  23.899  24.307  1.00  0.00    -0.016 C 
BRANCH   8  12
ATOM     12  N   UNL A   1      34.808  21.600  25.197  1.00  0.00    -0.332 N 
ATOM     13  N   UNL A   1      34.573  19.247  25.004  1.00  0.00    -0.336 N 
ATOM     14  C   UNL A   1      35.314  20.370  25.002  1.00  0.00     0.315 C 
ATOM     15  H   UNL A   1      35.075  18.428  24.787  1.00  0.00     0.165 HD
ATOM     16  O   UNL A   1      36.529  20.263  24.819  1.00  0.00    -0.249 OA
ATOM     17  H   UNL A   1      35.491  22.309  25.188  1.00  0.00     0.165 HD
BRANCH  13  18
ATOM     18  C   UNL A   1      33.169  19.035  25.268  1.00  0.00     0.142 C 
BRANCH  18  19
ATOM     19  C   UNL A   1      32.416  18.109  24.297  1.00  0.00     0.101 C 
ATOM     20  O   UNL A   1      33.315  14.891  25.356  1.00  0.00    -0.275 OA
ATOM     21  C   UNL A   1      33.161  15.924  24.725  1.00  0.00     0.220 C 
ATOM     22  C   UNL A   1      34.068  16.475  23.653  1.00  0.00     0.102 C 
ATOM     23  N   UNL A   1      32.164  16.847  24.955  1.00  0.00    -0.352 N 
ATOM     24  C   UNL A   1      33.272  17.669  23.113  1.00  0.00     0.036 C 
ATOM     25  H   UNL A   1      31.369  16.667  25.507  1.00  0.00     0.163 HD
ENDBRANCH  18  19
ENDBRANCH  13  18
ENDBRANCH   8  12
ENDBRANCH   4   7
ENDBRANCH   2   3
ENDBRANCH   1   2
BRANCH   1  26
ATOM     26  C   UNL A   1      32.624  29.530  25.346  1.00  0.00     0.118 C 
BRANCH  26  27
ATOM     27  N   UNL A   1      32.217  30.831  25.857  1.00  0.00    -0.352 N 
ATOM     28  C   UNL A   1      32.688  31.580  26.907  1.00  0.00     0.251 C 
ATOM     29  H   UNL A   1      31.475  31.248  25.363  1.00  0.00     0.163 HD
ATOM     30  O   UNL A   1      32.043  32.569  27.252  1.00  0.00    -0.269 OA
BRANCH  28  31
ATOM     31  C   UNL A   1      33.927  31.217  27.639  1.00  0.00     0.039 A 
ATOM     32  C   UNL A   1      34.842  32.232  27.944  1.00  0.00     0.014 A 
ATOM     33  C   UNL A   1      34.236  29.895  27.966  1.00  0.00     0.014 A 
ATOM     34  C   UNL A   1      36.029  31.933  28.621  1.00  0.00     0.010 A 
ATOM     35  C   UNL A   1      35.389  29.605  28.699  1.00  0.00     0.010 A 
ATOM     36  C   UNL A   1      36.301  30.619  29.031  1.00  0.00    -0.014 A 
BRANCH  36  37
ATOM     37  C   UNL A   1      37.532  30.284  29.796  1.00  0.00     0.031 A 
ATOM     38  C   UNL A   1      38.580  29.388  29.192  1.00  0.00     0.074 A 
ATOM     39  C   UNL A   1      37.680  30.735  31.057  1.00  0.00     0.049 A 
ATOM     40  N   UNL A   1      39.677  28.914  29.729  1.00  0.00    -0.248 NA
ATOM     41  C   UNL A   1      38.350  28.949  27.809  1.00  0.00     0.031 C 
ATOM     42  C   UNL A   1      36.727  31.593  31.763  1.00  0.00     0.029 A 
ATOM     43  N   UNL A   1      38.680  30.525  31.974  1.00  0.00    -0.354 N 
ATOM     44  C   UNL A   1      40.254  28.100  28.758  1.00  0.00     0.074 A 
ATOM     45  C   UNL A   1      39.359  28.113  27.619  1.00  0.00     0.031 C 
ATOM     46  C   UNL A   1      37.199  31.854  32.993  1.00  0.00     0.029 A 
ATOM     47  C   UNL A   1      38.460  31.144  33.182  1.00  0.00     0.049 A 
ATOM     48  H   UNL A   1      39.479  29.983  31.785  1.00  0.00     0.167 HD
ATOM     49  C   UNL A   1      41.428  27.421  28.806  1.00  0.00     0.034 A 
ATOM     50  C   UNL A   1      39.184  31.132  34.320  1.00  0.00     0.034 A 
ATOM     51  C   UNL A   1      42.316  27.429  29.945  1.00  0.00     0.049 A 
ATOM     52  C   UNL A   1      40.466  30.342  34.365  1.00  0.00     0.074 A 
ATOM     53  C   UNL A   1      43.559  26.833  30.075  1.00  0.00     0.029 A 
ATOM     54  N   UNL A   1      42.052  28.055  31.157  1.00  0.00    -0.354 N 
ATOM     55  N   UNL A   1      41.022  29.614  33.423  1.00  0.00    -0.248 NA
ATOM     56  C   UNL A   1      41.220  30.375  35.624  1.00  0.00     0.031 C 
ATOM     57  C   UNL A   1      44.013  27.038  31.382  1.00  0.00     0.029 A 
ATOM     58  C   UNL A   1      43.090  27.828  32.050  1.00  0.00     0.049 A 
ATOM     59  H   UNL A   1      41.245  28.584  31.355  1.00  0.00     0.167 HD
ATOM     60  C   UNL A   1      42.211  29.135  33.967  1.00  0.00     0.074 A 
ATOM     61  C   UNL A   1      42.290  29.657  35.316  1.00  0.00     0.031 C 
ATOM     62  C   UNL A   1      43.154  28.342  33.398  1.00  0.00     0.034 A 
BRANCH  49  63
ATOM     63  C   UNL A   1      41.793  26.579  27.605  1.00  0.00     0.023 A 
ATOM     64  C   UNL A   1      41.445  25.219  27.518  1.00  0.00     0.031 A 
ATOM     65  C   UNL A   1      42.533  27.135  26.546  1.00  0.00     0.131 A 
ATOM     66  C   UNL A   1      41.910  24.443  26.445  1.00  0.00     0.055 A 
ATOM     67  C   UNL A   1      42.919  26.378  25.438  1.00  0.00     0.041 A 
ATOM     68  F   UNL A   1      42.911  28.423  26.577  1.00  0.00    -0.206 F 
ATOM     69  C   UNL A   1      42.625  25.018  25.392  1.00  0.00     0.022 A 
BRANCH  66  70
ATOM     70  S   UNL A   1      41.705  22.642  26.527  1.00  0.00     0.124 S 
ATOM     71  O   UNL A   1      40.254  22.506  26.424  1.00  0.00    -0.237 OA
ATOM     72  O   UNL A   1      42.474  22.186  25.376  1.00  0.00    -0.237 OA
ATOM     73  O   UNL A   1      42.264  22.292  27.831  1.00  0.00    -0.744 OA
ENDBRANCH  66  70
ENDBRANCH  49  63
BRANCH  50  74
ATOM     74  C   UNL A   1      38.717  31.888  35.516  1.00  0.00     0.023 A 
ATOM     75  C   UNL A   1      38.150  31.219  36.611  1.00  0.00     0.031 A 
ATOM     76  C   UNL A   1      38.806  33.290  35.571  1.00  0.00     0.131 A 
ATOM     77  C   UNL A   1      37.656  31.954  37.700  1.00  0.00     0.055 A 
ATOM     78  C   UNL A   1      38.355  34.014  36.677  1.00  0.00     0.041 A 
ATOM     79  F   UNL A   1      39.348  33.976  34.552  1.00  0.00    -0.206 F 
ATOM     80  C   UNL A   1      37.767  33.346  37.745  1.00  0.00     0.022 A 
BRANCH  77  81
ATOM     81  S   UNL A   1      36.807  31.066  39.033  1.00  0.00     0.124 S 
ATOM     82  O   UNL A   1      37.754  31.204  40.133  1.00  0.00    -0.237 OA
ATOM     83  O   UNL A   1      35.563  31.820  39.157  1.00  0.00    -0.237 OA
ATOM     84  O   UNL A   1      36.661  29.713  38.500  1.00  0.00    -0.744 OA
ENDBRANCH  77  81
ENDBRANCH  50  74
BRANCH  62  85
ATOM     85  C   UNL A   1      44.382  28.038  34.222  1.00  0.00     0.023 A 
ATOM     86  C   UNL A   1      44.466  26.896  35.038  1.00  0.00     0.031 A 
ATOM     87  C   UNL A   1      45.483  28.914  34.196  1.00  0.00     0.131 A 
ATOM     88  C   UNL A   1      45.603  26.688  35.833  1.00  0.00     0.055 A 
ATOM     89  C   UNL A   1      46.635  28.671  34.945  1.00  0.00     0.041 A 
ATOM     90  F   UNL A   1      45.455  30.022  33.437  1.00  0.00    -0.206 F 
ATOM     91  C   UNL A   1      46.695  27.559  35.780  1.00  0.00     0.022 A 
BRANCH  88  92
ATOM     92  S   UNL A   1      45.607  25.304  37.007  1.00  0.00     0.124 S 
ATOM     93  O   UNL A   1      44.202  25.230  37.393  1.00  0.00    -0.237 OA
ATOM     94  O   UNL A   1      46.102  24.201  36.189  1.00  0.00    -0.237 OA
ATOM     95  O   UNL A   1      46.517  25.749  38.060  1.00  0.00    -0.744 OA
ENDBRANCH  88  92
ENDBRANCH  62  85
ENDBRANCH  36  37
ENDBRANCH  28  31
ENDBRANCH  26  27
ENDBRANCH   1  26
TORSDOF 16
ENDMDL
MODEL 2
REMARK VINA RESULT:     -12.6      2.476      7.971
REMARK SMILES O=C1CC[C@H](CNC(=O)N[C@@H]2C=C[C@@H](C(=O)NCCCNC(=O)c3ccc(-c4c5nc(c(-c6cc(S(=O)(=O)[O-])ccc6F)c6ccc([nH]6)c(-c6cc(S(=O)(=O)[O-])ccc6F)c6nc(c(-c7cc(S(=O)(=O)[O-])ccc7F)c7ccc4[nH]7)C=C6)C=C5)cc3)C2)N1
REMARK SMILES IDX 19 1 18 2 17 3 15 4 16 5 14 7 11 8 12 9 87 10 13 11 10 12
REMARK SMILES IDX 7 13 8 14 9 16 6 18 5 19 1 20 2 21 3 22 88 23 4 24 20 26
REMARK SMILES IDX 21 27 22 28 23 30 24 31 25 32 86 33 26 34 85 35 27 36 28 37
REMARK SMILES IDX 29 38 79 39 30 40 84 41 78 42 80 43 31 44 83 45 77 46 76 47
REMARK SMILES IDX 32 49 64 50 44 51 63 52 45 53 48 54 62 55 81 56 46 57 47 58
REMARK SMILES IDX 61 60 82 61 49 62 33 63 34 64 42 65 35 66 41 67 43 68 40 69
REMARK SMILES IDX 36 70 37 71 38 72 39 73 65 74 66 75 74 76 67 77 73 78 75 79
REMARK SMILES IDX 72 80 68 81 69 82 70 83 71 84 50 85 51 86 59 87 52 88 58 89
REMARK SMILES IDX 60 90 57 91 53 92 54 93 55 94 56 95
REMARK H PARENT 17 6 7 15 10 17 88 25 21 29 80 48 48 59
REMARK Flexibility Score: inf
ROOT
ATOM      1  C   UNL A   1      32.612  27.939  26.903  1.00  0.00     0.042 C 
ENDROOT
BRANCH   1   2
ATOM      2  C   UNL A   1      31.545  27.364  25.976  1.00  0.00     0.117 C 
BRANCH   2   3
ATOM      3  N   UNL A   1      30.926  26.152  26.480  1.00  0.00    -0.356 N 
ATOM      4  C   UNL A   1      31.348  24.859  26.495  1.00  0.00     0.227 C 
ATOM      5  O   UNL A   1      30.685  24.061  27.168  1.00  0.00    -0.274 OA
ATOM      6  H   UNL A   1      30.040  26.292  26.886  1.00  0.00     0.163 HD
BRANCH   4   7
ATOM      7  C   UNL A   1      32.536  24.345  25.671  1.00  0.00     0.103 C 
ATOM      8  C   UNL A   1      33.433  22.046  25.564  1.00  0.00     0.107 C 
ATOM      9  C   UNL A   1      32.799  22.474  24.276  1.00  0.00    -0.006 C 
ATOM     10  C   UNL A   1      33.367  23.313  26.429  1.00  0.00     0.047 C 
ATOM     11  C   UNL A   1      32.259  23.698  24.354  1.00  0.00    -0.016 C 
BRANCH   8  12
ATOM     12  N   UNL A   1      34.784  21.592  25.325  1.00  0.00    -0.332 N 
ATOM     13  N   UNL A   1      34.592  19.260  24.932  1.00  0.00    -0.336 N 
ATOM     14  C   UNL A   1      35.314  20.391  25.036  1.00  0.00     0.315 C 
ATOM     15  H   UNL A   1      35.111  18.470  24.656  1.00  0.00     0.165 HD
ATOM     16  O   UNL A   1      36.533  20.320  24.865  1.00  0.00    -0.249 OA
ATOM     17  H   UNL A   1      35.455  22.310  25.387  1.00  0.00     0.165 HD
BRANCH  13  18
ATOM     18  C   UNL A   1      33.189  19.004  25.155  1.00  0.00     0.142 C 
BRANCH  18  19
ATOM     19  C   UNL A   1      32.491  18.064  24.156  1.00  0.00     0.101 C 
ATOM     20  O   UNL A   1      33.232  14.863  25.374  1.00  0.00    -0.275 OA
ATOM     21  C   UNL A   1      33.151  15.879  24.703  1.00  0.00     0.220 C 
ATOM     22  C   UNL A   1      34.149  16.378  23.689  1.00  0.00     0.102 C 
ATOM     23  N   UNL A   1      32.161  16.829  24.829  1.00  0.00    -0.352 N 
ATOM     24  C   UNL A   1      33.425  17.571  23.055  1.00  0.00     0.036 C 
ATOM     25  H   UNL A   1      31.321  16.682  25.323  1.00  0.00     0.163 HD
ENDBRANCH  18  19
ENDBRANCH  13  18
ENDBRANCH   8  12
ENDBRANCH   4   7
ENDBRANCH   2   3
ENDBRANCH   1   2
BRANCH   1  26
ATOM     26  C   UNL A   1      33.718  28.737  26.212  1.00  0.00     0.118 C 
BRANCH  26  27
ATOM     27  N   UNL A   1      33.695  30.150  26.563  1.00  0.00    -0.352 N 
ATOM     28  C   UNL A   1      34.507  30.894  27.383  1.00  0.00     0.251 C 
ATOM     29  H   UNL A   1      32.970  30.662  26.137  1.00  0.00     0.163 HD
ATOM     30  O   UNL A   1      34.158  32.040  27.663  1.00  0.00    -0.269 OA
BRANCH  28  31
ATOM     31  C   UNL A   1      35.765  30.349  27.949  1.00  0.00     0.039 A 
ATOM     32  C   UNL A   1      35.729  29.782  29.229  1.00  0.00     0.014 A 
ATOM     33  C   UNL A   1      36.986  30.448  27.278  1.00  0.00     0.014 A 
ATOM     34  C   UNL A   1      36.894  29.268  29.807  1.00  0.00     0.010 A 
ATOM     35  C   UNL A   1      38.136  29.876  27.826  1.00  0.00     0.010 A 
ATOM     36  C   UNL A   1      38.105  29.284  29.099  1.00  0.00    -0.014 A 
BRANCH  36  37
ATOM     37  C   UNL A   1      39.347  28.698  29.671  1.00  0.00     0.031 A 
ATOM     38  C   UNL A   1      39.965  29.291  30.909  1.00  0.00     0.074 A 
ATOM     39  C   UNL A   1      39.954  27.671  29.044  1.00  0.00     0.049 A 
ATOM     40  N   UNL A   1      41.086  28.978  31.510  1.00  0.00    -0.248 NA
ATOM     41  C   UNL A   1      39.235  30.400  31.539  1.00  0.00     0.031 C 
ATOM     42  C   UNL A   1      39.467  27.020  27.826  1.00  0.00     0.029 A 
ATOM     43  N   UNL A   1      41.116  27.002  29.336  1.00  0.00    -0.354 N 
ATOM     44  C   UNL A   1      41.209  29.867  32.574  1.00  0.00     0.074 A 
ATOM     45  C   UNL A   1      40.069  30.759  32.503  1.00  0.00     0.031 C 
ATOM     46  C   UNL A   1      40.312  26.033  27.489  1.00  0.00     0.029 A 
ATOM     47  C   UNL A   1      41.425  26.011  28.434  1.00  0.00     0.049 A 
ATOM     48  H   UNL A   1      41.677  27.211  30.117  1.00  0.00     0.167 HD
ATOM     49  C   UNL A   1      42.172  29.924  33.528  1.00  0.00     0.034 A 
ATOM     50  C   UNL A   1      42.488  25.186  28.364  1.00  0.00     0.034 A 
ATOM     51  C   UNL A   1      43.295  29.019  33.592  1.00  0.00     0.049 A 
ATOM     52  C   UNL A   1      43.566  25.289  29.413  1.00  0.00     0.074 A 
ATOM     53  C   UNL A   1      44.290  28.944  34.552  1.00  0.00     0.029 A 
ATOM     54  N   UNL A   1      43.583  28.037  32.650  1.00  0.00    -0.354 N 
ATOM     55  N   UNL A   1      43.644  26.105  30.440  1.00  0.00    -0.248 NA
ATOM     56  C   UNL A   1      44.694  24.357  29.297  1.00  0.00     0.031 C 
ATOM     57  C   UNL A   1      45.213  27.969  34.156  1.00  0.00     0.029 A 
ATOM     58  C   UNL A   1      44.757  27.379  32.988  1.00  0.00     0.049 A 
ATOM     59  H   UNL A   1      43.032  27.838  31.858  1.00  0.00     0.167 HD
ATOM     60  C   UNL A   1      44.814  25.757  31.111  1.00  0.00     0.074 A 
ATOM     61  C   UNL A   1      45.404  24.658  30.375  1.00  0.00     0.031 C 
ATOM     62  C   UNL A   1      45.345  26.292  32.239  1.00  0.00     0.034 A 
BRANCH  49  63
ATOM     63  C   UNL A   1      42.070  31.031  34.553  1.00  0.00     0.023 A 
ATOM     64  C   UNL A   1      41.033  31.069  35.502  1.00  0.00     0.031 A 
ATOM     65  C   UNL A   1      43.002  32.083  34.557  1.00  0.00     0.131 A 
ATOM     66  C   UNL A   1      40.903  32.177  36.353  1.00  0.00     0.055 A 
ATOM     67  C   UNL A   1      42.917  33.141  35.465  1.00  0.00     0.041 A 
ATOM     68  F   UNL A   1      44.005  32.114  33.665  1.00  0.00    -0.206 F 
ATOM     69  C   UNL A   1      41.851  33.202  36.359  1.00  0.00     0.022 A 
BRANCH  66  70
ATOM     70  S   UNL A   1      39.389  32.336  37.341  1.00  0.00     0.124 S 
ATOM     71  O   UNL A   1      38.815  33.568  36.804  1.00  0.00    -0.237 OA
ATOM     72  O   UNL A   1      38.674  31.106  37.022  1.00  0.00    -0.237 OA
ATOM     73  O   UNL A   1      39.883  32.435  38.713  1.00  0.00    -0.744 OA
ENDBRANCH  66  70
ENDBRANCH  49  63
BRANCH  50  74
ATOM     74  C   UNL A   1      42.597  24.189  27.263  1.00  0.00     0.023 A 
ATOM     75  C   UNL A   1      41.948  22.947  27.353  1.00  0.00     0.031 A 
ATOM     76  C   UNL A   1      43.371  24.449  26.119  1.00  0.00     0.131 A 
ATOM     77  C   UNL A   1      42.117  21.995  26.334  1.00  0.00     0.055 A 
ATOM     78  C   UNL A   1      43.498  23.517  25.087  1.00  0.00     0.041 A 
ATOM     79  F   UNL A   1      44.005  25.625  25.982  1.00  0.00    -0.206 F 
ATOM     80  C   UNL A   1      42.877  22.277  25.197  1.00  0.00     0.022 A 
BRANCH  77  81
ATOM     81  S   UNL A   1      41.376  20.355  26.550  1.00  0.00     0.124 S 
ATOM     82  O   UNL A   1      41.804  20.010  27.900  1.00  0.00    -0.237 OA
ATOM     83  O   UNL A   1      39.955  20.638  26.377  1.00  0.00    -0.237 OA
ATOM     84  O   UNL A   1      41.984  19.565  25.481  1.00  0.00    -0.744 OA
ENDBRANCH  77  81
ENDBRANCH  50  74
BRANCH  62  85
ATOM     85  C   UNL A   1      46.605  25.655  32.774  1.00  0.00     0.023 A 
ATOM     86  C   UNL A   1      47.871  25.943  32.234  1.00  0.00     0.031 A 
ATOM     87  C   UNL A   1      46.533  24.736  33.836  1.00  0.00     0.131 A 
ATOM     88  C   UNL A   1      49.006  25.279  32.724  1.00  0.00     0.055 A 
ATOM     89  C   UNL A   1      47.672  24.122  34.357  1.00  0.00     0.041 A 
ATOM     90  F   UNL A   1      45.349  24.422  34.388  1.00  0.00    -0.206 F 
ATOM     91  C   UNL A   1      48.917  24.383  33.792  1.00  0.00     0.022 A 
BRANCH  88  92
ATOM     92  S   UNL A   1      50.597  25.538  31.889  1.00  0.00     0.124 S 
ATOM     93  O   UNL A   1      51.520  25.629  33.016  1.00  0.00    -0.237 OA
ATOM     94  O   UNL A   1      50.715  24.339  31.065  1.00  0.00    -0.237 OA
ATOM     95  O   UNL A   1      50.398  26.781  31.148  1.00  0.00    -0.744 OA
ENDBRANCH  88  92
ENDBRANCH  62  85
ENDBRANCH  36  37
ENDBRANCH  28  31
ENDBRANCH  26  27
ENDBRANCH   1  26
TORSDOF 16
ENDMDL
MODEL 3
REMARK VINA RESULT:     -12.6      2.081      7.769
REMARK SMILES O=C1CC[C@H](CNC(=O)N[C@@H]2C=C[C@@H](C(=O)NCCCNC(=O)c3ccc(-c4c5nc(c(-c6cc(S(=O)(=O)[O-])ccc6F)c6ccc([nH]6)c(-c6cc(S(=O)(=O)[O-])ccc6F)c6nc(c(-c7cc(S(=O)(=O)[O-])ccc7F)c7ccc4[nH]7)C=C6)C=C5)cc3)C2)N1
REMARK SMILES IDX 19 1 18 2 17 3 15 4 16 5 14 7 11 8 12 9 87 10 13 11 10 12
REMARK SMILES IDX 7 13 8 14 9 16 6 18 5 19 1 20 2 21 3 22 88 23 4 24 20 26
REMARK SMILES IDX 21 27 22 28 23 30 24 31 25 32 86 33 26 34 85 35 27 36 28 37
REMARK SMILES IDX 29 38 79 39 30 40 84 41 78 42 80 43 31 44 83 45 77 46 76 47
REMARK SMILES IDX 32 49 64 50 44 51 63 52 45 53 48 54 62 55 81 56 46 57 47 58
REMARK SMILES IDX 61 60 82 61 49 62 33 63 34 64 42 65 35 66 41 67 43 68 40 69
REMARK SMILES IDX 36 70 37 71 38 72 39 73 65 74 66 75 74 76 67 77 73 78 75 79
REMARK SMILES IDX 72 80 68 81 69 82 70 83 71 84 50 85 51 86 59 87 52 88 58 89
REMARK SMILES IDX 60 90 57 91 53 92 54 93 55 94 56 95
REMARK H PARENT 17 6 7 15 10 17 88 25 21 29 80 48 48 59
REMARK Flexibility Score: inf
ROOT
ATOM      1  C   UNL A   1      32.725  28.069  26.883  1.00  0.00     0.042 C 
ENDROOT
BRANCH   1   2
ATOM      2  C   UNL A   1      31.712  27.418  25.945  1.00  0.00     0.117 C 
BRANCH   2   3
ATOM      3  N   UNL A   1      31.143  26.188  26.464  1.00  0.00    -0.356 N 
ATOM      4  C   UNL A   1      31.655  24.933  26.583  1.00  0.00     0.227 C 
ATOM      5  O   UNL A   1      30.998  24.121  27.244  1.00  0.00    -0.274 OA
ATOM      6  H   UNL A   1      30.218  26.279  26.791  1.00  0.00     0.163 HD
BRANCH   4   7
ATOM      7  C   UNL A   1      32.941  24.473  25.883  1.00  0.00     0.103 C 
ATOM      8  C   UNL A   1      33.769  22.164  25.588  1.00  0.00     0.107 C 
ATOM      9  C   UNL A   1      33.360  22.797  24.293  1.00  0.00    -0.006 C 
ATOM     10  C   UNL A   1      33.608  23.304  26.604  1.00  0.00     0.047 C 
ATOM     11  C   UNL A   1      32.855  24.025  24.461  1.00  0.00    -0.016 C 
BRANCH   8  12
ATOM     12  N   UNL A   1      35.125  21.674  25.494  1.00  0.00    -0.332 N 
ATOM     13  N   UNL A   1      34.921  19.419  24.789  1.00  0.00    -0.336 N 
ATOM     14  C   UNL A   1      35.655  20.492  25.138  1.00  0.00     0.315 C 
ATOM     15  H   UNL A   1      35.450  18.642  24.495  1.00  0.00     0.165 HD
ATOM     16  O   UNL A   1      36.883  20.380  25.139  1.00  0.00    -0.249 OA
ATOM     17  H   UNL A   1      35.801  22.346  25.743  1.00  0.00     0.165 HD
BRANCH  13  18
ATOM     18  C   UNL A   1      33.492  19.209  24.770  1.00  0.00     0.142 C 
BRANCH  18  19
ATOM     19  C   UNL A   1      32.971  18.094  23.847  1.00  0.00     0.101 C 
ATOM     20  O   UNL A   1      32.422  15.404  26.025  1.00  0.00    -0.275 OA
ATOM     21  C   UNL A   1      32.834  16.143  25.146  1.00  0.00     0.220 C 
ATOM     22  C   UNL A   1      34.211  16.144  24.532  1.00  0.00     0.102 C 
ATOM     23  N   UNL A   1      32.132  17.204  24.616  1.00  0.00    -0.352 N 
ATOM     24  C   UNL A   1      34.072  17.146  23.380  1.00  0.00     0.036 C 
ATOM     25  H   UNL A   1      31.165  17.341  24.748  1.00  0.00     0.163 HD
ENDBRANCH  18  19
ENDBRANCH  13  18
ENDBRANCH   8  12
ENDBRANCH   4   7
ENDBRANCH   2   3
ENDBRANCH   1   2
BRANCH   1  26
ATOM     26  C   UNL A   1      33.722  29.015  26.214  1.00  0.00     0.118 C 
BRANCH  26  27
ATOM     27  N   UNL A   1      33.609  30.384  26.695  1.00  0.00    -0.352 N 
ATOM     28  C   UNL A   1      34.358  31.091  27.604  1.00  0.00     0.251 C 
ATOM     29  H   UNL A   1      32.864  30.893  26.301  1.00  0.00     0.163 HD
ATOM     30  O   UNL A   1      33.937  32.183  27.981  1.00  0.00    -0.269 OA
BRANCH  28  31
ATOM     31  C   UNL A   1      35.634  30.565  28.149  1.00  0.00     0.039 A 
ATOM     32  C   UNL A   1      35.583  29.719  29.264  1.00  0.00     0.014 A 
ATOM     33  C   UNL A   1      36.875  30.944  27.632  1.00  0.00     0.014 A 
ATOM     34  C   UNL A   1      36.763  29.211  29.819  1.00  0.00     0.010 A 
ATOM     35  C   UNL A   1      38.048  30.386  28.144  1.00  0.00     0.010 A 
ATOM     36  C   UNL A   1      38.006  29.517  29.246  1.00  0.00    -0.014 A 
BRANCH  36  37
ATOM     37  C   UNL A   1      39.270  28.949  29.788  1.00  0.00     0.031 A 
ATOM     38  C   UNL A   1      39.939  29.585  30.977  1.00  0.00     0.074 A 
ATOM     39  C   UNL A   1      39.850  27.899  29.173  1.00  0.00     0.049 A 
ATOM     40  N   UNL A   1      41.084  29.291  31.541  1.00  0.00    -0.248 NA
ATOM     41  C   UNL A   1      39.237  30.717  31.597  1.00  0.00     0.031 C 
ATOM     42  C   UNL A   1      39.313  27.207  28.000  1.00  0.00     0.029 A 
ATOM     43  N   UNL A   1      41.023  27.238  29.440  1.00  0.00    -0.354 N 
ATOM     44  C   UNL A   1      41.252  30.217  32.567  1.00  0.00     0.074 A 
ATOM     45  C   UNL A   1      40.110  31.108  32.512  1.00  0.00     0.031 C 
ATOM     46  C   UNL A   1      40.143  26.206  27.663  1.00  0.00     0.029 A 
ATOM     47  C   UNL A   1      41.293  26.215  28.562  1.00  0.00     0.049 A 
ATOM     48  H   UNL A   1      41.616  27.474  30.189  1.00  0.00     0.167 HD
ATOM     49  C   UNL A   1      42.254  30.305  33.478  1.00  0.00     0.034 A 
ATOM     50  C   UNL A   1      42.352  25.386  28.478  1.00  0.00     0.034 A 
ATOM     51  C   UNL A   1      43.378  29.400  33.527  1.00  0.00     0.049 A 
ATOM     52  C   UNL A   1      43.473  25.524  29.477  1.00  0.00     0.074 A 
ATOM     53  C   UNL A   1      44.412  29.357  34.448  1.00  0.00     0.029 A 
ATOM     54  N   UNL A   1      43.625  28.385  32.611  1.00  0.00    -0.354 N 
ATOM     55  N   UNL A   1      43.594  26.376  30.470  1.00  0.00    -0.248 NA
ATOM     56  C   UNL A   1      44.594  24.586  29.347  1.00  0.00     0.031 C 
ATOM     57  C   UNL A   1      45.317  28.367  34.049  1.00  0.00     0.029 A 
ATOM     58  C   UNL A   1      44.812  27.737  32.923  1.00  0.00     0.049 A 
ATOM     59  H   UNL A   1      43.043  28.159  31.850  1.00  0.00     0.167 HD
ATOM     60  C   UNL A   1      44.790  26.049  31.104  1.00  0.00     0.074 A 
ATOM     61  C   UNL A   1      45.348  24.923  30.384  1.00  0.00     0.031 C 
ATOM     62  C   UNL A   1      45.368  26.623  32.190  1.00  0.00     0.034 A 
BRANCH  49  63
ATOM     63  C   UNL A   1      42.195  31.448  34.466  1.00  0.00     0.023 A 
ATOM     64  C   UNL A   1      41.271  31.465  35.526  1.00  0.00     0.031 A 
ATOM     65  C   UNL A   1      43.051  32.554  34.325  1.00  0.00     0.131 A 
ATOM     66  C   UNL A   1      41.164  32.599  36.345  1.00  0.00     0.055 A 
ATOM     67  C   UNL A   1      42.999  33.644  35.197  1.00  0.00     0.041 A 
ATOM     68  F   UNL A   1      43.943  32.606  33.323  1.00  0.00    -0.206 F 
ATOM     69  C   UNL A   1      42.038  33.680  36.204  1.00  0.00     0.022 A 
BRANCH  66  70
ATOM     70  S   UNL A   1      39.763  32.710  37.493  1.00  0.00     0.124 S 
ATOM     71  O   UNL A   1      38.989  31.525  37.129  1.00  0.00    -0.237 OA
ATOM     72  O   UNL A   1      40.419  32.669  38.794  1.00  0.00    -0.237 OA
ATOM     73  O   UNL A   1      39.136  33.984  37.147  1.00  0.00    -0.744 OA
ENDBRANCH  66  70
ENDBRANCH  49  63
BRANCH  50  74
ATOM     74  C   UNL A   1      42.414  24.350  27.409  1.00  0.00     0.023 A 
ATOM     75  C   UNL A   1      41.802  23.100  27.586  1.00  0.00     0.031 A 
ATOM     76  C   UNL A   1      43.109  24.583  26.209  1.00  0.00     0.131 A 
ATOM     77  C   UNL A   1      41.928  22.113  26.594  1.00  0.00     0.055 A 
ATOM     78  C   UNL A   1      43.192  23.614  25.207  1.00  0.00     0.041 A 
ATOM     79  F   UNL A   1      43.706  25.765  25.989  1.00  0.00    -0.206 F 
ATOM     80  C   UNL A   1      42.608  22.367  25.401  1.00  0.00     0.022 A 
BRANCH  77  81
ATOM     81  S   UNL A   1      41.240  20.467  26.916  1.00  0.00     0.124 S 
ATOM     82  O   UNL A   1      40.861  20.572  28.320  1.00  0.00    -0.237 OA
ATOM     83  O   UNL A   1      40.142  20.404  25.957  1.00  0.00    -0.237 OA
ATOM     84  O   UNL A   1      42.360  19.571  26.636  1.00  0.00    -0.744 OA
ENDBRANCH  77  81
ENDBRANCH  50  74
BRANCH  62  85
ATOM     85  C   UNL A   1      46.648  26.002  32.694  1.00  0.00     0.023 A 
ATOM     86  C   UNL A   1      46.647  24.948  33.624  1.00  0.00     0.031 A 
ATOM     87  C   UNL A   1      47.890  26.485  32.243  1.00  0.00     0.131 A 
ATOM     88  C   UNL A   1      47.864  24.445  34.110  1.00  0.00     0.055 A 
ATOM     89  C   UNL A   1      49.096  25.942  32.686  1.00  0.00     0.041 A 
ATOM     90  F   UNL A   1      47.949  27.493  31.357  1.00  0.00    -0.206 F 
ATOM     91  C   UNL A   1      49.088  24.924  33.636  1.00  0.00     0.022 A 
BRANCH  88  92
ATOM     92  S   UNL A   1      47.830  23.210  35.439  1.00  0.00     0.124 S 
ATOM     93  O   UNL A   1      48.552  23.893  36.508  1.00  0.00    -0.237 OA
ATOM     94  O   UNL A   1      46.398  23.023  35.656  1.00  0.00    -0.237 OA
ATOM     95  O   UNL A   1      48.522  22.061  34.859  1.00  0.00    -0.744 OA
ENDBRANCH  88  92
ENDBRANCH  62  85
ENDBRANCH  36  37
ENDBRANCH  28  31
ENDBRANCH  26  27
ENDBRANCH   1  26
TORSDOF 16
ENDMDL
