MODEL 1
REMARK VINA RESULT:     -12.7      0.000      0.000
REMARK SMILES CC(=O)Nc1cccc(-c2cc(F)ccc2C(=O)NCCCNC(=O)c2ccc(-c3c4nc(c(-c5cc(S(=O)(=O)[O-])ccc5F)c5ccc([nH]5)c(-c5cc(S(=O)(=O)[O-])ccc5F)c5nc(c(-c6cc(S(=O)(=O)[O-])ccc6F)c6ccc3[nH]6)C=C5)C=C4)cc2)c1
REMARK SMILES IDX 21 1 20 2 19 3 17 4 18 5 16 7 10 8 11 9 12 10 15 11 13 12
REMARK SMILES IDX 14 13 9 14 5 15 6 16 89 17 7 18 8 19 4 20 1 21 2 22 3 23
REMARK SMILES IDX 22 25 23 26 24 27 25 29 26 30 27 31 88 32 28 33 87 34 29 35
REMARK SMILES IDX 30 36 31 37 81 38 32 39 86 40 80 41 82 42 33 43 85 44 79 45
REMARK SMILES IDX 78 46 34 48 66 49 46 50 65 51 47 52 50 53 64 54 83 55 48 56
REMARK SMILES IDX 49 57 63 59 84 60 51 61 35 62 36 63 44 64 37 65 43 66 45 67
REMARK SMILES IDX 42 68 38 69 39 70 40 71 41 72 67 73 68 74 76 75 69 76 75 77
REMARK SMILES IDX 77 78 74 79 70 80 71 81 72 82 73 83 52 84 53 85 61 86 54 87
REMARK SMILES IDX 60 88 62 89 59 90 55 91 56 92 57 93 58 94
REMARK H PARENT 19 6 4 24 23 28 82 47 50 58
REMARK Flexibility Score: inf
ROOT
ATOM      1  C   UNL A   1      33.233  28.266  26.990  1.00  0.00     0.042 C 
ENDROOT
BRANCH   1   2
ATOM      2  C   UNL A   1      31.766  28.518  27.235  1.00  0.00     0.118 C 
BRANCH   2   3
ATOM      3  N   UNL A   1      30.828  27.449  27.095  1.00  0.00    -0.352 N 
ATOM      4  C   UNL A   1      30.766  26.513  26.088  1.00  0.00     0.251 C 
ATOM      5  O   UNL A   1      30.062  25.523  26.319  1.00  0.00    -0.269 OA
ATOM      6  H   UNL A   1      30.146  27.373  27.802  1.00  0.00     0.163 HD
BRANCH   4   7
ATOM      7  C   UNL A   1      31.374  26.635  24.702  1.00  0.00     0.047 A 
ATOM      8  C   UNL A   1      30.957  27.348  23.536  1.00  0.00    -0.003 A 
ATOM      9  C   UNL A   1      31.789  27.287  22.386  1.00  0.00     0.048 A 
ATOM     10  C   UNL A   1      32.975  26.566  22.368  1.00  0.00     0.123 A 
ATOM     11  C   UNL A   1      32.600  25.914  24.633  1.00  0.00     0.017 A 
ATOM     12  F   UNL A   1      33.719  26.542  21.255  1.00  0.00    -0.207 F 
ATOM     13  C   UNL A   1      33.391  25.876  23.486  1.00  0.00     0.040 A 
BRANCH   8  14
ATOM     14  C   UNL A   1      29.713  28.132  23.354  1.00  0.00    -0.015 A 
ATOM     15  C   UNL A   1      28.518  30.263  23.335  1.00  0.00     0.041 A 
ATOM     16  C   UNL A   1      27.304  29.577  23.463  1.00  0.00     0.026 A 
ATOM     17  C   UNL A   1      29.716  29.532  23.235  1.00  0.00     0.034 A 
ATOM     18  C   UNL A   1      27.271  28.185  23.464  1.00  0.00     0.003 A 
ATOM     19  C   UNL A   1      28.466  27.470  23.405  1.00  0.00     0.009 A 
BRANCH  15  20
ATOM     20  N   UNL A   1      28.478  31.657  23.539  1.00  0.00    -0.326 N 
ATOM     21  C   UNL A   1      28.079  32.476  21.230  1.00  0.00     0.114 C 
ATOM     22  C   UNL A   1      28.497  32.696  22.657  1.00  0.00     0.221 C 
ATOM     23  O   UNL A   1      28.816  33.824  23.038  1.00  0.00    -0.275 OA
ATOM     24  H   UNL A   1      28.427  31.926  24.484  1.00  0.00     0.169 HD
ENDBRANCH  15  20
ENDBRANCH   8  14
ENDBRANCH   4   7
ENDBRANCH   2   3
ENDBRANCH   1   2
BRANCH   1  25
ATOM     25  C   UNL A   1      33.952  29.337  26.185  1.00  0.00     0.118 C 
BRANCH  25  26
ATOM     26  N   UNL A   1      33.846  30.689  26.740  1.00  0.00    -0.352 N 
ATOM     27  C   UNL A   1      34.503  31.373  27.740  1.00  0.00     0.251 C 
ATOM     28  H   UNL A   1      33.151  31.230  26.299  1.00  0.00     0.163 HD
ATOM     29  O   UNL A   1      33.990  32.412  28.152  1.00  0.00    -0.269 OA
BRANCH  27  30
ATOM     30  C   UNL A   1      35.750  30.872  28.375  1.00  0.00     0.039 A 
ATOM     31  C   UNL A   1      35.669  29.844  29.325  1.00  0.00     0.014 A 
ATOM     32  C   UNL A   1      36.999  31.400  28.079  1.00  0.00     0.014 A 
ATOM     33  C   UNL A   1      36.834  29.302  29.879  1.00  0.00     0.010 A 
ATOM     34  C   UNL A   1      38.155  30.746  28.481  1.00  0.00     0.010 A 
ATOM     35  C   UNL A   1      38.094  29.707  29.414  1.00  0.00    -0.014 A 
BRANCH  35  36
ATOM     36  C   UNL A   1      39.362  29.112  29.916  1.00  0.00     0.031 A 
ATOM     37  C   UNL A   1      40.066  29.731  31.100  1.00  0.00     0.074 A 
ATOM     38  C   UNL A   1      39.922  28.077  29.258  1.00  0.00     0.049 A 
ATOM     39  N   UNL A   1      41.238  29.452  31.610  1.00  0.00    -0.248 NA
ATOM     40  C   UNL A   1      39.383  30.854  31.764  1.00  0.00     0.031 C 
ATOM     41  C   UNL A   1      39.374  27.438  28.058  1.00  0.00     0.029 A 
ATOM     42  N   UNL A   1      41.080  27.383  29.498  1.00  0.00    -0.354 N 
ATOM     43  C   UNL A   1      41.439  30.380  32.628  1.00  0.00     0.074 A 
ATOM     44  C   UNL A   1      40.317  31.291  32.591  1.00  0.00     0.031 C 
ATOM     45  C   UNL A   1      40.171  26.421  27.696  1.00  0.00     0.029 A 
ATOM     46  C   UNL A   1      41.314  26.369  28.599  1.00  0.00     0.049 A 
ATOM     47  H   UNL A   1      41.688  27.592  30.244  1.00  0.00     0.167 HD
ATOM     48  C   UNL A   1      42.441  30.444  33.540  1.00  0.00     0.034 A 
ATOM     49  C   UNL A   1      42.339  25.498  28.507  1.00  0.00     0.034 A 
ATOM     50  C   UNL A   1      43.537  29.507  33.576  1.00  0.00     0.049 A 
ATOM     51  C   UNL A   1      43.436  25.575  29.537  1.00  0.00     0.074 A 
ATOM     52  C   UNL A   1      44.587  29.436  34.473  1.00  0.00     0.029 A 
ATOM     53  N   UNL A   1      43.718  28.466  32.670  1.00  0.00    -0.354 N 
ATOM     54  N   UNL A   1      43.589  26.432  30.522  1.00  0.00    -0.248 NA
ATOM     55  C   UNL A   1      44.485  24.553  29.456  1.00  0.00     0.031 C 
ATOM     56  C   UNL A   1      45.437  28.399  34.072  1.00  0.00     0.029 A 
ATOM     57  C   UNL A   1      44.873  27.763  32.978  1.00  0.00     0.049 A 
ATOM     58  H   UNL A   1      43.116  28.260  31.921  1.00  0.00     0.167 HD
ATOM     59  C   UNL A   1      44.737  26.029  31.199  1.00  0.00     0.074 A 
ATOM     60  C   UNL A   1      45.216  24.839  30.521  1.00  0.00     0.031 C 
ATOM     61  C   UNL A   1      45.342  26.587  32.280  1.00  0.00     0.034 A 
BRANCH  48  62
ATOM     62  C   UNL A   1      42.389  31.569  34.551  1.00  0.00     0.023 A 
ATOM     63  C   UNL A   1      41.488  31.549  35.632  1.00  0.00     0.031 A 
ATOM     64  C   UNL A   1      43.209  32.703  34.408  1.00  0.00     0.131 A 
ATOM     65  C   UNL A   1      41.353  32.674  36.459  1.00  0.00     0.055 A 
ATOM     66  C   UNL A   1      43.141  33.779  35.297  1.00  0.00     0.041 A 
ATOM     67  F   UNL A   1      44.075  32.797  33.387  1.00  0.00    -0.206 F 
ATOM     68  C   UNL A   1      42.195  33.779  36.318  1.00  0.00     0.022 A 
BRANCH  65  69
ATOM     69  S   UNL A   1      39.943  32.743  37.600  1.00  0.00     0.124 S 
ATOM     70  O   UNL A   1      40.594  32.495  38.885  1.00  0.00    -0.237 OA
ATOM     71  O   UNL A   1      39.434  34.092  37.391  1.00  0.00    -0.237 OA
ATOM     72  O   UNL A   1      39.073  31.665  37.133  1.00  0.00    -0.744 OA
ENDBRANCH  65  69
ENDBRANCH  48  62
BRANCH  49  73
ATOM     73  C   UNL A   1      42.372  24.483  27.415  1.00  0.00     0.023 A 
ATOM     74  C   UNL A   1      41.569  23.332  27.468  1.00  0.00     0.031 A 
ATOM     75  C   UNL A   1      43.228  24.636  26.309  1.00  0.00     0.131 A 
ATOM     76  C   UNL A   1      41.672  22.358  26.463  1.00  0.00     0.055 A 
ATOM     77  C   UNL A   1      43.284  23.692  25.282  1.00  0.00     0.041 A 
ATOM     78  F   UNL A   1      44.010  25.722  26.202  1.00  0.00    -0.206 F 
ATOM     79  C   UNL A   1      42.512  22.537  25.363  1.00  0.00     0.022 A 
BRANCH  76  80
ATOM     80  S   UNL A   1      40.747  20.809  26.654  1.00  0.00     0.124 S 
ATOM     81  O   UNL A   1      40.804  20.606  28.098  1.00  0.00    -0.237 OA
ATOM     82  O   UNL A   1      39.443  21.165  26.107  1.00  0.00    -0.237 OA
ATOM     83  O   UNL A   1      41.515  19.854  25.858  1.00  0.00    -0.744 OA
ENDBRANCH  76  80
ENDBRANCH  49  73
BRANCH  61  84
ATOM     84  C   UNL A   1      46.562  25.877  32.818  1.00  0.00     0.023 A 
ATOM     85  C   UNL A   1      46.461  24.867  33.791  1.00  0.00     0.031 A 
ATOM     86  C   UNL A   1      47.846  26.247  32.381  1.00  0.00     0.131 A 
ATOM     87  C   UNL A   1      47.625  24.330  34.362  1.00  0.00     0.055 A 
ATOM     88  C   UNL A   1      48.998  25.648  32.893  1.00  0.00     0.041 A 
ATOM     89  F   UNL A   1      48.005  27.206  31.455  1.00  0.00    -0.206 F 
ATOM     90  C   UNL A   1      48.892  24.699  33.905  1.00  0.00     0.022 A 
BRANCH  87  91
ATOM     91  S   UNL A   1      47.458  23.256  35.813  1.00  0.00     0.124 S 
ATOM     92  O   UNL A   1      46.078  22.797  35.693  1.00  0.00    -0.237 OA
ATOM     93  O   UNL A   1      48.486  22.249  35.575  1.00  0.00    -0.237 OA
ATOM     94  O   UNL A   1      47.718  24.155  36.936  1.00  0.00    -0.744 OA
ENDBRANCH  87  91
ENDBRANCH  61  84
ENDBRANCH  35  36
ENDBRANCH  27  30
ENDBRANCH  25  26
ENDBRANCH   1  25
TORSDOF 15
ENDMDL
MODEL 2
REMARK VINA RESULT:     -12.6      3.103      8.404
REMARK SMILES CC(=O)Nc1cccc(-c2cc(F)ccc2C(=O)NCCCNC(=O)c2ccc(-c3c4nc(c(-c5cc(S(=O)(=O)[O-])ccc5F)c5ccc([nH]5)c(-c5cc(S(=O)(=O)[O-])ccc5F)c5nc(c(-c6cc(S(=O)(=O)[O-])ccc6F)c6ccc3[nH]6)C=C5)C=C4)cc2)c1
REMARK SMILES IDX 21 1 20 2 19 3 17 4 18 5 16 7 10 8 11 9 12 10 15 11 13 12
REMARK SMILES IDX 14 13 9 14 5 15 6 16 89 17 7 18 8 19 4 20 1 21 2 22 3 23
REMARK SMILES IDX 22 25 23 26 24 27 25 29 26 30 27 31 88 32 28 33 87 34 29 35
REMARK SMILES IDX 30 36 31 37 81 38 32 39 86 40 80 41 82 42 33 43 85 44 79 45
REMARK SMILES IDX 78 46 34 48 66 49 46 50 65 51 47 52 50 53 64 54 83 55 48 56
REMARK SMILES IDX 49 57 63 59 84 60 51 61 35 62 36 63 44 64 37 65 43 66 45 67
REMARK SMILES IDX 42 68 38 69 39 70 40 71 41 72 67 73 68 74 76 75 69 76 75 77
REMARK SMILES IDX 77 78 74 79 70 80 71 81 72 82 73 83 52 84 53 85 61 86 54 87
REMARK SMILES IDX 60 88 62 89 59 90 55 91 56 92 57 93 58 94
REMARK H PARENT 19 6 4 24 23 28 82 47 50 58
REMARK Flexibility Score: inf
ROOT
ATOM      1  C   UNL A   1      31.715  31.808  26.676  1.00  0.00     0.042 C 
ENDROOT
BRANCH   1   2
ATOM      2  C   UNL A   1      31.919  30.442  26.071  1.00  0.00     0.118 C 
BRANCH   2   3
ATOM      3  N   UNL A   1      31.379  29.290  26.720  1.00  0.00    -0.352 N 
ATOM      4  C   UNL A   1      31.505  27.973  26.337  1.00  0.00     0.251 C 
ATOM      5  O   UNL A   1      31.205  27.134  27.194  1.00  0.00    -0.269 OA
ATOM      6  H   UNL A   1      30.856  29.456  27.538  1.00  0.00     0.163 HD
BRANCH   4   7
ATOM      7  C   UNL A   1      31.860  27.466  24.950  1.00  0.00     0.047 A 
ATOM      8  C   UNL A   1      31.219  27.626  23.683  1.00  0.00    -0.003 A 
ATOM      9  C   UNL A   1      31.841  27.046  22.546  1.00  0.00     0.048 A 
ATOM     10  C   UNL A   1      33.034  26.342  22.633  1.00  0.00     0.123 A 
ATOM     11  C   UNL A   1      33.083  26.739  24.986  1.00  0.00     0.017 A 
ATOM     12  F   UNL A   1      33.575  25.814  21.528  1.00  0.00    -0.207 F 
ATOM     13  C   UNL A   1      33.664  26.182  23.848  1.00  0.00     0.040 A 
BRANCH   8  14
ATOM     14  C   UNL A   1      29.933  28.304  23.401  1.00  0.00    -0.015 A 
ATOM     15  C   UNL A   1      28.575  30.330  23.258  1.00  0.00     0.041 A 
ATOM     16  C   UNL A   1      27.414  29.550  23.315  1.00  0.00     0.026 A 
ATOM     17  C   UNL A   1      29.832  29.698  23.254  1.00  0.00     0.034 A 
ATOM     18  C   UNL A   1      27.492  28.160  23.342  1.00  0.00     0.003 A 
ATOM     19  C   UNL A   1      28.741  27.544  23.380  1.00  0.00     0.009 A 
BRANCH  15  20
ATOM     20  N   UNL A   1      28.409  31.719  23.431  1.00  0.00    -0.326 N 
ATOM     21  C   UNL A   1      28.127  32.473  21.082  1.00  0.00     0.114 C 
ATOM     22  C   UNL A   1      28.415  32.745  22.532  1.00  0.00     0.221 C 
ATOM     23  O   UNL A   1      28.613  33.899  22.914  1.00  0.00    -0.275 OA
ATOM     24  H   UNL A   1      28.264  31.996  24.363  1.00  0.00     0.169 HD
ENDBRANCH  15  20
ENDBRANCH   8  14
ENDBRANCH   4   7
ENDBRANCH   2   3
ENDBRANCH   1   2
BRANCH   1  25
ATOM     25  C   UNL A   1      32.975  32.488  27.191  1.00  0.00     0.118 C 
BRANCH  25  26
ATOM     26  N   UNL A   1      32.769  33.848  27.697  1.00  0.00    -0.352 N 
ATOM     27  C   UNL A   1      33.255  34.556  28.774  1.00  0.00     0.251 C 
ATOM     28  H   UNL A   1      32.146  34.372  27.144  1.00  0.00     0.163 HD
ATOM     29  O   UNL A   1      32.673  35.595  29.083  1.00  0.00    -0.269 OA
BRANCH  27  30
ATOM     30  C   UNL A   1      34.393  34.083  29.605  1.00  0.00     0.039 A 
ATOM     31  C   UNL A   1      34.159  33.131  30.608  1.00  0.00     0.014 A 
ATOM     32  C   UNL A   1      35.684  34.565  29.441  1.00  0.00     0.014 A 
ATOM     33  C   UNL A   1      35.226  32.612  31.351  1.00  0.00     0.010 A 
ATOM     34  C   UNL A   1      36.759  33.923  30.040  1.00  0.00     0.010 A 
ATOM     35  C   UNL A   1      36.547  32.959  31.030  1.00  0.00    -0.014 A 
BRANCH  35  36
ATOM     36  C   UNL A   1      37.721  32.380  31.739  1.00  0.00     0.031 A 
ATOM     37  C   UNL A   1      38.521  31.278  31.088  1.00  0.00     0.074 A 
ATOM     38  C   UNL A   1      38.011  32.782  32.992  1.00  0.00     0.049 A 
ATOM     39  N   UNL A   1      39.491  30.551  31.583  1.00  0.00    -0.248 NA
ATOM     40  C   UNL A   1      38.142  30.903  29.716  1.00  0.00     0.031 C 
ATOM     41  C   UNL A   1      37.266  33.789  33.754  1.00  0.00     0.029 A 
ATOM     42  N   UNL A   1      39.003  32.389  33.853  1.00  0.00    -0.354 N 
ATOM     43  C   UNL A   1      39.810  29.623  30.595  1.00  0.00     0.074 A 
ATOM     44  C   UNL A   1      38.862  29.812  29.521  1.00  0.00     0.031 C 
ATOM     45  C   UNL A   1      37.855  33.965  34.946  1.00  0.00     0.029 A 
ATOM     46  C   UNL A   1      38.982  33.046  35.060  1.00  0.00     0.049 A 
ATOM     47  H   UNL A   1      39.669  31.699  33.627  1.00  0.00     0.167 HD
ATOM     48  C   UNL A   1      40.826  28.725  30.564  1.00  0.00     0.034 A 
ATOM     49  C   UNL A   1      39.775  32.918  36.142  1.00  0.00     0.034 A 
ATOM     50  C   UNL A   1      41.779  28.573  31.637  1.00  0.00     0.049 A 
ATOM     51  C   UNL A   1      40.908  31.926  36.084  1.00  0.00     0.074 A 
ATOM     52  C   UNL A   1      42.876  27.734  31.708  1.00  0.00     0.029 A 
ATOM     53  N   UNL A   1      41.747  29.286  32.830  1.00  0.00    -0.354 N 
ATOM     54  N   UNL A   1      41.225  31.085  35.124  1.00  0.00    -0.248 NA
ATOM     55  C   UNL A   1      41.803  31.882  37.245  1.00  0.00     0.031 C 
ATOM     56  C   UNL A   1      43.466  27.891  32.967  1.00  0.00     0.029 A 
ATOM     57  C   UNL A   1      42.794  28.892  33.650  1.00  0.00     0.049 A 
ATOM     58  H   UNL A   1      41.079  29.971  33.061  1.00  0.00     0.167 HD
ATOM     59  C   UNL A   1      42.378  30.436  35.556  1.00  0.00     0.074 A 
ATOM     60  C   UNL A   1      42.709  31.004  36.848  1.00  0.00     0.031 C 
ATOM     61  C   UNL A   1      43.099  29.461  34.943  1.00  0.00     0.034 A 
BRANCH  48  62
ATOM     62  C   UNL A   1      40.938  27.845  29.338  1.00  0.00     0.023 A 
ATOM     63  C   UNL A   1      41.896  28.092  28.337  1.00  0.00     0.031 A 
ATOM     64  C   UNL A   1      40.045  26.778  29.135  1.00  0.00     0.131 A 
ATOM     65  C   UNL A   1      41.873  27.358  27.142  1.00  0.00     0.055 A 
ATOM     66  C   UNL A   1      40.092  25.985  27.985  1.00  0.00     0.041 A 
ATOM     67  F   UNL A   1      39.092  26.501  30.039  1.00  0.00    -0.206 F 
ATOM     68  C   UNL A   1      40.996  26.286  26.970  1.00  0.00     0.022 A 
BRANCH  65  69
ATOM     69  S   UNL A   1      42.879  27.944  25.749  1.00  0.00     0.124 S 
ATOM     70  O   UNL A   1      44.213  27.499  26.144  1.00  0.00    -0.237 OA
ATOM     71  O   UNL A   1      42.283  27.250  24.615  1.00  0.00    -0.237 OA
ATOM     72  O   UNL A   1      42.682  29.393  25.771  1.00  0.00    -0.744 OA
ENDBRANCH  65  69
ENDBRANCH  48  62
BRANCH  49  73
ATOM     73  C   UNL A   1      39.536  33.749  37.357  1.00  0.00     0.023 A 
ATOM     74  C   UNL A   1      38.843  33.233  38.465  1.00  0.00     0.031 A 
ATOM     75  C   UNL A   1      39.977  35.083  37.421  1.00  0.00     0.131 A 
ATOM     76  C   UNL A   1      38.570  34.058  39.568  1.00  0.00     0.055 A 
ATOM     77  C   UNL A   1      39.753  35.883  38.543  1.00  0.00     0.041 A 
ATOM     78  F   UNL A   1      40.652  35.625  36.395  1.00  0.00    -0.206 F 
ATOM     79  C   UNL A   1      39.033  35.375  39.621  1.00  0.00     0.022 A 
BRANCH  76  80
ATOM     80  S   UNL A   1      37.527  33.409  40.903  1.00  0.00     0.124 S 
ATOM     81  O   UNL A   1      36.589  32.571  40.165  1.00  0.00    -0.237 OA
ATOM     82  O   UNL A   1      38.500  32.708  41.733  1.00  0.00    -0.237 OA
ATOM     83  O   UNL A   1      36.953  34.613  41.501  1.00  0.00    -0.744 OA
ENDBRANCH  76  80
ENDBRANCH  49  73
BRANCH  61  84
ATOM     84  C   UNL A   1      44.346  28.990  35.654  1.00  0.00     0.023 A 
ATOM     85  C   UNL A   1      44.316  27.927  36.575  1.00  0.00     0.031 A 
ATOM     86  C   UNL A   1      45.572  29.643  35.440  1.00  0.00     0.131 A 
ATOM     87  C   UNL A   1      45.466  27.612  37.314  1.00  0.00     0.055 A 
ATOM     88  C   UNL A   1      46.733  29.268  36.117  1.00  0.00     0.041 A 
ATOM     89  F   UNL A   1      45.662  30.665  34.574  1.00  0.00    -0.206 F 
ATOM     90  C   UNL A   1      46.679  28.262  37.076  1.00  0.00     0.022 A 
BRANCH  87  91
ATOM     91  S   UNL A   1      45.313  26.446  38.694  1.00  0.00     0.124 S 
ATOM     92  O   UNL A   1      45.498  25.162  38.027  1.00  0.00    -0.237 OA
ATOM     93  O   UNL A   1      46.395  26.867  39.578  1.00  0.00    -0.237 OA
ATOM     94  O   UNL A   1      43.965  26.693  39.202  1.00  0.00    -0.744 OA
ENDBRANCH  87  91
ENDBRANCH  61  84
ENDBRANCH  35  36
ENDBRANCH  27  30
ENDBRANCH  25  26
ENDBRANCH   1  25
TORSDOF 15
ENDMDL
MODEL 3
REMARK VINA RESULT:     -12.5      5.089      9.678
REMARK SMILES CC(=O)Nc1cccc(-c2cc(F)ccc2C(=O)NCCCNC(=O)c2ccc(-c3c4nc(c(-c5cc(S(=O)(=O)[O-])ccc5F)c5ccc([nH]5)c(-c5cc(S(=O)(=O)[O-])ccc5F)c5nc(c(-c6cc(S(=O)(=O)[O-])ccc6F)c6ccc3[nH]6)C=C5)C=C4)cc2)c1
REMARK SMILES IDX 21 1 20 2 19 3 17 4 18 5 16 7 10 8 11 9 12 10 15 11 13 12
REMARK SMILES IDX 14 13 9 14 5 15 6 16 89 17 7 18 8 19 4 20 1 21 2 22 3 23
REMARK SMILES IDX 22 25 23 26 24 27 25 29 26 30 27 31 88 32 28 33 87 34 29 35
REMARK SMILES IDX 30 36 31 37 81 38 32 39 86 40 80 41 82 42 33 43 85 44 79 45
REMARK SMILES IDX 78 46 34 48 66 49 46 50 65 51 47 52 50 53 64 54 83 55 48 56
REMARK SMILES IDX 49 57 63 59 84 60 51 61 35 62 36 63 44 64 37 65 43 66 45 67
REMARK SMILES IDX 42 68 38 69 39 70 40 71 41 72 67 73 68 74 76 75 69 76 75 77
REMARK SMILES IDX 77 78 74 79 70 80 71 81 72 82 73 83 52 84 53 85 61 86 54 87
REMARK SMILES IDX 60 88 62 89 59 90 55 91 56 92 57 93 58 94
REMARK H PARENT 19 6 4 24 23 28 82 47 50 58
REMARK Flexibility Score: inf
ROOT
ATOM      1  C   UNL A   1      36.738  22.267  24.275  1.00  0.00     0.042 C 
ENDROOT
BRANCH   1   2
ATOM      2  C   UNL A   1      35.772  23.386  23.975  1.00  0.00     0.118 C 
BRANCH   2   3
ATOM      3  N   UNL A   1      34.940  23.316  22.816  1.00  0.00    -0.352 N 
ATOM      4  C   UNL A   1      33.623  23.702  22.702  1.00  0.00     0.251 C 
ATOM      5  O   UNL A   1      33.197  23.817  21.548  1.00  0.00    -0.269 OA
ATOM      6  H   UNL A   1      35.357  22.948  22.003  1.00  0.00     0.163 HD
BRANCH   4   7
ATOM      7  C   UNL A   1      32.633  23.881  23.839  1.00  0.00     0.047 A 
ATOM      8  C   UNL A   1      32.053  25.048  24.424  1.00  0.00    -0.003 A 
ATOM      9  C   UNL A   1      31.109  24.869  25.470  1.00  0.00     0.048 A 
ATOM     10  C   UNL A   1      30.745  23.611  25.931  1.00  0.00     0.123 A 
ATOM     11  C   UNL A   1      32.224  22.615  24.344  1.00  0.00     0.017 A 
ATOM     12  F   UNL A   1      29.852  23.501  26.922  1.00  0.00    -0.207 F 
ATOM     13  C   UNL A   1      31.295  22.476  25.375  1.00  0.00     0.040 A 
BRANCH   8  14
ATOM     14  C   UNL A   1      32.345  26.463  24.096  1.00  0.00    -0.015 A 
ATOM     15  C   UNL A   1      31.809  28.535  22.917  1.00  0.00     0.041 A 
ATOM     16  C   UNL A   1      33.123  28.979  23.111  1.00  0.00     0.026 A 
ATOM     17  C   UNL A   1      31.413  27.295  23.452  1.00  0.00     0.034 A 
ATOM     18  C   UNL A   1      34.028  28.220  23.848  1.00  0.00     0.003 A 
ATOM     19  C   UNL A   1      33.639  26.975  24.340  1.00  0.00     0.009 A 
BRANCH  15  20
ATOM     20  N   UNL A   1      31.026  29.266  22.001  1.00  0.00    -0.326 N 
ATOM     21  C   UNL A   1      29.299  30.232  23.499  1.00  0.00     0.114 C 
ATOM     22  C   UNL A   1      29.807  29.862  22.134  1.00  0.00     0.221 C 
ATOM     23  O   UNL A   1      29.141  30.134  21.134  1.00  0.00    -0.275 OA
ATOM     24  H   UNL A   1      31.432  29.364  21.110  1.00  0.00     0.169 HD
ENDBRANCH  15  20
ENDBRANCH   8  14
ENDBRANCH   4   7
ENDBRANCH   2   3
ENDBRANCH   1   2
BRANCH   1  25
ATOM     25  C   UNL A   1      36.948  21.965  25.751  1.00  0.00     0.118 C 
BRANCH  25  26
ATOM     26  N   UNL A   1      38.144  21.171  26.045  1.00  0.00    -0.352 N 
ATOM     27  C   UNL A   1      39.434  21.479  26.420  1.00  0.00     0.251 C 
ATOM     28  H   UNL A   1      37.991  20.203  25.956  1.00  0.00     0.163 HD
ATOM     29  O   UNL A   1      40.282  20.594  26.321  1.00  0.00    -0.269 OA
BRANCH  27  30
ATOM     30  C   UNL A   1      39.843  22.837  26.865  1.00  0.00     0.039 A 
ATOM     31  C   UNL A   1      40.760  22.965  27.918  1.00  0.00     0.014 A 
ATOM     32  C   UNL A   1      39.333  23.992  26.289  1.00  0.00     0.014 A 
ATOM     33  C   UNL A   1      41.220  24.230  28.302  1.00  0.00     0.010 A 
ATOM     34  C   UNL A   1      39.921  25.224  26.539  1.00  0.00     0.010 A 
ATOM     35  C   UNL A   1      40.851  25.370  27.573  1.00  0.00    -0.014 A 
BRANCH  35  36
ATOM     36  C   UNL A   1      41.368  26.728  27.893  1.00  0.00     0.031 A 
ATOM     37  C   UNL A   1      42.783  27.100  27.518  1.00  0.00     0.074 A 
ATOM     38  C   UNL A   1      40.602  27.588  28.593  1.00  0.00     0.049 A 
ATOM     39  N   UNL A   1      43.468  28.173  27.819  1.00  0.00    -0.248 NA
ATOM     40  C   UNL A   1      43.548  26.104  26.750  1.00  0.00     0.031 C 
ATOM     41  C   UNL A   1      39.245  27.317  29.075  1.00  0.00     0.029 A 
ATOM     42  N   UNL A   1      40.856  28.863  29.031  1.00  0.00    -0.354 N 
ATOM     43  C   UNL A   1      44.744  27.965  27.303  1.00  0.00     0.074 A 
ATOM     44  C   UNL A   1      44.764  26.623  26.766  1.00  0.00     0.031 C 
ATOM     45  C   UNL A   1      38.772  28.406  29.699  1.00  0.00     0.029 A 
ATOM     46  C   UNL A   1      39.807  29.432  29.714  1.00  0.00     0.049 A 
ATOM     47  H   UNL A   1      41.710  29.327  28.870  1.00  0.00     0.167 HD
ATOM     48  C   UNL A   1      45.791  28.825  27.241  1.00  0.00     0.034 A 
ATOM     49  C   UNL A   1      39.695  30.643  30.296  1.00  0.00     0.034 A 
ATOM     50  C   UNL A   1      45.739  30.170  27.759  1.00  0.00     0.049 A 
ATOM     51  C   UNL A   1      40.863  31.591  30.204  1.00  0.00     0.074 A 
ATOM     52  C   UNL A   1      46.713  31.152  27.718  1.00  0.00     0.029 A 
ATOM     53  N   UNL A   1      44.643  30.726  28.411  1.00  0.00    -0.354 N 
ATOM     54  N   UNL A   1      42.049  31.395  29.673  1.00  0.00    -0.248 NA
ATOM     55  C   UNL A   1      40.667  32.930  30.770  1.00  0.00     0.031 C 
ATOM     56  C   UNL A   1      46.232  32.274  28.402  1.00  0.00     0.029 A 
ATOM     57  C   UNL A   1      44.925  32.029  28.793  1.00  0.00     0.049 A 
ATOM     58  H   UNL A   1      43.792  30.262  28.577  1.00  0.00     0.167 HD
ATOM     59  C   UNL A   1      42.730  32.602  29.812  1.00  0.00     0.074 A 
ATOM     60  C   UNL A   1      41.809  33.520  30.454  1.00  0.00     0.031 C 
ATOM     61  C   UNL A   1      43.998  32.924  29.445  1.00  0.00     0.034 A 
BRANCH  48  62
ATOM     62  C   UNL A   1      47.067  28.321  26.601  1.00  0.00     0.023 A 
ATOM     63  C   UNL A   1      47.258  28.359  25.207  1.00  0.00     0.031 A 
ATOM     64  C   UNL A   1      48.085  27.747  27.382  1.00  0.00     0.131 A 
ATOM     65  C   UNL A   1      48.380  27.742  24.632  1.00  0.00     0.055 A 
ATOM     66  C   UNL A   1      49.248  27.225  26.810  1.00  0.00     0.041 A 
ATOM     67  F   UNL A   1      47.958  27.659  28.716  1.00  0.00    -0.206 F 
ATOM     68  C   UNL A   1      49.392  27.201  25.426  1.00  0.00     0.022 A 
BRANCH  65  69
ATOM     69  S   UNL A   1      48.404  27.498  22.834  1.00  0.00     0.124 S 
ATOM     70  O   UNL A   1      48.364  26.041  22.736  1.00  0.00    -0.237 OA
ATOM     71  O   UNL A   1      47.203  28.202  22.403  1.00  0.00    -0.237 OA
ATOM     72  O   UNL A   1      49.668  28.108  22.423  1.00  0.00    -0.744 OA
ENDBRANCH  65  69
ENDBRANCH  48  62
BRANCH  49  73
ATOM     73  C   UNL A   1      38.439  31.028  31.002  1.00  0.00     0.023 A 
ATOM     74  C   UNL A   1      37.371  31.624  30.312  1.00  0.00     0.031 A 
ATOM     75  C   UNL A   1      38.296  30.827  32.387  1.00  0.00     0.131 A 
ATOM     76  C   UNL A   1      36.228  32.042  31.013  1.00  0.00     0.055 A 
ATOM     77  C   UNL A   1      37.135  31.192  33.070  1.00  0.00     0.041 A 
ATOM     78  F   UNL A   1      39.282  30.253  33.095  1.00  0.00    -0.206 F 
ATOM     79  C   UNL A   1      36.097  31.816  32.385  1.00  0.00     0.022 A 
BRANCH  76  80
ATOM     80  S   UNL A   1      34.946  32.960  30.118  1.00  0.00     0.124 S 
ATOM     81  O   UNL A   1      34.467  31.957  29.173  1.00  0.00    -0.237 OA
ATOM     82  O   UNL A   1      34.028  33.322  31.191  1.00  0.00    -0.237 OA
ATOM     83  O   UNL A   1      35.679  34.077  29.525  1.00  0.00    -0.744 OA
ENDBRANCH  76  80
ENDBRANCH  49  73
BRANCH  61  84
ATOM     84  C   UNL A   1      44.434  34.349  29.690  1.00  0.00     0.023 A 
ATOM     85  C   UNL A   1      44.176  35.373  28.761  1.00  0.00     0.031 A 
ATOM     86  C   UNL A   1      45.156  34.679  30.851  1.00  0.00     0.131 A 
ATOM     87  C   UNL A   1      44.716  36.651  28.963  1.00  0.00     0.055 A 
ATOM     88  C   UNL A   1      45.619  35.974  31.086  1.00  0.00     0.041 A 
ATOM     89  F   UNL A   1      45.434  33.744  31.773  1.00  0.00    -0.206 F 
ATOM     90  C   UNL A   1      45.419  36.964  30.129  1.00  0.00     0.022 A 
BRANCH  87  91
ATOM     91  S   UNL A   1      44.617  37.854  27.610  1.00  0.00     0.124 S 
ATOM     92  O   UNL A   1      44.657  39.123  28.329  1.00  0.00    -0.237 OA
ATOM     93  O   UNL A   1      45.802  37.532  26.821  1.00  0.00    -0.237 OA
ATOM     94  O   UNL A   1      43.341  37.544  26.969  1.00  0.00    -0.744 OA
ENDBRANCH  87  91
ENDBRANCH  61  84
ENDBRANCH  35  36
ENDBRANCH  27  30
ENDBRANCH  25  26
ENDBRANCH   1  25
TORSDOF 15
ENDMDL
