MODEL 1
REMARK VINA RESULT:     -12.0      0.000      0.000
REMARK SMILES CN(C(=O)N[C@](C)(C(=O)NCCCNC(=O)c1ccc(-c2c3nc(c(-c4cc(S(=O)(=O)[O-])ccc4F)c4ccc([nH]4)c(-c4cc(S(=O)(=O)[O-])ccc4F)c4nc(c(-c5cc(S(=O)(=O)[O-])ccc5F)c5ccc2[nH]5)C=C4)C=C3)cc1)C(F)(F)F)[C@@H]1CCC[N@@H+](C)C1
REMARK SMILES IDX 12 1 11 2 10 3 8 4 9 5 6 7 7 8 5 9 3 10 4 11 2 13 1 14 84 15
REMARK SMILES IDX 89 16 88 17 87 18 90 19 86 21 85 22 80 23 81 24 82 25 83 26
REMARK SMILES IDX 13 27 14 28 15 29 16 31 17 32 18 33 79 34 19 35 78 36 20 37
REMARK SMILES IDX 21 38 22 39 72 40 23 41 77 42 71 43 73 44 24 45 76 46 70 47
REMARK SMILES IDX 69 48 25 50 57 51 37 52 56 53 38 54 41 55 55 56 74 57 39 58
REMARK SMILES IDX 40 59 54 61 75 62 42 63 26 64 27 65 35 66 28 67 34 68 36 69
REMARK SMILES IDX 33 70 29 71 30 72 31 73 32 74 58 75 59 76 67 77 60 78 66 79
REMARK SMILES IDX 68 80 65 81 61 82 62 83 63 84 64 85 43 86 44 87 52 88 45 89
REMARK SMILES IDX 51 90 53 91 50 92 46 93 47 94 48 95 49 96
REMARK H PARENT 10 6 5 12 88 20 14 30 73 49 41 60
REMARK Flexibility Score: inf
ROOT
ATOM      1  C   UNL A   1      31.670  31.718  26.604  1.00  0.00     0.042 C 
ENDROOT
BRANCH   1   2
ATOM      2  C   UNL A   1      31.869  30.236  26.293  1.00  0.00     0.117 C 
BRANCH   2   3
ATOM      3  N   UNL A   1      32.668  30.017  25.094  1.00  0.00    -0.354 N 
ATOM      4  C   UNL A   1      33.093  28.915  24.410  1.00  0.00     0.255 C 
ATOM      5  O   UNL A   1      33.704  29.180  23.371  1.00  0.00    -0.272 OA
ATOM      6  H   UNL A   1      32.970  30.860  24.682  1.00  0.00     0.163 HD
BRANCH   4   7
ATOM      7  C   UNL A   1      32.725  27.454  24.819  1.00  0.00     0.213 C 
ATOM      8  C   UNL A   1      31.211  27.276  24.975  1.00  0.00     0.056 C 
BRANCH   7   9
ATOM      9  N   UNL A   1      33.258  26.676  23.655  1.00  0.00    -0.316 N 
ATOM     10  C   UNL A   1      33.452  25.465  23.138  1.00  0.00     0.318 C 
ATOM     11  O   UNL A   1      33.939  25.552  22.010  1.00  0.00    -0.249 OA
ATOM     12  H   UNL A   1      33.609  27.328  23.006  1.00  0.00     0.166 HD
BRANCH  10  13
ATOM     13  N   UNL A   1      33.204  24.283  23.759  1.00  0.00    -0.319 N 
ATOM     14  C   UNL A   1      32.109  23.390  23.454  1.00  0.00     0.149 C 
BRANCH  13  15
ATOM     15  C   UNL A   1      34.105  23.784  24.841  1.00  0.00     0.141 C 
ATOM     16  C   UNL A   1      34.185  19.970  24.845  1.00  0.00     0.332 C 
ATOM     17  N   UNL A   1      34.531  21.329  24.450  1.00  0.00    -0.336 N 
ATOM     18  C   UNL A   1      35.980  21.543  24.450  1.00  0.00     0.262 C 
ATOM     19  C   UNL A   1      33.835  22.322  25.268  1.00  0.00     0.287 C 
ATOM     20  H   UNL A   1      34.212  21.453  23.490  1.00  0.00     0.347 HD
ATOM     21  C   UNL A   1      36.393  22.943  23.987  1.00  0.00     0.064 C 
ATOM     22  C   UNL A   1      35.604  24.068  24.651  1.00  0.00     0.037 C 
ENDBRANCH  13  15
ENDBRANCH  10  13
ENDBRANCH   7   9
BRANCH   7  23
ATOM     23  C   UNL A   1      33.410  27.271  26.197  1.00  0.00     0.420 C 
ATOM     24  F   UNL A   1      33.847  26.002  26.394  1.00  0.00    -0.168 F 
ATOM     25  F   UNL A   1      34.537  28.021  26.304  1.00  0.00    -0.168 F 
ATOM     26  F   UNL A   1      32.615  27.611  27.235  1.00  0.00    -0.168 F 
ENDBRANCH   7  23
ENDBRANCH   4   7
ENDBRANCH   2   3
ENDBRANCH   1   2
BRANCH   1  27
ATOM     27  C   UNL A   1      32.852  32.399  27.286  1.00  0.00     0.118 C 
BRANCH  27  28
ATOM     28  N   UNL A   1      32.595  33.789  27.620  1.00  0.00    -0.352 N 
ATOM     29  C   UNL A   1      33.174  34.590  28.578  1.00  0.00     0.251 C 
ATOM     30  H   UNL A   1      31.900  34.227  27.077  1.00  0.00     0.163 HD
ATOM     31  O   UNL A   1      32.685  35.691  28.809  1.00  0.00    -0.269 OA
BRANCH  29  32
ATOM     32  C   UNL A   1      34.349  34.121  29.347  1.00  0.00     0.039 A 
ATOM     33  C   UNL A   1      34.135  33.346  30.491  1.00  0.00     0.014 A 
ATOM     34  C   UNL A   1      35.652  34.446  28.962  1.00  0.00     0.014 A 
ATOM     35  C   UNL A   1      35.227  32.839  31.201  1.00  0.00     0.010 A 
ATOM     36  C   UNL A   1      36.737  33.869  29.620  1.00  0.00     0.010 A 
ATOM     37  C   UNL A   1      36.538  33.058  30.748  1.00  0.00    -0.014 A 
BRANCH  37  38
ATOM     38  C   UNL A   1      37.704  32.437  31.435  1.00  0.00     0.031 A 
ATOM     39  C   UNL A   1      38.445  31.294  30.795  1.00  0.00     0.074 A 
ATOM     40  C   UNL A   1      38.053  32.861  32.666  1.00  0.00     0.049 A 
ATOM     41  N   UNL A   1      39.442  30.587  31.265  1.00  0.00    -0.248 NA
ATOM     42  C   UNL A   1      37.983  30.872  29.466  1.00  0.00     0.031 C 
ATOM     43  C   UNL A   1      37.381  33.928  33.412  1.00  0.00     0.029 A 
ATOM     44  N   UNL A   1      39.050  32.446  33.513  1.00  0.00    -0.354 N 
ATOM     45  C   UNL A   1      39.713  29.625  30.297  1.00  0.00     0.074 A 
ATOM     46  C   UNL A   1      38.735  29.804  29.246  1.00  0.00     0.031 C 
ATOM     47  C   UNL A   1      37.996  34.095  34.593  1.00  0.00     0.029 A 
ATOM     48  C   UNL A   1      39.072  33.116  34.715  1.00  0.00     0.049 A 
ATOM     49  H   UNL A   1      39.690  31.734  33.283  1.00  0.00     0.167 HD
ATOM     50  C   UNL A   1      40.699  28.691  30.281  1.00  0.00     0.034 A 
ATOM     51  C   UNL A   1      39.852  32.952  35.802  1.00  0.00     0.034 A 
ATOM     52  C   UNL A   1      41.669  28.533  31.339  1.00  0.00     0.049 A 
ATOM     53  C   UNL A   1      40.928  31.897  35.773  1.00  0.00     0.074 A 
ATOM     54  C   UNL A   1      42.754  27.677  31.391  1.00  0.00     0.029 A 
ATOM     55  N   UNL A   1      41.659  29.231  32.541  1.00  0.00    -0.354 N 
ATOM     56  N   UNL A   1      41.221  31.044  34.819  1.00  0.00    -0.248 NA
ATOM     57  C   UNL A   1      41.784  31.790  36.961  1.00  0.00     0.031 C 
ATOM     58  C   UNL A   1      43.344  27.791  32.654  1.00  0.00     0.029 A 
ATOM     59  C   UNL A   1      42.689  28.788  33.360  1.00  0.00     0.049 A 
ATOM     60  H   UNL A   1      41.016  29.937  32.779  1.00  0.00     0.167 HD
ATOM     61  C   UNL A   1      42.311  30.313  35.283  1.00  0.00     0.074 A 
ATOM     62  C   UNL A   1      42.633  30.841  36.594  1.00  0.00     0.031 C 
ATOM     63  C   UNL A   1      42.988  29.303  34.678  1.00  0.00     0.034 A 
BRANCH  50  64
ATOM     64  C   UNL A   1      40.745  27.746  29.100  1.00  0.00     0.023 A 
ATOM     65  C   UNL A   1      41.692  27.886  28.070  1.00  0.00     0.031 A 
ATOM     66  C   UNL A   1      39.802  26.708  28.983  1.00  0.00     0.131 A 
ATOM     67  C   UNL A   1      41.617  27.070  26.930  1.00  0.00     0.055 A 
ATOM     68  C   UNL A   1      39.792  25.839  27.891  1.00  0.00     0.041 A 
ATOM     69  F   UNL A   1      38.858  26.533  29.921  1.00  0.00    -0.206 F 
ATOM     70  C   UNL A   1      40.691  26.029  26.846  1.00  0.00     0.022 A 
BRANCH  67  71
ATOM     71  S   UNL A   1      42.629  27.504  25.488  1.00  0.00     0.124 S 
ATOM     72  O   UNL A   1      43.899  27.863  26.116  1.00  0.00    -0.237 OA
ATOM     73  O   UNL A   1      42.624  26.266  24.717  1.00  0.00    -0.237 OA
ATOM     74  O   UNL A   1      41.904  28.620  24.885  1.00  0.00    -0.744 OA
ENDBRANCH  67  71
ENDBRANCH  50  64
BRANCH  51  75
ATOM     75  C   UNL A   1      39.624  33.787  37.017  1.00  0.00     0.023 A 
ATOM     76  C   UNL A   1      38.987  33.267  38.155  1.00  0.00     0.031 A 
ATOM     77  C   UNL A   1      40.034  35.133  37.049  1.00  0.00     0.131 A 
ATOM     78  C   UNL A   1      38.751  34.095  39.264  1.00  0.00     0.055 A 
ATOM     79  C   UNL A   1      39.845  35.937  38.174  1.00  0.00     0.041 A 
ATOM     80  F   UNL A   1      40.651  35.680  35.989  1.00  0.00    -0.206 F 
ATOM     81  C   UNL A   1      39.190  35.420  39.287  1.00  0.00     0.022 A 
BRANCH  78  82
ATOM     82  S   UNL A   1      37.795  33.435  40.658  1.00  0.00     0.124 S 
ATOM     83  O   UNL A   1      37.720  34.593  41.541  1.00  0.00    -0.237 OA
ATOM     84  O   UNL A   1      36.548  33.040  40.010  1.00  0.00    -0.237 OA
ATOM     85  O   UNL A   1      38.619  32.330  41.143  1.00  0.00    -0.744 OA
ENDBRANCH  78  82
ENDBRANCH  51  75
BRANCH  63  86
ATOM     86  C   UNL A   1      44.170  28.724  35.421  1.00  0.00     0.023 A 
ATOM     87  C   UNL A   1      44.020  27.699  36.372  1.00  0.00     0.031 A 
ATOM     88  C   UNL A   1      45.467  29.211  35.176  1.00  0.00     0.131 A 
ATOM     89  C   UNL A   1      45.137  27.237  37.085  1.00  0.00     0.055 A 
ATOM     90  C   UNL A   1      46.584  28.698  35.838  1.00  0.00     0.041 A 
ATOM     91  F   UNL A   1      45.672  30.193  34.284  1.00  0.00    -0.206 F 
ATOM     92  C   UNL A   1      46.421  27.714  36.809  1.00  0.00     0.022 A 
BRANCH  89  93
ATOM     93  S   UNL A   1      44.878  26.077  38.455  1.00  0.00     0.124 S 
ATOM     94  O   UNL A   1      44.756  24.803  37.753  1.00  0.00    -0.237 OA
ATOM     95  O   UNL A   1      46.089  26.254  39.249  1.00  0.00    -0.237 OA
ATOM     96  O   UNL A   1      43.649  26.558  39.085  1.00  0.00    -0.744 OA
ENDBRANCH  89  93
ENDBRANCH  63  86
ENDBRANCH  37  38
ENDBRANCH  29  32
ENDBRANCH  27  28
ENDBRANCH   1  27
TORSDOF 17
ENDMDL
MODEL 2
REMARK VINA RESULT:     -11.9      1.665      2.094
REMARK SMILES CN(C(=O)N[C@](C)(C(=O)NCCCNC(=O)c1ccc(-c2c3nc(c(-c4cc(S(=O)(=O)[O-])ccc4F)c4ccc([nH]4)c(-c4cc(S(=O)(=O)[O-])ccc4F)c4nc(c(-c5cc(S(=O)(=O)[O-])ccc5F)c5ccc2[nH]5)C=C4)C=C3)cc1)C(F)(F)F)[C@@H]1CCC[N@@H+](C)C1
REMARK SMILES IDX 12 1 11 2 10 3 8 4 9 5 6 7 7 8 5 9 3 10 4 11 2 13 1 14 84 15
REMARK SMILES IDX 89 16 88 17 87 18 90 19 86 21 85 22 80 23 81 24 82 25 83 26
REMARK SMILES IDX 13 27 14 28 15 29 16 31 17 32 18 33 79 34 19 35 78 36 20 37
REMARK SMILES IDX 21 38 22 39 72 40 23 41 77 42 71 43 73 44 24 45 76 46 70 47
REMARK SMILES IDX 69 48 25 50 57 51 37 52 56 53 38 54 41 55 55 56 74 57 39 58
REMARK SMILES IDX 40 59 54 61 75 62 42 63 26 64 27 65 35 66 28 67 34 68 36 69
REMARK SMILES IDX 33 70 29 71 30 72 31 73 32 74 58 75 59 76 67 77 60 78 66 79
REMARK SMILES IDX 68 80 65 81 61 82 62 83 63 84 64 85 43 86 44 87 52 88 45 89
REMARK SMILES IDX 51 90 53 91 50 92 46 93 47 94 48 95 49 96
REMARK H PARENT 10 6 5 12 88 20 14 30 73 49 41 60
REMARK Flexibility Score: inf
ROOT
ATOM      1  C   UNL A   1      30.973  31.817  26.214  1.00  0.00     0.042 C 
ENDROOT
BRANCH   1   2
ATOM      2  C   UNL A   1      31.027  30.622  25.264  1.00  0.00     0.117 C 
BRANCH   2   3
ATOM      3  N   UNL A   1      32.365  30.053  25.155  1.00  0.00    -0.354 N 
ATOM      4  C   UNL A   1      32.861  28.796  24.969  1.00  0.00     0.255 C 
ATOM      5  O   UNL A   1      34.091  28.758  24.857  1.00  0.00    -0.272 OA
ATOM      6  H   UNL A   1      33.073  30.733  25.235  1.00  0.00     0.163 HD
BRANCH   4   7
ATOM      7  C   UNL A   1      31.962  27.536  24.771  1.00  0.00     0.213 C 
ATOM      8  C   UNL A   1      30.607  27.900  24.154  1.00  0.00     0.056 C 
BRANCH   7   9
ATOM      9  N   UNL A   1      32.796  26.717  23.834  1.00  0.00    -0.316 N 
ATOM     10  C   UNL A   1      32.993  25.513  23.304  1.00  0.00     0.318 C 
ATOM     11  O   UNL A   1      33.906  25.551  22.477  1.00  0.00    -0.249 OA
ATOM     12  H   UNL A   1      33.479  27.317  23.454  1.00  0.00     0.166 HD
BRANCH  10  13
ATOM     13  N   UNL A   1      32.332  24.374  23.639  1.00  0.00    -0.319 N 
ATOM     14  C   UNL A   1      30.950  24.087  23.332  1.00  0.00     0.149 C 
BRANCH  13  15
ATOM     15  C   UNL A   1      33.030  23.272  24.367  1.00  0.00     0.141 C 
ATOM     16  C   UNL A   1      36.599  22.884  23.074  1.00  0.00     0.332 C 
ATOM     17  N   UNL A   1      35.496  23.424  23.859  1.00  0.00    -0.336 N 
ATOM     18  C   UNL A   1      35.823  23.486  25.286  1.00  0.00     0.262 C 
ATOM     19  C   UNL A   1      34.253  22.693  23.618  1.00  0.00     0.287 C 
ATOM     20  H   UNL A   1      35.346  24.383  23.547  1.00  0.00     0.347 HD
ATOM     21  C   UNL A   1      34.713  24.099  26.144  1.00  0.00     0.064 C 
ATOM     22  C   UNL A   1      33.326  23.531  25.853  1.00  0.00     0.037 C 
ENDBRANCH  13  15
ENDBRANCH  10  13
ENDBRANCH   7   9
BRANCH   7  23
ATOM     23  C   UNL A   1      31.746  27.004  26.212  1.00  0.00     0.420 C 
ATOM     24  F   UNL A   1      31.053  25.839  26.237  1.00  0.00    -0.168 F 
ATOM     25  F   UNL A   1      32.922  26.695  26.817  1.00  0.00    -0.168 F 
ATOM     26  F   UNL A   1      31.116  27.890  27.015  1.00  0.00    -0.168 F 
ENDBRANCH   7  23
ENDBRANCH   4   7
ENDBRANCH   2   3
ENDBRANCH   1   2
BRANCH   1  27
ATOM     27  C   UNL A   1      32.309  32.205  26.841  1.00  0.00     0.118 C 
BRANCH  27  28
ATOM     28  N   UNL A   1      32.351  33.587  27.286  1.00  0.00    -0.352 N 
ATOM     29  C   UNL A   1      33.196  34.203  28.181  1.00  0.00     0.251 C 
ATOM     30  H   UNL A   1      31.670  34.175  26.885  1.00  0.00     0.163 HD
ATOM     31  O   UNL A   1      32.946  35.347  28.546  1.00  0.00    -0.269 OA
BRANCH  29  32
ATOM     32  C   UNL A   1      34.372  33.486  28.726  1.00  0.00     0.039 A 
ATOM     33  C   UNL A   1      35.642  34.034  28.525  1.00  0.00     0.014 A 
ATOM     34  C   UNL A   1      34.237  32.280  29.419  1.00  0.00     0.014 A 
ATOM     35  C   UNL A   1      36.764  33.411  29.081  1.00  0.00     0.010 A 
ATOM     36  C   UNL A   1      35.344  31.708  30.044  1.00  0.00     0.010 A 
ATOM     37  C   UNL A   1      36.621  32.267  29.883  1.00  0.00    -0.014 A 
BRANCH  37  38
ATOM     38  C   UNL A   1      37.794  31.654  30.565  1.00  0.00     0.031 A 
ATOM     39  C   UNL A   1      38.629  30.618  29.862  1.00  0.00     0.074 A 
ATOM     40  C   UNL A   1      38.067  31.986  31.843  1.00  0.00     0.049 A 
ATOM     41  N   UNL A   1      39.647  29.930  30.313  1.00  0.00    -0.248 NA
ATOM     42  C   UNL A   1      38.248  30.291  28.482  1.00  0.00     0.031 C 
ATOM     43  C   UNL A   1      37.302  32.941  32.647  1.00  0.00     0.029 A 
ATOM     44  N   UNL A   1      39.053  31.554  32.695  1.00  0.00    -0.354 N 
ATOM     45  C   UNL A   1      40.016  29.075  29.279  1.00  0.00     0.074 A 
ATOM     46  C   UNL A   1      39.072  29.292  28.204  1.00  0.00     0.031 C 
ATOM     47  C   UNL A   1      37.858  33.037  33.865  1.00  0.00     0.029 A 
ATOM     48  C   UNL A   1      38.986  32.115  33.950  1.00  0.00     0.049 A 
ATOM     49  H   UNL A   1      39.744  30.904  32.433  1.00  0.00     0.167 HD
ATOM     50  C   UNL A   1      41.056  28.205  29.226  1.00  0.00     0.034 A 
ATOM     51  C   UNL A   1      39.730  31.898  35.054  1.00  0.00     0.034 A 
ATOM     52  C   UNL A   1      41.991  28.009  30.310  1.00  0.00     0.049 A 
ATOM     53  C   UNL A   1      40.868  30.914  34.982  1.00  0.00     0.074 A 
ATOM     54  C   UNL A   1      43.123  27.215  30.336  1.00  0.00     0.029 A 
ATOM     55  N   UNL A   1      41.890  28.595  31.567  1.00  0.00    -0.354 N 
ATOM     56  N   UNL A   1      41.251  30.168  33.971  1.00  0.00    -0.248 NA
ATOM     57  C   UNL A   1      41.680  30.750  36.193  1.00  0.00     0.031 C 
ATOM     58  C   UNL A   1      43.654  27.249  31.630  1.00  0.00     0.029 A 
ATOM     59  C   UNL A   1      42.912  28.140  32.390  1.00  0.00     0.049 A 
ATOM     60  H   UNL A   1      41.196  29.239  31.835  1.00  0.00     0.167 HD
ATOM     61  C   UNL A   1      42.364  29.462  34.419  1.00  0.00     0.074 A 
ATOM     62  C   UNL A   1      42.600  29.888  35.785  1.00  0.00     0.031 C 
ATOM     63  C   UNL A   1      43.125  28.550  33.760  1.00  0.00     0.034 A 
BRANCH  50  64
ATOM     64  C   UNL A   1      41.208  27.373  27.971  1.00  0.00     0.023 A 
ATOM     65  C   UNL A   1      40.834  26.019  27.926  1.00  0.00     0.031 A 
ATOM     66  C   UNL A   1      41.770  27.935  26.810  1.00  0.00     0.131 A 
ATOM     67  C   UNL A   1      41.112  25.251  26.784  1.00  0.00     0.055 A 
ATOM     68  C   UNL A   1      41.956  27.189  25.645  1.00  0.00     0.041 A 
ATOM     69  F   UNL A   1      42.166  29.217  26.793  1.00  0.00    -0.206 F 
ATOM     70  C   UNL A   1      41.646  25.833  25.633  1.00  0.00     0.022 A 
BRANCH  67  71
ATOM     71  S   UNL A   1      40.933  23.448  26.890  1.00  0.00     0.124 S 
ATOM     72  O   UNL A   1      41.885  22.997  25.877  1.00  0.00    -0.237 OA
ATOM     73  O   UNL A   1      41.295  23.177  28.276  1.00  0.00    -0.237 OA
ATOM     74  O   UNL A   1      39.528  23.224  26.555  1.00  0.00    -0.744 OA
ENDBRANCH  67  71
ENDBRANCH  50  64
BRANCH  51  75
ATOM     75  C   UNL A   1      39.402  32.607  36.325  1.00  0.00     0.023 A 
ATOM     76  C   UNL A   1      38.484  32.075  37.244  1.00  0.00     0.031 A 
ATOM     77  C   UNL A   1      40.002  33.843  36.631  1.00  0.00     0.131 A 
ATOM     78  C   UNL A   1      38.168  32.791  38.410  1.00  0.00     0.055 A 
ATOM     79  C   UNL A   1      39.724  34.525  37.817  1.00  0.00     0.041 A 
ATOM     80  F   UNL A   1      40.889  34.394  35.789  1.00  0.00    -0.206 F 
ATOM     81  C   UNL A   1      38.794  34.003  38.710  1.00  0.00     0.022 A 
BRANCH  78  82
ATOM     82  S   UNL A   1      36.870  32.150  39.503  1.00  0.00     0.124 S 
ATOM     83  O   UNL A   1      35.662  32.626  38.839  1.00  0.00    -0.237 OA
ATOM     84  O   UNL A   1      37.109  30.712  39.447  1.00  0.00    -0.237 OA
ATOM     85  O   UNL A   1      37.166  32.778  40.788  1.00  0.00    -0.744 OA
ENDBRANCH  78  82
ENDBRANCH  51  75
BRANCH  63  86
ATOM     86  C   UNL A   1      44.309  27.976  34.502  1.00  0.00     0.023 A 
ATOM     87  C   UNL A   1      44.249  26.725  35.142  1.00  0.00     0.031 A 
ATOM     88  C   UNL A   1      45.517  28.696  34.575  1.00  0.00     0.131 A 
ATOM     89  C   UNL A   1      45.352  26.260  35.875  1.00  0.00     0.055 A 
ATOM     90  C   UNL A   1      46.633  28.196  35.246  1.00  0.00     0.041 A 
ATOM     91  F   UNL A   1      45.632  29.899  33.990  1.00  0.00    -0.206 F 
ATOM     92  C   UNL A   1      46.551  26.977  35.913  1.00  0.00     0.022 A 
BRANCH  89  93
ATOM     93  S   UNL A   1      45.166  24.754  36.868  1.00  0.00     0.124 S 
ATOM     94  O   UNL A   1      46.471  24.120  36.703  1.00  0.00    -0.237 OA
ATOM     95  O   UNL A   1      44.879  25.286  38.195  1.00  0.00    -0.237 OA
ATOM     96  O   UNL A   1      44.053  24.056  36.227  1.00  0.00    -0.744 OA
ENDBRANCH  89  93
ENDBRANCH  63  86
ENDBRANCH  37  38
ENDBRANCH  29  32
ENDBRANCH  27  28
ENDBRANCH   1  27
TORSDOF 17
ENDMDL
MODEL 3
REMARK VINA RESULT:     -11.9      5.674     11.633
REMARK SMILES CN(C(=O)N[C@](C)(C(=O)NCCCNC(=O)c1ccc(-c2c3nc(c(-c4cc(S(=O)(=O)[O-])ccc4F)c4ccc([nH]4)c(-c4cc(S(=O)(=O)[O-])ccc4F)c4nc(c(-c5cc(S(=O)(=O)[O-])ccc5F)c5ccc2[nH]5)C=C4)C=C3)cc1)C(F)(F)F)[C@@H]1CCC[N@@H+](C)C1
REMARK SMILES IDX 12 1 11 2 10 3 8 4 9 5 6 7 7 8 5 9 3 10 4 11 2 13 1 14 84 15
REMARK SMILES IDX 89 16 88 17 87 18 90 19 86 21 85 22 80 23 81 24 82 25 83 26
REMARK SMILES IDX 13 27 14 28 15 29 16 31 17 32 18 33 79 34 19 35 78 36 20 37
REMARK SMILES IDX 21 38 22 39 72 40 23 41 77 42 71 43 73 44 24 45 76 46 70 47
REMARK SMILES IDX 69 48 25 50 57 51 37 52 56 53 38 54 41 55 55 56 74 57 39 58
REMARK SMILES IDX 40 59 54 61 75 62 42 63 26 64 27 65 35 66 28 67 34 68 36 69
REMARK SMILES IDX 33 70 29 71 30 72 31 73 32 74 58 75 59 76 67 77 60 78 66 79
REMARK SMILES IDX 68 80 65 81 61 82 62 83 63 84 64 85 43 86 44 87 52 88 45 89
REMARK SMILES IDX 51 90 53 91 50 92 46 93 47 94 48 95 49 96
REMARK H PARENT 10 6 5 12 88 20 14 30 73 49 41 60
REMARK Flexibility Score: inf
ROOT
ATOM      1  C   UNL A   1      37.803  20.259  24.997  1.00  0.00     0.042 C 
ENDROOT
BRANCH   1   2
ATOM      2  C   UNL A   1      36.739  21.346  24.864  1.00  0.00     0.117 C 
BRANCH   2   3
ATOM      3  N   UNL A   1      36.021  21.583  26.110  1.00  0.00    -0.354 N 
ATOM      4  C   UNL A   1      34.887  22.262  26.451  1.00  0.00     0.255 C 
ATOM      5  O   UNL A   1      34.577  22.146  27.641  1.00  0.00    -0.272 OA
ATOM      6  H   UNL A   1      36.453  21.153  26.883  1.00  0.00     0.163 HD
BRANCH   4   7
ATOM      7  C   UNL A   1      33.982  23.001  25.416  1.00  0.00     0.213 C 
ATOM      8  C   UNL A   1      33.682  22.121  24.198  1.00  0.00     0.056 C 
BRANCH   7   9
ATOM      9  N   UNL A   1      32.751  23.263  26.229  1.00  0.00    -0.316 N 
ATOM     10  C   UNL A   1      31.530  23.790  26.236  1.00  0.00     0.318 C 
ATOM     11  O   UNL A   1      30.981  23.590  27.321  1.00  0.00    -0.249 OA
ATOM     12  H   UNL A   1      32.912  22.891  27.127  1.00  0.00     0.166 HD
BRANCH  10  13
ATOM     13  N   UNL A   1      30.958  24.496  25.225  1.00  0.00    -0.319 N 
ATOM     14  C   UNL A   1      30.907  24.085  23.841  1.00  0.00     0.149 C 
BRANCH  13  15
ATOM     15  C   UNL A   1      30.288  25.804  25.491  1.00  0.00     0.141 C 
ATOM     16  C   UNL A   1      32.814  28.655  25.268  1.00  0.00     0.332 C 
ATOM     17  N   UNL A   1      31.861  27.654  24.807  1.00  0.00    -0.336 N 
ATOM     18  C   UNL A   1      30.851  28.234  23.917  1.00  0.00     0.262 C 
ATOM     19  C   UNL A   1      31.251  26.934  25.924  1.00  0.00     0.287 C 
ATOM     20  H   UNL A   1      32.384  26.971  24.258  1.00  0.00     0.347 HD
ATOM     21  C   UNL A   1      29.860  27.206  23.363  1.00  0.00     0.064 C 
ATOM     22  C   UNL A   1      29.284  26.273  24.425  1.00  0.00     0.037 C 
ENDBRANCH  13  15
ENDBRANCH  10  13
ENDBRANCH   7   9
BRANCH   7  23
ATOM     23  C   UNL A   1      34.839  24.216  24.975  1.00  0.00     0.420 C 
ATOM     24  F   UNL A   1      34.130  25.372  24.958  1.00  0.00    -0.168 F 
ATOM     25  F   UNL A   1      35.846  24.467  25.851  1.00  0.00    -0.168 F 
ATOM     26  F   UNL A   1      35.410  24.051  23.762  1.00  0.00    -0.168 F 
ENDBRANCH   7  23
ENDBRANCH   4   7
ENDBRANCH   2   3
ENDBRANCH   1   2
BRANCH   1  27
ATOM     27  C   UNL A   1      39.020  20.645  25.831  1.00  0.00     0.118 C 
BRANCH  27  28
ATOM     28  N   UNL A   1      40.000  19.578  25.940  1.00  0.00    -0.352 N 
ATOM     29  C   UNL A   1      41.362  19.644  26.126  1.00  0.00     0.251 C 
ATOM     30  H   UNL A   1      39.633  18.667  25.870  1.00  0.00     0.163 HD
ATOM     31  O   UNL A   1      42.029  18.620  26.015  1.00  0.00    -0.269 OA
BRANCH  29  32
ATOM     32  C   UNL A   1      42.024  20.936  26.421  1.00  0.00     0.039 A 
ATOM     33  C   UNL A   1      42.321  21.794  25.358  1.00  0.00     0.014 A 
ATOM     34  C   UNL A   1      42.364  21.302  27.725  1.00  0.00     0.014 A 
ATOM     35  C   UNL A   1      42.891  23.045  25.613  1.00  0.00     0.010 A 
ATOM     36  C   UNL A   1      42.850  22.582  27.985  1.00  0.00     0.010 A 
ATOM     37  C   UNL A   1      43.120  23.470  26.932  1.00  0.00    -0.014 A 
BRANCH  37  38
ATOM     38  C   UNL A   1      43.627  24.839  27.222  1.00  0.00     0.031 A 
ATOM     39  C   UNL A   1      42.704  25.894  27.769  1.00  0.00     0.074 A 
ATOM     40  C   UNL A   1      44.906  25.149  26.931  1.00  0.00     0.049 A 
ATOM     41  N   UNL A   1      42.945  27.155  28.026  1.00  0.00    -0.248 NA
ATOM     42  C   UNL A   1      41.318  25.484  28.031  1.00  0.00     0.031 C 
ATOM     43  C   UNL A   1      45.886  24.227  26.352  1.00  0.00     0.029 A 
ATOM     44  N   UNL A   1      45.603  26.324  27.070  1.00  0.00    -0.354 N 
ATOM     45  C   UNL A   1      41.738  27.692  28.462  1.00  0.00     0.074 A 
ATOM     46  C   UNL A   1      40.756  26.633  28.374  1.00  0.00     0.031 C 
ATOM     47  C   UNL A   1      47.058  24.864  26.205  1.00  0.00     0.029 A 
ATOM     48  C   UNL A   1      46.905  26.252  26.629  1.00  0.00     0.049 A 
ATOM     49  H   UNL A   1      45.208  27.142  27.451  1.00  0.00     0.167 HD
ATOM     50  C   UNL A   1      41.480  28.946  28.910  1.00  0.00     0.034 A 
ATOM     51  C   UNL A   1      47.863  27.198  26.551  1.00  0.00     0.034 A 
ATOM     52  C   UNL A   1      42.478  29.987  28.994  1.00  0.00     0.049 A 
ATOM     53  C   UNL A   1      47.551  28.591  27.035  1.00  0.00     0.074 A 
ATOM     54  C   UNL A   1      42.346  31.266  29.505  1.00  0.00     0.029 A 
ATOM     55  N   UNL A   1      43.786  29.878  28.537  1.00  0.00    -0.354 N 
ATOM     56  N   UNL A   1      46.424  29.064  27.516  1.00  0.00    -0.248 NA
ATOM     57  C   UNL A   1      48.641  29.572  26.977  1.00  0.00     0.031 C 
ATOM     58  C   UNL A   1      43.541  31.956  29.275  1.00  0.00     0.029 A 
ATOM     59  C   UNL A   1      44.455  31.082  28.709  1.00  0.00     0.049 A 
ATOM     60  H   UNL A   1      44.182  29.065  28.149  1.00  0.00     0.167 HD
ATOM     61  C   UNL A   1      46.677  30.395  27.838  1.00  0.00     0.074 A 
ATOM     62  C   UNL A   1      48.069  30.639  27.515  1.00  0.00     0.031 C 
ATOM     63  C   UNL A   1      45.838  31.326  28.360  1.00  0.00     0.034 A 
BRANCH  50  64
ATOM     64  C   UNL A   1      40.053  29.268  29.301  1.00  0.00     0.023 A 
ATOM     65  C   UNL A   1      39.654  29.363  30.646  1.00  0.00     0.031 A 
ATOM     66  C   UNL A   1      39.069  29.446  28.312  1.00  0.00     0.131 A 
ATOM     67  C   UNL A   1      38.297  29.532  30.965  1.00  0.00     0.055 A 
ATOM     68  C   UNL A   1      37.737  29.710  28.636  1.00  0.00     0.041 A 
ATOM     69  F   UNL A   1      39.381  29.348  27.010  1.00  0.00    -0.206 F 
ATOM     70  C   UNL A   1      37.339  29.734  29.969  1.00  0.00     0.022 A 
BRANCH  67  71
ATOM     71  S   UNL A   1      37.780  29.307  32.689  1.00  0.00     0.124 S 
ATOM     72  O   UNL A   1      37.732  27.850  32.794  1.00  0.00    -0.237 OA
ATOM     73  O   UNL A   1      38.850  29.967  33.427  1.00  0.00    -0.237 OA
ATOM     74  O   UNL A   1      36.479  29.970  32.746  1.00  0.00    -0.744 OA
ENDBRANCH  67  71
ENDBRANCH  50  64
BRANCH  51  75
ATOM     75  C   UNL A   1      49.194  26.865  25.967  1.00  0.00     0.023 A 
ATOM     76  C   UNL A   1      49.568  27.317  24.691  1.00  0.00     0.031 A 
ATOM     77  C   UNL A   1      50.112  26.072  26.681  1.00  0.00     0.131 A 
ATOM     78  C   UNL A   1      50.813  26.948  24.156  1.00  0.00     0.055 A 
ATOM     79  C   UNL A   1      51.369  25.752  26.166  1.00  0.00     0.041 A 
ATOM     80  F   UNL A   1      49.806  25.616  27.906  1.00  0.00    -0.206 F 
ATOM     81  C   UNL A   1      51.721  26.182  24.891  1.00  0.00     0.022 A 
BRANCH  78  82
ATOM     82  S   UNL A   1      51.204  27.423  22.450  1.00  0.00     0.124 S 
ATOM     83  O   UNL A   1      52.589  26.983  22.329  1.00  0.00    -0.237 OA
ATOM     84  O   UNL A   1      50.220  26.660  21.689  1.00  0.00    -0.237 OA
ATOM     85  O   UNL A   1      51.005  28.870  22.445  1.00  0.00    -0.744 OA
ENDBRANCH  78  82
ENDBRANCH  51  75
BRANCH  63  86
ATOM     86  C   UNL A   1      46.416  32.693  28.645  1.00  0.00     0.023 A 
ATOM     87  C   UNL A   1      46.550  33.667  27.640  1.00  0.00     0.031 A 
ATOM     88  C   UNL A   1      46.847  33.022  29.944  1.00  0.00     0.131 A 
ATOM     89  C   UNL A   1      47.153  34.900  27.936  1.00  0.00     0.055 A 
ATOM     90  C   UNL A   1      47.382  34.275  30.247  1.00  0.00     0.041 A 
ATOM     91  F   UNL A   1      46.752  32.130  30.943  1.00  0.00    -0.206 F 
ATOM     92  C   UNL A   1      47.550  35.218  29.236  1.00  0.00     0.022 A 
BRANCH  89  93
ATOM     93  S   UNL A   1      47.509  36.044  26.574  1.00  0.00     0.124 S 
ATOM     94  O   UNL A   1      46.228  36.722  26.406  1.00  0.00    -0.237 OA
ATOM     95  O   UNL A   1      48.592  36.854  27.122  1.00  0.00    -0.237 OA
ATOM     96  O   UNL A   1      47.893  35.161  25.475  1.00  0.00    -0.744 OA
ENDBRANCH  89  93
ENDBRANCH  63  86
ENDBRANCH  37  38
ENDBRANCH  29  32
ENDBRANCH  27  28
ENDBRANCH   1  27
TORSDOF 17
ENDMDL
