MODEL 1
REMARK VINA RESULT:     -10.9      0.000      0.000
REMARK SMILES C[C@@H]([NH2+]C1(CO)CCCCC1)[C@@H](C)C(=O)NCCCNC(=O)c1ccc(-c2c3nc(c(-c4cc(S(=O)(=O)[O-])ccc4F)c4ccc([nH]4)c(-c4cc(S(=O)(=O)[O-])ccc4F)c4nc(c(-c5cc(S(=O)(=O)[O-])ccc5F)c5ccc2[nH]5)C=C4)C=C3)cc1
REMARK SMILES IDX 17 1 16 2 14 3 15 4 12 6 13 7 2 8 1 9 3 10 4 13 7 14 11 15
REMARK SMILES IDX 8 16 10 17 9 18 5 19 6 20 18 22 19 23 20 24 21 25 22 27
REMARK SMILES IDX 23 28 24 29 85 30 25 31 84 32 26 33 27 34 28 35 78 36 29 37
REMARK SMILES IDX 83 38 77 39 79 40 30 41 82 42 76 43 75 44 31 46 63 47 43 48
REMARK SMILES IDX 62 49 44 50 47 51 61 52 80 53 45 54 46 55 60 57 81 58 48 59
REMARK SMILES IDX 32 60 33 61 41 62 34 63 40 64 42 65 39 66 35 67 36 68 37 69
REMARK SMILES IDX 38 70 64 71 65 72 73 73 66 74 72 75 74 76 71 77 67 78 68 79
REMARK SMILES IDX 69 80 70 81 49 82 50 83 58 84 51 85 57 86 59 87 56 88 52 89
REMARK SMILES IDX 53 90 54 91 55 92
REMARK H PARENT 16 5 3 11 3 12 6 21 20 26 79 45 47 56
REMARK Flexibility Score: inf
ROOT
ATOM      1  C   UNL A   1      32.230  27.681  27.022  1.00  0.00     0.117 C 
ENDROOT
BRANCH   1   2
ATOM      2  N   UNL A   1      30.989  26.940  26.881  1.00  0.00    -0.356 N 
ATOM      3  C   UNL A   1      30.427  26.271  25.844  1.00  0.00     0.228 C 
ATOM      4  O   UNL A   1      29.583  25.420  26.148  1.00  0.00    -0.275 OA
ATOM      5  H   UNL A   1      30.447  26.919  27.703  1.00  0.00     0.163 HD
BRANCH   3   6
ATOM      6  C   UNL A   1      30.821  26.457  24.381  1.00  0.00     0.133 C 
ATOM      7  C   UNL A   1      32.132  25.685  24.172  1.00  0.00     0.024 C 
BRANCH   6   8
ATOM      8  C   UNL A   1      30.774  27.923  23.845  1.00  0.00     0.192 C 
ATOM      9  C   UNL A   1      32.130  28.324  23.219  1.00  0.00     0.076 C 
BRANCH   8  10
ATOM     10  N   UNL A   1      29.767  28.163  22.768  1.00  0.00    -0.337 N 
ATOM     11  H   UNL A   1      29.140  27.360  22.767  1.00  0.00     0.347 HD
ATOM     12  H   UNL A   1      30.344  28.313  21.940  1.00  0.00     0.347 HD
BRANCH  10  13
ATOM     13  C   UNL A   1      28.899  29.390  22.805  1.00  0.00     0.120 C 
ATOM     14  C   UNL A   1      29.366  30.438  23.830  1.00  0.00     0.071 C 
ATOM     15  C   UNL A   1      29.004  30.052  21.397  1.00  0.00     0.071 C 
ATOM     16  C   UNL A   1      28.588  31.752  23.769  1.00  0.00     0.007 C 
ATOM     17  C   UNL A   1      28.227  31.369  21.282  1.00  0.00     0.007 C 
ATOM     18  C   UNL A   1      28.602  32.365  22.375  1.00  0.00     0.001 C 
BRANCH  13  19
ATOM     19  C   UNL A   1      27.420  28.971  23.036  1.00  0.00     0.224 C 
BRANCH  19  20
ATOM     20  O   UNL A   1      27.363  27.610  23.463  1.00  0.00    -0.390 OA
ATOM     21  H   UNL A   1      26.470  27.261  23.317  1.00  0.00     0.210 HD
ENDBRANCH  19  20
ENDBRANCH  13  19
ENDBRANCH  10  13
ENDBRANCH   8  10
ENDBRANCH   6   8
ENDBRANCH   3   6
ENDBRANCH   1   2
BRANCH   1  22
ATOM     22  C   UNL A   1      32.087  29.202  26.990  1.00  0.00     0.042 C 
BRANCH  22  23
ATOM     23  C   UNL A   1      33.342  29.992  26.625  1.00  0.00     0.118 C 
BRANCH  23  24
ATOM     24  N   UNL A   1      33.304  31.366  27.082  1.00  0.00    -0.352 N 
ATOM     25  C   UNL A   1      34.122  32.023  27.969  1.00  0.00     0.251 C 
ATOM     26  H   UNL A   1      32.580  31.913  26.699  1.00  0.00     0.163 HD
ATOM     27  O   UNL A   1      33.803  33.152  28.344  1.00  0.00    -0.269 OA
BRANCH  25  28
ATOM     28  C   UNL A   1      35.350  31.387  28.500  1.00  0.00     0.039 A 
ATOM     29  C   UNL A   1      36.576  32.020  28.275  1.00  0.00     0.014 A 
ATOM     30  C   UNL A   1      35.320  30.158  29.166  1.00  0.00     0.014 A 
ATOM     31  C   UNL A   1      37.759  31.451  28.759  1.00  0.00     0.010 A 
ATOM     32  C   UNL A   1      36.493  29.621  29.703  1.00  0.00     0.010 A 
ATOM     33  C   UNL A   1      37.728  30.259  29.499  1.00  0.00    -0.014 A 
BRANCH  33  34
ATOM     34  C   UNL A   1      38.981  29.661  30.036  1.00  0.00     0.031 A 
ATOM     35  C   UNL A   1      39.585  30.181  31.314  1.00  0.00     0.074 A 
ATOM     36  C   UNL A   1      39.595  28.666  29.364  1.00  0.00     0.049 A 
ATOM     37  N   UNL A   1      40.688  29.817  31.920  1.00  0.00    -0.248 NA
ATOM     38  C   UNL A   1      38.862  31.270  31.983  1.00  0.00     0.031 C 
ATOM     39  C   UNL A   1      39.125  28.082  28.107  1.00  0.00     0.029 A 
ATOM     40  N   UNL A   1      40.745  27.971  29.644  1.00  0.00    -0.354 N 
ATOM     41  C   UNL A   1      40.793  30.634  33.041  1.00  0.00     0.074 A 
ATOM     42  C   UNL A   1      39.677  31.557  32.986  1.00  0.00     0.031 C 
ATOM     43  C   UNL A   1      39.962  27.098  27.741  1.00  0.00     0.029 A 
ATOM     44  C   UNL A   1      41.049  27.007  28.711  1.00  0.00     0.049 A 
ATOM     45  H   UNL A   1      41.299  28.145  30.438  1.00  0.00     0.167 HD
ATOM     46  C   UNL A   1      41.715  30.603  34.038  1.00  0.00     0.034 A 
ATOM     47  C   UNL A   1      42.088  26.151  28.640  1.00  0.00     0.034 A 
ATOM     48  C   UNL A   1      42.825  29.681  34.081  1.00  0.00     0.049 A 
ATOM     49  C   UNL A   1      43.135  26.172  29.725  1.00  0.00     0.074 A 
ATOM     50  C   UNL A   1      43.798  29.543  35.058  1.00  0.00     0.029 A 
ATOM     51  N   UNL A   1      43.118  28.742  33.100  1.00  0.00    -0.354 N 
ATOM     52  N   UNL A   1      43.202  26.931  30.793  1.00  0.00    -0.248 NA
ATOM     53  C   UNL A   1      44.239  25.212  29.595  1.00  0.00     0.031 C 
ATOM     54  C   UNL A   1      44.712  28.569  34.637  1.00  0.00     0.029 A 
ATOM     55  C   UNL A   1      44.271  28.044  33.434  1.00  0.00     0.049 A 
ATOM     56  H   UNL A   1      42.586  28.592  32.286  1.00  0.00     0.167 HD
ATOM     57  C   UNL A   1      44.340  26.516  31.480  1.00  0.00     0.074 A 
ATOM     58  C   UNL A   1      44.921  25.437  30.708  1.00  0.00     0.031 C 
ATOM     59  C   UNL A   1      44.853  26.979  32.649  1.00  0.00     0.034 A 
BRANCH  46  60
ATOM     60  C   UNL A   1      41.566  31.626  35.142  1.00  0.00     0.023 A 
ATOM     61  C   UNL A   1      40.516  31.549  36.076  1.00  0.00     0.031 A 
ATOM     62  C   UNL A   1      42.445  32.719  35.233  1.00  0.00     0.131 A 
ATOM     63  C   UNL A   1      40.312  32.594  36.990  1.00  0.00     0.055 A 
ATOM     64  C   UNL A   1      42.290  33.710  36.206  1.00  0.00     0.041 A 
ATOM     65  F   UNL A   1      43.456  32.858  34.362  1.00  0.00    -0.206 F 
ATOM     66  C   UNL A   1      41.207  33.662  37.079  1.00  0.00     0.022 A 
BRANCH  63  67
ATOM     67  S   UNL A   1      38.762  32.623  37.932  1.00  0.00     0.124 S 
ATOM     68  O   UNL A   1      38.078  31.441  37.412  1.00  0.00    -0.237 OA
ATOM     69  O   UNL A   1      39.230  32.538  39.311  1.00  0.00    -0.237 OA
ATOM     70  O   UNL A   1      38.157  33.899  37.554  1.00  0.00    -0.744 OA
ENDBRANCH  63  67
ENDBRANCH  46  60
BRANCH  47  71
ATOM     71  C   UNL A   1      42.197  25.194  27.503  1.00  0.00     0.023 A 
ATOM     72  C   UNL A   1      41.467  23.994  27.500  1.00  0.00     0.031 A 
ATOM     73  C   UNL A   1      43.057  25.448  26.421  1.00  0.00     0.131 A 
ATOM     74  C   UNL A   1      41.639  23.075  26.456  1.00  0.00     0.055 A 
ATOM     75  C   UNL A   1      43.190  24.550  25.360  1.00  0.00     0.041 A 
ATOM     76  F   UNL A   1      43.772  26.583  26.372  1.00  0.00    -0.206 F 
ATOM     77  C   UNL A   1      42.487  23.350  25.380  1.00  0.00     0.022 A 
BRANCH  74  78
ATOM     78  S   UNL A   1      40.784  21.479  26.554  1.00  0.00     0.124 S 
ATOM     79  O   UNL A   1      41.693  20.609  25.813  1.00  0.00    -0.237 OA
ATOM     80  O   UNL A   1      40.716  21.260  27.994  1.00  0.00    -0.237 OA
ATOM     81  O   UNL A   1      39.502  21.740  25.904  1.00  0.00    -0.744 OA
ENDBRANCH  74  78
ENDBRANCH  47  71
BRANCH  59  82
ATOM     82  C   UNL A   1      46.080  26.282  33.182  1.00  0.00     0.023 A 
ATOM     83  C   UNL A   1      45.992  25.112  33.958  1.00  0.00     0.031 A 
ATOM     84  C   UNL A   1      47.359  26.810  32.926  1.00  0.00     0.131 A 
ATOM     85  C   UNL A   1      47.155  24.540  34.496  1.00  0.00     0.055 A 
ATOM     86  C   UNL A   1      48.517  26.205  33.418  1.00  0.00     0.041 A 
ATOM     87  F   UNL A   1      47.503  27.927  32.195  1.00  0.00    -0.206 F 
ATOM     88  C   UNL A   1      48.417  25.071  34.218  1.00  0.00     0.022 A 
BRANCH  85  89
ATOM     89  S   UNL A   1      46.991  23.142  35.640  1.00  0.00     0.124 S 
ATOM     90  O   UNL A   1      47.238  22.001  34.765  1.00  0.00    -0.237 OA
ATOM     91  O   UNL A   1      48.029  23.423  36.628  1.00  0.00    -0.237 OA
ATOM     92  O   UNL A   1      45.620  23.260  36.133  1.00  0.00    -0.744 OA
ENDBRANCH  85  89
ENDBRANCH  59  82
ENDBRANCH  33  34
ENDBRANCH  25  28
ENDBRANCH  23  24
ENDBRANCH  22  23
ENDBRANCH   1  22
TORSDOF 18
ENDMDL
MODEL 2
REMARK VINA RESULT:     -10.9      3.171      8.840
REMARK SMILES C[C@@H]([NH2+]C1(CO)CCCCC1)[C@@H](C)C(=O)NCCCNC(=O)c1ccc(-c2c3nc(c(-c4cc(S(=O)(=O)[O-])ccc4F)c4ccc([nH]4)c(-c4cc(S(=O)(=O)[O-])ccc4F)c4nc(c(-c5cc(S(=O)(=O)[O-])ccc5F)c5ccc2[nH]5)C=C4)C=C3)cc1
REMARK SMILES IDX 17 1 16 2 14 3 15 4 12 6 13 7 2 8 1 9 3 10 4 13 7 14 11 15
REMARK SMILES IDX 8 16 10 17 9 18 5 19 6 20 18 22 19 23 20 24 21 25 22 27
REMARK SMILES IDX 23 28 24 29 85 30 25 31 84 32 26 33 27 34 28 35 78 36 29 37
REMARK SMILES IDX 83 38 77 39 79 40 30 41 82 42 76 43 75 44 31 46 63 47 43 48
REMARK SMILES IDX 62 49 44 50 47 51 61 52 80 53 45 54 46 55 60 57 81 58 48 59
REMARK SMILES IDX 32 60 33 61 41 62 34 63 40 64 42 65 39 66 35 67 36 68 37 69
REMARK SMILES IDX 38 70 64 71 65 72 73 73 66 74 72 75 74 76 71 77 67 78 68 79
REMARK SMILES IDX 69 80 70 81 49 82 50 83 58 84 51 85 57 86 59 87 56 88 52 89
REMARK SMILES IDX 53 90 54 91 55 92
REMARK H PARENT 16 5 3 11 3 12 6 21 20 26 79 45 47 56
REMARK Flexibility Score: inf
ROOT
ATOM      1  C   UNL A   1      31.696  30.711  26.394  1.00  0.00     0.117 C 
ENDROOT
BRANCH   1   2
ATOM      2  N   UNL A   1      31.197  30.267  25.105  1.00  0.00    -0.356 N 
ATOM      3  C   UNL A   1      31.603  29.306  24.240  1.00  0.00     0.228 C 
ATOM      4  O   UNL A   1      30.748  28.907  23.440  1.00  0.00    -0.275 OA
ATOM      5  H   UNL A   1      30.405  30.765  24.797  1.00  0.00     0.163 HD
BRANCH   3   6
ATOM      6  C   UNL A   1      32.988  28.663  24.250  1.00  0.00     0.133 C 
ATOM      7  C   UNL A   1      33.395  28.462  22.783  1.00  0.00     0.024 C 
BRANCH   6   8
ATOM      8  C   UNL A   1      33.161  27.438  25.202  1.00  0.00     0.192 C 
ATOM      9  C   UNL A   1      33.846  27.859  26.523  1.00  0.00     0.076 C 
BRANCH   8  10
ATOM     10  N   UNL A   1      31.884  26.786  25.622  1.00  0.00    -0.337 N 
ATOM     11  H   UNL A   1      31.127  27.398  25.317  1.00  0.00     0.347 HD
ATOM     12  H   UNL A   1      32.009  26.654  26.625  1.00  0.00     0.347 HD
BRANCH  10  13
ATOM     13  C   UNL A   1      31.544  25.405  25.135  1.00  0.00     0.120 C 
ATOM     14  C   UNL A   1      30.792  25.398  23.792  1.00  0.00     0.071 C 
ATOM     15  C   UNL A   1      32.901  24.672  24.900  1.00  0.00     0.071 C 
ATOM     16  C   UNL A   1      30.581  24.002  23.209  1.00  0.00     0.007 C 
ATOM     17  C   UNL A   1      32.739  23.258  24.327  1.00  0.00     0.007 C 
ATOM     18  C   UNL A   1      31.888  23.235  23.061  1.00  0.00     0.001 C 
BRANCH  13  19
ATOM     19  C   UNL A   1      30.765  24.642  26.241  1.00  0.00     0.224 C 
BRANCH  19  20
ATOM     20  O   UNL A   1      29.449  25.182  26.366  1.00  0.00    -0.390 OA
ATOM     21  H   UNL A   1      29.365  25.638  27.217  1.00  0.00     0.210 HD
ENDBRANCH  19  20
ENDBRANCH  13  19
ENDBRANCH  10  13
ENDBRANCH   8  10
ENDBRANCH   6   8
ENDBRANCH   3   6
ENDBRANCH   1   2
BRANCH   1  22
ATOM     22  C   UNL A   1      31.610  32.217  26.643  1.00  0.00     0.042 C 
BRANCH  22  23
ATOM     23  C   UNL A   1      32.885  32.894  27.141  1.00  0.00     0.118 C 
BRANCH  23  24
ATOM     24  N   UNL A   1      32.647  34.201  27.721  1.00  0.00    -0.352 N 
ATOM     25  C   UNL A   1      33.229  34.799  28.811  1.00  0.00     0.251 C 
ATOM     26  H   UNL A   1      31.963  34.742  27.264  1.00  0.00     0.163 HD
ATOM     27  O   UNL A   1      32.753  35.854  29.232  1.00  0.00    -0.269 OA
BRANCH  25  28
ATOM     28  C   UNL A   1      34.388  34.184  29.500  1.00  0.00     0.039 A 
ATOM     29  C   UNL A   1      34.144  33.369  30.610  1.00  0.00     0.014 A 
ATOM     30  C   UNL A   1      35.706  34.438  29.107  1.00  0.00     0.014 A 
ATOM     31  C   UNL A   1      35.210  32.771  31.290  1.00  0.00     0.010 A 
ATOM     32  C   UNL A   1      36.766  33.791  29.747  1.00  0.00     0.010 A 
ATOM     33  C   UNL A   1      36.530  32.955  30.852  1.00  0.00    -0.014 A 
BRANCH  33  34
ATOM     34  C   UNL A   1      37.668  32.303  31.557  1.00  0.00     0.031 A 
ATOM     35  C   UNL A   1      38.407  31.159  30.913  1.00  0.00     0.074 A 
ATOM     36  C   UNL A   1      38.024  32.719  32.789  1.00  0.00     0.049 A 
ATOM     37  N   UNL A   1      39.395  30.440  31.383  1.00  0.00    -0.248 NA
ATOM     38  C   UNL A   1      37.953  30.760  29.574  1.00  0.00     0.031 C 
ATOM     39  C   UNL A   1      37.382  33.804  33.532  1.00  0.00     0.029 A 
ATOM     40  N   UNL A   1      39.013  32.278  33.633  1.00  0.00    -0.354 N 
ATOM     41  C   UNL A   1      39.682  29.500  30.397  1.00  0.00     0.074 A 
ATOM     42  C   UNL A   1      38.713  29.701  29.339  1.00  0.00     0.031 C 
ATOM     43  C   UNL A   1      38.012  33.964  34.707  1.00  0.00     0.029 A 
ATOM     44  C   UNL A   1      39.074  32.970  34.820  1.00  0.00     0.049 A 
ATOM     45  H   UNL A   1      39.622  31.539  33.409  1.00  0.00     0.167 HD
ATOM     46  C   UNL A   1      40.675  28.574  30.363  1.00  0.00     0.034 A 
ATOM     47  C   UNL A   1      39.889  32.817  35.883  1.00  0.00     0.034 A 
ATOM     48  C   UNL A   1      41.634  28.380  31.425  1.00  0.00     0.049 A 
ATOM     49  C   UNL A   1      40.947  31.744  35.852  1.00  0.00     0.074 A 
ATOM     50  C   UNL A   1      42.697  27.494  31.480  1.00  0.00     0.029 A 
ATOM     51  N   UNL A   1      41.642  29.077  32.627  1.00  0.00    -0.354 N 
ATOM     52  N   UNL A   1      41.224  30.884  34.900  1.00  0.00    -0.248 NA
ATOM     53  C   UNL A   1      41.807  31.630  37.038  1.00  0.00     0.031 C 
ATOM     54  C   UNL A   1      43.306  27.610  32.735  1.00  0.00     0.029 A 
ATOM     55  C   UNL A   1      42.671  28.621  33.438  1.00  0.00     0.049 A 
ATOM     56  H   UNL A   1      41.011  29.792  32.868  1.00  0.00     0.167 HD
ATOM     57  C   UNL A   1      42.313  30.148  35.360  1.00  0.00     0.074 A 
ATOM     58  C   UNL A   1      42.645  30.672  36.670  1.00  0.00     0.031 C 
ATOM     59  C   UNL A   1      42.985  29.138  34.751  1.00  0.00     0.034 A 
BRANCH  46  60
ATOM     60  C   UNL A   1      40.742  27.685  29.141  1.00  0.00     0.023 A 
ATOM     61  C   UNL A   1      41.696  27.899  28.129  1.00  0.00     0.031 A 
ATOM     62  C   UNL A   1      39.811  26.648  28.955  1.00  0.00     0.131 A 
ATOM     63  C   UNL A   1      41.634  27.159  26.939  1.00  0.00     0.055 A 
ATOM     64  C   UNL A   1      39.814  25.854  27.806  1.00  0.00     0.041 A 
ATOM     65  F   UNL A   1      38.865  26.404  29.875  1.00  0.00    -0.206 F 
ATOM     66  C   UNL A   1      40.715  26.120  26.780  1.00  0.00     0.022 A 
BRANCH  63  67
ATOM     67  S   UNL A   1      42.652  27.698  25.537  1.00  0.00     0.124 S 
ATOM     68  O   UNL A   1      43.927  27.986  26.192  1.00  0.00    -0.237 OA
ATOM     69  O   UNL A   1      42.630  26.530  24.665  1.00  0.00    -0.237 OA
ATOM     70  O   UNL A   1      41.943  28.871  25.030  1.00  0.00    -0.744 OA
ENDBRANCH  63  67
ENDBRANCH  46  60
BRANCH  47  71
ATOM     71  C   UNL A   1      39.745  33.702  37.074  1.00  0.00     0.023 A 
ATOM     72  C   UNL A   1      40.636  34.765  37.292  1.00  0.00     0.031 A 
ATOM     73  C   UNL A   1      38.737  33.477  38.027  1.00  0.00     0.131 A 
ATOM     74  C   UNL A   1      40.527  35.540  38.455  1.00  0.00     0.055 A 
ATOM     75  C   UNL A   1      38.605  34.280  39.161  1.00  0.00     0.041 A 
ATOM     76  F   UNL A   1      37.856  32.478  37.863  1.00  0.00    -0.206 F 
ATOM     77  C   UNL A   1      39.510  35.312  39.385  1.00  0.00     0.022 A 
BRANCH  74  78
ATOM     78  S   UNL A   1      41.777  36.816  38.769  1.00  0.00     0.124 S 
ATOM     79  O   UNL A   1      42.281  37.074  37.425  1.00  0.00    -0.237 OA
ATOM     80  O   UNL A   1      40.979  37.879  39.371  1.00  0.00    -0.237 OA
ATOM     81  O   UNL A   1      42.716  36.157  39.673  1.00  0.00    -0.744 OA
ENDBRANCH  74  78
ENDBRANCH  47  71
BRANCH  59  82
ATOM     82  C   UNL A   1      44.176  28.569  35.482  1.00  0.00     0.023 A 
ATOM     83  C   UNL A   1      44.046  27.525  36.416  1.00  0.00     0.031 A 
ATOM     84  C   UNL A   1      45.460  29.096  35.255  1.00  0.00     0.131 A 
ATOM     85  C   UNL A   1      45.170  27.079  37.127  1.00  0.00     0.055 A 
ATOM     86  C   UNL A   1      46.585  28.611  35.926  1.00  0.00     0.041 A 
ATOM     87  F   UNL A   1      45.643  30.096  34.378  1.00  0.00    -0.206 F 
ATOM     88  C   UNL A   1      46.440  27.605  36.877  1.00  0.00     0.022 A 
BRANCH  85  89
ATOM     89  S   UNL A   1      44.938  25.862  38.452  1.00  0.00     0.124 S 
ATOM     90  O   UNL A   1      44.105  26.598  39.399  1.00  0.00    -0.237 OA
ATOM     91  O   UNL A   1      44.285  24.760  37.753  1.00  0.00    -0.237 OA
ATOM     92  O   UNL A   1      46.299  25.585  38.908  1.00  0.00    -0.744 OA
ENDBRANCH  85  89
ENDBRANCH  59  82
ENDBRANCH  33  34
ENDBRANCH  25  28
ENDBRANCH  23  24
ENDBRANCH  22  23
ENDBRANCH   1  22
TORSDOF 18
ENDMDL
MODEL 3
REMARK VINA RESULT:     -10.8      1.646      3.320
REMARK SMILES C[C@@H]([NH2+]C1(CO)CCCCC1)[C@@H](C)C(=O)NCCCNC(=O)c1ccc(-c2c3nc(c(-c4cc(S(=O)(=O)[O-])ccc4F)c4ccc([nH]4)c(-c4cc(S(=O)(=O)[O-])ccc4F)c4nc(c(-c5cc(S(=O)(=O)[O-])ccc5F)c5ccc2[nH]5)C=C4)C=C3)cc1
REMARK SMILES IDX 17 1 16 2 14 3 15 4 12 6 13 7 2 8 1 9 3 10 4 13 7 14 11 15
REMARK SMILES IDX 8 16 10 17 9 18 5 19 6 20 18 22 19 23 20 24 21 25 22 27
REMARK SMILES IDX 23 28 24 29 85 30 25 31 84 32 26 33 27 34 28 35 78 36 29 37
REMARK SMILES IDX 83 38 77 39 79 40 30 41 82 42 76 43 75 44 31 46 63 47 43 48
REMARK SMILES IDX 62 49 44 50 47 51 61 52 80 53 45 54 46 55 60 57 81 58 48 59
REMARK SMILES IDX 32 60 33 61 41 62 34 63 40 64 42 65 39 66 35 67 36 68 37 69
REMARK SMILES IDX 38 70 64 71 65 72 73 73 66 74 72 75 74 76 71 77 67 78 68 79
REMARK SMILES IDX 69 80 70 81 49 82 50 83 58 84 51 85 57 86 59 87 56 88 52 89
REMARK SMILES IDX 53 90 54 91 55 92
REMARK H PARENT 16 5 3 11 3 12 6 21 20 26 79 45 47 56
REMARK Flexibility Score: inf
ROOT
ATOM      1  C   UNL A   1      32.307  27.756  27.167  1.00  0.00     0.117 C 
ENDROOT
BRANCH   1   2
ATOM      2  N   UNL A   1      31.064  27.007  27.114  1.00  0.00    -0.356 N 
ATOM      3  C   UNL A   1      30.503  26.219  26.164  1.00  0.00     0.228 C 
ATOM      4  O   UNL A   1      29.655  25.413  26.568  1.00  0.00    -0.275 OA
ATOM      5  H   UNL A   1      30.520  27.088  27.931  1.00  0.00     0.163 HD
BRANCH   3   6
ATOM      6  C   UNL A   1      30.900  26.224  24.691  1.00  0.00     0.133 C 
ATOM      7  C   UNL A   1      29.596  26.223  23.879  1.00  0.00     0.024 C 
BRANCH   6   8
ATOM      8  C   UNL A   1      31.988  25.184  24.276  1.00  0.00     0.192 C 
ATOM      9  C   UNL A   1      33.172  25.878  23.564  1.00  0.00     0.076 C 
BRANCH   8  10
ATOM     10  N   UNL A   1      32.607  24.439  25.415  1.00  0.00    -0.337 N 
ATOM     11  H   UNL A   1      32.142  24.761  26.263  1.00  0.00     0.347 HD
ATOM     12  H   UNL A   1      33.600  24.645  25.314  1.00  0.00     0.347 HD
BRANCH  10  13
ATOM     13  C   UNL A   1      32.570  22.937  25.444  1.00  0.00     0.120 C 
ATOM     14  C   UNL A   1      32.987  22.289  24.112  1.00  0.00     0.071 C 
ATOM     15  C   UNL A   1      33.613  22.488  26.514  1.00  0.00     0.071 C 
ATOM     16  C   UNL A   1      33.105  20.767  24.175  1.00  0.00     0.007 C 
ATOM     17  C   UNL A   1      33.757  20.965  26.624  1.00  0.00     0.007 C 
ATOM     18  C   UNL A   1      34.048  20.307  25.278  1.00  0.00     0.001 C 
BRANCH  13  19
ATOM     19  C   UNL A   1      31.164  22.462  25.906  1.00  0.00     0.224 C 
BRANCH  19  20
ATOM     20  O   UNL A   1      30.941  22.855  27.260  1.00  0.00    -0.390 OA
ATOM     21  H   UNL A   1      31.121  23.803  27.356  1.00  0.00     0.210 HD
ENDBRANCH  19  20
ENDBRANCH  13  19
ENDBRANCH  10  13
ENDBRANCH   8  10
ENDBRANCH   6   8
ENDBRANCH   3   6
ENDBRANCH   1   2
BRANCH   1  22
ATOM     22  C   UNL A   1      32.151  29.276  27.185  1.00  0.00     0.042 C 
BRANCH  22  23
ATOM     23  C   UNL A   1      33.283  30.080  26.549  1.00  0.00     0.118 C 
BRANCH  23  24
ATOM     24  N   UNL A   1      33.288  31.472  26.949  1.00  0.00    -0.352 N 
ATOM     25  C   UNL A   1      34.126  32.138  27.810  1.00  0.00     0.251 C 
ATOM     26  H   UNL A   1      32.583  32.026  26.542  1.00  0.00     0.163 HD
ATOM     27  O   UNL A   1      33.843  33.292  28.137  1.00  0.00    -0.269 OA
BRANCH  25  28
ATOM     28  C   UNL A   1      35.332  31.485  28.370  1.00  0.00     0.039 A 
ATOM     29  C   UNL A   1      36.551  32.168  28.298  1.00  0.00     0.014 A 
ATOM     30  C   UNL A   1      35.294  30.198  28.914  1.00  0.00     0.014 A 
ATOM     31  C   UNL A   1      37.713  31.586  28.814  1.00  0.00     0.010 A 
ATOM     32  C   UNL A   1      36.442  29.642  29.485  1.00  0.00     0.010 A 
ATOM     33  C   UNL A   1      37.667  30.328  29.434  1.00  0.00    -0.014 A 
BRANCH  33  34
ATOM     34  C   UNL A   1      38.897  29.713  30.006  1.00  0.00     0.031 A 
ATOM     35  C   UNL A   1      39.462  30.212  31.310  1.00  0.00     0.074 A 
ATOM     36  C   UNL A   1      39.525  28.722  29.342  1.00  0.00     0.049 A 
ATOM     37  N   UNL A   1      40.541  29.832  31.947  1.00  0.00    -0.248 NA
ATOM     38  C   UNL A   1      38.725  31.299  31.967  1.00  0.00     0.031 C 
ATOM     39  C   UNL A   1      39.093  28.157  28.062  1.00  0.00     0.029 A 
ATOM     40  N   UNL A   1      40.660  28.014  29.651  1.00  0.00    -0.354 N 
ATOM     41  C   UNL A   1      40.614  30.634  33.081  1.00  0.00     0.074 A 
ATOM     42  C   UNL A   1      39.508  31.567  33.001  1.00  0.00     0.031 C 
ATOM     43  C   UNL A   1      39.934  27.171  27.712  1.00  0.00     0.029 A 
ATOM     44  C   UNL A   1      40.987  27.059  28.717  1.00  0.00     0.049 A 
ATOM     45  H   UNL A   1      41.188  28.173  30.466  1.00  0.00     0.167 HD
ATOM     46  C   UNL A   1      41.502  30.584  34.108  1.00  0.00     0.034 A 
ATOM     47  C   UNL A   1      42.021  26.195  28.671  1.00  0.00     0.034 A 
ATOM     48  C   UNL A   1      42.603  29.652  34.177  1.00  0.00     0.049 A 
ATOM     49  C   UNL A   1      43.031  26.195  29.790  1.00  0.00     0.074 A 
ATOM     50  C   UNL A   1      43.541  29.494  35.184  1.00  0.00     0.029 A 
ATOM     51  N   UNL A   1      42.921  28.722  33.195  1.00  0.00    -0.354 N 
ATOM     52  N   UNL A   1      43.069  26.940  30.869  1.00  0.00    -0.248 NA
ATOM     53  C   UNL A   1      44.132  25.227  29.685  1.00  0.00     0.031 C 
ATOM     54  C   UNL A   1      44.461  28.517  34.782  1.00  0.00     0.029 A 
ATOM     55  C   UNL A   1      44.056  28.011  33.558  1.00  0.00     0.049 A 
ATOM     56  H   UNL A   1      42.415  28.587  32.362  1.00  0.00     0.167 HD
ATOM     57  C   UNL A   1      44.180  26.507  31.589  1.00  0.00     0.074 A 
ATOM     58  C   UNL A   1      44.778  25.432  30.823  1.00  0.00     0.031 C 
ATOM     59  C   UNL A   1      44.657  26.951  32.780  1.00  0.00     0.034 A 
BRANCH  46  60
ATOM     60  C   UNL A   1      41.324  31.593  35.220  1.00  0.00     0.023 A 
ATOM     61  C   UNL A   1      40.264  31.492  36.140  1.00  0.00     0.031 A 
ATOM     62  C   UNL A   1      42.184  32.700  35.331  1.00  0.00     0.131 A 
ATOM     63  C   UNL A   1      40.033  32.525  37.061  1.00  0.00     0.055 A 
ATOM     64  C   UNL A   1      42.002  33.679  36.311  1.00  0.00     0.041 A 
ATOM     65  F   UNL A   1      43.203  32.863  34.473  1.00  0.00    -0.206 F 
ATOM     66  C   UNL A   1      40.910  33.606  37.170  1.00  0.00     0.022 A 
BRANCH  63  67
ATOM     67  S   UNL A   1      38.472  32.522  37.985  1.00  0.00     0.124 S 
ATOM     68  O   UNL A   1      37.808  31.339  37.438  1.00  0.00    -0.237 OA
ATOM     69  O   UNL A   1      38.924  32.421  39.367  1.00  0.00    -0.237 OA
ATOM     70  O   UNL A   1      37.855  33.796  37.619  1.00  0.00    -0.744 OA
ENDBRANCH  63  67
ENDBRANCH  46  60
BRANCH  47  71
ATOM     71  C   UNL A   1      42.161  25.252  27.525  1.00  0.00     0.023 A 
ATOM     72  C   UNL A   1      41.468  24.030  27.512  1.00  0.00     0.031 A 
ATOM     73  C   UNL A   1      43.015  25.540  26.447  1.00  0.00     0.131 A 
ATOM     74  C   UNL A   1      41.670  23.125  26.460  1.00  0.00     0.055 A 
ATOM     75  C   UNL A   1      43.177  24.655  25.380  1.00  0.00     0.041 A 
ATOM     76  F   UNL A   1      43.695  26.697  26.410  1.00  0.00    -0.206 F 
ATOM     77  C   UNL A   1      42.510  23.435  25.388  1.00  0.00     0.022 A 
BRANCH  74  78
ATOM     78  S   UNL A   1      40.863  21.503  26.543  1.00  0.00     0.124 S 
ATOM     79  O   UNL A   1      39.587  21.773  25.887  1.00  0.00    -0.237 OA
ATOM     80  O   UNL A   1      41.799  20.662  25.806  1.00  0.00    -0.237 OA
ATOM     81  O   UNL A   1      40.785  21.236  27.977  1.00  0.00    -0.744 OA
ENDBRANCH  74  78
ENDBRANCH  47  71
BRANCH  59  82
ATOM     82  C   UNL A   1      45.860  26.237  33.345  1.00  0.00     0.023 A 
ATOM     83  C   UNL A   1      45.733  25.087  34.144  1.00  0.00     0.031 A 
ATOM     84  C   UNL A   1      47.154  26.731  33.096  1.00  0.00     0.131 A 
ATOM     85  C   UNL A   1      46.876  24.500  34.710  1.00  0.00     0.055 A 
ATOM     86  C   UNL A   1      48.291  26.110  33.617  1.00  0.00     0.041 A 
ATOM     87  F   UNL A   1      47.334  27.828  32.343  1.00  0.00    -0.206 F 
ATOM     88  C   UNL A   1      48.153  24.995  34.440  1.00  0.00     0.022 A 
BRANCH  85  89
ATOM     89  S   UNL A   1      46.663  23.131  35.882  1.00  0.00     0.124 S 
ATOM     90  O   UNL A   1      48.044  22.739  36.145  1.00  0.00    -0.237 OA
ATOM     91  O   UNL A   1      45.962  23.774  36.989  1.00  0.00    -0.237 OA
ATOM     92  O   UNL A   1      45.873  22.156  35.132  1.00  0.00    -0.744 OA
ENDBRANCH  85  89
ENDBRANCH  59  82
ENDBRANCH  33  34
ENDBRANCH  25  28
ENDBRANCH  23  24
ENDBRANCH  22  23
ENDBRANCH   1  22
TORSDOF 18
ENDMDL
