MODEL 1
REMARK VINA RESULT:     -13.0      0.000      0.000
REMARK SMILES NS(=O)(=O)c1ccc(-n2nc(C(F)F)cc2-c2ccc(C(=O)NCCCNC(=O)c3ccc(-c4c5nc(c(-c6cc(S(=O)(=O)[O-])ccc6F)c6ccc([nH]6)c(-c6cc(S(=O)(=O)[O-])ccc6F)c6nc(c(-c7cc(S(=O)(=O)[O-])ccc7F)c7ccc4[nH]7)C=C6)C=C5)cc3)cc2)cc1
REMARK SMILES IDX 24 1 23 2 21 3 22 4 20 6 17 7 18 8 94 9 19 10 93 11 16 12
REMARK SMILES IDX 9 13 10 14 11 15 15 16 8 17 5 18 6 19 96 20 7 21 95 22 2 23
REMARK SMILES IDX 3 24 4 25 1 26 12 29 13 30 14 31 25 32 26 33 27 34 28 35
REMARK SMILES IDX 29 37 30 38 31 39 92 40 32 41 91 42 33 43 34 44 35 45 85 46
REMARK SMILES IDX 36 47 90 48 84 49 86 50 37 51 89 52 83 53 82 54 38 56 70 57
REMARK SMILES IDX 50 58 69 59 51 60 54 61 68 62 87 63 52 64 53 65 67 67 88 68
REMARK SMILES IDX 55 69 39 70 40 71 48 72 41 73 47 74 49 75 46 76 42 77 43 78
REMARK SMILES IDX 44 79 45 80 71 81 72 82 80 83 73 84 79 85 81 86 78 87 74 88
REMARK SMILES IDX 75 89 76 90 77 91 56 92 57 93 65 94 58 95 64 96 66 97 63 98
REMARK SMILES IDX 59 99 60 100 61 101 62 102
REMARK H PARENT 23 5 1 27 1 28 27 36 86 55 54 66
REMARK Flexibility Score: inf
ROOT
ATOM      1  C   UNL A   1      32.694  27.636  26.953  1.00  0.00     0.118 C 
ENDROOT
BRANCH   1   2
ATOM      2  N   UNL A   1      31.851  26.912  26.015  1.00  0.00    -0.352 N 
ATOM      3  C   UNL A   1      32.051  25.739  25.330  1.00  0.00     0.251 C 
ATOM      4  O   UNL A   1      31.125  25.285  24.660  1.00  0.00    -0.269 OA
ATOM      5  H   UNL A   1      30.982  27.339  25.841  1.00  0.00     0.163 HD
BRANCH   3   6
ATOM      6  C   UNL A   1      33.326  24.972  25.401  1.00  0.00     0.039 A 
ATOM      7  C   UNL A   1      35.710  23.510  25.668  1.00  0.00     0.000 A 
ATOM      8  C   UNL A   1      34.717  23.420  26.650  1.00  0.00     0.011 A 
ATOM      9  C   UNL A   1      35.502  24.311  24.550  1.00  0.00     0.011 A 
ATOM     10  C   UNL A   1      33.533  24.152  26.519  1.00  0.00     0.014 A 
ATOM     11  C   UNL A   1      34.301  24.996  24.402  1.00  0.00     0.014 A 
BRANCH   7  12
ATOM     12  C   UNL A   1      36.931  22.732  25.758  1.00  0.00     0.075 A 
ATOM     13  N   UNL A   1      37.012  21.360  25.566  1.00  0.00    -0.233 N 
ATOM     14  N   UNL A   1      38.226  20.877  25.930  1.00  0.00    -0.166 NA
ATOM     15  C   UNL A   1      38.987  21.972  26.123  1.00  0.00     0.129 A 
ATOM     16  C   UNL A   1      38.207  23.149  26.063  1.00  0.00     0.060 A 
BRANCH  13  17
ATOM     17  C   UNL A   1      36.002  20.505  25.051  1.00  0.00     0.065 A 
ATOM     18  C   UNL A   1      33.963  18.785  24.252  1.00  0.00     0.082 A 
ATOM     19  C   UNL A   1      33.687  20.142  24.418  1.00  0.00     0.024 A 
ATOM     20  C   UNL A   1      35.258  18.288  24.448  1.00  0.00     0.024 A 
ATOM     21  C   UNL A   1      34.707  20.999  24.825  1.00  0.00     0.030 A 
ATOM     22  C   UNL A   1      36.291  19.157  24.818  1.00  0.00     0.030 A 
BRANCH  18  23
ATOM     23  S   UNL A   1      32.657  17.667  23.836  1.00  0.00     0.238 S 
ATOM     24  O   UNL A   1      32.067  18.088  22.588  1.00  0.00    -0.207 OA
ATOM     25  O   UNL A   1      31.878  17.425  25.028  1.00  0.00    -0.207 OA
BRANCH  23  26
ATOM     26  N   UNL A   1      33.458  16.231  23.491  1.00  0.00    -0.225 NA
ATOM     27  H   UNL A   1      32.780  15.524  23.206  1.00  0.00     0.137 HD
ATOM     28  H   UNL A   1      33.953  15.910  24.323  1.00  0.00     0.137 HD
ENDBRANCH  23  26
ENDBRANCH  18  23
ENDBRANCH  13  17
BRANCH  15  29
ATOM     29  C   UNL A   1      40.462  21.911  26.376  1.00  0.00     0.393 C 
ATOM     30  F   UNL A   1      40.769  21.935  27.701  1.00  0.00    -0.203 F 
ATOM     31  F   UNL A   1      41.014  20.776  25.865  1.00  0.00    -0.203 F 
ENDBRANCH  15  29
ENDBRANCH   7  12
ENDBRANCH   3   6
ENDBRANCH   1   2
BRANCH   1  32
ATOM     32  C   UNL A   1      33.767  28.467  26.236  1.00  0.00     0.042 C 
BRANCH  32  33
ATOM     33  C   UNL A   1      35.112  28.422  26.936  1.00  0.00     0.118 C 
BRANCH  33  34
ATOM     34  N   UNL A   1      35.241  29.486  27.927  1.00  0.00    -0.352 N 
ATOM     35  C   UNL A   1      36.288  29.714  28.796  1.00  0.00     0.251 C 
ATOM     36  H   UNL A   1      34.489  30.119  27.982  1.00  0.00     0.163 HD
ATOM     37  O   UNL A   1      36.115  30.390  29.803  1.00  0.00    -0.269 OA
BRANCH  35  38
ATOM     38  C   UNL A   1      37.595  29.108  28.498  1.00  0.00     0.039 A 
ATOM     39  C   UNL A   1      38.380  29.583  27.445  1.00  0.00     0.014 A 
ATOM     40  C   UNL A   1      38.061  28.099  29.338  1.00  0.00     0.014 A 
ATOM     41  C   UNL A   1      39.681  29.106  27.309  1.00  0.00     0.010 A 
ATOM     42  C   UNL A   1      39.386  27.733  29.286  1.00  0.00     0.010 A 
ATOM     43  C   UNL A   1      40.194  28.203  28.254  1.00  0.00    -0.014 A 
BRANCH  43  44
ATOM     44  C   UNL A   1      41.611  27.838  28.240  1.00  0.00     0.031 A 
ATOM     45  C   UNL A   1      41.949  26.603  27.479  1.00  0.00     0.074 A 
ATOM     46  C   UNL A   1      42.596  28.646  28.690  1.00  0.00     0.049 A 
ATOM     47  N   UNL A   1      42.377  25.482  27.954  1.00  0.00    -0.248 NA
ATOM     48  C   UNL A   1      41.666  26.560  26.037  1.00  0.00     0.031 C 
ATOM     49  C   UNL A   1      42.484  30.013  29.209  1.00  0.00     0.029 A 
ATOM     50  N   UNL A   1      43.943  28.446  28.663  1.00  0.00    -0.354 N 
ATOM     51  C   UNL A   1      42.632  24.659  26.860  1.00  0.00     0.074 A 
ATOM     52  C   UNL A   1      42.006  25.304  25.735  1.00  0.00     0.031 C 
ATOM     53  C   UNL A   1      43.701  30.598  29.210  1.00  0.00     0.029 A 
ATOM     54  C   UNL A   1      44.696  29.597  28.867  1.00  0.00     0.049 A 
ATOM     55  H   UNL A   1      44.348  27.563  28.510  1.00  0.00     0.167 HD
ATOM     56  C   UNL A   1      43.513  23.621  26.944  1.00  0.00     0.034 A 
ATOM     57  C   UNL A   1      46.042  29.736  28.749  1.00  0.00     0.034 A 
ATOM     58  C   UNL A   1      43.848  23.339  28.322  1.00  0.00     0.049 A 
ATOM     59  C   UNL A   1      46.626  28.383  28.926  1.00  0.00     0.074 A 
ATOM     60  C   UNL A   1      43.119  22.987  29.442  1.00  0.00     0.029 A 
ATOM     61  N   UNL A   1      45.058  23.795  28.799  1.00  0.00    -0.354 N 
ATOM     62  N   UNL A   1      46.551  27.718  30.046  1.00  0.00    -0.248 NA
ATOM     63  C   UNL A   1      46.856  27.568  27.742  1.00  0.00     0.031 C 
ATOM     64  C   UNL A   1      43.705  23.735  30.505  1.00  0.00     0.029 A 
ATOM     65  C   UNL A   1      44.808  24.424  29.994  1.00  0.00     0.049 A 
ATOM     66  H   UNL A   1      45.935  23.689  28.366  1.00  0.00     0.167 HD
ATOM     67  C   UNL A   1      46.266  26.415  29.669  1.00  0.00     0.074 A 
ATOM     68  C   UNL A   1      46.582  26.359  28.243  1.00  0.00     0.031 C 
ATOM     69  C   UNL A   1      45.536  25.585  30.475  1.00  0.00     0.034 A 
BRANCH  56  70
ATOM     70  C   UNL A   1      44.337  23.060  25.807  1.00  0.00     0.023 A 
ATOM     71  C   UNL A   1      44.312  21.662  25.615  1.00  0.00     0.031 A 
ATOM     72  C   UNL A   1      45.341  23.757  25.100  1.00  0.00     0.131 A 
ATOM     73  C   UNL A   1      45.299  21.016  24.850  1.00  0.00     0.055 A 
ATOM     74  C   UNL A   1      46.277  23.117  24.282  1.00  0.00     0.041 A 
ATOM     75  F   UNL A   1      45.536  25.073  25.237  1.00  0.00    -0.206 F 
ATOM     76  C   UNL A   1      46.281  21.736  24.177  1.00  0.00     0.022 A 
BRANCH  73  77
ATOM     77  S   UNL A   1      45.384  19.207  24.904  1.00  0.00     0.124 S 
ATOM     78  O   UNL A   1      45.527  18.877  23.491  1.00  0.00    -0.237 OA
ATOM     79  O   UNL A   1      46.559  18.986  25.740  1.00  0.00    -0.237 OA
ATOM     80  O   UNL A   1      44.109  18.826  25.507  1.00  0.00    -0.744 OA
ENDBRANCH  73  77
ENDBRANCH  56  70
BRANCH  57  81
ATOM     81  C   UNL A   1      46.783  30.916  28.232  1.00  0.00     0.023 A 
ATOM     82  C   UNL A   1      46.240  31.810  27.288  1.00  0.00     0.031 A 
ATOM     83  C   UNL A   1      47.991  31.309  28.856  1.00  0.00     0.131 A 
ATOM     84  C   UNL A   1      46.897  33.033  27.005  1.00  0.00     0.055 A 
ATOM     85  C   UNL A   1      48.638  32.512  28.568  1.00  0.00     0.041 A 
ATOM     86  F   UNL A   1      48.539  30.572  29.835  1.00  0.00    -0.206 F 
ATOM     87  C   UNL A   1      48.087  33.386  27.646  1.00  0.00     0.022 A 
BRANCH  84  88
ATOM     88  S   UNL A   1      46.148  34.239  25.863  1.00  0.00     0.124 S 
ATOM     89  O   UNL A   1      45.211  33.414  25.110  1.00  0.00    -0.237 OA
ATOM     90  O   UNL A   1      45.567  35.216  26.776  1.00  0.00    -0.237 OA
ATOM     91  O   UNL A   1      47.290  34.731  25.090  1.00  0.00    -0.744 OA
ENDBRANCH  84  88
ENDBRANCH  57  81
BRANCH  69  92
ATOM     92  C   UNL A   1      45.273  26.009  31.909  1.00  0.00     0.023 A 
ATOM     93  C   UNL A   1      44.066  26.579  32.375  1.00  0.00     0.031 A 
ATOM     94  C   UNL A   1      46.252  25.691  32.867  1.00  0.00     0.131 A 
ATOM     95  C   UNL A   1      43.882  26.821  33.751  1.00  0.00     0.055 A 
ATOM     96  C   UNL A   1      46.058  25.909  34.229  1.00  0.00     0.041 A 
ATOM     97  F   UNL A   1      47.409  25.121  32.494  1.00  0.00    -0.206 F 
ATOM     98  C   UNL A   1      44.874  26.481  34.677  1.00  0.00     0.022 A 
BRANCH  95  99
ATOM     99  S   UNL A   1      42.352  27.598  34.365  1.00  0.00     0.124 S 
ATOM    100  O   UNL A   1      42.827  28.555  35.357  1.00  0.00    -0.237 OA
ATOM    101  O   UNL A   1      41.776  28.170  33.151  1.00  0.00    -0.237 OA
ATOM    102  O   UNL A   1      41.598  26.471  34.920  1.00  0.00    -0.744 OA
ENDBRANCH  95  99
ENDBRANCH  69  92
ENDBRANCH  43  44
ENDBRANCH  35  38
ENDBRANCH  33  34
ENDBRANCH  32  33
ENDBRANCH   1  32
TORSDOF 18
ENDMDL
MODEL 2
REMARK VINA RESULT:     -12.7      3.324      8.574
REMARK SMILES NS(=O)(=O)c1ccc(-n2nc(C(F)F)cc2-c2ccc(C(=O)NCCCNC(=O)c3ccc(-c4c5nc(c(-c6cc(S(=O)(=O)[O-])ccc6F)c6ccc([nH]6)c(-c6cc(S(=O)(=O)[O-])ccc6F)c6nc(c(-c7cc(S(=O)(=O)[O-])ccc7F)c7ccc4[nH]7)C=C6)C=C5)cc3)cc2)cc1
REMARK SMILES IDX 24 1 23 2 21 3 22 4 20 6 17 7 18 8 94 9 19 10 93 11 16 12
REMARK SMILES IDX 9 13 10 14 11 15 15 16 8 17 5 18 6 19 96 20 7 21 95 22 2 23
REMARK SMILES IDX 3 24 4 25 1 26 12 29 13 30 14 31 25 32 26 33 27 34 28 35
REMARK SMILES IDX 29 37 30 38 31 39 92 40 32 41 91 42 33 43 34 44 35 45 85 46
REMARK SMILES IDX 36 47 90 48 84 49 86 50 37 51 89 52 83 53 82 54 38 56 70 57
REMARK SMILES IDX 50 58 69 59 51 60 54 61 68 62 87 63 52 64 53 65 67 67 88 68
REMARK SMILES IDX 55 69 39 70 40 71 48 72 41 73 47 74 49 75 46 76 42 77 43 78
REMARK SMILES IDX 44 79 45 80 71 81 72 82 80 83 73 84 79 85 81 86 78 87 74 88
REMARK SMILES IDX 75 89 76 90 77 91 56 92 57 93 65 94 58 95 64 96 66 97 63 98
REMARK SMILES IDX 59 99 60 100 61 101 62 102
REMARK H PARENT 23 5 1 27 1 28 27 36 86 55 54 66
REMARK Flexibility Score: inf
ROOT
ATOM      1  C   UNL A   1      37.975  20.762  25.465  1.00  0.00     0.118 C 
ENDROOT
BRANCH   1   2
ATOM      2  N   UNL A   1      38.659  22.035  25.638  1.00  0.00    -0.352 N 
ATOM      3  C   UNL A   1      38.206  23.329  25.566  1.00  0.00     0.251 C 
ATOM      4  O   UNL A   1      38.981  24.239  25.853  1.00  0.00    -0.269 OA
ATOM      5  H   UNL A   1      39.618  21.952  25.845  1.00  0.00     0.163 HD
BRANCH   3   6
ATOM      6  C   UNL A   1      36.804  23.672  25.199  1.00  0.00     0.039 A 
ATOM      7  C   UNL A   1      34.198  24.324  24.378  1.00  0.00     0.000 A 
ATOM      8  C   UNL A   1      35.118  23.815  23.455  1.00  0.00     0.011 A 
ATOM      9  C   UNL A   1      34.573  24.486  25.707  1.00  0.00     0.011 A 
ATOM     10  C   UNL A   1      36.416  23.496  23.864  1.00  0.00     0.014 A 
ATOM     11  C   UNL A   1      35.850  24.118  26.116  1.00  0.00     0.014 A 
BRANCH   7  12
ATOM     12  C   UNL A   1      32.832  24.626  23.992  1.00  0.00     0.075 A 
ATOM     13  N   UNL A   1      31.889  23.682  23.612  1.00  0.00    -0.233 N 
ATOM     14  N   UNL A   1      30.779  24.267  23.095  1.00  0.00    -0.166 NA
ATOM     15  C   UNL A   1      30.923  25.578  23.368  1.00  0.00     0.129 A 
ATOM     16  C   UNL A   1      32.207  25.849  23.893  1.00  0.00     0.060 A 
BRANCH  13  17
ATOM     17  C   UNL A   1      31.993  22.271  23.728  1.00  0.00     0.065 A 
ATOM     18  C   UNL A   1      32.418  19.527  23.941  1.00  0.00     0.082 A 
ATOM     19  C   UNL A   1      32.364  20.303  25.099  1.00  0.00     0.024 A 
ATOM     20  C   UNL A   1      32.226  20.107  22.681  1.00  0.00     0.024 A 
ATOM     21  C   UNL A   1      32.159  21.677  24.990  1.00  0.00     0.030 A 
ATOM     22  C   UNL A   1      31.980  21.481  22.574  1.00  0.00     0.030 A 
BRANCH  18  23
ATOM     23  S   UNL A   1      32.781  17.799  24.057  1.00  0.00     0.238 S 
ATOM     24  O   UNL A   1      32.948  17.271  22.725  1.00  0.00    -0.207 OA
ATOM     25  O   UNL A   1      31.878  17.217  25.024  1.00  0.00    -0.207 OA
BRANCH  23  26
ATOM     26  N   UNL A   1      34.310  17.761  24.752  1.00  0.00    -0.225 NA
ATOM     27  H   UNL A   1      34.615  18.713  24.955  1.00  0.00     0.137 HD
ATOM     28  H   UNL A   1      34.966  17.324  24.104  1.00  0.00     0.137 HD
ENDBRANCH  23  26
ENDBRANCH  18  23
ENDBRANCH  13  17
BRANCH  15  29
ATOM     29  C   UNL A   1      29.846  26.590  23.125  1.00  0.00     0.393 C 
ATOM     30  F   UNL A   1      29.519  27.289  24.244  1.00  0.00    -0.203 F 
ATOM     31  F   UNL A   1      30.215  27.502  22.184  1.00  0.00    -0.203 F 
ENDBRANCH  15  29
ENDBRANCH   7  12
ENDBRANCH   3   6
ENDBRANCH   1   2
BRANCH   1  32
ATOM     32  C   UNL A   1      38.926  19.663  24.972  1.00  0.00     0.042 C 
BRANCH  32  33
ATOM     33  C   UNL A   1      39.627  18.940  26.106  1.00  0.00     0.118 C 
BRANCH  33  34
ATOM     34  N   UNL A   1      41.031  18.685  25.797  1.00  0.00    -0.352 N 
ATOM     35  C   UNL A   1      42.065  19.596  25.731  1.00  0.00     0.251 C 
ATOM     36  H   UNL A   1      41.269  17.747  25.614  1.00  0.00     0.163 HD
ATOM     37  O   UNL A   1      43.087  19.322  25.112  1.00  0.00    -0.269 OA
BRANCH  35  38
ATOM     38  C   UNL A   1      41.898  20.900  26.392  1.00  0.00     0.039 A 
ATOM     39  C   UNL A   1      41.480  20.979  27.722  1.00  0.00     0.014 A 
ATOM     40  C   UNL A   1      42.237  22.049  25.680  1.00  0.00     0.014 A 
ATOM     41  C   UNL A   1      41.507  22.215  28.362  1.00  0.00     0.010 A 
ATOM     42  C   UNL A   1      42.395  23.239  26.351  1.00  0.00     0.010 A 
ATOM     43  C   UNL A   1      41.999  23.341  27.682  1.00  0.00    -0.014 A 
BRANCH  43  44
ATOM     44  C   UNL A   1      42.215  24.602  28.392  1.00  0.00     0.031 A 
ATOM     45  C   UNL A   1      41.086  25.573  28.334  1.00  0.00     0.074 A 
ATOM     46  C   UNL A   1      43.255  24.824  29.224  1.00  0.00     0.049 A 
ATOM     47  N   UNL A   1      41.065  26.715  27.733  1.00  0.00    -0.248 NA
ATOM     48  C   UNL A   1      39.788  25.184  28.904  1.00  0.00     0.031 C 
ATOM     49  C   UNL A   1      44.310  23.889  29.629  1.00  0.00     0.029 A 
ATOM     50  N   UNL A   1      43.519  25.920  29.987  1.00  0.00    -0.354 N 
ATOM     51  C   UNL A   1      39.834  27.296  28.029  1.00  0.00     0.074 A 
ATOM     52  C   UNL A   1      39.031  26.240  28.590  1.00  0.00     0.031 C 
ATOM     53  C   UNL A   1      44.937  24.362  30.728  1.00  0.00     0.029 A 
ATOM     54  C   UNL A   1      44.455  25.705  30.994  1.00  0.00     0.049 A 
ATOM     55  H   UNL A   1      43.084  26.790  29.840  1.00  0.00     0.167 HD
ATOM     56  C   UNL A   1      39.656  28.647  27.972  1.00  0.00     0.034 A 
ATOM     57  C   UNL A   1      44.806  26.557  31.992  1.00  0.00     0.034 A 
ATOM     58  C   UNL A   1      40.760  29.285  27.290  1.00  0.00     0.049 A 
ATOM     59  C   UNL A   1      44.469  27.924  31.523  1.00  0.00     0.074 A 
ATOM     60  C   UNL A   1      41.314  29.170  26.029  1.00  0.00     0.029 A 
ATOM     61  N   UNL A   1      41.718  29.911  28.057  1.00  0.00    -0.354 N 
ATOM     62  N   UNL A   1      45.058  28.491  30.506  1.00  0.00    -0.248 NA
ATOM     63  C   UNL A   1      43.160  28.468  31.855  1.00  0.00     0.031 C 
ATOM     64  C   UNL A   1      42.722  29.238  26.245  1.00  0.00     0.029 A 
ATOM     65  C   UNL A   1      42.941  29.481  27.604  1.00  0.00     0.049 A 
ATOM     66  H   UNL A   1      41.556  30.547  28.791  1.00  0.00     0.167 HD
ATOM     67  C   UNL A   1      44.040  29.120  29.807  1.00  0.00     0.074 A 
ATOM     68  C   UNL A   1      42.919  29.171  30.744  1.00  0.00     0.031 C 
ATOM     69  C   UNL A   1      44.104  29.282  28.450  1.00  0.00     0.034 A 
BRANCH  56  70
ATOM     70  C   UNL A   1      38.676  29.450  28.798  1.00  0.00     0.023 A 
ATOM     71  C   UNL A   1      38.872  29.476  30.195  1.00  0.00     0.031 A 
ATOM     72  C   UNL A   1      37.432  29.941  28.345  1.00  0.00     0.131 A 
ATOM     73  C   UNL A   1      37.841  29.870  31.066  1.00  0.00     0.055 A 
ATOM     74  C   UNL A   1      36.436  30.400  29.212  1.00  0.00     0.041 A 
ATOM     75  F   UNL A   1      37.072  29.912  27.057  1.00  0.00    -0.206 F 
ATOM     76  C   UNL A   1      36.623  30.337  30.583  1.00  0.00     0.022 A 
BRANCH  73  77
ATOM     77  S   UNL A   1      38.057  29.583  32.842  1.00  0.00     0.124 S 
ATOM     78  O   UNL A   1      37.295  30.688  33.413  1.00  0.00    -0.237 OA
ATOM     79  O   UNL A   1      37.484  28.252  33.004  1.00  0.00    -0.237 OA
ATOM     80  O   UNL A   1      39.505  29.665  33.025  1.00  0.00    -0.744 OA
ENDBRANCH  73  77
ENDBRANCH  56  70
BRANCH  57  81
ATOM     81  C   UNL A   1      45.152  26.206  33.394  1.00  0.00     0.023 A 
ATOM     82  C   UNL A   1      44.211  26.215  34.443  1.00  0.00     0.031 A 
ATOM     83  C   UNL A   1      46.409  25.621  33.675  1.00  0.00     0.131 A 
ATOM     84  C   UNL A   1      44.542  25.656  35.701  1.00  0.00     0.055 A 
ATOM     85  C   UNL A   1      46.733  25.078  34.920  1.00  0.00     0.041 A 
ATOM     86  F   UNL A   1      47.340  25.479  32.718  1.00  0.00    -0.206 F 
ATOM     87  C   UNL A   1      45.795  25.084  35.939  1.00  0.00     0.022 A 
BRANCH  84  88
ATOM     88  S   UNL A   1      43.296  25.572  37.029  1.00  0.00     0.124 S 
ATOM     89  O   UNL A   1      42.164  24.950  36.355  1.00  0.00    -0.237 OA
ATOM     90  O   UNL A   1      43.972  24.768  38.041  1.00  0.00    -0.237 OA
ATOM     91  O   UNL A   1      43.097  26.974  37.398  1.00  0.00    -0.744 OA
ENDBRANCH  84  88
ENDBRANCH  57  81
BRANCH  69  92
ATOM     92  C   UNL A   1      45.423  29.019  27.746  1.00  0.00     0.023 A 
ATOM     93  C   UNL A   1      45.779  27.798  27.128  1.00  0.00     0.031 A 
ATOM     94  C   UNL A   1      46.298  30.108  27.585  1.00  0.00     0.131 A 
ATOM     95  C   UNL A   1      46.979  27.701  26.395  1.00  0.00     0.055 A 
ATOM     96  C   UNL A   1      47.471  30.015  26.839  1.00  0.00     0.041 A 
ATOM     97  F   UNL A   1      46.004  31.303  28.122  1.00  0.00    -0.206 F 
ATOM     98  C   UNL A   1      47.820  28.808  26.245  1.00  0.00     0.022 A 
BRANCH  95  99
ATOM     99  S   UNL A   1      47.477  26.123  25.629  1.00  0.00     0.124 S 
ATOM    100  O   UNL A   1      48.932  26.146  25.716  1.00  0.00    -0.237 OA
ATOM    101  O   UNL A   1      46.803  25.136  26.468  1.00  0.00    -0.237 OA
ATOM    102  O   UNL A   1      46.948  26.224  24.268  1.00  0.00    -0.744 OA
ENDBRANCH  95  99
ENDBRANCH  69  92
ENDBRANCH  43  44
ENDBRANCH  35  38
ENDBRANCH  33  34
ENDBRANCH  32  33
ENDBRANCH   1  32
TORSDOF 18
ENDMDL
MODEL 3
REMARK VINA RESULT:     -12.5      2.327      3.378
REMARK SMILES NS(=O)(=O)c1ccc(-n2nc(C(F)F)cc2-c2ccc(C(=O)NCCCNC(=O)c3ccc(-c4c5nc(c(-c6cc(S(=O)(=O)[O-])ccc6F)c6ccc([nH]6)c(-c6cc(S(=O)(=O)[O-])ccc6F)c6nc(c(-c7cc(S(=O)(=O)[O-])ccc7F)c7ccc4[nH]7)C=C6)C=C5)cc3)cc2)cc1
REMARK SMILES IDX 24 1 23 2 21 3 22 4 20 6 17 7 18 8 94 9 19 10 93 11 16 12
REMARK SMILES IDX 9 13 10 14 11 15 15 16 8 17 5 18 6 19 96 20 7 21 95 22 2 23
REMARK SMILES IDX 3 24 4 25 1 26 12 29 13 30 14 31 25 32 26 33 27 34 28 35
REMARK SMILES IDX 29 37 30 38 31 39 92 40 32 41 91 42 33 43 34 44 35 45 85 46
REMARK SMILES IDX 36 47 90 48 84 49 86 50 37 51 89 52 83 53 82 54 38 56 70 57
REMARK SMILES IDX 50 58 69 59 51 60 54 61 68 62 87 63 52 64 53 65 67 67 88 68
REMARK SMILES IDX 55 69 39 70 40 71 48 72 41 73 47 74 49 75 46 76 42 77 43 78
REMARK SMILES IDX 44 79 45 80 71 81 72 82 80 83 73 84 79 85 81 86 78 87 74 88
REMARK SMILES IDX 75 89 76 90 77 91 56 92 57 93 65 94 58 95 64 96 66 97 63 98
REMARK SMILES IDX 59 99 60 100 61 101 62 102
REMARK H PARENT 23 5 1 27 1 28 27 36 86 55 54 66
REMARK Flexibility Score: inf
ROOT
ATOM      1  C   UNL A   1      33.919  27.551  26.154  1.00  0.00     0.118 C 
ENDROOT
BRANCH   1   2
ATOM      2  N   UNL A   1      33.582  27.794  24.760  1.00  0.00    -0.352 N 
ATOM      3  C   UNL A   1      33.316  26.932  23.724  1.00  0.00     0.251 C 
ATOM      4  O   UNL A   1      32.958  27.402  22.646  1.00  0.00    -0.269 OA
ATOM      5  H   UNL A   1      33.535  28.746  24.516  1.00  0.00     0.163 HD
BRANCH   3   6
ATOM      6  C   UNL A   1      33.401  25.452  23.867  1.00  0.00     0.039 A 
ATOM      7  C   UNL A   1      33.526  22.674  24.266  1.00  0.00     0.000 A 
ATOM      8  C   UNL A   1      32.814  23.481  25.161  1.00  0.00     0.011 A 
ATOM      9  C   UNL A   1      34.154  23.252  23.168  1.00  0.00     0.011 A 
ATOM     10  C   UNL A   1      32.757  24.864  24.964  1.00  0.00     0.014 A 
ATOM     11  C   UNL A   1      34.050  24.621  22.951  1.00  0.00     0.014 A 
BRANCH   7  12
ATOM     12  C   UNL A   1      33.569  21.232  24.422  1.00  0.00     0.075 A 
ATOM     13  N   UNL A   1      34.715  20.499  24.694  1.00  0.00    -0.233 N 
ATOM     14  N   UNL A   1      34.496  19.166  24.563  1.00  0.00    -0.166 NA
ATOM     15  C   UNL A   1      33.159  19.049  24.445  1.00  0.00     0.129 A 
ATOM     16  C   UNL A   1      32.547  20.316  24.314  1.00  0.00     0.060 A 
BRANCH  13  17
ATOM     17  C   UNL A   1      35.986  21.003  25.074  1.00  0.00     0.065 A 
ATOM     18  C   UNL A   1      38.455  21.884  26.014  1.00  0.00     0.082 A 
ATOM     19  C   UNL A   1      38.384  20.691  25.293  1.00  0.00     0.024 A 
ATOM     20  C   UNL A   1      37.308  22.656  26.238  1.00  0.00     0.024 A 
ATOM     21  C   UNL A   1      37.146  20.249  24.831  1.00  0.00     0.030 A 
ATOM     22  C   UNL A   1      36.072  22.230  25.738  1.00  0.00     0.030 A 
BRANCH  18  23
ATOM     23  S   UNL A   1      40.002  22.406  26.696  1.00  0.00     0.238 S 
ATOM     24  O   UNL A   1      39.766  23.527  27.574  1.00  0.00    -0.207 OA
ATOM     25  O   UNL A   1      40.974  22.437  25.628  1.00  0.00    -0.207 OA
BRANCH  23  26
ATOM     26  N   UNL A   1      40.442  21.134  27.702  1.00  0.00    -0.225 NA
ATOM     27  H   UNL A   1      41.323  20.733  27.378  1.00  0.00     0.137 HD
ATOM     28  H   UNL A   1      39.715  20.418  27.682  1.00  0.00     0.137 HD
ENDBRANCH  23  26
ENDBRANCH  18  23
ENDBRANCH  13  17
BRANCH  15  29
ATOM     29  C   UNL A   1      32.449  17.729  24.445  1.00  0.00     0.393 C 
ATOM     30  F   UNL A   1      33.171  16.743  23.850  1.00  0.00    -0.203 F 
ATOM     31  F   UNL A   1      32.174  17.306  25.710  1.00  0.00    -0.203 F 
ENDBRANCH  15  29
ENDBRANCH   7  12
ENDBRANCH   3   6
ENDBRANCH   1   2
BRANCH   1  32
ATOM     32  C   UNL A   1      33.950  28.850  26.971  1.00  0.00     0.042 C 
BRANCH  32  33
ATOM     33  C   UNL A   1      35.359  29.300  27.308  1.00  0.00     0.118 C 
BRANCH  33  34
ATOM     34  N   UNL A   1      35.403  30.041  28.565  1.00  0.00    -0.352 N 
ATOM     35  C   UNL A   1      36.338  29.945  29.574  1.00  0.00     0.251 C 
ATOM     36  H   UNL A   1      34.677  30.690  28.710  1.00  0.00     0.163 HD
ATOM     37  O   UNL A   1      36.065  30.331  30.705  1.00  0.00    -0.269 OA
BRANCH  35  38
ATOM     38  C   UNL A   1      37.647  29.346  29.267  1.00  0.00     0.039 A 
ATOM     39  C   UNL A   1      38.476  29.902  28.290  1.00  0.00     0.014 A 
ATOM     40  C   UNL A   1      38.069  28.257  30.026  1.00  0.00     0.014 A 
ATOM     41  C   UNL A   1      39.774  29.416  28.155  1.00  0.00     0.010 A 
ATOM     42  C   UNL A   1      39.390  27.874  29.987  1.00  0.00     0.010 A 
ATOM     43  C   UNL A   1      40.240  28.422  29.031  1.00  0.00    -0.014 A 
BRANCH  43  44
ATOM     44  C   UNL A   1      41.652  28.037  29.032  1.00  0.00     0.031 A 
ATOM     45  C   UNL A   1      42.016  26.931  28.103  1.00  0.00     0.074 A 
ATOM     46  C   UNL A   1      42.620  28.743  29.655  1.00  0.00     0.049 A 
ATOM     47  N   UNL A   1      42.405  25.740  28.415  1.00  0.00    -0.248 NA
ATOM     48  C   UNL A   1      41.811  27.122  26.659  1.00  0.00     0.031 C 
ATOM     49  C   UNL A   1      42.496  30.013  30.379  1.00  0.00     0.029 A 
ATOM     50  N   UNL A   1      43.964  28.523  29.666  1.00  0.00    -0.354 N 
ATOM     51  C   UNL A   1      42.709  25.096  27.219  1.00  0.00     0.074 A 
ATOM     52  C   UNL A   1      42.153  25.923  26.180  1.00  0.00     0.031 C 
ATOM     53  C   UNL A   1      43.718  30.566  30.535  1.00  0.00     0.029 A 
ATOM     54  C   UNL A   1      44.718  29.612  30.089  1.00  0.00     0.049 A 
ATOM     55  H   UNL A   1      44.367  27.667  29.396  1.00  0.00     0.167 HD
ATOM     56  C   UNL A   1      43.572  24.040  27.182  1.00  0.00     0.034 A 
ATOM     57  C   UNL A   1      46.070  29.741  30.065  1.00  0.00     0.034 A 
ATOM     58  C   UNL A   1      43.830  23.537  28.513  1.00  0.00     0.049 A 
ATOM     59  C   UNL A   1      46.628  28.366  30.053  1.00  0.00     0.074 A 
ATOM     60  C   UNL A   1      43.037  23.027  29.524  1.00  0.00     0.029 A 
ATOM     61  N   UNL A   1      45.016  23.888  29.119  1.00  0.00    -0.354 N 
ATOM     62  N   UNL A   1      46.485  27.534  31.048  1.00  0.00    -0.248 NA
ATOM     63  C   UNL A   1      46.913  27.744  28.768  1.00  0.00     0.031 C 
ATOM     64  C   UNL A   1      43.573  23.586  30.721  1.00  0.00     0.029 A 
ATOM     65  C   UNL A   1      44.710  24.325  30.384  1.00  0.00     0.049 A 
ATOM     66  H   UNL A   1      45.914  23.834  28.719  1.00  0.00     0.167 HD
ATOM     67  C   UNL A   1      46.206  26.312  30.455  1.00  0.00     0.074 A 
ATOM     68  C   UNL A   1      46.598  26.477  29.057  1.00  0.00     0.031 C 
ATOM     69  C   UNL A   1      45.424  25.381  31.080  1.00  0.00     0.034 A 
BRANCH  56  70
ATOM     70  C   UNL A   1      44.450  23.649  26.014  1.00  0.00     0.023 A 
ATOM     71  C   UNL A   1      44.365  22.318  25.555  1.00  0.00     0.031 A 
ATOM     72  C   UNL A   1      45.542  24.398  25.523  1.00  0.00     0.131 A 
ATOM     73  C   UNL A   1      45.371  21.764  24.745  1.00  0.00     0.055 A 
ATOM     74  C   UNL A   1      46.502  23.862  24.659  1.00  0.00     0.041 A 
ATOM     75  F   UNL A   1      45.798  25.648  25.925  1.00  0.00    -0.206 F 
ATOM     76  C   UNL A   1      46.440  22.529  24.290  1.00  0.00     0.022 A 
BRANCH  73  77
ATOM     77  S   UNL A   1      45.354  19.975  24.453  1.00  0.00     0.124 S 
ATOM     78  O   UNL A   1      44.678  19.488  25.650  1.00  0.00    -0.237 OA
ATOM     79  O   UNL A   1      44.604  19.881  23.205  1.00  0.00    -0.237 OA
ATOM     80  O   UNL A   1      46.772  19.634  24.356  1.00  0.00    -0.744 OA
ENDBRANCH  73  77
ENDBRANCH  56  70
BRANCH  57  81
ATOM     81  C   UNL A   1      46.852  30.973  29.780  1.00  0.00     0.023 A 
ATOM     82  C   UNL A   1      47.025  31.490  28.481  1.00  0.00     0.031 A 
ATOM     83  C   UNL A   1      47.259  31.803  30.852  1.00  0.00     0.131 A 
ATOM     84  C   UNL A   1      47.580  32.779  28.295  1.00  0.00     0.055 A 
ATOM     85  C   UNL A   1      47.814  33.070  30.662  1.00  0.00     0.041 A 
ATOM     86  F   UNL A   1      47.051  31.442  32.128  1.00  0.00    -0.206 F 
ATOM     87  C   UNL A   1      47.968  33.569  29.380  1.00  0.00     0.022 A 
BRANCH  84  88
ATOM     88  S   UNL A   1      47.712  33.494  26.623  1.00  0.00     0.124 S 
ATOM     89  O   UNL A   1      49.018  33.019  26.184  1.00  0.00    -0.237 OA
ATOM     90  O   UNL A   1      46.552  32.925  25.947  1.00  0.00    -0.237 OA
ATOM     91  O   UNL A   1      47.631  34.936  26.862  1.00  0.00    -0.744 OA
ENDBRANCH  84  88
ENDBRANCH  57  81
BRANCH  69  92
ATOM     92  C   UNL A   1      45.088  25.577  32.548  1.00  0.00     0.023 A 
ATOM     93  C   UNL A   1      43.926  26.220  33.032  1.00  0.00     0.031 A 
ATOM     94  C   UNL A   1      45.930  24.961  33.491  1.00  0.00     0.131 A 
ATOM     95  C   UNL A   1      43.652  26.239  34.414  1.00  0.00     0.055 A 
ATOM     96  C   UNL A   1      45.644  24.961  34.855  1.00  0.00     0.041 A 
ATOM     97  F   UNL A   1      47.035  24.309  33.095  1.00  0.00    -0.206 F 
ATOM     98  C   UNL A   1      44.505  25.605  35.323  1.00  0.00     0.022 A 
BRANCH  95  99
ATOM     99  S   UNL A   1      42.182  27.102  35.061  1.00  0.00     0.124 S 
ATOM    100  O   UNL A   1      41.323  26.017  35.522  1.00  0.00    -0.237 OA
ATOM    101  O   UNL A   1      42.747  27.955  36.103  1.00  0.00    -0.237 OA
ATOM    102  O   UNL A   1      41.673  27.826  33.895  1.00  0.00    -0.744 OA
ENDBRANCH  95  99
ENDBRANCH  69  92
ENDBRANCH  43  44
ENDBRANCH  35  38
ENDBRANCH  33  34
ENDBRANCH  32  33
ENDBRANCH   1  32
TORSDOF 18
ENDMDL
