MODEL 1
REMARK VINA RESULT:     -12.5      0.000      0.000
REMARK SMILES Cc1cc(=O)cc(C)n1C[C@H]1CCCC[C@@H]1C(=O)NCCCNC(=O)c1ccc(-c2c3nc(c(-c4cc(S(=O)(=O)[O-])ccc4F)c4ccc([nH]4)c(-c4cc(S(=O)(=O)[O-])ccc4F)c4nc(c(-c5cc(S(=O)(=O)[O-])ccc5F)c5ccc2[nH]5)C=C4)C=C3)cc1
REMARK SMILES IDX 21 1 20 2 19 3 17 4 18 5 16 7 11 8 12 9 13 10 15 11 14 12
REMARK SMILES IDX 10 13 9 14 1 15 2 16 3 17 4 18 7 19 5 20 6 21 8 22 22 23
REMARK SMILES IDX 23 24 24 25 25 27 26 28 27 29 88 30 28 31 87 32 29 33 30 34
REMARK SMILES IDX 31 35 81 36 32 37 86 38 80 39 82 40 33 41 85 42 79 43 78 44
REMARK SMILES IDX 34 46 66 47 46 48 65 49 47 50 50 51 64 52 83 53 48 54 49 55
REMARK SMILES IDX 63 57 84 58 51 59 35 60 36 61 44 62 37 63 43 64 45 65 42 66
REMARK SMILES IDX 38 67 39 68 40 69 41 70 67 71 68 72 76 73 69 74 75 75 77 76
REMARK SMILES IDX 74 77 70 78 71 79 72 80 73 81 52 82 53 83 61 84 54 85 60 86
REMARK SMILES IDX 62 87 59 88 55 89 56 90 57 91 58 92
REMARK H PARENT 19 6 23 26 82 45 50 56
REMARK Flexibility Score: inf
ROOT
ATOM      1  C   UNL A   1      32.620  28.936  23.988  1.00  0.00     0.042 C 
ENDROOT
BRANCH   1   2
ATOM      2  C   UNL A   1      33.868  28.435  23.274  1.00  0.00     0.117 C 
BRANCH   2   3
ATOM      3  N   UNL A   1      33.538  27.470  22.243  1.00  0.00    -0.356 N 
ATOM      4  C   UNL A   1      33.448  26.116  22.296  1.00  0.00     0.223 C 
ATOM      5  O   UNL A   1      33.426  25.527  21.214  1.00  0.00    -0.275 OA
ATOM      6  H   UNL A   1      33.346  27.861  21.360  1.00  0.00     0.163 HD
BRANCH   4   7
ATOM      7  C   UNL A   1      33.375  25.390  23.649  1.00  0.00     0.083 C 
ATOM      8  C   UNL A   1      33.895  23.915  23.535  1.00  0.00     0.021 C 
ATOM      9  C   UNL A   1      32.914  23.103  22.662  1.00  0.00     0.006 C 
ATOM     10  C   UNL A   1      31.467  23.157  23.156  1.00  0.00     0.000 C 
ATOM     11  C   UNL A   1      31.942  25.399  24.217  1.00  0.00     0.014 C 
ATOM     12  C   UNL A   1      30.976  24.583  23.367  1.00  0.00     0.001 C 
BRANCH   8  13
ATOM     13  C   UNL A   1      34.100  23.303  24.954  1.00  0.00     0.126 C 
BRANCH  13  14
ATOM     14  N   UNL A   1      35.171  22.262  25.038  1.00  0.00    -0.349 N 
ATOM     15  C   UNL A   1      36.882  24.063  25.609  1.00  0.00     0.064 C 
ATOM     16  C   UNL A   1      36.528  22.638  25.255  1.00  0.00     0.018 A 
ATOM     17  C   UNL A   1      37.541  21.752  25.222  1.00  0.00     0.073 A 
ATOM     18  C   UNL A   1      37.260  20.331  24.969  1.00  0.00     0.182 A 
ATOM     19  C   UNL A   1      34.882  20.871  24.960  1.00  0.00     0.018 A 
ATOM     20  O   UNL A   1      38.160  19.501  24.884  1.00  0.00    -0.290 OA
ATOM     21  C   UNL A   1      35.848  19.936  24.898  1.00  0.00     0.073 A 
ATOM     22  C   UNL A   1      33.471  20.344  25.039  1.00  0.00     0.064 C 
ENDBRANCH  13  14
ENDBRANCH   8  13
ENDBRANCH   4   7
ENDBRANCH   2   3
ENDBRANCH   1   2
BRANCH   1  23
ATOM     23  C   UNL A   1      32.802  29.173  25.483  1.00  0.00     0.118 C 
BRANCH  23  24
ATOM     24  N   UNL A   1      32.310  30.472  25.919  1.00  0.00    -0.352 N 
ATOM     25  C   UNL A   1      32.809  31.316  26.886  1.00  0.00     0.251 C 
ATOM     26  H   UNL A   1      31.504  30.793  25.454  1.00  0.00     0.163 HD
ATOM     27  O   UNL A   1      32.160  32.291  27.234  1.00  0.00    -0.269 OA
BRANCH  25  28
ATOM     28  C   UNL A   1      34.111  31.010  27.519  1.00  0.00     0.039 A 
ATOM     29  C   UNL A   1      34.930  32.066  27.925  1.00  0.00     0.014 A 
ATOM     30  C   UNL A   1      34.510  29.688  27.734  1.00  0.00     0.014 A 
ATOM     31  C   UNL A   1      36.112  31.794  28.618  1.00  0.00     0.010 A 
ATOM     32  C   UNL A   1      35.640  29.422  28.499  1.00  0.00     0.010 A 
ATOM     33  C   UNL A   1      36.455  30.472  28.947  1.00  0.00    -0.014 A 
BRANCH  33  34
ATOM     34  C   UNL A   1      37.673  30.166  29.740  1.00  0.00     0.031 A 
ATOM     35  C   UNL A   1      38.758  29.313  29.143  1.00  0.00     0.074 A 
ATOM     36  C   UNL A   1      37.782  30.617  31.006  1.00  0.00     0.049 A 
ATOM     37  N   UNL A   1      39.857  28.869  29.695  1.00  0.00    -0.248 NA
ATOM     38  C   UNL A   1      38.569  28.881  27.749  1.00  0.00     0.031 C 
ATOM     39  C   UNL A   1      36.785  31.433  31.703  1.00  0.00     0.029 A 
ATOM     40  N   UNL A   1      38.784  30.459  31.930  1.00  0.00    -0.354 N 
ATOM     41  C   UNL A   1      40.486  28.102  28.721  1.00  0.00     0.074 A 
ATOM     42  C   UNL A   1      39.615  28.090  27.565  1.00  0.00     0.031 C 
ATOM     43  C   UNL A   1      37.245  31.737  32.928  1.00  0.00     0.029 A 
ATOM     44  C   UNL A   1      38.544  31.103  33.123  1.00  0.00     0.049 A 
ATOM     45  H   UNL A   1      39.598  29.933  31.757  1.00  0.00     0.167 HD
ATOM     46  C   UNL A   1      41.692  27.488  28.773  1.00  0.00     0.034 A 
ATOM     47  C   UNL A   1      39.286  31.172  34.245  1.00  0.00     0.034 A 
ATOM     48  C   UNL A   1      42.563  27.527  29.919  1.00  0.00     0.049 A 
ATOM     49  C   UNL A   1      40.608  30.452  34.293  1.00  0.00     0.074 A 
ATOM     50  C   UNL A   1      43.821  26.968  30.062  1.00  0.00     0.029 A 
ATOM     51  N   UNL A   1      42.270  28.162  31.117  1.00  0.00    -0.354 N 
ATOM     52  N   UNL A   1      41.185  29.729  33.362  1.00  0.00    -0.248 NA
ATOM     53  C   UNL A   1      41.374  30.551  35.543  1.00  0.00     0.031 C 
ATOM     54  C   UNL A   1      44.267  27.224  31.363  1.00  0.00     0.029 A 
ATOM     55  C   UNL A   1      43.313  27.991  32.012  1.00  0.00     0.049 A 
ATOM     56  H   UNL A   1      41.441  28.661  31.305  1.00  0.00     0.167 HD
ATOM     57  C   UNL A   1      42.392  29.305  33.907  1.00  0.00     0.074 A 
ATOM     58  C   UNL A   1      42.463  29.854  35.245  1.00  0.00     0.031 C 
ATOM     59  C   UNL A   1      43.358  28.532  33.347  1.00  0.00     0.034 A 
BRANCH  46  60
ATOM     60  C   UNL A   1      42.133  26.720  27.556  1.00  0.00     0.023 A 
ATOM     61  C   UNL A   1      41.895  25.340  27.435  1.00  0.00     0.031 A 
ATOM     62  C   UNL A   1      42.797  27.372  26.503  1.00  0.00     0.131 A 
ATOM     63  C   UNL A   1      42.366  24.646  26.312  1.00  0.00     0.055 A 
ATOM     64  C   UNL A   1      43.203  26.688  25.356  1.00  0.00     0.041 A 
ATOM     65  F   UNL A   1      43.066  28.685  26.575  1.00  0.00    -0.206 F 
ATOM     66  C   UNL A   1      42.997  25.314  25.261  1.00  0.00     0.022 A 
BRANCH  63  67
ATOM     67  S   UNL A   1      42.221  22.839  26.286  1.00  0.00     0.124 S 
ATOM     68  O   UNL A   1      40.777  22.659  26.413  1.00  0.00    -0.237 OA
ATOM     69  O   UNL A   1      42.796  22.492  24.993  1.00  0.00    -0.237 OA
ATOM     70  O   UNL A   1      43.000  22.416  27.448  1.00  0.00    -0.744 OA
ENDBRANCH  63  67
ENDBRANCH  46  60
BRANCH  47  71
ATOM     71  C   UNL A   1      38.799  31.952  35.415  1.00  0.00     0.023 A 
ATOM     72  C   UNL A   1      38.208  31.307  36.513  1.00  0.00     0.031 A 
ATOM     73  C   UNL A   1      38.916  33.352  35.454  1.00  0.00     0.131 A 
ATOM     74  C   UNL A   1      37.734  32.063  37.596  1.00  0.00     0.055 A 
ATOM     75  C   UNL A   1      38.477  34.097  36.549  1.00  0.00     0.041 A 
ATOM     76  F   UNL A   1      39.485  34.013  34.433  1.00  0.00    -0.206 F 
ATOM     77  C   UNL A   1      37.876  33.453  37.626  1.00  0.00     0.022 A 
BRANCH  74  78
ATOM     78  S   UNL A   1      36.906  31.206  38.962  1.00  0.00     0.124 S 
ATOM     79  O   UNL A   1      35.672  31.972  39.089  1.00  0.00    -0.237 OA
ATOM     80  O   UNL A   1      36.772  29.851  38.436  1.00  0.00    -0.237 OA
ATOM     81  O   UNL A   1      37.847  31.348  40.072  1.00  0.00    -0.744 OA
ENDBRANCH  74  78
ENDBRANCH  47  71
BRANCH  59  82
ATOM     82  C   UNL A   1      44.583  28.254  34.174  1.00  0.00     0.023 A 
ATOM     83  C   UNL A   1      44.673  27.114  34.989  1.00  0.00     0.031 A 
ATOM     84  C   UNL A   1      45.692  29.116  34.107  1.00  0.00     0.131 A 
ATOM     85  C   UNL A   1      45.840  26.879  35.729  1.00  0.00     0.055 A 
ATOM     86  C   UNL A   1      46.868  28.853  34.810  1.00  0.00     0.041 A 
ATOM     87  F   UNL A   1      45.654  30.216  33.338  1.00  0.00    -0.206 F 
ATOM     88  C   UNL A   1      46.944  27.732  35.631  1.00  0.00     0.022 A 
BRANCH  85  89
ATOM     89  S   UNL A   1      45.890  25.454  36.850  1.00  0.00     0.124 S 
ATOM     90  O   UNL A   1      46.448  24.416  35.990  1.00  0.00    -0.237 OA
ATOM     91  O   UNL A   1      46.757  25.926  37.924  1.00  0.00    -0.237 OA
ATOM     92  O   UNL A   1      44.490  25.263  37.225  1.00  0.00    -0.744 OA
ENDBRANCH  85  89
ENDBRANCH  59  82
ENDBRANCH  33  34
ENDBRANCH  25  28
ENDBRANCH  23  24
ENDBRANCH   1  23
TORSDOF 15
ENDMDL
MODEL 2
REMARK VINA RESULT:     -12.5      4.912     10.309
REMARK SMILES Cc1cc(=O)cc(C)n1C[C@H]1CCCC[C@@H]1C(=O)NCCCNC(=O)c1ccc(-c2c3nc(c(-c4cc(S(=O)(=O)[O-])ccc4F)c4ccc([nH]4)c(-c4cc(S(=O)(=O)[O-])ccc4F)c4nc(c(-c5cc(S(=O)(=O)[O-])ccc5F)c5ccc2[nH]5)C=C4)C=C3)cc1
REMARK SMILES IDX 21 1 20 2 19 3 17 4 18 5 16 7 11 8 12 9 13 10 15 11 14 12
REMARK SMILES IDX 10 13 9 14 1 15 2 16 3 17 4 18 7 19 5 20 6 21 8 22 22 23
REMARK SMILES IDX 23 24 24 25 25 27 26 28 27 29 88 30 28 31 87 32 29 33 30 34
REMARK SMILES IDX 31 35 81 36 32 37 86 38 80 39 82 40 33 41 85 42 79 43 78 44
REMARK SMILES IDX 34 46 66 47 46 48 65 49 47 50 50 51 64 52 83 53 48 54 49 55
REMARK SMILES IDX 63 57 84 58 51 59 35 60 36 61 44 62 37 63 43 64 45 65 42 66
REMARK SMILES IDX 38 67 39 68 40 69 41 70 67 71 68 72 76 73 69 74 75 75 77 76
REMARK SMILES IDX 74 77 70 78 71 79 72 80 73 81 52 82 53 83 61 84 54 85 60 86
REMARK SMILES IDX 62 87 59 88 55 89 56 90 57 91 58 92
REMARK H PARENT 19 6 23 26 82 45 50 56
REMARK Flexibility Score: inf
ROOT
ATOM      1  C   UNL A   1      34.705  21.834  26.664  1.00  0.00     0.042 C 
ENDROOT
BRANCH   1   2
ATOM      2  C   UNL A   1      33.429  21.484  25.911  1.00  0.00     0.117 C 
BRANCH   2   3
ATOM      3  N   UNL A   1      32.268  22.110  26.513  1.00  0.00    -0.356 N 
ATOM      4  C   UNL A   1      31.852  23.403  26.497  1.00  0.00     0.223 C 
ATOM      5  O   UNL A   1      30.989  23.710  27.320  1.00  0.00    -0.275 OA
ATOM      6  H   UNL A   1      31.684  21.497  27.015  1.00  0.00     0.163 HD
BRANCH   4   7
ATOM      7  C   UNL A   1      32.446  24.401  25.490  1.00  0.00     0.083 C 
ATOM      8  C   UNL A   1      31.726  25.792  25.571  1.00  0.00     0.021 C 
ATOM      9  C   UNL A   1      30.272  25.634  25.075  1.00  0.00     0.006 C 
ATOM     10  C   UNL A   1      30.167  25.022  23.676  1.00  0.00     0.000 C 
ATOM     11  C   UNL A   1      32.377  23.857  24.049  1.00  0.00     0.014 C 
ATOM     12  C   UNL A   1      30.943  23.718  23.550  1.00  0.00     0.001 C 
BRANCH   8  13
ATOM     13  C   UNL A   1      32.530  26.864  24.775  1.00  0.00     0.126 C 
BRANCH  13  14
ATOM     14  N   UNL A   1      32.252  28.279  25.176  1.00  0.00    -0.349 N 
ATOM     15  C   UNL A   1      34.189  28.195  26.830  1.00  0.00     0.064 C 
ATOM     16  C   UNL A   1      32.986  28.887  26.234  1.00  0.00     0.018 A 
ATOM     17  C   UNL A   1      32.696  30.114  26.708  1.00  0.00     0.073 A 
ATOM     18  C   UNL A   1      31.591  30.882  26.116  1.00  0.00     0.182 A 
ATOM     19  C   UNL A   1      31.296  29.085  24.495  1.00  0.00     0.018 A 
ATOM     20  O   UNL A   1      31.265  31.981  26.551  1.00  0.00    -0.290 OA
ATOM     21  C   UNL A   1      30.943  30.308  24.930  1.00  0.00     0.073 A 
ATOM     22  C   UNL A   1      30.686  28.659  23.182  1.00  0.00     0.064 C 
ENDBRANCH  13  14
ENDBRANCH   8  13
ENDBRANCH   4   7
ENDBRANCH   2   3
ENDBRANCH   1   2
BRANCH   1  23
ATOM     23  C   UNL A   1      35.881  22.210  25.771  1.00  0.00     0.118 C 
BRANCH  23  24
ATOM     24  N   UNL A   1      36.847  21.133  25.615  1.00  0.00    -0.352 N 
ATOM     25  C   UNL A   1      38.218  21.164  25.734  1.00  0.00     0.251 C 
ATOM     26  H   UNL A   1      36.463  20.254  25.392  1.00  0.00     0.163 HD
ATOM     27  O   UNL A   1      38.880  20.193  25.396  1.00  0.00    -0.269 OA
BRANCH  25  28
ATOM     28  C   UNL A   1      38.879  22.390  26.236  1.00  0.00     0.039 A 
ATOM     29  C   UNL A   1      39.997  22.265  27.063  1.00  0.00     0.014 A 
ATOM     30  C   UNL A   1      38.412  23.655  25.871  1.00  0.00     0.014 A 
ATOM     31  C   UNL A   1      40.693  23.409  27.458  1.00  0.00     0.010 A 
ATOM     32  C   UNL A   1      39.155  24.786  26.193  1.00  0.00     0.010 A 
ATOM     33  C   UNL A   1      40.302  24.675  26.992  1.00  0.00    -0.014 A 
BRANCH  33  34
ATOM     34  C   UNL A   1      41.066  25.898  27.347  1.00  0.00     0.031 A 
ATOM     35  C   UNL A   1      40.433  26.950  28.214  1.00  0.00     0.074 A 
ATOM     36  C   UNL A   1      42.309  26.080  26.855  1.00  0.00     0.049 A 
ATOM     37  N   UNL A   1      40.900  28.118  28.572  1.00  0.00    -0.248 NA
ATOM     38  C   UNL A   1      39.083  26.661  28.726  1.00  0.00     0.031 C 
ATOM     39  C   UNL A   1      43.021  25.142  25.984  1.00  0.00     0.029 A 
ATOM     40  N   UNL A   1      43.196  27.113  27.023  1.00  0.00    -0.354 N 
ATOM     41  C   UNL A   1      39.903  28.704  29.342  1.00  0.00     0.074 A 
ATOM     42  C   UNL A   1      38.781  27.790  29.348  1.00  0.00     0.031 C 
ATOM     43  C   UNL A   1      44.248  25.625  25.729  1.00  0.00     0.029 A 
ATOM     44  C   UNL A   1      44.396  26.924  26.377  1.00  0.00     0.049 A 
ATOM     45  H   UNL A   1      42.993  27.917  27.555  1.00  0.00     0.167 HD
ATOM     46  C   UNL A   1      39.930  29.883  30.009  1.00  0.00     0.034 A 
ATOM     47  C   UNL A   1      45.490  27.708  26.313  1.00  0.00     0.034 A 
ATOM     48  C   UNL A   1      41.061  30.774  30.018  1.00  0.00     0.049 A 
ATOM     49  C   UNL A   1      45.484  29.031  27.033  1.00  0.00     0.074 A 
ATOM     50  C   UNL A   1      41.204  31.974  30.690  1.00  0.00     0.029 A 
ATOM     51  N   UNL A   1      42.245  30.560  29.326  1.00  0.00    -0.354 N 
ATOM     52  N   UNL A   1      44.530  29.569  27.756  1.00  0.00    -0.248 NA
ATOM     53  C   UNL A   1      46.697  29.852  26.925  1.00  0.00     0.031 C 
ATOM     54  C   UNL A   1      42.454  32.511  30.365  1.00  0.00     0.029 A 
ATOM     55  C   UNL A   1      43.114  31.617  29.538  1.00  0.00     0.049 A 
ATOM     56  H   UNL A   1      42.438  29.773  28.766  1.00  0.00     0.167 HD
ATOM     57  C   UNL A   1      45.037  30.785  28.205  1.00  0.00     0.074 A 
ATOM     58  C   UNL A   1      46.380  30.898  27.676  1.00  0.00     0.031 C 
ATOM     59  C   UNL A   1      44.443  31.720  28.988  1.00  0.00     0.034 A 
BRANCH  46  60
ATOM     60  C   UNL A   1      38.696  30.273  30.778  1.00  0.00     0.023 A 
ATOM     61  C   UNL A   1      37.659  31.005  30.175  1.00  0.00     0.031 A 
ATOM     62  C   UNL A   1      38.553  29.910  32.129  1.00  0.00     0.131 A 
ATOM     63  C   UNL A   1      36.548  31.398  30.934  1.00  0.00     0.055 A 
ATOM     64  C   UNL A   1      37.413  30.246  32.860  1.00  0.00     0.041 A 
ATOM     65  F   UNL A   1      39.522  29.228  32.758  1.00  0.00    -0.206 F 
ATOM     66  C   UNL A   1      36.406  31.003  32.266  1.00  0.00     0.022 A 
BRANCH  63  67
ATOM     67  S   UNL A   1      35.332  32.510  30.180  1.00  0.00     0.124 S 
ATOM     68  O   UNL A   1      34.345  32.633  31.250  1.00  0.00    -0.237 OA
ATOM     69  O   UNL A   1      36.122  33.703  29.899  1.00  0.00    -0.237 OA
ATOM     70  O   UNL A   1      34.877  31.773  29.003  1.00  0.00    -0.744 OA
ENDBRANCH  63  67
ENDBRANCH  46  60
BRANCH  47  71
ATOM     71  C   UNL A   1      46.682  27.265  25.540  1.00  0.00     0.023 A 
ATOM     72  C   UNL A   1      46.890  27.706  24.224  1.00  0.00     0.031 A 
ATOM     73  C   UNL A   1      47.631  26.394  26.105  1.00  0.00     0.131 A 
ATOM     74  C   UNL A   1      48.009  27.258  23.506  1.00  0.00     0.055 A 
ATOM     75  C   UNL A   1      48.760  25.979  25.399  1.00  0.00     0.041 A 
ATOM     76  F   UNL A   1      47.481  25.954  27.365  1.00  0.00    -0.206 F 
ATOM     77  C   UNL A   1      48.951  26.407  24.088  1.00  0.00     0.022 A 
BRANCH  74  78
ATOM     78  S   UNL A   1      48.207  27.785  21.783  1.00  0.00     0.124 S 
ATOM     79  O   UNL A   1      46.958  28.498  21.545  1.00  0.00    -0.237 OA
ATOM     80  O   UNL A   1      49.413  28.605  21.851  1.00  0.00    -0.237 OA
ATOM     81  O   UNL A   1      48.356  26.525  21.057  1.00  0.00    -0.744 OA
ENDBRANCH  74  78
ENDBRANCH  47  71
BRANCH  59  82
ATOM     82  C   UNL A   1      45.252  32.940  29.339  1.00  0.00     0.023 A 
ATOM     83  C   UNL A   1      45.200  34.103  28.555  1.00  0.00     0.031 A 
ATOM     84  C   UNL A   1      46.046  32.951  30.499  1.00  0.00     0.131 A 
ATOM     85  C   UNL A   1      45.954  35.225  28.925  1.00  0.00     0.055 A 
ATOM     86  C   UNL A   1      46.758  34.086  30.888  1.00  0.00     0.041 A 
ATOM     87  F   UNL A   1      46.124  31.864  31.283  1.00  0.00    -0.206 F 
ATOM     88  C   UNL A   1      46.717  35.230  30.096  1.00  0.00     0.022 A 
BRANCH  85  89
ATOM     89  S   UNL A   1      45.945  36.679  27.840  1.00  0.00     0.124 S 
ATOM     90  O   UNL A   1      44.668  36.532  27.151  1.00  0.00    -0.237 OA
ATOM     91  O   UNL A   1      46.035  37.783  28.789  1.00  0.00    -0.237 OA
ATOM     92  O   UNL A   1      47.128  36.488  27.002  1.00  0.00    -0.744 OA
ENDBRANCH  85  89
ENDBRANCH  59  82
ENDBRANCH  33  34
ENDBRANCH  25  28
ENDBRANCH  23  24
ENDBRANCH   1  23
TORSDOF 15
ENDMDL
MODEL 3
REMARK VINA RESULT:     -12.3      3.040      4.864
REMARK SMILES Cc1cc(=O)cc(C)n1C[C@H]1CCCC[C@@H]1C(=O)NCCCNC(=O)c1ccc(-c2c3nc(c(-c4cc(S(=O)(=O)[O-])ccc4F)c4ccc([nH]4)c(-c4cc(S(=O)(=O)[O-])ccc4F)c4nc(c(-c5cc(S(=O)(=O)[O-])ccc5F)c5ccc2[nH]5)C=C4)C=C3)cc1
REMARK SMILES IDX 21 1 20 2 19 3 17 4 18 5 16 7 11 8 12 9 13 10 15 11 14 12
REMARK SMILES IDX 10 13 9 14 1 15 2 16 3 17 4 18 7 19 5 20 6 21 8 22 22 23
REMARK SMILES IDX 23 24 24 25 25 27 26 28 27 29 88 30 28 31 87 32 29 33 30 34
REMARK SMILES IDX 31 35 81 36 32 37 86 38 80 39 82 40 33 41 85 42 79 43 78 44
REMARK SMILES IDX 34 46 66 47 46 48 65 49 47 50 50 51 64 52 83 53 48 54 49 55
REMARK SMILES IDX 63 57 84 58 51 59 35 60 36 61 44 62 37 63 43 64 45 65 42 66
REMARK SMILES IDX 38 67 39 68 40 69 41 70 67 71 68 72 76 73 69 74 75 75 77 76
REMARK SMILES IDX 74 77 70 78 71 79 72 80 73 81 52 82 53 83 61 84 54 85 60 86
REMARK SMILES IDX 62 87 59 88 55 89 56 90 57 91 58 92
REMARK H PARENT 19 6 23 26 82 45 50 56
REMARK Flexibility Score: inf
ROOT
ATOM      1  C   UNL A   1      31.528  31.864  26.970  1.00  0.00     0.042 C 
ENDROOT
BRANCH   1   2
ATOM      2  C   UNL A   1      31.821  30.615  26.152  1.00  0.00     0.117 C 
BRANCH   2   3
ATOM      3  N   UNL A   1      33.064  29.991  26.562  1.00  0.00    -0.356 N 
ATOM      4  C   UNL A   1      33.595  28.782  26.241  1.00  0.00     0.223 C 
ATOM      5  O   UNL A   1      34.525  28.389  26.948  1.00  0.00    -0.275 OA
ATOM      6  H   UNL A   1      33.615  30.533  27.172  1.00  0.00     0.163 HD
BRANCH   4   7
ATOM      7  C   UNL A   1      33.045  27.978  25.053  1.00  0.00     0.083 C 
ATOM      8  C   UNL A   1      31.524  27.646  25.244  1.00  0.00     0.021 C 
ATOM      9  C   UNL A   1      31.369  26.659  26.422  1.00  0.00     0.006 C 
ATOM     10  C   UNL A   1      32.212  25.391  26.271  1.00  0.00     0.000 C 
ATOM     11  C   UNL A   1      33.842  26.678  24.833  1.00  0.00     0.014 C 
ATOM     12  C   UNL A   1      33.677  25.694  25.986  1.00  0.00     0.001 C 
BRANCH   8  13
ATOM     13  C   UNL A   1      30.916  27.108  23.913  1.00  0.00     0.126 C 
BRANCH  13  14
ATOM     14  N   UNL A   1      29.978  28.051  23.227  1.00  0.00    -0.349 N 
ATOM     15  C   UNL A   1      31.948  29.159  22.048  1.00  0.00     0.064 C 
ATOM     16  C   UNL A   1      30.481  29.101  22.407  1.00  0.00     0.018 A 
ATOM     17  C   UNL A   1      29.687  30.042  21.864  1.00  0.00     0.073 A 
ATOM     18  C   UNL A   1      28.236  29.997  22.099  1.00  0.00     0.182 A 
ATOM     19  C   UNL A   1      28.565  27.910  23.317  1.00  0.00     0.018 A 
ATOM     20  O   UNL A   1      27.485  30.863  21.662  1.00  0.00    -0.290 OA
ATOM     21  C   UNL A   1      27.716  28.827  22.818  1.00  0.00     0.073 A 
ATOM     22  C   UNL A   1      27.921  26.674  23.894  1.00  0.00     0.064 C 
ENDBRANCH  13  14
ENDBRANCH   8  13
ENDBRANCH   4   7
ENDBRANCH   2   3
ENDBRANCH   1   2
BRANCH   1  23
ATOM     23  C   UNL A   1      32.767  32.644  27.396  1.00  0.00     0.118 C 
BRANCH  23  24
ATOM     24  N   UNL A   1      32.491  34.045  27.673  1.00  0.00    -0.352 N 
ATOM     25  C   UNL A   1      33.042  34.874  28.625  1.00  0.00     0.251 C 
ATOM     26  H   UNL A   1      31.811  34.462  27.096  1.00  0.00     0.163 HD
ATOM     27  O   UNL A   1      32.559  35.979  28.822  1.00  0.00    -0.269 OA
BRANCH  25  28
ATOM     28  C   UNL A   1      34.193  34.399  29.426  1.00  0.00     0.039 A 
ATOM     29  C   UNL A   1      33.949  33.699  30.610  1.00  0.00     0.014 A 
ATOM     30  C   UNL A   1      35.504  34.621  28.997  1.00  0.00     0.014 A 
ATOM     31  C   UNL A   1      35.021  33.154  31.321  1.00  0.00     0.010 A 
ATOM     32  C   UNL A   1      36.561  34.005  29.657  1.00  0.00     0.010 A 
ATOM     33  C   UNL A   1      36.332  33.267  30.827  1.00  0.00    -0.014 A 
BRANCH  33  34
ATOM     34  C   UNL A   1      37.478  32.639  31.533  1.00  0.00     0.031 A 
ATOM     35  C   UNL A   1      38.207  31.488  30.898  1.00  0.00     0.074 A 
ATOM     36  C   UNL A   1      37.833  33.075  32.758  1.00  0.00     0.049 A 
ATOM     37  N   UNL A   1      39.176  30.756  31.381  1.00  0.00    -0.248 NA
ATOM     38  C   UNL A   1      37.768  31.090  29.549  1.00  0.00     0.031 C 
ATOM     39  C   UNL A   1      37.187  34.169  33.489  1.00  0.00     0.029 A 
ATOM     40  N   UNL A   1      38.829  32.657  33.605  1.00  0.00    -0.354 N 
ATOM     41  C   UNL A   1      39.460  29.810  30.402  1.00  0.00     0.074 A 
ATOM     42  C   UNL A   1      38.517  30.021  29.325  1.00  0.00     0.031 C 
ATOM     43  C   UNL A   1      37.830  34.359  34.653  1.00  0.00     0.029 A 
ATOM     44  C   UNL A   1      38.901  33.377  34.775  1.00  0.00     0.049 A 
ATOM     45  H   UNL A   1      39.435  31.910  33.395  1.00  0.00     0.167 HD
ATOM     46  C   UNL A   1      40.434  28.870  30.390  1.00  0.00     0.034 A 
ATOM     47  C   UNL A   1      39.734  33.257  35.827  1.00  0.00     0.034 A 
ATOM     48  C   UNL A   1      41.384  28.684  31.456  1.00  0.00     0.049 A 
ATOM     49  C   UNL A   1      40.788  32.181  35.806  1.00  0.00     0.074 A 
ATOM     50  C   UNL A   1      42.433  27.785  31.526  1.00  0.00     0.029 A 
ATOM     51  N   UNL A   1      41.404  29.412  32.637  1.00  0.00    -0.354 N 
ATOM     52  N   UNL A   1      41.040  31.294  34.872  1.00  0.00    -0.248 NA
ATOM     53  C   UNL A   1      41.666  32.087  36.981  1.00  0.00     0.031 C 
ATOM     54  C   UNL A   1      43.056  27.935  32.769  1.00  0.00     0.029 A 
ATOM     55  C   UNL A   1      42.433  28.968  33.451  1.00  0.00     0.049 A 
ATOM     56  H   UNL A   1      40.777  30.138  32.864  1.00  0.00     0.167 HD
ATOM     57  C   UNL A   1      42.117  30.549  35.339  1.00  0.00     0.074 A 
ATOM     58  C   UNL A   1      42.471  31.093  36.634  1.00  0.00     0.031 C 
ATOM     59  C   UNL A   1      42.759  29.511  34.746  1.00  0.00     0.034 A 
BRANCH  46  60
ATOM     60  C   UNL A   1      40.516  27.971  29.185  1.00  0.00     0.023 A 
ATOM     61  C   UNL A   1      41.421  28.229  28.140  1.00  0.00     0.031 A 
ATOM     62  C   UNL A   1      39.683  26.844  29.077  1.00  0.00     0.131 A 
ATOM     63  C   UNL A   1      41.434  27.402  27.009  1.00  0.00     0.055 A 
ATOM     64  C   UNL A   1      39.749  25.986  27.979  1.00  0.00     0.041 A 
ATOM     65  F   UNL A   1      38.788  26.563  30.037  1.00  0.00    -0.206 F 
ATOM     66  C   UNL A   1      40.622  26.269  26.931  1.00  0.00     0.022 A 
BRANCH  63  67
ATOM     67  S   UNL A   1      42.467  27.881  25.598  1.00  0.00     0.124 S 
ATOM     68  O   UNL A   1      43.767  28.068  26.236  1.00  0.00    -0.237 OA
ATOM     69  O   UNL A   1      42.350  26.728  24.712  1.00  0.00    -0.237 OA
ATOM     70  O   UNL A   1      41.835  29.106  25.112  1.00  0.00    -0.744 OA
ENDBRANCH  63  67
ENDBRANCH  46  60
BRANCH  47  71
ATOM     71  C   UNL A   1      39.608  34.180  36.988  1.00  0.00     0.023 A 
ATOM     72  C   UNL A   1      39.052  33.739  38.199  1.00  0.00     0.031 A 
ATOM     73  C   UNL A   1      40.041  35.515  36.905  1.00  0.00     0.131 A 
ATOM     74  C   UNL A   1      38.921  34.631  39.274  1.00  0.00     0.055 A 
ATOM     75  C   UNL A   1      39.942  36.389  37.988  1.00  0.00     0.041 A 
ATOM     76  F   UNL A   1      40.591  35.980  35.772  1.00  0.00    -0.206 F 
ATOM     77  C   UNL A   1      39.373  35.950  39.180  1.00  0.00     0.022 A 
BRANCH  74  78
ATOM     78  S   UNL A   1      38.128  34.052  40.797  1.00  0.00     0.124 S 
ATOM     79  O   UNL A   1      39.182  33.238  41.390  1.00  0.00    -0.237 OA
ATOM     80  O   UNL A   1      37.822  35.306  41.478  1.00  0.00    -0.237 OA
ATOM     81  O   UNL A   1      36.964  33.311  40.313  1.00  0.00    -0.744 OA
ENDBRANCH  74  78
ENDBRANCH  47  71
BRANCH  59  82
ATOM     82  C   UNL A   1      43.924  28.908  35.483  1.00  0.00     0.023 A 
ATOM     83  C   UNL A   1      43.751  27.837  36.373  1.00  0.00     0.031 A 
ATOM     84  C   UNL A   1      45.227  29.383  35.253  1.00  0.00     0.131 A 
ATOM     85  C   UNL A   1      44.864  27.290  37.027  1.00  0.00     0.055 A 
ATOM     86  C   UNL A   1      46.336  28.805  35.872  1.00  0.00     0.041 A 
ATOM     87  F   UNL A   1      45.442  30.403  34.407  1.00  0.00    -0.206 F 
ATOM     88  C   UNL A   1      46.157  27.755  36.767  1.00  0.00     0.022 A 
BRANCH  85  89
ATOM     89  S   UNL A   1      44.600  25.973  38.246  1.00  0.00     0.124 S 
ATOM     90  O   UNL A   1      44.185  24.860  37.400  1.00  0.00    -0.237 OA
ATOM     91  O   UNL A   1      45.915  25.847  38.866  1.00  0.00    -0.237 OA
ATOM     92  O   UNL A   1      43.557  26.516  39.116  1.00  0.00    -0.744 OA
ENDBRANCH  85  89
ENDBRANCH  59  82
ENDBRANCH  33  34
ENDBRANCH  25  28
ENDBRANCH  23  24
ENDBRANCH   1  23
TORSDOF 15
ENDMDL
