MODEL 1
REMARK VINA RESULT:     -13.1      0.000      0.000
REMARK SMILES O=C(NCCCNC(=O)[C@@H](Cc1ccc(O)cc1)Nc1c2ccccc2nc2ccccc12)c1ccc(-c2c3nc(c(-c4cc(S(=O)(=O)[O-])ccc4F)c4ccc([nH]4)c(-c4cc(S(=O)(=O)[O-])ccc4F)c4nc(c(-c5cc(S(=O)(=O)[O-])ccc5F)c5ccc2[nH]5)C=C4)C=C3)cc1
REMARK SMILES IDX 5 1 4 2 3 3 1 4 2 5 34 7 35 8 96 9 36 10 95 11 37 12 38 13
REMARK SMILES IDX 39 14 89 15 40 16 94 17 88 18 90 19 41 20 93 21 87 22 86 23
REMARK SMILES IDX 42 25 74 26 54 27 73 28 55 29 58 30 72 31 91 32 56 33 57 34
REMARK SMILES IDX 71 36 92 37 59 38 43 39 44 40 52 41 45 42 51 43 53 44 50 45
REMARK SMILES IDX 46 46 47 47 48 48 49 49 75 50 76 51 84 52 77 53 83 54 85 55
REMARK SMILES IDX 82 56 78 57 79 58 80 59 81 60 60 61 61 62 69 63 62 64 68 65
REMARK SMILES IDX 70 66 67 67 63 68 64 69 65 70 66 71 6 72 7 73 8 74 9 76
REMARK SMILES IDX 10 77 11 78 12 79 13 80 18 81 14 82 17 83 15 84 16 85 19 87
REMARK SMILES IDX 20 89 21 90 33 91 22 92 26 93 28 94 32 95 23 96 25 97 27 98
REMARK SMILES IDX 29 99 31 100 24 101 30 102
REMARK H PARENT 3 6 90 24 58 35 7 75 16 86 19 88
REMARK Flexibility Score: inf
ROOT
ATOM      1  C   UNL A   1      32.885  27.634  25.944  1.00  0.00     0.042 C 
ENDROOT
BRANCH   1   2
ATOM      2  C   UNL A   1      33.982  28.661  25.709  1.00  0.00     0.118 C 
BRANCH   2   3
ATOM      3  N   UNL A   1      33.693  29.936  26.342  1.00  0.00    -0.352 N 
ATOM      4  O   UNL A   1      33.675  31.596  27.823  1.00  0.00    -0.269 OA
ATOM      5  C   UNL A   1      34.282  30.616  27.382  1.00  0.00     0.251 C 
ATOM      6  H   UNL A   1      32.922  30.406  25.949  1.00  0.00     0.163 HD
BRANCH   5   7
ATOM      7  C   UNL A   1      35.587  30.240  27.999  1.00  0.00     0.039 A 
ATOM      8  C   UNL A   1      35.705  29.577  29.218  1.00  0.00     0.014 A 
ATOM      9  C   UNL A   1      36.756  30.449  27.248  1.00  0.00     0.014 A 
ATOM     10  C   UNL A   1      36.962  29.237  29.733  1.00  0.00     0.010 A 
ATOM     11  C   UNL A   1      38.007  30.013  27.714  1.00  0.00     0.010 A 
ATOM     12  C   UNL A   1      38.130  29.418  28.977  1.00  0.00    -0.014 A 
BRANCH  12  13
ATOM     13  C   UNL A   1      39.439  28.917  29.500  1.00  0.00     0.031 A 
ATOM     14  C   UNL A   1      40.106  29.558  30.690  1.00  0.00     0.074 A 
ATOM     15  C   UNL A   1      40.025  27.852  28.909  1.00  0.00     0.049 A 
ATOM     16  N   UNL A   1      41.207  29.208  31.310  1.00  0.00    -0.248 NA
ATOM     17  C   UNL A   1      39.462  30.754  31.251  1.00  0.00     0.031 C 
ATOM     18  C   UNL A   1      39.509  27.156  27.727  1.00  0.00     0.029 A 
ATOM     19  N   UNL A   1      41.164  27.152  29.228  1.00  0.00    -0.354 N 
ATOM     20  C   UNL A   1      41.397  30.146  32.321  1.00  0.00     0.074 A 
ATOM     21  C   UNL A   1      40.314  31.100  32.206  1.00  0.00     0.031 C 
ATOM     22  C   UNL A   1      40.290  26.098  27.461  1.00  0.00     0.029 A 
ATOM     23  C   UNL A   1      41.399  26.072  28.407  1.00  0.00     0.049 A 
ATOM     24  H   UNL A   1      41.758  27.402  29.973  1.00  0.00     0.167 HD
ATOM     25  C   UNL A   1      42.376  30.204  33.259  1.00  0.00     0.034 A 
ATOM     26  C   UNL A   1      42.396  25.164  28.403  1.00  0.00     0.034 A 
ATOM     27  C   UNL A   1      43.457  29.252  33.366  1.00  0.00     0.049 A 
ATOM     28  C   UNL A   1      43.479  25.262  29.446  1.00  0.00     0.074 A 
ATOM     29  C   UNL A   1      44.472  29.202  34.309  1.00  0.00     0.029 A 
ATOM     30  N   UNL A   1      43.677  28.191  32.498  1.00  0.00    -0.354 N 
ATOM     31  N   UNL A   1      43.611  26.131  30.421  1.00  0.00    -0.248 NA
ATOM     32  C   UNL A   1      44.543  24.251  29.390  1.00  0.00     0.031 C 
ATOM     33  C   UNL A   1      45.340  28.158  33.970  1.00  0.00     0.029 A 
ATOM     34  C   UNL A   1      44.826  27.502  32.864  1.00  0.00     0.049 A 
ATOM     35  H   UNL A   1      43.102  27.960  31.733  1.00  0.00     0.167 HD
ATOM     36  C   UNL A   1      44.759  25.749  31.112  1.00  0.00     0.074 A 
ATOM     37  C   UNL A   1      45.268  24.565  30.453  1.00  0.00     0.031 C 
ATOM     38  C   UNL A   1      45.336  26.327  32.196  1.00  0.00     0.034 A 
BRANCH  25  39
ATOM     39  C   UNL A   1      42.345  31.368  34.224  1.00  0.00     0.023 A 
ATOM     40  C   UNL A   1      41.468  31.394  35.323  1.00  0.00     0.031 A 
ATOM     41  C   UNL A   1      43.188  32.477  34.032  1.00  0.00     0.131 A 
ATOM     42  C   UNL A   1      41.400  32.533  36.139  1.00  0.00     0.055 A 
ATOM     43  C   UNL A   1      43.172  33.575  34.896  1.00  0.00     0.041 A 
ATOM     44  F   UNL A   1      44.035  32.518  32.991  1.00  0.00    -0.206 F 
ATOM     45  C   UNL A   1      42.263  33.614  35.947  1.00  0.00     0.022 A 
BRANCH  42  46
ATOM     46  S   UNL A   1      40.063  32.639  37.360  1.00  0.00     0.124 S 
ATOM     47  O   UNL A   1      39.493  33.951  37.057  1.00  0.00    -0.237 OA
ATOM     48  O   UNL A   1      39.236  31.490  37.023  1.00  0.00    -0.237 OA
ATOM     49  O   UNL A   1      40.763  32.554  38.643  1.00  0.00    -0.744 OA
ENDBRANCH  42  46
ENDBRANCH  25  39
BRANCH  26  50
ATOM     50  C   UNL A   1      42.433  24.086  27.372  1.00  0.00     0.023 A 
ATOM     51  C   UNL A   1      41.848  22.833  27.612  1.00  0.00     0.031 A 
ATOM     52  C   UNL A   1      43.094  24.281  26.146  1.00  0.00     0.131 A 
ATOM     53  C   UNL A   1      41.974  21.808  26.660  1.00  0.00     0.055 A 
ATOM     54  C   UNL A   1      43.168  23.278  25.180  1.00  0.00     0.041 A 
ATOM     55  F   UNL A   1      43.669  25.462  25.865  1.00  0.00    -0.206 F 
ATOM     56  C   UNL A   1      42.616  22.027  25.440  1.00  0.00     0.022 A 
BRANCH  53  57
ATOM     57  S   UNL A   1      41.352  20.155  27.075  1.00  0.00     0.124 S 
ATOM     58  O   UNL A   1      42.582  19.373  27.100  1.00  0.00    -0.237 OA
ATOM     59  O   UNL A   1      40.711  20.388  28.365  1.00  0.00    -0.237 OA
ATOM     60  O   UNL A   1      40.440  19.850  25.975  1.00  0.00    -0.744 OA
ENDBRANCH  53  57
ENDBRANCH  26  50
BRANCH  38  61
ATOM     61  C   UNL A   1      46.558  25.646  32.765  1.00  0.00     0.023 A 
ATOM     62  C   UNL A   1      47.830  25.791  32.183  1.00  0.00     0.031 A 
ATOM     63  C   UNL A   1      46.438  24.807  33.888  1.00  0.00     0.131 A 
ATOM     64  C   UNL A   1      48.916  25.058  32.684  1.00  0.00     0.055 A 
ATOM     65  C   UNL A   1      47.535  24.130  34.421  1.00  0.00     0.041 A 
ATOM     66  F   UNL A   1      45.248  24.627  34.482  1.00  0.00    -0.206 F 
ATOM     67  C   UNL A   1      48.781  24.240  33.809  1.00  0.00     0.022 A 
BRANCH  64  68
ATOM     68  S   UNL A   1      50.488  25.098  31.778  1.00  0.00     0.124 S 
ATOM     69  O   UNL A   1      51.232  26.121  32.505  1.00  0.00    -0.237 OA
ATOM     70  O   UNL A   1      50.970  23.730  31.930  1.00  0.00    -0.237 OA
ATOM     71  O   UNL A   1      50.091  25.468  30.420  1.00  0.00    -0.744 OA
ENDBRANCH  64  68
ENDBRANCH  38  61
ENDBRANCH  12  13
ENDBRANCH   5   7
ENDBRANCH   2   3
ENDBRANCH   1   2
BRANCH   1  72
ATOM     72  C   UNL A   1      33.308  26.187  25.706  1.00  0.00     0.117 C 
BRANCH  72  73
ATOM     73  N   UNL A   1      32.617  25.283  26.611  1.00  0.00    -0.354 N 
ATOM     74  C   UNL A   1      31.930  24.122  26.428  1.00  0.00     0.242 C 
ATOM     75  H   UNL A   1      32.653  25.569  27.552  1.00  0.00     0.163 HD
ATOM     76  O   UNL A   1      31.260  23.753  27.405  1.00  0.00    -0.273 OA
BRANCH  74  77
ATOM     77  C   UNL A   1      31.923  23.261  25.138  1.00  0.00     0.173 C 
BRANCH  77  78
ATOM     78  C   UNL A   1      30.816  23.638  24.121  1.00  0.00     0.070 C 
BRANCH  78  79
ATOM     79  C   UNL A   1      30.719  25.033  23.550  1.00  0.00    -0.045 A 
ATOM     80  C   UNL A   1      31.586  25.419  22.513  1.00  0.00     0.007 A 
ATOM     81  C   UNL A   1      29.848  25.992  24.083  1.00  0.00     0.007 A 
ATOM     82  C   UNL A   1      31.496  26.690  21.938  1.00  0.00     0.046 A 
ATOM     83  C   UNL A   1      29.741  27.255  23.497  1.00  0.00     0.046 A 
ATOM     84  C   UNL A   1      30.546  27.584  22.414  1.00  0.00     0.115 A 
BRANCH  84  85
ATOM     85  O   UNL A   1      30.355  28.796  21.822  1.00  0.00    -0.508 OA
ATOM     86  H   UNL A   1      31.041  29.435  21.830  1.00  0.00     0.293 HD
ENDBRANCH  84  85
ENDBRANCH  78  79
ENDBRANCH  77  78
BRANCH  77  87
ATOM     87  N   UNL A   1      33.255  23.093  24.540  1.00  0.00    -0.372 N 
ATOM     88  H   UNL A   1      33.543  23.797  23.915  1.00  0.00     0.161 HD
BRANCH  87  89
ATOM     89  C   UNL A   1      34.166  22.049  24.755  1.00  0.00     0.054 A 
ATOM     90  C   UNL A   1      33.862  20.661  24.548  1.00  0.00     0.024 A 
ATOM     91  C   UNL A   1      35.485  22.397  25.193  1.00  0.00     0.024 A 
ATOM     92  C   UNL A   1      32.613  20.116  24.143  1.00  0.00     0.012 A 
ATOM     93  C   UNL A   1      34.918  19.738  24.715  1.00  0.00     0.073 A 
ATOM     94  C   UNL A   1      36.437  21.365  25.303  1.00  0.00     0.073 A 
ATOM     95  C   UNL A   1      35.902  23.710  25.541  1.00  0.00     0.012 A 
ATOM     96  C   UNL A   1      32.409  18.748  23.946  1.00  0.00     0.001 A 
ATOM     97  C   UNL A   1      34.705  18.382  24.496  1.00  0.00     0.029 A 
ATOM     98  N   UNL A   1      36.159  20.083  25.063  1.00  0.00    -0.248 NA
ATOM     99  C   UNL A   1      37.739  21.663  25.684  1.00  0.00     0.029 A 
ATOM    100  C   UNL A   1      37.212  23.988  25.938  1.00  0.00     0.001 A 
ATOM    101  C   UNL A   1      33.464  17.874  24.120  1.00  0.00     0.002 A 
ATOM    102  C   UNL A   1      38.138  22.961  25.998  1.00  0.00     0.002 A 
ENDBRANCH  87  89
ENDBRANCH  77  87
ENDBRANCH  74  77
ENDBRANCH  72  73
ENDBRANCH   1  72
TORSDOF 18
ENDMDL
MODEL 2
REMARK VINA RESULT:     -12.9      1.788      2.028
REMARK SMILES O=C(NCCCNC(=O)[C@@H](Cc1ccc(O)cc1)Nc1c2ccccc2nc2ccccc12)c1ccc(-c2c3nc(c(-c4cc(S(=O)(=O)[O-])ccc4F)c4ccc([nH]4)c(-c4cc(S(=O)(=O)[O-])ccc4F)c4nc(c(-c5cc(S(=O)(=O)[O-])ccc5F)c5ccc2[nH]5)C=C4)C=C3)cc1
REMARK SMILES IDX 5 1 4 2 3 3 1 4 2 5 34 7 35 8 96 9 36 10 95 11 37 12 38 13
REMARK SMILES IDX 39 14 89 15 40 16 94 17 88 18 90 19 41 20 93 21 87 22 86 23
REMARK SMILES IDX 42 25 74 26 54 27 73 28 55 29 58 30 72 31 91 32 56 33 57 34
REMARK SMILES IDX 71 36 92 37 59 38 43 39 44 40 52 41 45 42 51 43 53 44 50 45
REMARK SMILES IDX 46 46 47 47 48 48 49 49 75 50 76 51 84 52 77 53 83 54 85 55
REMARK SMILES IDX 82 56 78 57 79 58 80 59 81 60 60 61 61 62 69 63 62 64 68 65
REMARK SMILES IDX 70 66 67 67 63 68 64 69 65 70 66 71 6 72 7 73 8 74 9 76
REMARK SMILES IDX 10 77 11 78 12 79 13 80 18 81 14 82 17 83 15 84 16 85 19 87
REMARK SMILES IDX 20 89 21 90 33 91 22 92 26 93 28 94 32 95 23 96 25 97 27 98
REMARK SMILES IDX 29 99 31 100 24 101 30 102
REMARK H PARENT 3 6 90 24 58 35 7 75 16 86 19 88
REMARK Flexibility Score: inf
ROOT
ATOM      1  C   UNL A   1      32.931  27.610  25.942  1.00  0.00     0.042 C 
ENDROOT
BRANCH   1   2
ATOM      2  C   UNL A   1      34.014  28.645  25.674  1.00  0.00     0.118 C 
BRANCH   2   3
ATOM      3  N   UNL A   1      33.732  29.920  26.311  1.00  0.00    -0.352 N 
ATOM      4  O   UNL A   1      33.711  31.570  27.802  1.00  0.00    -0.269 OA
ATOM      5  C   UNL A   1      34.312  30.585  27.366  1.00  0.00     0.251 C 
ATOM      6  H   UNL A   1      32.975  30.404  25.907  1.00  0.00     0.163 HD
BRANCH   5   7
ATOM      7  C   UNL A   1      35.599  30.185  28.004  1.00  0.00     0.039 A 
ATOM      8  C   UNL A   1      35.685  29.532  29.232  1.00  0.00     0.014 A 
ATOM      9  C   UNL A   1      36.782  30.358  27.267  1.00  0.00     0.014 A 
ATOM     10  C   UNL A   1      36.927  29.169  29.768  1.00  0.00     0.010 A 
ATOM     11  C   UNL A   1      38.017  29.897  27.754  1.00  0.00     0.010 A 
ATOM     12  C   UNL A   1      38.109  29.314  29.025  1.00  0.00    -0.014 A 
BRANCH  12  13
ATOM     13  C   UNL A   1      39.398  28.788  29.572  1.00  0.00     0.031 A 
ATOM     14  C   UNL A   1      40.031  29.385  30.803  1.00  0.00     0.074 A 
ATOM     15  C   UNL A   1      39.997  27.741  28.963  1.00  0.00     0.049 A 
ATOM     16  N   UNL A   1      41.110  29.008  31.444  1.00  0.00    -0.248 NA
ATOM     17  C   UNL A   1      39.376  30.565  31.383  1.00  0.00     0.031 C 
ATOM     18  C   UNL A   1      39.516  27.088  27.743  1.00  0.00     0.029 A 
ATOM     19  N   UNL A   1      41.123  27.024  29.293  1.00  0.00    -0.354 N 
ATOM     20  C   UNL A   1      41.273  29.910  32.491  1.00  0.00     0.074 A 
ATOM     21  C   UNL A   1      40.199  30.874  32.375  1.00  0.00     0.031 C 
ATOM     22  C   UNL A   1      40.299  26.035  27.465  1.00  0.00     0.029 A 
ATOM     23  C   UNL A   1      41.379  25.971  28.444  1.00  0.00     0.049 A 
ATOM     24  H   UNL A   1      41.694  27.245  30.064  1.00  0.00     0.167 HD
ATOM     25  C   UNL A   1      42.223  29.931  33.461  1.00  0.00     0.034 A 
ATOM     26  C   UNL A   1      42.371  25.058  28.440  1.00  0.00     0.034 A 
ATOM     27  C   UNL A   1      43.296  28.970  33.569  1.00  0.00     0.049 A 
ATOM     28  C   UNL A   1      43.421  25.114  29.518  1.00  0.00     0.074 A 
ATOM     29  C   UNL A   1      44.281  28.883  34.540  1.00  0.00     0.029 A 
ATOM     30  N   UNL A   1      43.538  27.937  32.673  1.00  0.00    -0.354 N 
ATOM     31  N   UNL A   1      43.527  25.949  30.526  1.00  0.00    -0.248 NA
ATOM     32  C   UNL A   1      44.482  24.100  29.460  1.00  0.00     0.031 C 
ATOM     33  C   UNL A   1      45.154  27.845  34.193  1.00  0.00     0.029 A 
ATOM     34  C   UNL A   1      44.671  27.230  33.050  1.00  0.00     0.049 A 
ATOM     35  H   UNL A   1      42.985  27.736  31.883  1.00  0.00     0.167 HD
ATOM     36  C   UNL A   1      44.651  25.538  31.238  1.00  0.00     0.074 A 
ATOM     37  C   UNL A   1      45.174  24.373  30.555  1.00  0.00     0.031 C 
ATOM     38  C   UNL A   1      45.197  26.076  32.359  1.00  0.00     0.034 A 
BRANCH  25  39
ATOM     39  C   UNL A   1      42.167  31.061  34.463  1.00  0.00     0.023 A 
ATOM     40  C   UNL A   1      42.873  32.261  34.267  1.00  0.00     0.031 A 
ATOM     41  C   UNL A   1      41.413  30.931  35.644  1.00  0.00     0.131 A 
ATOM     42  C   UNL A   1      42.873  33.247  35.265  1.00  0.00     0.055 A 
ATOM     43  C   UNL A   1      41.352  31.950  36.597  1.00  0.00     0.041 A 
ATOM     44  F   UNL A   1      40.730  29.803  35.897  1.00  0.00    -0.206 F 
ATOM     45  C   UNL A   1      42.098  33.110  36.419  1.00  0.00     0.022 A 
BRANCH  42  46
ATOM     46  S   UNL A   1      44.019  34.642  35.097  1.00  0.00     0.124 S 
ATOM     47  O   UNL A   1      44.707  34.613  36.387  1.00  0.00    -0.237 OA
ATOM     48  O   UNL A   1      44.816  34.259  33.941  1.00  0.00    -0.237 OA
ATOM     49  O   UNL A   1      43.134  35.791  34.897  1.00  0.00    -0.744 OA
ENDBRANCH  42  46
ENDBRANCH  25  39
BRANCH  26  50
ATOM     50  C   UNL A   1      42.434  24.015  27.374  1.00  0.00     0.023 A 
ATOM     51  C   UNL A   1      41.870  22.744  27.568  1.00  0.00     0.031 A 
ATOM     52  C   UNL A   1      43.102  24.261  26.161  1.00  0.00     0.131 A 
ATOM     53  C   UNL A   1      42.021  21.754  26.584  1.00  0.00     0.055 A 
ATOM     54  C   UNL A   1      43.201  23.292  25.163  1.00  0.00     0.041 A 
ATOM     55  F   UNL A   1      43.658  25.461  25.923  1.00  0.00    -0.206 F 
ATOM     56  C   UNL A   1      42.669  22.024  25.377  1.00  0.00     0.022 A 
BRANCH  53  57
ATOM     57  S   UNL A   1      41.426  20.077  26.939  1.00  0.00     0.124 S 
ATOM     58  O   UNL A   1      42.663  19.308  26.896  1.00  0.00    -0.237 OA
ATOM     59  O   UNL A   1      40.819  20.245  28.256  1.00  0.00    -0.237 OA
ATOM     60  O   UNL A   1      40.486  19.814  25.852  1.00  0.00    -0.744 OA
ENDBRANCH  53  57
ENDBRANCH  26  50
BRANCH  38  61
ATOM     61  C   UNL A   1      46.397  25.368  32.942  1.00  0.00     0.023 A 
ATOM     62  C   UNL A   1      46.267  24.342  33.894  1.00  0.00     0.031 A 
ATOM     63  C   UNL A   1      47.695  25.755  32.562  1.00  0.00     0.131 A 
ATOM     64  C   UNL A   1      47.412  23.784  34.482  1.00  0.00     0.055 A 
ATOM     65  C   UNL A   1      48.831  25.151  33.104  1.00  0.00     0.041 A 
ATOM     66  F   UNL A   1      47.881  26.732  31.660  1.00  0.00    -0.206 F 
ATOM     67  C   UNL A   1      48.693  24.171  34.083  1.00  0.00     0.022 A 
BRANCH  64  68
ATOM     68  S   UNL A   1      47.206  22.622  35.862  1.00  0.00     0.124 S 
ATOM     69  O   UNL A   1      45.815  22.846  36.241  1.00  0.00    -0.237 OA
ATOM     70  O   UNL A   1      47.496  21.338  35.232  1.00  0.00    -0.237 OA
ATOM     71  O   UNL A   1      48.195  23.072  36.839  1.00  0.00    -0.744 OA
ENDBRANCH  64  68
ENDBRANCH  38  61
ENDBRANCH  12  13
ENDBRANCH   5   7
ENDBRANCH   2   3
ENDBRANCH   1   2
BRANCH   1  72
ATOM     72  C   UNL A   1      33.370  26.163  25.736  1.00  0.00     0.117 C 
BRANCH  72  73
ATOM     73  N   UNL A   1      32.654  25.265  26.627  1.00  0.00    -0.354 N 
ATOM     74  C   UNL A   1      31.952  24.116  26.429  1.00  0.00     0.242 C 
ATOM     75  H   UNL A   1      32.682  25.546  27.570  1.00  0.00     0.163 HD
ATOM     76  O   UNL A   1      31.264  23.752  27.395  1.00  0.00    -0.273 OA
BRANCH  74  77
ATOM     77  C   UNL A   1      31.949  23.261  25.134  1.00  0.00     0.173 C 
BRANCH  77  78
ATOM     78  C   UNL A   1      30.846  23.646  24.115  1.00  0.00     0.070 C 
BRANCH  78  79
ATOM     79  C   UNL A   1      30.757  25.042  23.548  1.00  0.00    -0.045 A 
ATOM     80  C   UNL A   1      31.632  25.431  22.519  1.00  0.00     0.007 A 
ATOM     81  C   UNL A   1      29.883  26.002  24.076  1.00  0.00     0.007 A 
ATOM     82  C   UNL A   1      31.549  26.703  21.947  1.00  0.00     0.046 A 
ATOM     83  C   UNL A   1      29.783  27.267  23.494  1.00  0.00     0.046 A 
ATOM     84  C   UNL A   1      30.597  27.597  22.419  1.00  0.00     0.115 A 
BRANCH  84  85
ATOM     85  O   UNL A   1      30.413  28.812  21.829  1.00  0.00    -0.508 OA
ATOM     86  H   UNL A   1      29.550  29.163  21.739  1.00  0.00     0.293 HD
ENDBRANCH  84  85
ENDBRANCH  78  79
ENDBRANCH  77  78
BRANCH  77  87
ATOM     87  N   UNL A   1      33.283  23.095  24.541  1.00  0.00    -0.372 N 
ATOM     88  H   UNL A   1      33.572  23.798  23.914  1.00  0.00     0.161 HD
BRANCH  87  89
ATOM     89  C   UNL A   1      34.195  22.053  24.761  1.00  0.00     0.054 A 
ATOM     90  C   UNL A   1      33.890  20.663  24.572  1.00  0.00     0.024 A 
ATOM     91  C   UNL A   1      35.518  22.406  25.187  1.00  0.00     0.024 A 
ATOM     92  C   UNL A   1      32.639  20.113  24.181  1.00  0.00     0.012 A 
ATOM     93  C   UNL A   1      34.947  19.742  24.742  1.00  0.00     0.073 A 
ATOM     94  C   UNL A   1      36.470  21.375  25.301  1.00  0.00     0.073 A 
ATOM     95  C   UNL A   1      35.937  23.723  25.516  1.00  0.00     0.012 A 
ATOM     96  C   UNL A   1      32.434  18.744  24.001  1.00  0.00     0.001 A 
ATOM     97  C   UNL A   1      34.733  18.383  24.539  1.00  0.00     0.029 A 
ATOM     98  N   UNL A   1      36.190  20.091  25.078  1.00  0.00    -0.248 NA
ATOM     99  C   UNL A   1      37.775  21.678  25.670  1.00  0.00     0.029 A 
ATOM    100  C   UNL A   1      37.249  24.006  25.902  1.00  0.00     0.001 A 
ATOM    101  C   UNL A   1      33.490  17.872  24.178  1.00  0.00     0.002 A 
ATOM    102  C   UNL A   1      38.176  22.979  25.967  1.00  0.00     0.002 A 
ENDBRANCH  87  89
ENDBRANCH  77  87
ENDBRANCH  74  77
ENDBRANCH  72  73
ENDBRANCH   1  72
TORSDOF 18
ENDMDL
MODEL 3
REMARK VINA RESULT:     -12.7      4.556      9.848
REMARK SMILES O=C(NCCCNC(=O)[C@@H](Cc1ccc(O)cc1)Nc1c2ccccc2nc2ccccc12)c1ccc(-c2c3nc(c(-c4cc(S(=O)(=O)[O-])ccc4F)c4ccc([nH]4)c(-c4cc(S(=O)(=O)[O-])ccc4F)c4nc(c(-c5cc(S(=O)(=O)[O-])ccc5F)c5ccc2[nH]5)C=C4)C=C3)cc1
REMARK SMILES IDX 5 1 4 2 3 3 1 4 2 5 34 7 35 8 96 9 36 10 95 11 37 12 38 13
REMARK SMILES IDX 39 14 89 15 40 16 94 17 88 18 90 19 41 20 93 21 87 22 86 23
REMARK SMILES IDX 42 25 74 26 54 27 73 28 55 29 58 30 72 31 91 32 56 33 57 34
REMARK SMILES IDX 71 36 92 37 59 38 43 39 44 40 52 41 45 42 51 43 53 44 50 45
REMARK SMILES IDX 46 46 47 47 48 48 49 49 75 50 76 51 84 52 77 53 83 54 85 55
REMARK SMILES IDX 82 56 78 57 79 58 80 59 81 60 60 61 61 62 69 63 62 64 68 65
REMARK SMILES IDX 70 66 67 67 63 68 64 69 65 70 66 71 6 72 7 73 8 74 9 76
REMARK SMILES IDX 10 77 11 78 12 79 13 80 18 81 14 82 17 83 15 84 16 85 19 87
REMARK SMILES IDX 20 89 21 90 33 91 22 92 26 93 28 94 32 95 23 96 25 97 27 98
REMARK SMILES IDX 29 99 31 100 24 101 30 102
REMARK H PARENT 3 6 90 24 58 35 7 75 16 86 19 88
REMARK Flexibility Score: inf
ROOT
ATOM      1  C   UNL A   1      35.302  23.228  24.761  1.00  0.00     0.042 C 
ENDROOT
BRANCH   1   2
ATOM      2  C   UNL A   1      35.644  22.604  26.106  1.00  0.00     0.118 C 
BRANCH   2   3
ATOM      3  N   UNL A   1      36.649  21.561  25.993  1.00  0.00    -0.352 N 
ATOM      4  O   UNL A   1      38.591  20.537  25.638  1.00  0.00    -0.269 OA
ATOM      5  C   UNL A   1      38.023  21.590  25.940  1.00  0.00     0.251 C 
ATOM      6  H   UNL A   1      36.270  20.653  25.944  1.00  0.00     0.163 HD
BRANCH   5   7
ATOM      7  C   UNL A   1      38.848  22.801  26.216  1.00  0.00     0.039 A 
ATOM      8  C   UNL A   1      38.543  24.072  25.735  1.00  0.00     0.014 A 
ATOM      9  C   UNL A   1      39.918  22.678  27.118  1.00  0.00     0.014 A 
ATOM     10  C   UNL A   1      39.351  25.172  26.046  1.00  0.00     0.010 A 
ATOM     11  C   UNL A   1      40.665  23.800  27.516  1.00  0.00     0.010 A 
ATOM     12  C   UNL A   1      40.405  25.062  26.967  1.00  0.00    -0.014 A 
BRANCH  12  13
ATOM     13  C   UNL A   1      41.159  26.285  27.382  1.00  0.00     0.031 A 
ATOM     14  C   UNL A   1      42.566  26.540  26.905  1.00  0.00     0.074 A 
ATOM     15  C   UNL A   1      40.559  27.194  28.182  1.00  0.00     0.049 A 
ATOM     16  N   UNL A   1      43.337  27.578  27.117  1.00  0.00    -0.248 NA
ATOM     17  C   UNL A   1      43.195  25.488  26.096  1.00  0.00     0.031 C 
ATOM     18  C   UNL A   1      39.214  27.061  28.747  1.00  0.00     0.029 A 
ATOM     19  N   UNL A   1      40.984  28.418  28.642  1.00  0.00    -0.354 N 
ATOM     20  C   UNL A   1      44.545  27.300  26.483  1.00  0.00     0.074 A 
ATOM     21  C   UNL A   1      44.413  25.977  25.909  1.00  0.00     0.031 C 
ATOM     22  C   UNL A   1      38.903  28.178  29.421  1.00  0.00     0.029 A 
ATOM     23  C   UNL A   1      40.045  29.085  29.396  1.00  0.00     0.049 A 
ATOM     24  H   UNL A   1      41.879  28.782  28.451  1.00  0.00     0.167 HD
ATOM     25  C   UNL A   1      45.656  28.074  26.384  1.00  0.00     0.034 A 
ATOM     26  C   UNL A   1      40.091  30.285  30.008  1.00  0.00     0.034 A 
ATOM     27  C   UNL A   1      45.783  29.391  26.963  1.00  0.00     0.049 A 
ATOM     28  C   UNL A   1      41.342  31.116  29.895  1.00  0.00     0.074 A 
ATOM     29  C   UNL A   1      46.852  30.270  26.880  1.00  0.00     0.029 A 
ATOM     30  N   UNL A   1      44.821  30.018  27.744  1.00  0.00    -0.354 N 
ATOM     31  N   UNL A   1      42.455  30.852  29.250  1.00  0.00    -0.248 NA
ATOM     32  C   UNL A   1      41.339  32.411  30.588  1.00  0.00     0.031 C 
ATOM     33  C   UNL A   1      46.565  31.392  27.665  1.00  0.00     0.029 A 
ATOM     34  C   UNL A   1      45.284  31.255  28.174  1.00  0.00     0.049 A 
ATOM     35  H   UNL A   1      43.939  29.640  27.962  1.00  0.00     0.167 HD
ATOM     36  C   UNL A   1      43.271  31.964  29.436  1.00  0.00     0.074 A 
ATOM     37  C   UNL A   1      42.517  32.906  30.237  1.00  0.00     0.031 C 
ATOM     38  C   UNL A   1      44.532  32.186  28.982  1.00  0.00     0.034 A 
BRANCH  25  39
ATOM     39  C   UNL A   1      46.843  27.493  25.650  1.00  0.00     0.023 A 
ATOM     40  C   UNL A   1      47.169  27.887  24.341  1.00  0.00     0.031 A 
ATOM     41  C   UNL A   1      47.649  26.516  26.261  1.00  0.00     0.131 A 
ATOM     42  C   UNL A   1      48.219  27.255  23.659  1.00  0.00     0.055 A 
ATOM     43  C   UNL A   1      48.744  25.947  25.605  1.00  0.00     0.041 A 
ATOM     44  F   UNL A   1      47.379  26.085  27.503  1.00  0.00    -0.206 F 
ATOM     45  C   UNL A   1      49.024  26.304  24.290  1.00  0.00     0.022 A 
BRANCH  42  46
ATOM     46  S   UNL A   1      48.419  27.587  21.887  1.00  0.00     0.124 S 
ATOM     47  O   UNL A   1      49.566  28.495  21.888  1.00  0.00    -0.237 OA
ATOM     48  O   UNL A   1      48.656  26.260  21.341  1.00  0.00    -0.237 OA
ATOM     49  O   UNL A   1      47.147  28.205  21.509  1.00  0.00    -0.744 OA
ENDBRANCH  42  46
ENDBRANCH  25  39
BRANCH  26  50
ATOM     50  C   UNL A   1      38.924  30.776  30.798  1.00  0.00     0.023 A 
ATOM     51  C   UNL A   1      37.933  31.575  30.207  1.00  0.00     0.031 A 
ATOM     52  C   UNL A   1      38.809  30.489  32.170  1.00  0.00     0.131 A 
ATOM     53  C   UNL A   1      36.893  32.097  30.994  1.00  0.00     0.055 A 
ATOM     54  C   UNL A   1      37.743  30.963  32.936  1.00  0.00     0.041 A 
ATOM     55  F   UNL A   1      39.728  29.727  32.785  1.00  0.00    -0.206 F 
ATOM     56  C   UNL A   1      36.783  31.784  32.350  1.00  0.00     0.022 A 
BRANCH  53  57
ATOM     57  S   UNL A   1      35.726  33.259  30.234  1.00  0.00     0.124 S 
ATOM     58  O   UNL A   1      35.494  34.201  31.322  1.00  0.00    -0.237 OA
ATOM     59  O   UNL A   1      36.497  33.762  29.101  1.00  0.00    -0.237 OA
ATOM     60  O   UNL A   1      34.586  32.415  29.883  1.00  0.00    -0.744 OA
ENDBRANCH  53  57
ENDBRANCH  26  50
BRANCH  38  61
ATOM     61  C   UNL A   1      45.147  33.527  29.302  1.00  0.00     0.023 A 
ATOM     62  C   UNL A   1      44.950  34.652  28.481  1.00  0.00     0.031 A 
ATOM     63  C   UNL A   1      45.974  33.671  30.431  1.00  0.00     0.131 A 
ATOM     64  C   UNL A   1      45.624  35.850  28.762  1.00  0.00     0.055 A 
ATOM     65  C   UNL A   1      46.591  34.884  30.741  1.00  0.00     0.041 A 
ATOM     66  F   UNL A   1      46.201  32.631  31.249  1.00  0.00    -0.206 F 
ATOM     67  C   UNL A   1      46.431  35.978  29.895  1.00  0.00     0.022 A 
BRANCH  64  68
ATOM     68  S   UNL A   1      45.523  37.209  27.564  1.00  0.00     0.124 S 
ATOM     69  O   UNL A   1      44.182  37.032  27.017  1.00  0.00    -0.237 OA
ATOM     70  O   UNL A   1      45.716  38.383  28.409  1.00  0.00    -0.237 OA
ATOM     71  O   UNL A   1      46.614  36.928  26.633  1.00  0.00    -0.744 OA
ENDBRANCH  64  68
ENDBRANCH  38  61
ENDBRANCH  12  13
ENDBRANCH   5   7
ENDBRANCH   2   3
ENDBRANCH   1   2
BRANCH   1  72
ATOM     72  C   UNL A   1      34.389  24.449  24.841  1.00  0.00     0.117 C 
BRANCH  72  73
ATOM     73  N   UNL A   1      34.361  25.167  23.577  1.00  0.00    -0.354 N 
ATOM     74  C   UNL A   1      33.356  25.579  22.759  1.00  0.00     0.242 C 
ATOM     75  H   UNL A   1      35.257  25.406  23.244  1.00  0.00     0.163 HD
ATOM     76  O   UNL A   1      33.720  25.952  21.632  1.00  0.00    -0.273 OA
BRANCH  74  77
ATOM     77  C   UNL A   1      31.846  25.616  23.116  1.00  0.00     0.173 C 
BRANCH  77  78
ATOM     78  C   UNL A   1      31.104  24.274  22.897  1.00  0.00     0.070 C 
BRANCH  78  79
ATOM     79  C   UNL A   1      31.498  23.028  23.655  1.00  0.00    -0.045 A 
ATOM     80  C   UNL A   1      31.218  22.934  25.029  1.00  0.00     0.007 A 
ATOM     81  C   UNL A   1      32.219  21.990  23.050  1.00  0.00     0.007 A 
ATOM     82  C   UNL A   1      31.537  21.780  25.750  1.00  0.00     0.046 A 
ATOM     83  C   UNL A   1      32.520  20.827  23.761  1.00  0.00     0.046 A 
ATOM     84  C   UNL A   1      32.153  20.721  25.096  1.00  0.00     0.115 A 
BRANCH  84  85
ATOM     85  O   UNL A   1      32.394  19.540  25.732  1.00  0.00    -0.508 OA
ATOM     86  H   UNL A   1      32.732  18.810  25.252  1.00  0.00     0.293 HD
ENDBRANCH  84  85
ENDBRANCH  78  79
ENDBRANCH  77  78
BRANCH  77  87
ATOM     87  N   UNL A   1      31.568  26.253  24.411  1.00  0.00    -0.372 N 
ATOM     88  H   UNL A   1      31.436  25.646  25.175  1.00  0.00     0.161 HD
BRANCH  87  89
ATOM     89  C   UNL A   1      31.468  27.624  24.687  1.00  0.00     0.054 A 
ATOM     90  C   UNL A   1      32.375  28.342  25.537  1.00  0.00     0.024 A 
ATOM     91  C   UNL A   1      30.400  28.351  24.066  1.00  0.00     0.024 A 
ATOM     92  C   UNL A   1      33.473  27.800  26.258  1.00  0.00     0.012 A 
ATOM     93  C   UNL A   1      32.197  29.740  25.636  1.00  0.00     0.073 A 
ATOM     94  C   UNL A   1      30.360  29.746  24.248  1.00  0.00     0.073 A 
ATOM     95  C   UNL A   1      29.367  27.763  23.287  1.00  0.00     0.012 A 
ATOM     96  C   UNL A   1      34.321  28.578  27.050  1.00  0.00     0.001 A 
ATOM     97  C   UNL A   1      33.060  30.504  26.413  1.00  0.00     0.029 A 
ATOM     98  N   UNL A   1      31.235  30.412  25.002  1.00  0.00    -0.248 NA
ATOM     99  C   UNL A   1      29.367  30.496  23.630  1.00  0.00     0.029 A 
ATOM    100  C   UNL A   1      28.366  28.531  22.688  1.00  0.00     0.001 A 
ATOM    101  C   UNL A   1      34.115  29.941  27.126  1.00  0.00     0.002 A 
ATOM    102  C   UNL A   1      28.373  29.906  22.850  1.00  0.00     0.002 A 
ENDBRANCH  87  89
ENDBRANCH  77  87
ENDBRANCH  74  77
ENDBRANCH  72  73
ENDBRANCH   1  72
TORSDOF 18
ENDMDL
