MODEL 1
REMARK VINA RESULT:     -10.7      0.000      0.000
REMARK SMILES C[C@@H](Sc1ccccc1[N+](=O)[O-])[C@@H](C)C(=O)NCCCNC(=O)c1ccc(-c2c3nc(c(-c4cc(S(=O)(=O)[O-])ccc4F)c4ccc([nH]4)c(-c4cc(S(=O)(=O)[O-])ccc4F)c4nc(c(-c5cc(S(=O)(=O)[O-])ccc5F)c5ccc2[nH]5)C=C4)C=C3)cc1
REMARK SMILES IDX 18 1 17 2 15 3 16 4 13 6 14 7 2 8 1 9 3 10 4 11 5 12 9 13
REMARK SMILES IDX 6 14 8 15 7 16 10 17 11 18 12 19 19 20 20 21 21 22 22 23
REMARK SMILES IDX 23 25 24 26 25 27 86 28 26 29 85 30 27 31 28 32 29 33 79 34
REMARK SMILES IDX 30 35 84 36 78 37 80 38 31 39 83 40 77 41 76 42 32 44 64 45
REMARK SMILES IDX 44 46 63 47 45 48 48 49 62 50 81 51 46 52 47 53 61 55 82 56
REMARK SMILES IDX 49 57 33 58 34 59 42 60 35 61 41 62 43 63 40 64 36 65 37 66
REMARK SMILES IDX 38 67 39 68 65 69 66 70 74 71 67 72 73 73 75 74 72 75 68 76
REMARK SMILES IDX 69 77 70 78 71 79 50 80 51 81 59 82 52 83 58 84 60 85 57 86
REMARK SMILES IDX 53 87 54 88 55 89 56 90
REMARK H PARENT 17 5 21 24 80 43 48 54
REMARK Flexibility Score: inf
ROOT
ATOM      1  C   UNL A   1      31.771  28.329  26.901  1.00  0.00     0.117 C 
ENDROOT
BRANCH   1   2
ATOM      2  N   UNL A   1      31.058  27.069  27.016  1.00  0.00    -0.356 N 
ATOM      3  C   UNL A   1      30.676  26.151  26.089  1.00  0.00     0.223 C 
ATOM      4  O   UNL A   1      30.153  25.112  26.501  1.00  0.00    -0.275 OA
ATOM      5  H   UNL A   1      30.805  26.836  27.938  1.00  0.00     0.163 HD
BRANCH   3   6
ATOM      6  C   UNL A   1      30.952  26.332  24.601  1.00  0.00     0.088 C 
ATOM      7  C   UNL A   1      29.629  26.611  23.874  1.00  0.00     0.019 C 
BRANCH   6   8
ATOM      8  C   UNL A   1      31.845  25.213  24.003  1.00  0.00     0.061 C 
ATOM      9  C   UNL A   1      31.705  25.115  22.482  1.00  0.00     0.020 C 
BRANCH   8  10
ATOM     10  S   UNL A   1      33.623  25.554  24.439  1.00  0.00    -0.115 SA
BRANCH  10  11
ATOM     11  C   UNL A   1      34.106  24.017  25.233  1.00  0.00     0.085 A 
ATOM     12  C   UNL A   1      33.497  23.799  26.486  1.00  0.00     0.022 A 
ATOM     13  C   UNL A   1      34.949  23.004  24.729  1.00  0.00     0.282 A 
ATOM     14  C   UNL A   1      33.760  22.659  27.248  1.00  0.00     0.002 A 
ATOM     15  C   UNL A   1      35.206  21.850  25.504  1.00  0.00     0.087 A 
ATOM     16  C   UNL A   1      34.620  21.686  26.760  1.00  0.00     0.007 A 
BRANCH  13  17
ATOM     17  N   UNL A   1      35.593  23.063  23.403  1.00  0.00     0.063 N 
ATOM     18  O   UNL A   1      34.882  23.372  22.435  1.00  0.00    -0.258 OA
ATOM     19  O   UNL A   1      36.787  22.764  23.294  1.00  0.00    -0.258 OA
ENDBRANCH  13  17
ENDBRANCH  10  11
ENDBRANCH   8  10
ENDBRANCH   6   8
ENDBRANCH   3   6
ENDBRANCH   1   2
BRANCH   1  20
ATOM     20  C   UNL A   1      33.281  28.164  27.007  1.00  0.00     0.042 C 
BRANCH  20  21
ATOM     21  C   UNL A   1      34.072  29.200  26.221  1.00  0.00     0.118 C 
BRANCH  21  22
ATOM     22  N   UNL A   1      33.841  30.552  26.715  1.00  0.00    -0.352 N 
ATOM     23  C   UNL A   1      34.462  31.237  27.729  1.00  0.00     0.251 C 
ATOM     24  H   UNL A   1      33.130  31.049  26.251  1.00  0.00     0.163 HD
ATOM     25  O   UNL A   1      33.953  32.274  28.154  1.00  0.00    -0.269 OA
BRANCH  23  26
ATOM     26  C   UNL A   1      35.716  30.722  28.324  1.00  0.00     0.039 A 
ATOM     27  C   UNL A   1      35.645  29.858  29.419  1.00  0.00     0.014 A 
ATOM     28  C   UNL A   1      36.961  31.100  27.815  1.00  0.00     0.014 A 
ATOM     29  C   UNL A   1      36.818  29.321  29.956  1.00  0.00     0.010 A 
ATOM     30  C   UNL A   1      38.119  30.493  28.289  1.00  0.00     0.010 A 
ATOM     31  C   UNL A   1      38.063  29.600  29.369  1.00  0.00    -0.014 A 
BRANCH  31  32
ATOM     32  C   UNL A   1      39.318  28.986  29.877  1.00  0.00     0.031 A 
ATOM     33  C   UNL A   1      39.999  29.563  31.091  1.00  0.00     0.074 A 
ATOM     34  C   UNL A   1      39.874  27.950  29.218  1.00  0.00     0.049 A 
ATOM     35  N   UNL A   1      41.142  29.232  31.636  1.00  0.00    -0.248 NA
ATOM     36  C   UNL A   1      39.313  30.676  31.765  1.00  0.00     0.031 C 
ATOM     37  C   UNL A   1      39.323  27.318  28.016  1.00  0.00     0.029 A 
ATOM     38  N   UNL A   1      41.029  27.247  29.458  1.00  0.00    -0.354 N 
ATOM     39  C   UNL A   1      41.313  30.098  32.710  1.00  0.00     0.074 A 
ATOM     40  C   UNL A   1      40.193  31.014  32.693  1.00  0.00     0.031 C 
ATOM     41  C   UNL A   1      40.121  26.304  27.646  1.00  0.00     0.029 A 
ATOM     42  C   UNL A   1      41.270  26.247  28.543  1.00  0.00     0.049 A 
ATOM     43  H   UNL A   1      41.628  27.440  30.214  1.00  0.00     0.167 HD
ATOM     44  C   UNL A   1      42.298  30.110  33.644  1.00  0.00     0.034 A 
ATOM     45  C   UNL A   1      42.307  25.392  28.431  1.00  0.00     0.034 A 
ATOM     46  C   UNL A   1      43.409  29.190  33.648  1.00  0.00     0.049 A 
ATOM     47  C   UNL A   1      43.425  25.471  29.443  1.00  0.00     0.074 A 
ATOM     48  C   UNL A   1      44.450  29.098  34.556  1.00  0.00     0.029 A 
ATOM     49  N   UNL A   1      43.630  28.205  32.694  1.00  0.00    -0.354 N 
ATOM     50  N   UNL A   1      43.555  26.276  30.473  1.00  0.00    -0.248 NA
ATOM     51  C   UNL A   1      44.532  24.519  29.282  1.00  0.00     0.031 C 
ATOM     52  C   UNL A   1      45.333  28.110  34.114  1.00  0.00     0.029 A 
ATOM     53  C   UNL A   1      44.802  27.521  32.977  1.00  0.00     0.049 A 
ATOM     54  H   UNL A   1      43.039  28.020  31.928  1.00  0.00     0.167 HD
ATOM     55  C   UNL A   1      44.736  25.894  31.105  1.00  0.00     0.074 A 
ATOM     56  C   UNL A   1      45.271  24.781  30.349  1.00  0.00     0.031 C 
ATOM     57  C   UNL A   1      45.324  26.411  32.215  1.00  0.00     0.034 A 
BRANCH  44  58
ATOM     58  C   UNL A   1      42.219  31.164  34.723  1.00  0.00     0.023 A 
ATOM     59  C   UNL A   1      42.803  32.432  34.554  1.00  0.00     0.031 A 
ATOM     60  C   UNL A   1      41.573  30.897  35.943  1.00  0.00     0.131 A 
ATOM     61  C   UNL A   1      42.797  33.354  35.611  1.00  0.00     0.055 A 
ATOM     62  C   UNL A   1      41.494  31.851  36.959  1.00  0.00     0.041 A 
ATOM     63  F   UNL A   1      41.014  29.698  36.173  1.00  0.00    -0.206 F 
ATOM     64  C   UNL A   1      42.122  33.083  36.803  1.00  0.00     0.022 A 
BRANCH  61  65
ATOM     65  S   UNL A   1      43.807  34.852  35.458  1.00  0.00     0.124 S 
ATOM     66  O   UNL A   1      43.854  35.320  36.841  1.00  0.00    -0.237 OA
ATOM     67  O   UNL A   1      45.058  34.336  34.916  1.00  0.00    -0.237 OA
ATOM     68  O   UNL A   1      43.034  35.696  34.549  1.00  0.00    -0.744 OA
ENDBRANCH  61  65
ENDBRANCH  44  58
BRANCH  45  69
ATOM     69  C   UNL A   1      42.358  24.393  27.324  1.00  0.00     0.023 A 
ATOM     70  C   UNL A   1      41.569  23.233  27.365  1.00  0.00     0.031 A 
ATOM     71  C   UNL A   1      43.249  24.543  26.244  1.00  0.00     0.131 A 
ATOM     72  C   UNL A   1      41.732  22.238  26.388  1.00  0.00     0.055 A 
ATOM     73  C   UNL A   1      43.358  23.581  25.239  1.00  0.00     0.041 A 
ATOM     74  F   UNL A   1      44.028  25.632  26.151  1.00  0.00    -0.206 F 
ATOM     75  C   UNL A   1      42.609  22.411  25.317  1.00  0.00     0.022 A 
BRANCH  72  76
ATOM     76  S   UNL A   1      40.868  20.659  26.609  1.00  0.00     0.124 S 
ATOM     77  O   UNL A   1      39.565  20.950  26.021  1.00  0.00    -0.237 OA
ATOM     78  O   UNL A   1      41.721  19.741  25.861  1.00  0.00    -0.237 OA
ATOM     79  O   UNL A   1      40.872  20.470  28.058  1.00  0.00    -0.744 OA
ENDBRANCH  72  76
ENDBRANCH  45  69
BRANCH  57  80
ATOM     80  C   UNL A   1      46.578  25.734  32.711  1.00  0.00     0.023 A 
ATOM     81  C   UNL A   1      47.827  25.936  32.097  1.00  0.00     0.031 A 
ATOM     82  C   UNL A   1      46.519  24.864  33.815  1.00  0.00     0.131 A 
ATOM     83  C   UNL A   1      48.952  25.232  32.553  1.00  0.00     0.055 A 
ATOM     84  C   UNL A   1      47.654  24.220  34.307  1.00  0.00     0.041 A 
ATOM     85  F   UNL A   1      45.352  24.629  34.438  1.00  0.00    -0.206 F 
ATOM     86  C   UNL A   1      48.877  24.391  33.667  1.00  0.00     0.022 A 
BRANCH  83  87
ATOM     87  S   UNL A   1      50.497  25.354  31.612  1.00  0.00     0.124 S 
ATOM     88  O   UNL A   1      50.034  25.893  30.337  1.00  0.00    -0.237 OA
ATOM     89  O   UNL A   1      51.293  26.261  32.433  1.00  0.00    -0.237 OA
ATOM     90  O   UNL A   1      50.981  23.976  31.564  1.00  0.00    -0.744 OA
ENDBRANCH  83  87
ENDBRANCH  57  80
ENDBRANCH  31  32
ENDBRANCH  23  26
ENDBRANCH  21  22
ENDBRANCH  20  21
ENDBRANCH   1  20
TORSDOF 17
ENDMDL
MODEL 2
REMARK VINA RESULT:     -10.5      2.950      3.496
REMARK SMILES C[C@@H](Sc1ccccc1[N+](=O)[O-])[C@@H](C)C(=O)NCCCNC(=O)c1ccc(-c2c3nc(c(-c4cc(S(=O)(=O)[O-])ccc4F)c4ccc([nH]4)c(-c4cc(S(=O)(=O)[O-])ccc4F)c4nc(c(-c5cc(S(=O)(=O)[O-])ccc5F)c5ccc2[nH]5)C=C4)C=C3)cc1
REMARK SMILES IDX 18 1 17 2 15 3 16 4 13 6 14 7 2 8 1 9 3 10 4 11 5 12 9 13
REMARK SMILES IDX 6 14 8 15 7 16 10 17 11 18 12 19 19 20 20 21 21 22 22 23
REMARK SMILES IDX 23 25 24 26 25 27 86 28 26 29 85 30 27 31 28 32 29 33 79 34
REMARK SMILES IDX 30 35 84 36 78 37 80 38 31 39 83 40 77 41 76 42 32 44 64 45
REMARK SMILES IDX 44 46 63 47 45 48 48 49 62 50 81 51 46 52 47 53 61 55 82 56
REMARK SMILES IDX 49 57 33 58 34 59 42 60 35 61 41 62 43 63 40 64 36 65 37 66
REMARK SMILES IDX 38 67 39 68 65 69 66 70 74 71 67 72 73 73 75 74 72 75 68 76
REMARK SMILES IDX 69 77 70 78 71 79 50 80 51 81 59 82 52 83 58 84 60 85 57 86
REMARK SMILES IDX 53 87 54 88 55 89 56 90
REMARK H PARENT 17 5 21 24 80 43 48 54
REMARK Flexibility Score: inf
ROOT
ATOM      1  C   UNL A   1      31.288  27.303  25.804  1.00  0.00     0.117 C 
ENDROOT
BRANCH   1   2
ATOM      2  N   UNL A   1      31.128  26.049  26.520  1.00  0.00    -0.356 N 
ATOM      3  C   UNL A   1      31.782  24.861  26.433  1.00  0.00     0.223 C 
ATOM      4  O   UNL A   1      31.480  23.985  27.250  1.00  0.00    -0.275 OA
ATOM      5  H   UNL A   1      30.411  26.063  27.195  1.00  0.00     0.163 HD
BRANCH   3   6
ATOM      6  C   UNL A   1      32.911  24.623  25.437  1.00  0.00     0.088 C 
ATOM      7  C   UNL A   1      34.067  25.584  25.748  1.00  0.00     0.019 C 
BRANCH   6   8
ATOM      8  C   UNL A   1      32.429  24.578  23.964  1.00  0.00     0.061 C 
ATOM      9  C   UNL A   1      33.223  25.530  23.067  1.00  0.00     0.020 C 
BRANCH   8  10
ATOM     10  S   UNL A   1      32.598  22.839  23.321  1.00  0.00    -0.115 SA
BRANCH  10  11
ATOM     11  C   UNL A   1      34.234  22.388  23.909  1.00  0.00     0.085 A 
ATOM     12  C   UNL A   1      35.289  22.980  23.185  1.00  0.00     0.022 A 
ATOM     13  C   UNL A   1      34.569  21.586  25.020  1.00  0.00     0.282 A 
ATOM     14  C   UNL A   1      36.628  22.738  23.499  1.00  0.00     0.002 A 
ATOM     15  C   UNL A   1      35.927  21.351  25.335  1.00  0.00     0.087 A 
ATOM     16  C   UNL A   1      36.948  21.917  24.571  1.00  0.00     0.007 A 
BRANCH  13  17
ATOM     17  N   UNL A   1      33.570  20.966  25.911  1.00  0.00     0.063 N 
ATOM     18  O   UNL A   1      32.650  20.327  25.379  1.00  0.00    -0.258 OA
ATOM     19  O   UNL A   1      33.654  21.137  27.132  1.00  0.00    -0.258 OA
ENDBRANCH  13  17
ENDBRANCH  10  11
ENDBRANCH   8  10
ENDBRANCH   6   8
ENDBRANCH   3   6
ENDBRANCH   1   2
BRANCH   1  20
ATOM     20  C   UNL A   1      31.811  28.425  26.691  1.00  0.00     0.042 C 
BRANCH  20  21
ATOM     21  C   UNL A   1      32.843  29.317  26.015  1.00  0.00     0.118 C 
BRANCH  21  22
ATOM     22  N   UNL A   1      32.653  30.722  26.352  1.00  0.00    -0.352 N 
ATOM     23  C   UNL A   1      33.332  31.513  27.244  1.00  0.00     0.251 C 
ATOM     24  H   UNL A   1      31.926  31.172  25.864  1.00  0.00     0.163 HD
ATOM     25  O   UNL A   1      32.856  32.603  27.563  1.00  0.00    -0.269 OA
BRANCH  23  26
ATOM     26  C   UNL A   1      34.606  31.051  27.837  1.00  0.00     0.039 A 
ATOM     27  C   UNL A   1      35.651  31.964  28.001  1.00  0.00     0.014 A 
ATOM     28  C   UNL A   1      34.782  29.718  28.216  1.00  0.00     0.014 A 
ATOM     29  C   UNL A   1      36.841  31.555  28.609  1.00  0.00     0.010 A 
ATOM     30  C   UNL A   1      35.928  29.336  28.905  1.00  0.00     0.010 A 
ATOM     31  C   UNL A   1      36.975  30.248  29.105  1.00  0.00    -0.014 A 
BRANCH  31  32
ATOM     32  C   UNL A   1      38.202  29.808  29.818  1.00  0.00     0.031 A 
ATOM     33  C   UNL A   1      38.530  30.379  31.173  1.00  0.00     0.074 A 
ATOM     34  C   UNL A   1      39.049  28.941  29.227  1.00  0.00     0.049 A 
ATOM     35  N   UNL A   1      39.592  30.195  31.915  1.00  0.00    -0.248 NA
ATOM     36  C   UNL A   1      37.541  31.298  31.757  1.00  0.00     0.031 C 
ATOM     37  C   UNL A   1      38.854  28.336  27.906  1.00  0.00     0.029 A 
ATOM     38  N   UNL A   1      40.247  28.421  29.652  1.00  0.00    -0.354 N 
ATOM     39  C   UNL A   1      39.402  30.978  33.048  1.00  0.00     0.074 A 
ATOM     40  C   UNL A   1      38.158  31.694  32.859  1.00  0.00     0.031 C 
ATOM     41  C   UNL A   1      39.877  27.506  27.647  1.00  0.00     0.029 A 
ATOM     42  C   UNL A   1      40.830  27.560  28.750  1.00  0.00     0.049 A 
ATOM     43  H   UNL A   1      40.649  28.643  30.522  1.00  0.00     0.167 HD
ATOM     44  C   UNL A   1      40.176  31.070  34.158  1.00  0.00     0.034 A 
ATOM     45  C   UNL A   1      42.007  26.903  28.800  1.00  0.00     0.034 A 
ATOM     46  C   UNL A   1      41.415  30.351  34.333  1.00  0.00     0.049 A 
ATOM     47  C   UNL A   1      42.884  27.076  30.017  1.00  0.00     0.074 A 
ATOM     48  C   UNL A   1      42.266  30.352  35.424  1.00  0.00     0.029 A 
ATOM     49  N   UNL A   1      41.983  29.505  33.389  1.00  0.00    -0.354 N 
ATOM     50  N   UNL A   1      42.672  27.796  31.095  1.00  0.00    -0.248 NA
ATOM     51  C   UNL A   1      44.154  26.339  30.027  1.00  0.00     0.031 C 
ATOM     52  C   UNL A   1      43.380  29.567  35.113  1.00  0.00     0.029 A 
ATOM     53  C   UNL A   1      43.185  29.003  33.862  1.00  0.00     0.049 A 
ATOM     54  H   UNL A   1      41.588  29.293  32.512  1.00  0.00     0.167 HD
ATOM     55  C   UNL A   1      43.764  27.561  31.928  1.00  0.00     0.074 A 
ATOM     56  C   UNL A   1      44.622  26.624  31.233  1.00  0.00     0.031 C 
ATOM     57  C   UNL A   1      44.031  28.067  33.159  1.00  0.00     0.034 A 
BRANCH  44  58
ATOM     58  C   UNL A   1      39.709  31.996  35.257  1.00  0.00     0.023 A 
ATOM     59  C   UNL A   1      38.987  31.516  36.364  1.00  0.00     0.031 A 
ATOM     60  C   UNL A   1      39.967  33.377  35.191  1.00  0.00     0.131 A 
ATOM     61  C   UNL A   1      38.484  32.413  37.317  1.00  0.00     0.055 A 
ATOM     62  C   UNL A   1      39.538  34.254  36.189  1.00  0.00     0.041 A 
ATOM     63  F   UNL A   1      40.633  33.899  34.149  1.00  0.00    -0.206 F 
ATOM     64  C   UNL A   1      38.779  33.777  37.253  1.00  0.00     0.022 A 
BRANCH  61  65
ATOM     65  S   UNL A   1      37.319  31.792  38.560  1.00  0.00     0.124 S 
ATOM     66  O   UNL A   1      38.106  31.905  39.786  1.00  0.00    -0.237 OA
ATOM     67  O   UNL A   1      36.199  32.717  38.434  1.00  0.00    -0.237 OA
ATOM     68  O   UNL A   1      37.051  30.423  38.124  1.00  0.00    -0.744 OA
ENDBRANCH  61  65
ENDBRANCH  44  58
BRANCH  45  69
ATOM     69  C   UNL A   1      42.442  26.029  27.671  1.00  0.00     0.023 A 
ATOM     70  C   UNL A   1      42.059  24.680  27.618  1.00  0.00     0.031 A 
ATOM     71  C   UNL A   1      43.308  26.506  26.669  1.00  0.00     0.131 A 
ATOM     72  C   UNL A   1      42.590  23.838  26.628  1.00  0.00     0.055 A 
ATOM     73  C   UNL A   1      43.780  25.680  25.648  1.00  0.00     0.041 A 
ATOM     74  F   UNL A   1      43.707  27.787  26.668  1.00  0.00    -0.206 F 
ATOM     75  C   UNL A   1      43.436  24.332  25.634  1.00  0.00     0.022 A 
BRANCH  72  76
ATOM     76  S   UNL A   1      42.257  22.058  26.735  1.00  0.00     0.124 S 
ATOM     77  O   UNL A   1      43.355  21.504  25.951  1.00  0.00    -0.237 OA
ATOM     78  O   UNL A   1      42.314  21.826  28.175  1.00  0.00    -0.237 OA
ATOM     79  O   UNL A   1      40.931  21.925  26.136  1.00  0.00    -0.744 OA
ENDBRANCH  72  76
ENDBRANCH  45  69
BRANCH  57  80
ATOM     80  C   UNL A   1      45.272  27.566  33.857  1.00  0.00     0.023 A 
ATOM     81  C   UNL A   1      45.262  26.411  34.658  1.00  0.00     0.031 A 
ATOM     82  C   UNL A   1      46.486  28.266  33.723  1.00  0.00     0.131 A 
ATOM     83  C   UNL A   1      46.426  26.023  35.341  1.00  0.00     0.055 A 
ATOM     84  C   UNL A   1      47.657  27.836  34.348  1.00  0.00     0.041 A 
ATOM     85  F   UNL A   1      46.554  29.378  32.974  1.00  0.00    -0.206 F 
ATOM     86  C   UNL A   1      47.628  26.718  35.174  1.00  0.00     0.022 A 
BRANCH  83  87
ATOM     87  S   UNL A   1      46.326  24.655  36.527  1.00  0.00     0.124 S 
ATOM     88  O   UNL A   1      46.576  25.334  37.794  1.00  0.00    -0.237 OA
ATOM     89  O   UNL A   1      44.966  24.166  36.326  1.00  0.00    -0.237 OA
ATOM     90  O   UNL A   1      47.382  23.745  36.092  1.00  0.00    -0.744 OA
ENDBRANCH  83  87
ENDBRANCH  57  80
ENDBRANCH  31  32
ENDBRANCH  23  26
ENDBRANCH  21  22
ENDBRANCH  20  21
ENDBRANCH   1  20
TORSDOF 17
ENDMDL
MODEL 3
REMARK VINA RESULT:     -10.5      3.669      8.908
REMARK SMILES C[C@@H](Sc1ccccc1[N+](=O)[O-])[C@@H](C)C(=O)NCCCNC(=O)c1ccc(-c2c3nc(c(-c4cc(S(=O)(=O)[O-])ccc4F)c4ccc([nH]4)c(-c4cc(S(=O)(=O)[O-])ccc4F)c4nc(c(-c5cc(S(=O)(=O)[O-])ccc5F)c5ccc2[nH]5)C=C4)C=C3)cc1
REMARK SMILES IDX 18 1 17 2 15 3 16 4 13 6 14 7 2 8 1 9 3 10 4 11 5 12 9 13
REMARK SMILES IDX 6 14 8 15 7 16 10 17 11 18 12 19 19 20 20 21 21 22 22 23
REMARK SMILES IDX 23 25 24 26 25 27 86 28 26 29 85 30 27 31 28 32 29 33 79 34
REMARK SMILES IDX 30 35 84 36 78 37 80 38 31 39 83 40 77 41 76 42 32 44 64 45
REMARK SMILES IDX 44 46 63 47 45 48 48 49 62 50 81 51 46 52 47 53 61 55 82 56
REMARK SMILES IDX 49 57 33 58 34 59 42 60 35 61 41 62 43 63 40 64 36 65 37 66
REMARK SMILES IDX 38 67 39 68 65 69 66 70 74 71 67 72 73 73 75 74 72 75 68 76
REMARK SMILES IDX 69 77 70 78 71 79 50 80 51 81 59 82 52 83 58 84 60 85 57 86
REMARK SMILES IDX 53 87 54 88 55 89 56 90
REMARK H PARENT 17 5 21 24 80 43 48 54
REMARK Flexibility Score: inf
ROOT
ATOM      1  C   UNL A   1      31.797  30.637  26.001  1.00  0.00     0.117 C 
ENDROOT
BRANCH   1   2
ATOM      2  N   UNL A   1      33.098  30.112  26.375  1.00  0.00    -0.356 N 
ATOM      3  C   UNL A   1      33.630  28.863  26.309  1.00  0.00     0.223 C 
ATOM      4  O   UNL A   1      34.817  28.734  26.623  1.00  0.00    -0.275 OA
ATOM      5  H   UNL A   1      33.710  30.788  26.746  1.00  0.00     0.163 HD
BRANCH   3   6
ATOM      6  C   UNL A   1      32.841  27.668  25.787  1.00  0.00     0.088 C 
ATOM      7  C   UNL A   1      31.898  27.167  26.890  1.00  0.00     0.019 C 
BRANCH   6   8
ATOM      8  C   UNL A   1      33.731  26.599  25.102  1.00  0.00     0.061 C 
ATOM      9  C   UNL A   1      33.521  25.205  25.699  1.00  0.00     0.020 C 
BRANCH   8  10
ATOM     10  S   UNL A   1      33.340  26.556  23.282  1.00  0.00    -0.115 SA
BRANCH  10  11
ATOM     11  C   UNL A   1      31.673  27.226  23.249  1.00  0.00     0.085 A 
ATOM     12  C   UNL A   1      31.597  28.558  22.793  1.00  0.00     0.022 A 
ATOM     13  C   UNL A   1      30.465  26.567  23.556  1.00  0.00     0.282 A 
ATOM     14  C   UNL A   1      30.382  29.241  22.708  1.00  0.00     0.002 A 
ATOM     15  C   UNL A   1      29.238  27.264  23.461  1.00  0.00     0.087 A 
ATOM     16  C   UNL A   1      29.202  28.596  23.048  1.00  0.00     0.007 A 
BRANCH  13  17
ATOM     17  N   UNL A   1      30.388  25.153  23.972  1.00  0.00     0.063 N 
ATOM     18  O   UNL A   1      30.499  24.291  23.089  1.00  0.00    -0.258 OA
ATOM     19  O   UNL A   1      30.173  24.880  25.158  1.00  0.00    -0.258 OA
ENDBRANCH  13  17
ENDBRANCH  10  11
ENDBRANCH   8  10
ENDBRANCH   6   8
ENDBRANCH   3   6
ENDBRANCH   1   2
BRANCH   1  20
ATOM     20  C   UNL A   1      31.537  32.028  26.563  1.00  0.00     0.042 C 
BRANCH  20  21
ATOM     21  C   UNL A   1      32.711  32.611  27.336  1.00  0.00     0.118 C 
BRANCH  21  22
ATOM     22  N   UNL A   1      32.504  34.016  27.663  1.00  0.00    -0.352 N 
ATOM     23  C   UNL A   1      33.063  34.781  28.657  1.00  0.00     0.251 C 
ATOM     24  H   UNL A   1      31.866  34.489  27.082  1.00  0.00     0.163 HD
ATOM     25  O   UNL A   1      32.569  35.878  28.920  1.00  0.00    -0.269 OA
BRANCH  23  26
ATOM     26  C   UNL A   1      34.228  34.282  29.421  1.00  0.00     0.039 A 
ATOM     27  C   UNL A   1      34.015  33.628  30.637  1.00  0.00     0.014 A 
ATOM     28  C   UNL A   1      35.530  34.472  28.952  1.00  0.00     0.014 A 
ATOM     29  C   UNL A   1      35.101  33.104  31.342  1.00  0.00     0.010 A 
ATOM     30  C   UNL A   1      36.599  33.869  29.606  1.00  0.00     0.010 A 
ATOM     31  C   UNL A   1      36.399  33.183  30.812  1.00  0.00    -0.014 A 
BRANCH  31  32
ATOM     32  C   UNL A   1      37.562  32.572  31.508  1.00  0.00     0.031 A 
ATOM     33  C   UNL A   1      38.289  31.411  30.881  1.00  0.00     0.074 A 
ATOM     34  C   UNL A   1      37.930  33.022  32.725  1.00  0.00     0.049 A 
ATOM     35  N   UNL A   1      39.264  30.685  31.364  1.00  0.00    -0.248 NA
ATOM     36  C   UNL A   1      37.840  30.999  29.541  1.00  0.00     0.031 C 
ATOM     37  C   UNL A   1      37.289  34.124  33.448  1.00  0.00     0.029 A 
ATOM     38  N   UNL A   1      38.925  32.607  33.575  1.00  0.00    -0.354 N 
ATOM     39  C   UNL A   1      39.540  29.728  30.393  1.00  0.00     0.074 A 
ATOM     40  C   UNL A   1      38.581  29.924  29.327  1.00  0.00     0.031 C 
ATOM     41  C   UNL A   1      37.928  34.316  34.613  1.00  0.00     0.029 A 
ATOM     42  C   UNL A   1      38.983  33.319  34.751  1.00  0.00     0.049 A 
ATOM     43  H   UNL A   1      39.540  31.868  33.362  1.00  0.00     0.167 HD
ATOM     44  C   UNL A   1      40.523  28.793  30.376  1.00  0.00     0.034 A 
ATOM     45  C   UNL A   1      39.785  33.173  35.826  1.00  0.00     0.034 A 
ATOM     46  C   UNL A   1      41.472  28.609  31.447  1.00  0.00     0.049 A 
ATOM     47  C   UNL A   1      40.826  32.079  35.812  1.00  0.00     0.074 A 
ATOM     48  C   UNL A   1      42.520  27.709  31.525  1.00  0.00     0.029 A 
ATOM     49  N   UNL A   1      41.486  29.335  32.630  1.00  0.00    -0.354 N 
ATOM     50  N   UNL A   1      41.096  31.204  34.870  1.00  0.00    -0.248 NA
ATOM     51  C   UNL A   1      41.677  31.961  37.003  1.00  0.00     0.031 C 
ATOM     52  C   UNL A   1      43.121  27.841  32.780  1.00  0.00     0.029 A 
ATOM     53  C   UNL A   1      42.507  28.884  33.454  1.00  0.00     0.049 A 
ATOM     54  H   UNL A   1      40.863  30.065  32.852  1.00  0.00     0.167 HD
ATOM     55  C   UNL A   1      42.177  30.462  35.340  1.00  0.00     0.074 A 
ATOM     56  C   UNL A   1      42.516  31.002  36.641  1.00  0.00     0.031 C 
ATOM     57  C   UNL A   1      42.835  29.433  34.749  1.00  0.00     0.034 A 
BRANCH  44  58
ATOM     58  C   UNL A   1      40.602  27.889  29.168  1.00  0.00     0.023 A 
ATOM     59  C   UNL A   1      41.548  28.106  28.150  1.00  0.00     0.031 A 
ATOM     60  C   UNL A   1      39.711  26.812  29.017  1.00  0.00     0.131 A 
ATOM     61  C   UNL A   1      41.532  27.309  26.996  1.00  0.00     0.055 A 
ATOM     62  C   UNL A   1      39.758  25.968  27.905  1.00  0.00     0.041 A 
ATOM     63  F   UNL A   1      38.772  26.566  29.943  1.00  0.00    -0.206 F 
ATOM     64  C   UNL A   1      40.662  26.223  26.879  1.00  0.00     0.022 A 
BRANCH  61  65
ATOM     65  S   UNL A   1      42.566  27.803  25.590  1.00  0.00     0.124 S 
ATOM     66  O   UNL A   1      41.827  28.951  25.069  1.00  0.00    -0.237 OA
ATOM     67  O   UNL A   1      43.843  28.102  26.227  1.00  0.00    -0.237 OA
ATOM     68  O   UNL A   1      42.558  26.624  24.728  1.00  0.00    -0.744 OA
ENDBRANCH  61  65
ENDBRANCH  44  58
BRANCH  45  69
ATOM     69  C   UNL A   1      39.643  34.067  37.013  1.00  0.00     0.023 A 
ATOM     70  C   UNL A   1      39.088  33.589  38.210  1.00  0.00     0.031 A 
ATOM     71  C   UNL A   1      39.990  35.429  36.948  1.00  0.00     0.131 A 
ATOM     72  C   UNL A   1      38.833  34.475  39.269  1.00  0.00     0.055 A 
ATOM     73  C   UNL A   1      39.796  36.292  38.028  1.00  0.00     0.041 A 
ATOM     74  F   UNL A   1      40.526  35.942  35.829  1.00  0.00    -0.206 F 
ATOM     75  C   UNL A   1      39.198  35.820  39.191  1.00  0.00     0.022 A 
BRANCH  72  76
ATOM     76  S   UNL A   1      37.902  33.867  40.702  1.00  0.00     0.124 S 
ATOM     77  O   UNL A   1      37.591  35.109  41.400  1.00  0.00    -0.237 OA
ATOM     78  O   UNL A   1      36.779  33.187  40.065  1.00  0.00    -0.237 OA
ATOM     79  O   UNL A   1      38.857  32.991  41.379  1.00  0.00    -0.744 OA
ENDBRANCH  72  76
ENDBRANCH  45  69
BRANCH  57  80
ATOM     80  C   UNL A   1      44.029  28.867  35.479  1.00  0.00     0.023 A 
ATOM     81  C   UNL A   1      45.334  29.339  35.253  1.00  0.00     0.031 A 
ATOM     82  C   UNL A   1      43.856  27.828  36.412  1.00  0.00     0.131 A 
ATOM     83  C   UNL A   1      46.419  28.735  35.907  1.00  0.00     0.055 A 
ATOM     84  C   UNL A   1      44.931  27.278  37.111  1.00  0.00     0.041 A 
ATOM     85  F   UNL A   1      42.633  27.334  36.666  1.00  0.00    -0.206 F 
ATOM     86  C   UNL A   1      46.223  27.721  36.850  1.00  0.00     0.022 A 
BRANCH  83  87
ATOM     87  S   UNL A   1      48.101  29.224  35.438  1.00  0.00     0.124 S 
ATOM     88  O   UNL A   1      47.875  30.518  34.802  1.00  0.00    -0.237 OA
ATOM     89  O   UNL A   1      48.787  29.260  36.726  1.00  0.00    -0.237 OA
ATOM     90  O   UNL A   1      48.532  28.157  34.537  1.00  0.00    -0.744 OA
ENDBRANCH  83  87
ENDBRANCH  57  80
ENDBRANCH  31  32
ENDBRANCH  23  26
ENDBRANCH  21  22
ENDBRANCH  20  21
ENDBRANCH   1  20
TORSDOF 17
ENDMDL
