MODEL 1
REMARK VINA RESULT:     -11.7      0.000      0.000
REMARK SMILES CC[C@H](C(=O)NCCCNC(=O)c1ccc(-c2c3nc(c(-c4cc(S(=O)(=O)[O-])ccc4F)c4ccc([nH]4)c(-c4cc(S(=O)(=O)[O-])ccc4F)c4nc(c(-c5cc(S(=O)(=O)[O-])ccc5F)c5ccc2[nH]5)C=C4)C=C3)cc1)C(=O)c1ccc(OC)cc1
REMARK SMILES IDX 8 1 7 2 6 3 4 4 5 5 3 7 2 8 1 9 76 10 77 11 78 12 79 13
REMARK SMILES IDX 85 14 80 15 84 16 81 17 82 18 83 19 9 20 10 21 11 22 12 24
REMARK SMILES IDX 13 25 14 26 75 27 15 28 74 29 16 30 17 31 18 32 68 33 19 34
REMARK SMILES IDX 73 35 67 36 69 37 20 38 72 39 66 40 65 41 21 43 53 44 33 45
REMARK SMILES IDX 52 46 34 47 37 48 51 49 70 50 35 51 36 52 50 54 71 55 38 56
REMARK SMILES IDX 22 57 23 58 31 59 24 60 30 61 32 62 29 63 25 64 26 65 27 66
REMARK SMILES IDX 28 67 54 68 55 69 63 70 56 71 62 72 64 73 61 74 57 75 58 76
REMARK SMILES IDX 59 77 60 78 39 79 40 80 48 81 41 82 47 83 49 84 46 85 42 86
REMARK SMILES IDX 43 87 44 88 45 89
REMARK H PARENT 6 6 10 23 69 42 37 53
REMARK Flexibility Score: inf
ROOT
ATOM      1  C   UNL A   1      35.943  21.724  25.120  1.00  0.00     0.042 C 
ENDROOT
BRANCH   1   2
ATOM      2  C   UNL A   1      35.227  23.054  24.949  1.00  0.00     0.117 C 
BRANCH   2   3
ATOM      3  N   UNL A   1      34.878  23.327  23.569  1.00  0.00    -0.355 N 
ATOM      4  C   UNL A   1      33.733  23.114  22.876  1.00  0.00     0.230 C 
ATOM      5  O   UNL A   1      33.773  23.405  21.677  1.00  0.00    -0.274 OA
ATOM      6  H   UNL A   1      35.600  23.740  23.042  1.00  0.00     0.163 HD
BRANCH   4   7
ATOM      7  C   UNL A   1      32.494  22.495  23.508  1.00  0.00     0.150 C 
BRANCH   7   8
ATOM      8  C   UNL A   1      31.183  23.303  23.590  1.00  0.00     0.018 C 
ATOM      9  C   UNL A   1      30.690  23.692  24.978  1.00  0.00     0.005 C 
ENDBRANCH   7   8
BRANCH   7  10
ATOM     10  C   UNL A   1      32.186  21.101  22.957  1.00  0.00     0.175 C 
ATOM     11  O   UNL A   1      31.856  20.937  21.781  1.00  0.00    -0.293 OA
BRANCH  10  12
ATOM     12  C   UNL A   1      32.446  19.889  23.790  1.00  0.00     0.019 A 
ATOM     13  C   UNL A   1      32.530  18.659  23.131  1.00  0.00     0.015 A 
ATOM     14  C   UNL A   1      32.632  19.935  25.173  1.00  0.00     0.015 A 
ATOM     15  C   UNL A   1      32.840  17.500  23.848  1.00  0.00     0.047 A 
ATOM     16  C   UNL A   1      32.938  18.771  25.888  1.00  0.00     0.047 A 
ATOM     17  C   UNL A   1      33.057  17.550  25.227  1.00  0.00     0.118 A 
BRANCH  17  18
ATOM     18  O   UNL A   1      33.371  16.353  25.808  1.00  0.00    -0.497 OA
ATOM     19  C   UNL A   1      32.565  15.239  25.445  1.00  0.00     0.278 C 
ENDBRANCH  17  18
ENDBRANCH  10  12
ENDBRANCH   7  10
ENDBRANCH   4   7
ENDBRANCH   2   3
ENDBRANCH   1   2
BRANCH   1  20
ATOM     20  C   UNL A   1      37.390  21.713  24.642  1.00  0.00     0.118 C 
BRANCH  20  21
ATOM     21  N   UNL A   1      38.167  20.595  25.160  1.00  0.00    -0.352 N 
ATOM     22  C   UNL A   1      39.280  20.595  25.970  1.00  0.00     0.251 C 
ATOM     23  H   UNL A   1      37.847  19.704  24.890  1.00  0.00     0.163 HD
ATOM     24  O   UNL A   1      39.878  19.543  26.181  1.00  0.00    -0.269 OA
BRANCH  22  25
ATOM     25  C   UNL A   1      39.776  21.866  26.541  1.00  0.00     0.039 A 
ATOM     26  C   UNL A   1      40.795  21.836  27.496  1.00  0.00     0.014 A 
ATOM     27  C   UNL A   1      39.268  23.088  26.102  1.00  0.00     0.014 A 
ATOM     28  C   UNL A   1      41.377  23.032  27.926  1.00  0.00     0.010 A 
ATOM     29  C   UNL A   1      39.918  24.268  26.445  1.00  0.00     0.010 A 
ATOM     30  C   UNL A   1      40.985  24.255  27.358  1.00  0.00    -0.014 A 
BRANCH  30  31
ATOM     31  C   UNL A   1      41.658  25.540  27.695  1.00  0.00     0.031 A 
ATOM     32  C   UNL A   1      40.908  26.590  28.471  1.00  0.00     0.074 A 
ATOM     33  C   UNL A   1      42.888  25.807  27.212  1.00  0.00     0.049 A 
ATOM     34  N   UNL A   1      41.224  27.838  28.701  1.00  0.00    -0.248 NA
ATOM     35  C   UNL A   1      39.603  26.190  29.018  1.00  0.00     0.031 C 
ATOM     36  C   UNL A   1      43.704  24.893  26.408  1.00  0.00     0.029 A 
ATOM     37  N   UNL A   1      43.664  26.936  27.311  1.00  0.00    -0.354 N 
ATOM     38  C   UNL A   1      40.139  28.383  29.382  1.00  0.00     0.074 A 
ATOM     39  C   UNL A   1      39.136  27.343  29.471  1.00  0.00     0.031 C 
ATOM     40  C   UNL A   1      44.869  25.489  26.107  1.00  0.00     0.029 A 
ATOM     41  C   UNL A   1      44.866  26.844  26.647  1.00  0.00     0.049 A 
ATOM     42  H   UNL A   1      43.385  27.738  27.811  1.00  0.00     0.167 HD
ATOM     43  C   UNL A   1      40.000  29.627  29.904  1.00  0.00     0.034 A 
ATOM     44  C   UNL A   1      45.846  27.754  26.477  1.00  0.00     0.034 A 
ATOM     45  C   UNL A   1      41.028  30.637  29.845  1.00  0.00     0.049 A 
ATOM     46  C   UNL A   1      45.680  29.125  27.080  1.00  0.00     0.074 A 
ATOM     47  C   UNL A   1      41.023  31.907  30.394  1.00  0.00     0.029 A 
ATOM     48  N   UNL A   1      42.249  30.489  29.200  1.00  0.00    -0.354 N 
ATOM     49  N   UNL A   1      44.660  29.615  27.746  1.00  0.00    -0.248 NA
ATOM     50  C   UNL A   1      46.799  30.062  26.914  1.00  0.00     0.031 C 
ATOM     51  C   UNL A   1      42.219  32.543  30.041  1.00  0.00     0.029 A 
ATOM     52  C   UNL A   1      42.997  31.648  29.325  1.00  0.00     0.049 A 
ATOM     53  H   UNL A   1      42.540  29.678  28.724  1.00  0.00     0.167 HD
ATOM     54  C   UNL A   1      45.030  30.908  28.105  1.00  0.00     0.074 A 
ATOM     55  C   UNL A   1      46.367  31.118  27.589  1.00  0.00     0.031 C 
ATOM     56  C   UNL A   1      44.329  31.837  28.804  1.00  0.00     0.034 A 
BRANCH  43  57
ATOM     57  C   UNL A   1      38.684  29.957  30.566  1.00  0.00     0.023 A 
ATOM     58  C   UNL A   1      37.658  30.624  29.874  1.00  0.00     0.031 A 
ATOM     59  C   UNL A   1      38.468  29.646  31.920  1.00  0.00     0.131 A 
ATOM     60  C   UNL A   1      36.507  31.043  30.558  1.00  0.00     0.055 A 
ATOM     61  C   UNL A   1      37.281  29.986  32.573  1.00  0.00     0.041 A 
ATOM     62  F   UNL A   1      39.416  29.027  32.639  1.00  0.00    -0.206 F 
ATOM     63  C   UNL A   1      36.299  30.706  31.897  1.00  0.00     0.022 A 
BRANCH  60  64
ATOM     64  S   UNL A   1      35.366  32.171  29.715  1.00  0.00     0.124 S 
ATOM     65  O   UNL A   1      36.268  33.244  29.300  1.00  0.00    -0.237 OA
ATOM     66  O   UNL A   1      34.829  31.338  28.646  1.00  0.00    -0.237 OA
ATOM     67  O   UNL A   1      34.412  32.539  30.760  1.00  0.00    -0.744 OA
ENDBRANCH  60  64
ENDBRANCH  43  57
BRANCH  44  68
ATOM     68  C   UNL A   1      47.069  27.411  25.696  1.00  0.00     0.023 A 
ATOM     69  C   UNL A   1      47.185  27.780  24.346  1.00  0.00     0.031 A 
ATOM     70  C   UNL A   1      48.121  26.681  26.274  1.00  0.00     0.131 A 
ATOM     71  C   UNL A   1      48.308  27.379  23.606  1.00  0.00     0.055 A 
ATOM     72  C   UNL A   1      49.257  26.324  25.545  1.00  0.00     0.041 A 
ATOM     73  F   UNL A   1      48.064  26.313  27.564  1.00  0.00    -0.206 F 
ATOM     74  C   UNL A   1      49.350  26.663  24.199  1.00  0.00     0.022 A 
BRANCH  71  75
ATOM     75  S   UNL A   1      48.351  27.743  21.830  1.00  0.00     0.124 S 
ATOM     76  O   UNL A   1      48.583  26.421  21.260  1.00  0.00    -0.237 OA
ATOM     77  O   UNL A   1      47.026  28.314  21.606  1.00  0.00    -0.237 OA
ATOM     78  O   UNL A   1      49.461  28.683  21.701  1.00  0.00    -0.744 OA
ENDBRANCH  71  75
ENDBRANCH  44  68
BRANCH  56  79
ATOM     79  C   UNL A   1      45.027  33.141  29.097  1.00  0.00     0.023 A 
ATOM     80  C   UNL A   1      45.017  34.208  28.183  1.00  0.00     0.031 A 
ATOM     81  C   UNL A   1      45.709  33.312  30.314  1.00  0.00     0.131 A 
ATOM     82  C   UNL A   1      45.717  35.386  28.482  1.00  0.00     0.055 A 
ATOM     83  C   UNL A   1      46.361  34.505  30.628  1.00  0.00     0.041 A 
ATOM     84  F   UNL A   1      45.747  32.322  31.220  1.00  0.00    -0.206 F 
ATOM     85  C   UNL A   1      46.376  35.547  29.705  1.00  0.00     0.022 A 
BRANCH  82  86
ATOM     86  S   UNL A   1      45.811  36.688  27.223  1.00  0.00     0.124 S 
ATOM     87  O   UNL A   1      44.445  37.202  27.215  1.00  0.00    -0.237 OA
ATOM     88  O   UNL A   1      46.825  37.582  27.772  1.00  0.00    -0.237 OA
ATOM     89  O   UNL A   1      46.210  35.969  26.014  1.00  0.00    -0.744 OA
ENDBRANCH  82  86
ENDBRANCH  56  79
ENDBRANCH  30  31
ENDBRANCH  22  25
ENDBRANCH  20  21
ENDBRANCH   1  20
TORSDOF 17
ENDMDL
MODEL 2
REMARK VINA RESULT:     -11.4      1.586      7.809
REMARK SMILES CC[C@H](C(=O)NCCCNC(=O)c1ccc(-c2c3nc(c(-c4cc(S(=O)(=O)[O-])ccc4F)c4ccc([nH]4)c(-c4cc(S(=O)(=O)[O-])ccc4F)c4nc(c(-c5cc(S(=O)(=O)[O-])ccc5F)c5ccc2[nH]5)C=C4)C=C3)cc1)C(=O)c1ccc(OC)cc1
REMARK SMILES IDX 8 1 7 2 6 3 4 4 5 5 3 7 2 8 1 9 76 10 77 11 78 12 79 13
REMARK SMILES IDX 85 14 80 15 84 16 81 17 82 18 83 19 9 20 10 21 11 22 12 24
REMARK SMILES IDX 13 25 14 26 75 27 15 28 74 29 16 30 17 31 18 32 68 33 19 34
REMARK SMILES IDX 73 35 67 36 69 37 20 38 72 39 66 40 65 41 21 43 53 44 33 45
REMARK SMILES IDX 52 46 34 47 37 48 51 49 70 50 35 51 36 52 50 54 71 55 38 56
REMARK SMILES IDX 22 57 23 58 31 59 24 60 30 61 32 62 29 63 25 64 26 65 27 66
REMARK SMILES IDX 28 67 54 68 55 69 63 70 56 71 62 72 64 73 61 74 57 75 58 76
REMARK SMILES IDX 59 77 60 78 39 79 40 80 48 81 41 82 47 83 49 84 46 85 42 86
REMARK SMILES IDX 43 87 44 88 45 89
REMARK H PARENT 6 6 10 23 69 42 37 53
REMARK Flexibility Score: inf
ROOT
ATOM      1  C   UNL A   1      35.863  21.369  24.866  1.00  0.00     0.042 C 
ENDROOT
BRANCH   1   2
ATOM      2  C   UNL A   1      35.048  22.650  24.930  1.00  0.00     0.117 C 
BRANCH   2   3
ATOM      3  N   UNL A   1      34.733  23.179  23.618  1.00  0.00    -0.355 N 
ATOM      4  C   UNL A   1      33.597  23.124  22.880  1.00  0.00     0.230 C 
ATOM      5  O   UNL A   1      33.668  23.627  21.754  1.00  0.00    -0.274 OA
ATOM      6  H   UNL A   1      35.474  23.661  23.186  1.00  0.00     0.163 HD
BRANCH   4   7
ATOM      7  C   UNL A   1      32.333  22.433  23.369  1.00  0.00     0.150 C 
BRANCH   7   8
ATOM      8  C   UNL A   1      30.995  23.202  23.404  1.00  0.00     0.018 C 
ATOM      9  C   UNL A   1      31.067  24.716  23.553  1.00  0.00     0.005 C 
ENDBRANCH   7   8
BRANCH   7  10
ATOM     10  C   UNL A   1      32.108  21.075  22.702  1.00  0.00     0.175 C 
ATOM     11  O   UNL A   1      31.826  20.988  21.505  1.00  0.00    -0.293 OA
BRANCH  10  12
ATOM     12  C   UNL A   1      32.396  19.814  23.449  1.00  0.00     0.019 A 
ATOM     13  C   UNL A   1      32.503  18.634  22.706  1.00  0.00     0.015 A 
ATOM     14  C   UNL A   1      32.586  19.767  24.831  1.00  0.00     0.015 A 
ATOM     15  C   UNL A   1      32.839  17.434  23.340  1.00  0.00     0.047 A 
ATOM     16  C   UNL A   1      32.919  18.564  25.464  1.00  0.00     0.047 A 
ATOM     17  C   UNL A   1      33.060  17.394  24.719  1.00  0.00     0.118 A 
BRANCH  17  18
ATOM     18  O   UNL A   1      33.400  16.167  25.216  1.00  0.00    -0.497 OA
ATOM     19  C   UNL A   1      34.790  15.870  25.281  1.00  0.00     0.278 C 
ENDBRANCH  17  18
ENDBRANCH  10  12
ENDBRANCH   7  10
ENDBRANCH   4   7
ENDBRANCH   2   3
ENDBRANCH   1   2
BRANCH   1  20
ATOM     20  C   UNL A   1      37.351  21.573  24.609  1.00  0.00     0.118 C 
BRANCH  20  21
ATOM     21  N   UNL A   1      38.190  20.529  25.182  1.00  0.00    -0.352 N 
ATOM     22  C   UNL A   1      39.290  20.633  26.004  1.00  0.00     0.251 C 
ATOM     23  H   UNL A   1      37.931  19.609  24.947  1.00  0.00     0.163 HD
ATOM     24  O   UNL A   1      39.951  19.631  26.265  1.00  0.00    -0.269 OA
BRANCH  22  25
ATOM     25  C   UNL A   1      39.697  21.956  26.525  1.00  0.00     0.039 A 
ATOM     26  C   UNL A   1      40.774  22.041  27.411  1.00  0.00     0.014 A 
ATOM     27  C   UNL A   1      39.046  23.116  26.106  1.00  0.00     0.014 A 
ATOM     28  C   UNL A   1      41.264  23.295  27.786  1.00  0.00     0.010 A 
ATOM     29  C   UNL A   1      39.600  24.358  26.392  1.00  0.00     0.010 A 
ATOM     30  C   UNL A   1      40.721  24.465  27.231  1.00  0.00    -0.014 A 
BRANCH  30  31
ATOM     31  C   UNL A   1      41.287  25.814  27.507  1.00  0.00     0.031 A 
ATOM     32  C   UNL A   1      42.691  26.135  27.069  1.00  0.00     0.074 A 
ATOM     33  C   UNL A   1      40.589  26.703  28.242  1.00  0.00     0.049 A 
ATOM     34  N   UNL A   1      43.444  27.160  27.374  1.00  0.00    -0.248 NA
ATOM     35  C   UNL A   1      43.352  25.137  26.214  1.00  0.00     0.031 C 
ATOM     36  C   UNL A   1      39.236  26.499  28.766  1.00  0.00     0.029 A 
ATOM     37  N   UNL A   1      40.929  27.954  28.694  1.00  0.00    -0.354 N 
ATOM     38  C   UNL A   1      44.679  26.911  26.782  1.00  0.00     0.074 A 
ATOM     39  C   UNL A   1      44.587  25.609  26.156  1.00  0.00     0.031 C 
ATOM     40  C   UNL A   1      38.855  27.592  29.447  1.00  0.00     0.029 A 
ATOM     41  C   UNL A   1      39.952  28.554  29.457  1.00  0.00     0.049 A 
ATOM     42  H   UNL A   1      41.792  28.383  28.492  1.00  0.00     0.167 HD
ATOM     43  C   UNL A   1      45.779  27.703  26.746  1.00  0.00     0.034 A 
ATOM     44  C   UNL A   1      39.947  29.736  30.106  1.00  0.00     0.034 A 
ATOM     45  C   UNL A   1      45.838  29.016  27.338  1.00  0.00     0.049 A 
ATOM     46  C   UNL A   1      41.174  30.609  30.038  1.00  0.00     0.074 A 
ATOM     47  C   UNL A   1      46.875  29.932  27.308  1.00  0.00     0.029 A 
ATOM     48  N   UNL A   1      44.812  29.604  28.066  1.00  0.00    -0.354 N 
ATOM     49  N   UNL A   1      42.324  30.371  29.451  1.00  0.00    -0.248 NA
ATOM     50  C   UNL A   1      41.100  31.910  30.715  1.00  0.00     0.031 C 
ATOM     51  C   UNL A   1      46.495  31.052  28.056  1.00  0.00     0.029 A 
ATOM     52  C   UNL A   1      45.196  30.862  28.501  1.00  0.00     0.049 A 
ATOM     53  H   UNL A   1      43.938  29.188  28.246  1.00  0.00     0.167 HD
ATOM     54  C   UNL A   1      43.098  31.508  29.661  1.00  0.00     0.074 A 
ATOM     55  C   UNL A   1      42.282  32.433  30.423  1.00  0.00     0.031 C 
ATOM     56  C   UNL A   1      44.367  31.769  29.258  1.00  0.00     0.034 A 
BRANCH  43  57
ATOM     57  C   UNL A   1      47.005  27.153  26.055  1.00  0.00     0.023 A 
ATOM     58  C   UNL A   1      47.966  26.400  26.751  1.00  0.00     0.031 A 
ATOM     59  C   UNL A   1      47.242  27.428  24.697  1.00  0.00     0.131 A 
ATOM     60  C   UNL A   1      49.160  26.029  26.116  1.00  0.00     0.055 A 
ATOM     61  C   UNL A   1      48.392  26.977  24.045  1.00  0.00     0.041 A 
ATOM     62  F   UNL A   1      46.371  28.158  23.985  1.00  0.00    -0.206 F 
ATOM     63  C   UNL A   1      49.370  26.289  24.760  1.00  0.00     0.022 A 
BRANCH  60  64
ATOM     64  S   UNL A   1      50.500  25.346  27.129  1.00  0.00     0.124 S 
ATOM     65  O   UNL A   1      50.847  26.492  27.967  1.00  0.00    -0.237 OA
ATOM     66  O   UNL A   1      49.847  24.233  27.808  1.00  0.00    -0.237 OA
ATOM     67  O   UNL A   1      51.516  24.970  26.148  1.00  0.00    -0.744 OA
ENDBRANCH  60  64
ENDBRANCH  43  57
BRANCH  44  68
ATOM     68  C   UNL A   1      38.752  30.165  30.885  1.00  0.00     0.023 A 
ATOM     69  C   UNL A   1      37.722  30.899  30.274  1.00  0.00     0.031 A 
ATOM     70  C   UNL A   1      38.637  29.882  32.257  1.00  0.00     0.131 A 
ATOM     71  C   UNL A   1      36.644  31.363  31.043  1.00  0.00     0.055 A 
ATOM     72  C   UNL A   1      37.539  30.307  33.007  1.00  0.00     0.041 A 
ATOM     73  F   UNL A   1      39.589  29.175  32.887  1.00  0.00    -0.206 F 
ATOM     74  C   UNL A   1      36.539  31.063  32.403  1.00  0.00     0.022 A 
BRANCH  71  75
ATOM     75  S   UNL A   1      35.413  32.435  30.251  1.00  0.00     0.124 S 
ATOM     76  O   UNL A   1      36.186  33.647  30.006  1.00  0.00    -0.237 OA
ATOM     77  O   UNL A   1      35.049  31.656  29.071  1.00  0.00    -0.237 OA
ATOM     78  O   UNL A   1      34.365  32.555  31.262  1.00  0.00    -0.744 OA
ENDBRANCH  71  75
ENDBRANCH  44  68
BRANCH  56  79
ATOM     79  C   UNL A   1      44.923  33.131  29.585  1.00  0.00     0.023 A 
ATOM     80  C   UNL A   1      44.698  34.242  28.755  1.00  0.00     0.031 A 
ATOM     81  C   UNL A   1      45.688  33.314  30.751  1.00  0.00     0.131 A 
ATOM     82  C   UNL A   1      45.272  35.480  29.079  1.00  0.00     0.055 A 
ATOM     83  C   UNL A   1      46.214  34.560  31.094  1.00  0.00     0.041 A 
ATOM     84  F   UNL A   1      45.931  32.284  31.577  1.00  0.00    -0.206 F 
ATOM     85  C   UNL A   1      46.016  35.649  30.251  1.00  0.00     0.022 A 
BRANCH  82  86
ATOM     86  S   UNL A   1      45.089  36.857  27.914  1.00  0.00     0.124 S 
ATOM     87  O   UNL A   1      44.883  36.160  26.648  1.00  0.00    -0.237 OA
ATOM     88  O   UNL A   1      43.930  37.567  28.446  1.00  0.00    -0.237 OA
ATOM     89  O   UNL A   1      46.358  37.574  28.027  1.00  0.00    -0.744 OA
ENDBRANCH  82  86
ENDBRANCH  56  79
ENDBRANCH  30  31
ENDBRANCH  22  25
ENDBRANCH  20  21
ENDBRANCH   1  20
TORSDOF 17
ENDMDL
MODEL 3
REMARK VINA RESULT:     -11.3      5.896      8.888
REMARK SMILES CC[C@H](C(=O)NCCCNC(=O)c1ccc(-c2c3nc(c(-c4cc(S(=O)(=O)[O-])ccc4F)c4ccc([nH]4)c(-c4cc(S(=O)(=O)[O-])ccc4F)c4nc(c(-c5cc(S(=O)(=O)[O-])ccc5F)c5ccc2[nH]5)C=C4)C=C3)cc1)C(=O)c1ccc(OC)cc1
REMARK SMILES IDX 8 1 7 2 6 3 4 4 5 5 3 7 2 8 1 9 76 10 77 11 78 12 79 13
REMARK SMILES IDX 85 14 80 15 84 16 81 17 82 18 83 19 9 20 10 21 11 22 12 24
REMARK SMILES IDX 13 25 14 26 75 27 15 28 74 29 16 30 17 31 18 32 68 33 19 34
REMARK SMILES IDX 73 35 67 36 69 37 20 38 72 39 66 40 65 41 21 43 53 44 33 45
REMARK SMILES IDX 52 46 34 47 37 48 51 49 70 50 35 51 36 52 50 54 71 55 38 56
REMARK SMILES IDX 22 57 23 58 31 59 24 60 30 61 32 62 29 63 25 64 26 65 27 66
REMARK SMILES IDX 28 67 54 68 55 69 63 70 56 71 62 72 64 73 61 74 57 75 58 76
REMARK SMILES IDX 59 77 60 78 39 79 40 80 48 81 41 82 47 83 49 84 46 85 42 86
REMARK SMILES IDX 43 87 44 88 45 89
REMARK H PARENT 6 6 10 23 69 42 37 53
REMARK Flexibility Score: inf
ROOT
ATOM      1  C   UNL A   1      31.607  30.034  25.502  1.00  0.00     0.042 C 
ENDROOT
BRANCH   1   2
ATOM      2  C   UNL A   1      32.075  28.656  25.060  1.00  0.00     0.117 C 
BRANCH   2   3
ATOM      3  N   UNL A   1      31.478  27.588  25.836  1.00  0.00    -0.355 N 
ATOM      4  C   UNL A   1      30.723  26.526  25.463  1.00  0.00     0.230 C 
ATOM      5  O   UNL A   1      30.308  25.817  26.385  1.00  0.00    -0.274 OA
ATOM      6  H   UNL A   1      31.652  27.643  26.803  1.00  0.00     0.163 HD
BRANCH   4   7
ATOM      7  C   UNL A   1      30.349  26.252  24.014  1.00  0.00     0.150 C 
BRANCH   7   8
ATOM      8  C   UNL A   1      30.486  24.828  23.435  1.00  0.00     0.018 C 
ATOM      9  C   UNL A   1      31.884  24.368  23.044  1.00  0.00     0.005 C 
ENDBRANCH   7   8
BRANCH   7  10
ATOM     10  C   UNL A   1      28.971  26.807  23.646  1.00  0.00     0.175 C 
ATOM     11  O   UNL A   1      27.939  26.193  23.925  1.00  0.00    -0.293 OA
BRANCH  10  12
ATOM     12  C   UNL A   1      28.839  28.189  23.095  1.00  0.00     0.019 A 
ATOM     13  C   UNL A   1      27.605  28.829  23.244  1.00  0.00     0.015 A 
ATOM     14  C   UNL A   1      29.888  28.868  22.471  1.00  0.00     0.015 A 
ATOM     15  C   UNL A   1      27.442  30.147  22.810  1.00  0.00     0.047 A 
ATOM     16  C   UNL A   1      29.720  30.187  22.034  1.00  0.00     0.047 A 
ATOM     17  C   UNL A   1      28.500  30.837  22.213  1.00  0.00     0.118 A 
BRANCH  17  18
ATOM     18  O   UNL A   1      28.220  32.126  21.850  1.00  0.00    -0.497 OA
ATOM     19  C   UNL A   1      28.810  33.151  22.640  1.00  0.00     0.278 C 
ENDBRANCH  17  18
ENDBRANCH  10  12
ENDBRANCH   7  10
ENDBRANCH   4   7
ENDBRANCH   2   3
ENDBRANCH   1   2
BRANCH   1  20
ATOM     20  C   UNL A   1      32.200  30.515  26.820  1.00  0.00     0.118 C 
BRANCH  20  21
ATOM     21  N   UNL A   1      32.315  31.965  26.912  1.00  0.00    -0.352 N 
ATOM     22  C   UNL A   1      33.318  32.737  27.455  1.00  0.00     0.251 C 
ATOM     23  H   UNL A   1      31.561  32.468  26.529  1.00  0.00     0.163 HD
ATOM     24  O   UNL A   1      33.159  33.950  27.563  1.00  0.00    -0.269 OA
BRANCH  22  25
ATOM     25  C   UNL A   1      34.557  32.096  27.946  1.00  0.00     0.039 A 
ATOM     26  C   UNL A   1      35.707  32.871  28.117  1.00  0.00     0.014 A 
ATOM     27  C   UNL A   1      34.572  30.743  28.283  1.00  0.00     0.014 A 
ATOM     28  C   UNL A   1      36.834  32.312  28.726  1.00  0.00     0.010 A 
ATOM     29  C   UNL A   1      35.650  30.220  28.986  1.00  0.00     0.010 A 
ATOM     30  C   UNL A   1      36.794  30.999  29.222  1.00  0.00    -0.014 A 
BRANCH  30  31
ATOM     31  C   UNL A   1      37.926  30.402  29.984  1.00  0.00     0.031 A 
ATOM     32  C   UNL A   1      38.173  30.831  31.406  1.00  0.00     0.074 A 
ATOM     33  C   UNL A   1      38.789  29.568  29.371  1.00  0.00     0.049 A 
ATOM     34  N   UNL A   1      39.200  30.594  32.180  1.00  0.00    -0.248 NA
ATOM     35  C   UNL A   1      37.144  31.686  32.018  1.00  0.00     0.031 C 
ATOM     36  C   UNL A   1      38.689  29.109  27.983  1.00  0.00     0.029 A 
ATOM     37  N   UNL A   1      39.937  28.971  29.830  1.00  0.00    -0.354 N 
ATOM     38  C   UNL A   1      38.961  31.303  33.354  1.00  0.00     0.074 A 
ATOM     39  C   UNL A   1      37.721  32.026  33.160  1.00  0.00     0.031 C 
ATOM     40  C   UNL A   1      39.718  28.289  27.713  1.00  0.00     0.029 A 
ATOM     41  C   UNL A   1      40.580  28.203  28.886  1.00  0.00     0.049 A 
ATOM     42  H   UNL A   1      40.270  29.082  30.750  1.00  0.00     0.167 HD
ATOM     43  C   UNL A   1      39.694  31.333  34.494  1.00  0.00     0.034 A 
ATOM     44  C   UNL A   1      41.742  27.522  28.951  1.00  0.00     0.034 A 
ATOM     45  C   UNL A   1      40.904  30.571  34.685  1.00  0.00     0.049 A 
ATOM     46  C   UNL A   1      42.534  27.554  30.234  1.00  0.00     0.074 A 
ATOM     47  C   UNL A   1      41.692  30.473  35.818  1.00  0.00     0.029 A 
ATOM     48  N   UNL A   1      41.499  29.772  33.718  1.00  0.00    -0.354 N 
ATOM     49  N   UNL A   1      42.279  28.206  31.344  1.00  0.00    -0.248 NA
ATOM     50  C   UNL A   1      43.764  26.752  30.274  1.00  0.00     0.031 C 
ATOM     51  C   UNL A   1      42.788  29.654  35.522  1.00  0.00     0.029 A 
ATOM     52  C   UNL A   1      42.650  29.190  34.223  1.00  0.00     0.049 A 
ATOM     53  H   UNL A   1      41.152  29.638  32.806  1.00  0.00     0.167 HD
ATOM     54  C   UNL A   1      43.302  27.868  32.225  1.00  0.00     0.074 A 
ATOM     55  C   UNL A   1      44.172  26.948  31.519  1.00  0.00     0.031 C 
ATOM     56  C   UNL A   1      43.503  28.275  33.504  1.00  0.00     0.034 A 
BRANCH  43  57
ATOM     57  C   UNL A   1      39.208  32.230  35.607  1.00  0.00     0.023 A 
ATOM     58  C   UNL A   1      39.593  33.580  35.686  1.00  0.00     0.031 A 
ATOM     59  C   UNL A   1      38.390  31.719  36.629  1.00  0.00     0.131 A 
ATOM     60  C   UNL A   1      39.241  34.345  36.808  1.00  0.00     0.055 A 
ATOM     61  C   UNL A   1      37.967  32.512  37.699  1.00  0.00     0.041 A 
ATOM     62  F   UNL A   1      38.004  30.434  36.619  1.00  0.00    -0.206 F 
ATOM     63  C   UNL A   1      38.409  33.829  37.803  1.00  0.00     0.022 A 
BRANCH  60  64
ATOM     64  S   UNL A   1      40.021  35.967  37.024  1.00  0.00     0.124 S 
ATOM     65  O   UNL A   1      41.410  35.593  37.282  1.00  0.00    -0.237 OA
ATOM     66  O   UNL A   1      39.761  36.616  35.744  1.00  0.00    -0.237 OA
ATOM     67  O   UNL A   1      39.315  36.539  38.169  1.00  0.00    -0.744 OA
ENDBRANCH  60  64
ENDBRANCH  43  57
BRANCH  44  68
ATOM     68  C   UNL A   1      42.240  26.761  27.771  1.00  0.00     0.023 A 
ATOM     69  C   UNL A   1      42.141  25.361  27.725  1.00  0.00     0.031 A 
ATOM     70  C   UNL A   1      42.854  27.415  26.689  1.00  0.00     0.131 A 
ATOM     71  C   UNL A   1      42.687  24.656  26.643  1.00  0.00     0.055 A 
ATOM     72  C   UNL A   1      43.355  26.711  25.592  1.00  0.00     0.041 A 
ATOM     73  F   UNL A   1      42.965  28.753  26.678  1.00  0.00    -0.206 F 
ATOM     74  C   UNL A   1      43.284  25.322  25.570  1.00  0.00     0.022 A 
BRANCH  71  75
ATOM     75  S   UNL A   1      42.674  22.843  26.693  1.00  0.00     0.124 S 
ATOM     76  O   UNL A   1      44.086  22.540  26.898  1.00  0.00    -0.237 OA
ATOM     77  O   UNL A   1      41.790  22.578  27.824  1.00  0.00    -0.237 OA
ATOM     78  O   UNL A   1      42.138  22.469  25.386  1.00  0.00    -0.744 OA
ENDBRANCH  71  75
ENDBRANCH  44  68
BRANCH  56  79
ATOM     79  C   UNL A   1      44.678  27.679  34.235  1.00  0.00     0.023 A 
ATOM     80  C   UNL A   1      44.559  26.503  34.994  1.00  0.00     0.031 A 
ATOM     81  C   UNL A   1      45.937  28.302  34.163  1.00  0.00     0.131 A 
ATOM     82  C   UNL A   1      45.672  26.010  35.692  1.00  0.00     0.055 A 
ATOM     83  C   UNL A   1      47.052  27.778  34.819  1.00  0.00     0.041 A 
ATOM     84  F   UNL A   1      46.102  29.428  33.451  1.00  0.00    -0.206 F 
ATOM     85  C   UNL A   1      46.920  26.632  35.597  1.00  0.00     0.022 A 
BRANCH  82  86
ATOM     86  S   UNL A   1      45.453  24.577  36.782  1.00  0.00     0.124 S 
ATOM     87  O   UNL A   1      45.029  23.543  35.843  1.00  0.00    -0.237 OA
ATOM     88  O   UNL A   1      46.785  24.411  37.353  1.00  0.00    -0.237 OA
ATOM     89  O   UNL A   1      44.426  25.017  37.725  1.00  0.00    -0.744 OA
ENDBRANCH  82  86
ENDBRANCH  56  79
ENDBRANCH  30  31
ENDBRANCH  22  25
ENDBRANCH  20  21
ENDBRANCH   1  20
TORSDOF 17
ENDMDL
