MODEL 1
REMARK VINA RESULT:     -11.8      0.000      0.000
REMARK SMILES CC(=O)N[C@@H](C)C(=O)N1CCC[C@H]1C(=O)NCCCNC(=O)c1ccc(-c2c3nc(c(-c4cc(S(=O)(=O)[O-])ccc4F)c4ccc([nH]4)c(-c4cc(S(=O)(=O)[O-])ccc4F)c4nc(c(-c5cc(S(=O)(=O)[O-])ccc5F)c5ccc2[nH]5)C=C4)C=C3)cc1
REMARK SMILES IDX 18 1 17 2 16 3 14 4 15 5 13 7 9 8 10 9 11 10 12 11 7 12 8 13
REMARK SMILES IDX 5 14 6 15 4 16 1 17 2 18 3 19 19 21 20 22 21 23 22 25 23 26
REMARK SMILES IDX 24 27 85 28 25 29 84 30 26 31 27 32 28 33 78 34 29 35 83 36
REMARK SMILES IDX 77 37 79 38 30 39 82 40 76 41 75 42 31 44 63 45 43 46 62 47
REMARK SMILES IDX 44 48 47 49 61 50 80 51 45 52 46 53 60 55 81 56 48 57 32 58
REMARK SMILES IDX 33 59 41 60 34 61 40 62 42 63 39 64 35 65 36 66 37 67 38 68
REMARK SMILES IDX 64 69 65 70 73 71 66 72 72 73 74 74 71 75 67 76 68 77 69 78
REMARK SMILES IDX 70 79 49 80 50 81 58 82 51 83 57 84 59 85 56 86 52 87 53 88
REMARK SMILES IDX 54 89 55 90
REMARK H PARENT 16 6 4 20 20 24 79 43 47 54
REMARK Flexibility Score: inf
ROOT
ATOM      1  C   UNL A   1      38.213  19.896  25.007  1.00  0.00     0.042 C 
ENDROOT
BRANCH   1   2
ATOM      2  C   UNL A   1      37.251  21.032  24.697  1.00  0.00     0.117 C 
BRANCH   2   3
ATOM      3  N   UNL A   1      36.253  21.208  25.730  1.00  0.00    -0.354 N 
ATOM      4  C   UNL A   1      34.894  21.270  25.632  1.00  0.00     0.242 C 
ATOM      5  O   UNL A   1      34.259  21.222  26.692  1.00  0.00    -0.273 OA
ATOM      6  H   UNL A   1      36.610  21.295  26.643  1.00  0.00     0.163 HD
BRANCH   4   7
ATOM      7  C   UNL A   1      34.160  21.141  24.280  1.00  0.00     0.174 C 
ATOM      8  N   UNL A   1      32.790  20.606  24.246  1.00  0.00    -0.329 N 
ATOM      9  C   UNL A   1      31.891  21.500  23.533  1.00  0.00     0.120 C 
ATOM     10  C   UNL A   1      32.798  22.461  22.785  1.00  0.00     0.024 C 
ATOM     11  C   UNL A   1      34.061  22.525  23.627  1.00  0.00     0.037 C 
BRANCH   8  12
ATOM     12  C   UNL A   1      32.592  19.287  24.609  1.00  0.00     0.245 C 
ATOM     13  O   UNL A   1      32.212  19.017  25.755  1.00  0.00    -0.272 OA
BRANCH  12  14
ATOM     14  C   UNL A   1      33.026  18.122  23.685  1.00  0.00     0.168 C 
ATOM     15  C   UNL A   1      32.445  18.345  22.289  1.00  0.00     0.041 C 
BRANCH  14  16
ATOM     16  N   UNL A   1      32.726  16.779  24.170  1.00  0.00    -0.345 N 
ATOM     17  C   UNL A   1      34.994  16.284  25.022  1.00  0.00     0.114 C 
ATOM     18  C   UNL A   1      33.564  15.890  24.771  1.00  0.00     0.217 C 
ATOM     19  O   UNL A   1      33.118  14.789  25.085  1.00  0.00    -0.275 OA
ATOM     20  H   UNL A   1      31.797  16.476  24.046  1.00  0.00     0.164 HD
ENDBRANCH  14  16
ENDBRANCH  12  14
ENDBRANCH   8  12
ENDBRANCH   4   7
ENDBRANCH   2   3
ENDBRANCH   1   2
BRANCH   1  21
ATOM     21  C   UNL A   1      39.336  20.314  25.950  1.00  0.00     0.118 C 
BRANCH  21  22
ATOM     22  N   UNL A   1      40.382  19.301  26.039  1.00  0.00    -0.352 N 
ATOM     23  C   UNL A   1      41.744  19.443  26.105  1.00  0.00     0.251 C 
ATOM     24  H   UNL A   1      40.060  18.370  26.054  1.00  0.00     0.163 HD
ATOM     25  O   UNL A   1      42.459  18.454  25.927  1.00  0.00    -0.269 OA
BRANCH  23  26
ATOM     26  C   UNL A   1      42.347  20.763  26.375  1.00  0.00     0.039 A 
ATOM     27  C   UNL A   1      42.664  21.598  25.301  1.00  0.00     0.014 A 
ATOM     28  C   UNL A   1      42.620  21.171  27.684  1.00  0.00     0.014 A 
ATOM     29  C   UNL A   1      43.194  22.867  25.546  1.00  0.00     0.010 A 
ATOM     30  C   UNL A   1      43.062  22.466  27.929  1.00  0.00     0.010 A 
ATOM     31  C   UNL A   1      43.359  23.327  26.862  1.00  0.00    -0.014 A 
BRANCH  31  32
ATOM     32  C   UNL A   1      43.843  24.704  27.143  1.00  0.00     0.031 A 
ATOM     33  C   UNL A   1      42.900  25.736  27.699  1.00  0.00     0.074 A 
ATOM     34  C   UNL A   1      45.113  25.034  26.839  1.00  0.00     0.049 A 
ATOM     35  N   UNL A   1      43.113  27.003  27.947  1.00  0.00    -0.248 NA
ATOM     36  C   UNL A   1      41.526  25.293  27.983  1.00  0.00     0.031 C 
ATOM     37  C   UNL A   1      46.104  24.127  26.254  1.00  0.00     0.029 A 
ATOM     38  N   UNL A   1      45.791  26.220  26.973  1.00  0.00    -0.354 N 
ATOM     39  C   UNL A   1      41.902  27.510  28.405  1.00  0.00     0.074 A 
ATOM     40  C   UNL A   1      40.942  26.429  28.334  1.00  0.00     0.031 C 
ATOM     41  C   UNL A   1      47.269  24.779  26.112  1.00  0.00     0.029 A 
ATOM     42  C   UNL A   1      47.097  26.163  26.543  1.00  0.00     0.049 A 
ATOM     43  H   UNL A   1      45.380  27.035  27.341  1.00  0.00     0.167 HD
ATOM     44  C   UNL A   1      41.622  28.754  28.866  1.00  0.00     0.034 A 
ATOM     45  C   UNL A   1      48.044  27.120  26.489  1.00  0.00     0.034 A 
ATOM     46  C   UNL A   1      42.596  29.816  28.936  1.00  0.00     0.049 A 
ATOM     47  C   UNL A   1      47.701  28.505  26.979  1.00  0.00     0.074 A 
ATOM     48  C   UNL A   1      42.440  31.098  29.433  1.00  0.00     0.029 A 
ATOM     49  N   UNL A   1      43.908  29.724  28.487  1.00  0.00    -0.354 N 
ATOM     50  N   UNL A   1      46.564  28.953  27.461  1.00  0.00    -0.248 NA
ATOM     51  C   UNL A   1      48.772  29.508  26.929  1.00  0.00     0.031 C 
ATOM     52  C   UNL A   1      43.628  31.802  29.214  1.00  0.00     0.029 A 
ATOM     53  C   UNL A   1      44.559  30.936  28.662  1.00  0.00     0.049 A 
ATOM     54  H   UNL A   1      44.317  28.916  28.099  1.00  0.00     0.167 HD
ATOM     55  C   UNL A   1      46.796  30.283  27.802  1.00  0.00     0.074 A 
ATOM     56  C   UNL A   1      48.183  30.554  27.487  1.00  0.00     0.031 C 
ATOM     57  C   UNL A   1      45.942  31.196  28.331  1.00  0.00     0.034 A 
BRANCH  44  58
ATOM     58  C   UNL A   1      40.202  29.034  29.302  1.00  0.00     0.023 A 
ATOM     59  C   UNL A   1      39.822  28.987  30.656  1.00  0.00     0.031 A 
ATOM     60  C   UNL A   1      39.208  29.331  28.353  1.00  0.00     0.131 A 
ATOM     61  C   UNL A   1      38.474  29.154  31.012  1.00  0.00     0.055 A 
ATOM     62  C   UNL A   1      37.886  29.582  28.723  1.00  0.00     0.041 A 
ATOM     63  F   UNL A   1      39.503  29.369  27.044  1.00  0.00    -0.206 F 
ATOM     64  C   UNL A   1      37.508  29.478  30.059  1.00  0.00     0.022 A 
BRANCH  61  65
ATOM     65  S   UNL A   1      37.979  28.790  32.719  1.00  0.00     0.124 S 
ATOM     66  O   UNL A   1      36.621  29.330  32.754  1.00  0.00    -0.237 OA
ATOM     67  O   UNL A   1      38.091  27.338  32.778  1.00  0.00    -0.237 OA
ATOM     68  O   UNL A   1      38.953  29.526  33.523  1.00  0.00    -0.744 OA
ENDBRANCH  61  65
ENDBRANCH  44  58
BRANCH  45  69
ATOM     69  C   UNL A   1      49.400  26.814  25.948  1.00  0.00     0.023 A 
ATOM     70  C   UNL A   1      49.840  27.372  24.737  1.00  0.00     0.031 A 
ATOM     71  C   UNL A   1      50.262  25.923  26.613  1.00  0.00     0.131 A 
ATOM     72  C   UNL A   1      51.081  26.995  24.202  1.00  0.00     0.055 A 
ATOM     73  C   UNL A   1      51.522  25.599  26.107  1.00  0.00     0.041 A 
ATOM     74  F   UNL A   1      49.894  25.361  27.776  1.00  0.00    -0.206 F 
ATOM     75  C   UNL A   1      51.932  26.125  24.886  1.00  0.00     0.022 A 
BRANCH  72  76
ATOM     76  S   UNL A   1      51.527  27.585  22.546  1.00  0.00     0.124 S 
ATOM     77  O   UNL A   1      50.875  28.889  22.511  1.00  0.00    -0.237 OA
ATOM     78  O   UNL A   1      52.985  27.598  22.611  1.00  0.00    -0.237 OA
ATOM     79  O   UNL A   1      50.953  26.576  21.659  1.00  0.00    -0.744 OA
ENDBRANCH  72  76
ENDBRANCH  45  69
BRANCH  57  80
ATOM     80  C   UNL A   1      46.505  32.561  28.645  1.00  0.00     0.023 A 
ATOM     81  C   UNL A   1      46.477  33.610  27.709  1.00  0.00     0.031 A 
ATOM     82  C   UNL A   1      47.090  32.812  29.901  1.00  0.00     0.131 A 
ATOM     83  C   UNL A   1      47.078  34.839  28.019  1.00  0.00     0.055 A 
ATOM     84  C   UNL A   1      47.624  34.059  30.227  1.00  0.00     0.041 A 
ATOM     85  F   UNL A   1      47.149  31.848  30.832  1.00  0.00    -0.206 F 
ATOM     86  C   UNL A   1      47.633  35.077  29.278  1.00  0.00     0.022 A 
BRANCH  83  87
ATOM     87  S   UNL A   1      47.217  36.093  26.715  1.00  0.00     0.124 S 
ATOM     88  O   UNL A   1      48.567  36.604  26.927  1.00  0.00    -0.237 OA
ATOM     89  O   UNL A   1      47.014  35.307  25.503  1.00  0.00    -0.237 OA
ATOM     90  O   UNL A   1      46.142  37.034  27.028  1.00  0.00    -0.744 OA
ENDBRANCH  83  87
ENDBRANCH  57  80
ENDBRANCH  31  32
ENDBRANCH  23  26
ENDBRANCH  21  22
ENDBRANCH   1  21
TORSDOF 16
ENDMDL
MODEL 2
REMARK VINA RESULT:     -11.6      6.454     12.142
REMARK SMILES CC(=O)N[C@@H](C)C(=O)N1CCC[C@H]1C(=O)NCCCNC(=O)c1ccc(-c2c3nc(c(-c4cc(S(=O)(=O)[O-])ccc4F)c4ccc([nH]4)c(-c4cc(S(=O)(=O)[O-])ccc4F)c4nc(c(-c5cc(S(=O)(=O)[O-])ccc5F)c5ccc2[nH]5)C=C4)C=C3)cc1
REMARK SMILES IDX 18 1 17 2 16 3 14 4 15 5 13 7 9 8 10 9 11 10 12 11 7 12 8 13
REMARK SMILES IDX 5 14 6 15 4 16 1 17 2 18 3 19 19 21 20 22 21 23 22 25 23 26
REMARK SMILES IDX 24 27 85 28 25 29 84 30 26 31 27 32 28 33 78 34 29 35 83 36
REMARK SMILES IDX 77 37 79 38 30 39 82 40 76 41 75 42 31 44 63 45 43 46 62 47
REMARK SMILES IDX 44 48 47 49 61 50 80 51 45 52 46 53 60 55 81 56 48 57 32 58
REMARK SMILES IDX 33 59 41 60 34 61 40 62 42 63 39 64 35 65 36 66 37 67 38 68
REMARK SMILES IDX 64 69 65 70 73 71 66 72 72 73 74 74 71 75 67 76 68 77 69 78
REMARK SMILES IDX 70 79 49 80 50 81 58 82 51 83 57 84 59 85 56 86 52 87 53 88
REMARK SMILES IDX 54 89 55 90
REMARK H PARENT 16 6 4 20 20 24 79 43 47 54
REMARK Flexibility Score: inf
ROOT
ATOM      1  C   UNL A   1      31.367  32.220  26.491  1.00  0.00     0.042 C 
ENDROOT
BRANCH   1   2
ATOM      2  C   UNL A   1      31.404  30.763  26.054  1.00  0.00     0.117 C 
BRANCH   2   3
ATOM      3  N   UNL A   1      30.759  30.555  24.776  1.00  0.00    -0.354 N 
ATOM      4  C   UNL A   1      31.036  29.650  23.794  1.00  0.00     0.242 C 
ATOM      5  O   UNL A   1      30.203  29.547  22.885  1.00  0.00    -0.273 OA
ATOM      6  H   UNL A   1      30.004  31.158  24.587  1.00  0.00     0.163 HD
BRANCH   4   7
ATOM      7  C   UNL A   1      32.177  28.619  23.922  1.00  0.00     0.174 C 
ATOM      8  N   UNL A   1      31.856  27.185  23.994  1.00  0.00    -0.329 N 
ATOM      9  C   UNL A   1      32.604  26.426  23.003  1.00  0.00     0.120 C 
ATOM     10  C   UNL A   1      33.699  27.364  22.529  1.00  0.00     0.024 C 
ATOM     11  C   UNL A   1      33.116  28.755  22.718  1.00  0.00     0.037 C 
BRANCH   8  12
ATOM     12  C   UNL A   1      31.160  26.723  25.095  1.00  0.00     0.245 C 
ATOM     13  O   UNL A   1      31.519  27.057  26.231  1.00  0.00    -0.272 OA
BRANCH  12  14
ATOM     14  C   UNL A   1      30.066  25.635  24.960  1.00  0.00     0.168 C 
ATOM     15  C   UNL A   1      28.814  26.256  24.342  1.00  0.00     0.041 C 
BRANCH  14  16
ATOM     16  N   UNL A   1      29.742  24.903  26.180  1.00  0.00    -0.345 N 
ATOM     17  C   UNL A   1      31.236  22.980  25.749  1.00  0.00     0.114 C 
ATOM     18  C   UNL A   1      30.220  23.697  26.595  1.00  0.00     0.217 C 
ATOM     19  O   UNL A   1      29.797  23.236  27.652  1.00  0.00    -0.275 OA
ATOM     20  H   UNL A   1      29.093  25.337  26.781  1.00  0.00     0.164 HD
ENDBRANCH  14  16
ENDBRANCH  12  14
ENDBRANCH   8  12
ENDBRANCH   4   7
ENDBRANCH   2   3
ENDBRANCH   1   2
BRANCH   1  21
ATOM     21  C   UNL A   1      32.667  32.673  27.146  1.00  0.00     0.118 C 
BRANCH  21  22
ATOM     22  N   UNL A   1      32.560  34.016  27.706  1.00  0.00    -0.352 N 
ATOM     23  C   UNL A   1      33.206  34.581  28.774  1.00  0.00     0.251 C 
ATOM     24  H   UNL A   1      31.923  34.609  27.243  1.00  0.00     0.163 HD
ATOM     25  O   UNL A   1      32.791  35.649  29.230  1.00  0.00    -0.269 OA
BRANCH  23  26
ATOM     26  C   UNL A   1      34.378  33.916  29.377  1.00  0.00     0.039 A 
ATOM     27  C   UNL A   1      35.659  34.361  29.042  1.00  0.00     0.014 A 
ATOM     28  C   UNL A   1      34.217  32.843  30.258  1.00  0.00     0.014 A 
ATOM     29  C   UNL A   1      36.774  33.770  29.641  1.00  0.00     0.010 A 
ATOM     30  C   UNL A   1      35.321  32.318  30.921  1.00  0.00     0.010 A 
ATOM     31  C   UNL A   1      36.613  32.771  30.615  1.00  0.00    -0.014 A 
BRANCH  31  32
ATOM     32  C   UNL A   1      37.782  32.189  31.324  1.00  0.00     0.031 A 
ATOM     33  C   UNL A   1      38.553  31.055  30.704  1.00  0.00     0.074 A 
ATOM     34  C   UNL A   1      38.107  32.645  32.550  1.00  0.00     0.049 A 
ATOM     35  N   UNL A   1      39.556  30.373  31.192  1.00  0.00    -0.248 NA
ATOM     36  C   UNL A   1      38.117  30.609  29.372  1.00  0.00     0.031 C 
ATOM     37  C   UNL A   1      37.402  33.711  33.268  1.00  0.00     0.029 A 
ATOM     38  N   UNL A   1      39.106  32.271  33.412  1.00  0.00    -0.354 N 
ATOM     39  C   UNL A   1      39.865  29.413  30.236  1.00  0.00     0.074 A 
ATOM     40  C   UNL A   1      38.896  29.557  29.170  1.00  0.00     0.031 C 
ATOM     41  C   UNL A   1      38.012  33.927  34.444  1.00  0.00     0.029 A 
ATOM     42  C   UNL A   1      39.115  32.982  34.590  1.00  0.00     0.049 A 
ATOM     43  H   UNL A   1      39.755  31.561  33.207  1.00  0.00     0.167 HD
ATOM     44  C   UNL A   1      40.876  28.510  30.234  1.00  0.00     0.034 A 
ATOM     45  C   UNL A   1      39.912  32.875  35.672  1.00  0.00     0.034 A 
ATOM     46  C   UNL A   1      41.837  28.387  31.304  1.00  0.00     0.049 A 
ATOM     47  C   UNL A   1      41.012  31.844  35.660  1.00  0.00     0.074 A 
ATOM     48  C   UNL A   1      42.933  27.547  31.386  1.00  0.00     0.029 A 
ATOM     49  N   UNL A   1      41.812  29.120  32.485  1.00  0.00    -0.354 N 
ATOM     50  N   UNL A   1      41.324  30.978  34.722  1.00  0.00    -0.248 NA
ATOM     51  C   UNL A   1      41.874  31.783  36.847  1.00  0.00     0.031 C 
ATOM     52  C   UNL A   1      43.522  27.714  32.643  1.00  0.00     0.029 A 
ATOM     53  C   UNL A   1      42.851  28.724  33.314  1.00  0.00     0.049 A 
ATOM     54  H   UNL A   1      41.152  29.817  32.702  1.00  0.00     0.167 HD
ATOM     55  C   UNL A   1      42.440  30.294  35.195  1.00  0.00     0.074 A 
ATOM     56  C   UNL A   1      42.754  30.860  36.491  1.00  0.00     0.031 C 
ATOM     57  C   UNL A   1      43.144  29.290  34.611  1.00  0.00     0.034 A 
BRANCH  44  58
ATOM     58  C   UNL A   1      40.975  27.572  29.053  1.00  0.00     0.023 A 
ATOM     59  C   UNL A   1      41.952  27.740  28.055  1.00  0.00     0.031 A 
ATOM     60  C   UNL A   1      40.066  26.509  28.907  1.00  0.00     0.131 A 
ATOM     61  C   UNL A   1      41.948  26.911  26.922  1.00  0.00     0.055 A 
ATOM     62  C   UNL A   1      40.123  25.634  27.821  1.00  0.00     0.041 A 
ATOM     63  F   UNL A   1      39.097  26.309  29.814  1.00  0.00    -0.206 F 
ATOM     64  C   UNL A   1      41.058  25.842  26.811  1.00  0.00     0.022 A 
BRANCH  61  65
ATOM     65  S   UNL A   1      43.024  27.345  25.528  1.00  0.00     0.124 S 
ATOM     66  O   UNL A   1      44.170  27.940  26.214  1.00  0.00    -0.237 OA
ATOM     67  O   UNL A   1      43.259  26.053  24.895  1.00  0.00    -0.237 OA
ATOM     68  O   UNL A   1      42.217  28.284  24.751  1.00  0.00    -0.744 OA
ENDBRANCH  61  65
ENDBRANCH  44  58
BRANCH  45  69
ATOM     69  C   UNL A   1      39.702  33.757  36.857  1.00  0.00     0.023 A 
ATOM     70  C   UNL A   1      39.137  33.257  38.041  1.00  0.00     0.031 A 
ATOM     71  C   UNL A   1      40.025  35.126  36.809  1.00  0.00     0.131 A 
ATOM     72  C   UNL A   1      38.863  34.126  39.108  1.00  0.00     0.055 A 
ATOM     73  C   UNL A   1      39.806  35.974  37.897  1.00  0.00     0.041 A 
ATOM     74  F   UNL A   1      40.569  35.658  35.703  1.00  0.00    -0.206 F 
ATOM     75  C   UNL A   1      39.208  35.477  39.050  1.00  0.00     0.022 A 
BRANCH  72  76
ATOM     76  S   UNL A   1      37.957  33.481  40.541  1.00  0.00     0.124 S 
ATOM     77  O   UNL A   1      37.557  34.711  41.216  1.00  0.00    -0.237 OA
ATOM     78  O   UNL A   1      36.887  32.720  39.907  1.00  0.00    -0.237 OA
ATOM     79  O   UNL A   1      38.958  32.681  41.244  1.00  0.00    -0.744 OA
ENDBRANCH  72  76
ENDBRANCH  45  69
BRANCH  57  80
ATOM     80  C   UNL A   1      44.355  28.779  35.355  1.00  0.00     0.023 A 
ATOM     81  C   UNL A   1      44.257  27.766  36.325  1.00  0.00     0.031 A 
ATOM     82  C   UNL A   1      45.626  29.322  35.094  1.00  0.00     0.131 A 
ATOM     83  C   UNL A   1      45.396  27.373  37.043  1.00  0.00     0.055 A 
ATOM     84  C   UNL A   1      46.768  28.878  35.763  1.00  0.00     0.041 A 
ATOM     85  F   UNL A   1      45.780  30.294  34.180  1.00  0.00    -0.206 F 
ATOM     86  C   UNL A   1      46.654  27.908  36.754  1.00  0.00     0.022 A 
BRANCH  83  87
ATOM     87  S   UNL A   1      45.196  26.225  38.434  1.00  0.00     0.124 S 
ATOM     88  O   UNL A   1      46.272  26.641  39.327  1.00  0.00    -0.237 OA
ATOM     89  O   UNL A   1      43.840  26.518  38.887  1.00  0.00    -0.237 OA
ATOM     90  O   UNL A   1      45.373  24.910  37.821  1.00  0.00    -0.744 OA
ENDBRANCH  83  87
ENDBRANCH  57  80
ENDBRANCH  31  32
ENDBRANCH  23  26
ENDBRANCH  21  22
ENDBRANCH   1  21
TORSDOF 16
ENDMDL
MODEL 3
REMARK VINA RESULT:     -11.6      6.838     12.357
REMARK SMILES CC(=O)N[C@@H](C)C(=O)N1CCC[C@H]1C(=O)NCCCNC(=O)c1ccc(-c2c3nc(c(-c4cc(S(=O)(=O)[O-])ccc4F)c4ccc([nH]4)c(-c4cc(S(=O)(=O)[O-])ccc4F)c4nc(c(-c5cc(S(=O)(=O)[O-])ccc5F)c5ccc2[nH]5)C=C4)C=C3)cc1
REMARK SMILES IDX 18 1 17 2 16 3 14 4 15 5 13 7 9 8 10 9 11 10 12 11 7 12 8 13
REMARK SMILES IDX 5 14 6 15 4 16 1 17 2 18 3 19 19 21 20 22 21 23 22 25 23 26
REMARK SMILES IDX 24 27 85 28 25 29 84 30 26 31 27 32 28 33 78 34 29 35 83 36
REMARK SMILES IDX 77 37 79 38 30 39 82 40 76 41 75 42 31 44 63 45 43 46 62 47
REMARK SMILES IDX 44 48 47 49 61 50 80 51 45 52 46 53 60 55 81 56 48 57 32 58
REMARK SMILES IDX 33 59 41 60 34 61 40 62 42 63 39 64 35 65 36 66 37 67 38 68
REMARK SMILES IDX 64 69 65 70 73 71 66 72 72 73 74 74 71 75 67 76 68 77 69 78
REMARK SMILES IDX 70 79 49 80 50 81 58 82 51 83 57 84 59 85 56 86 52 87 53 88
REMARK SMILES IDX 54 89 55 90
REMARK H PARENT 16 6 4 20 20 24 79 43 47 54
REMARK Flexibility Score: inf
ROOT
ATOM      1  C   UNL A   1      31.669  31.817  26.542  1.00  0.00     0.042 C 
ENDROOT
BRANCH   1   2
ATOM      2  C   UNL A   1      31.784  30.323  26.281  1.00  0.00     0.117 C 
BRANCH   2   3
ATOM      3  N   UNL A   1      32.682  30.022  25.188  1.00  0.00    -0.354 N 
ATOM      4  C   UNL A   1      32.893  28.848  24.528  1.00  0.00     0.242 C 
ATOM      5  O   UNL A   1      33.571  28.907  23.495  1.00  0.00    -0.273 OA
ATOM      6  H   UNL A   1      33.225  30.781  24.873  1.00  0.00     0.163 HD
BRANCH   4   7
ATOM      7  C   UNL A   1      32.125  27.556  24.879  1.00  0.00     0.174 C 
ATOM      8  N   UNL A   1      31.641  26.682  23.799  1.00  0.00    -0.329 N 
ATOM      9  C   UNL A   1      32.077  25.308  23.997  1.00  0.00     0.120 C 
ATOM     10  C   UNL A   1      32.553  25.246  25.437  1.00  0.00     0.024 C 
ATOM     11  C   UNL A   1      33.017  26.659  25.745  1.00  0.00     0.037 C 
BRANCH   8  12
ATOM     12  C   UNL A   1      30.665  27.167  22.949  1.00  0.00     0.245 C 
ATOM     13  O   UNL A   1      30.929  27.351  21.755  1.00  0.00    -0.272 OA
BRANCH  12  14
ATOM     14  C   UNL A   1      29.308  27.681  23.490  1.00  0.00     0.168 C 
ATOM     15  C   UNL A   1      28.472  26.490  23.959  1.00  0.00     0.041 C 
BRANCH  14  16
ATOM     16  N   UNL A   1      28.544  28.535  22.586  1.00  0.00    -0.345 N 
ATOM     17  C   UNL A   1      29.285  30.687  23.553  1.00  0.00     0.114 C 
ATOM     18  C   UNL A   1      28.476  29.895  22.563  1.00  0.00     0.217 C 
ATOM     19  O   UNL A   1      27.748  30.427  21.729  1.00  0.00    -0.275 OA
ATOM     20  H   UNL A   1      28.008  28.067  21.904  1.00  0.00     0.164 HD
ENDBRANCH  14  16
ENDBRANCH  12  14
ENDBRANCH   8  12
ENDBRANCH   4   7
ENDBRANCH   2   3
ENDBRANCH   1   2
BRANCH   1  21
ATOM     21  C   UNL A   1      32.858  32.375  27.315  1.00  0.00     0.118 C 
BRANCH  21  22
ATOM     22  N   UNL A   1      32.696  33.792  27.622  1.00  0.00    -0.352 N 
ATOM     23  C   UNL A   1      33.259  34.550  28.616  1.00  0.00     0.251 C 
ATOM     24  H   UNL A   1      32.087  34.281  27.022  1.00  0.00     0.163 HD
ATOM     25  O   UNL A   1      32.801  35.670  28.849  1.00  0.00    -0.269 OA
BRANCH  23  26
ATOM     26  C   UNL A   1      34.394  34.028  29.404  1.00  0.00     0.039 A 
ATOM     27  C   UNL A   1      34.139  33.159  30.468  1.00  0.00     0.014 A 
ATOM     28  C   UNL A   1      35.706  34.408  29.109  1.00  0.00     0.014 A 
ATOM     29  C   UNL A   1      35.206  32.624  31.193  1.00  0.00     0.010 A 
ATOM     30  C   UNL A   1      36.769  33.805  29.772  1.00  0.00     0.010 A 
ATOM     31  C   UNL A   1      36.531  32.911  30.826  1.00  0.00    -0.014 A 
BRANCH  31  32
ATOM     32  C   UNL A   1      37.679  32.285  31.531  1.00  0.00     0.031 A 
ATOM     33  C   UNL A   1      38.468  31.189  30.866  1.00  0.00     0.074 A 
ATOM     34  C   UNL A   1      37.969  32.665  32.791  1.00  0.00     0.049 A 
ATOM     35  N   UNL A   1      39.457  30.477  31.341  1.00  0.00    -0.248 NA
ATOM     36  C   UNL A   1      38.070  30.826  29.497  1.00  0.00     0.031 C 
ATOM     37  C   UNL A   1      37.243  33.686  33.552  1.00  0.00     0.029 A 
ATOM     38  N   UNL A   1      38.943  32.237  33.658  1.00  0.00    -0.354 N 
ATOM     39  C   UNL A   1      39.793  29.576  30.337  1.00  0.00     0.074 A 
ATOM     40  C   UNL A   1      38.855  29.787  29.254  1.00  0.00     0.031 C 
ATOM     41  C   UNL A   1      37.819  33.828  34.757  1.00  0.00     0.029 A 
ATOM     42  C   UNL A   1      38.917  32.875  34.877  1.00  0.00     0.049 A 
ATOM     43  H   UNL A   1      39.597  31.539  33.428  1.00  0.00     0.167 HD
ATOM     44  C   UNL A   1      40.804  28.673  30.310  1.00  0.00     0.034 A 
ATOM     45  C   UNL A   1      39.683  32.701  35.973  1.00  0.00     0.034 A 
ATOM     46  C   UNL A   1      41.733  28.484  31.397  1.00  0.00     0.049 A 
ATOM     47  C   UNL A   1      40.783  31.670  35.930  1.00  0.00     0.074 A 
ATOM     48  C   UNL A   1      42.827  27.638  31.459  1.00  0.00     0.029 A 
ATOM     49  N   UNL A   1      41.674  29.144  32.619  1.00  0.00    -0.354 N 
ATOM     50  N   UNL A   1      41.121  30.863  34.950  1.00  0.00    -0.248 NA
ATOM     51  C   UNL A   1      41.610  31.536  37.135  1.00  0.00     0.031 C 
ATOM     52  C   UNL A   1      43.380  27.728  32.741  1.00  0.00     0.029 A 
ATOM     53  C   UNL A   1      42.689  28.696  33.453  1.00  0.00     0.049 A 
ATOM     54  H   UNL A   1      41.008  29.828  32.859  1.00  0.00     0.167 HD
ATOM     55  C   UNL A   1      42.223  30.149  35.413  1.00  0.00     0.074 A 
ATOM     56  C   UNL A   1      42.500  30.635  36.749  1.00  0.00     0.031 C 
ATOM     57  C   UNL A   1      42.945  29.182  34.789  1.00  0.00     0.034 A 
BRANCH  44  58
ATOM     58  C   UNL A   1      40.937  27.809  29.076  1.00  0.00     0.023 A 
ATOM     59  C   UNL A   1      41.955  28.023  28.129  1.00  0.00     0.031 A 
ATOM     60  C   UNL A   1      40.020  26.771  28.829  1.00  0.00     0.131 A 
ATOM     61  C   UNL A   1      41.985  27.266  26.948  1.00  0.00     0.055 A 
ATOM     62  C   UNL A   1      40.108  25.964  27.693  1.00  0.00     0.041 A 
ATOM     63  F   UNL A   1      39.013  26.531  29.683  1.00  0.00    -0.206 F 
ATOM     64  C   UNL A   1      41.085  26.220  26.736  1.00  0.00     0.022 A 
BRANCH  61  65
ATOM     65  S   UNL A   1      43.121  27.769  25.626  1.00  0.00     0.124 S 
ATOM     66  O   UNL A   1      43.788  26.506  25.315  1.00  0.00    -0.237 OA
ATOM     67  O   UNL A   1      42.213  28.279  24.606  1.00  0.00    -0.237 OA
ATOM     68  O   UNL A   1      43.970  28.771  26.266  1.00  0.00    -0.744 OA
ENDBRANCH  61  65
ENDBRANCH  44  58
BRANCH  45  69
ATOM     69  C   UNL A   1      39.438  33.509  37.203  1.00  0.00     0.023 A 
ATOM     70  C   UNL A   1      40.121  34.716  37.424  1.00  0.00     0.031 A 
ATOM     71  C   UNL A   1      38.547  33.065  38.197  1.00  0.00     0.131 A 
ATOM     72  C   UNL A   1      39.943  35.410  38.631  1.00  0.00     0.055 A 
ATOM     73  C   UNL A   1      38.328  33.792  39.369  1.00  0.00     0.041 A 
ATOM     74  F   UNL A   1      37.866  31.919  38.037  1.00  0.00    -0.206 F 
ATOM     75  C   UNL A   1      39.040  34.964  39.598  1.00  0.00     0.022 A 
BRANCH  72  76
ATOM     76  S   UNL A   1      40.986  36.857  38.961  1.00  0.00     0.124 S 
ATOM     77  O   UNL A   1      41.824  36.897  37.768  1.00  0.00    -0.237 OA
ATOM     78  O   UNL A   1      39.997  37.922  39.087  1.00  0.00    -0.237 OA
ATOM     79  O   UNL A   1      41.679  36.502  40.198  1.00  0.00    -0.744 OA
ENDBRANCH  72  76
ENDBRANCH  45  69
BRANCH  57  80
ATOM     80  C   UNL A   1      44.133  28.624  35.535  1.00  0.00     0.023 A 
ATOM     81  C   UNL A   1      44.004  27.565  36.451  1.00  0.00     0.031 A 
ATOM     82  C   UNL A   1      45.414  29.169  35.332  1.00  0.00     0.131 A 
ATOM     83  C   UNL A   1      45.123  27.128  37.175  1.00  0.00     0.055 A 
ATOM     84  C   UNL A   1      46.536  28.683  36.005  1.00  0.00     0.041 A 
ATOM     85  F   UNL A   1      45.597  30.184  34.472  1.00  0.00    -0.206 F 
ATOM     86  C   UNL A   1      46.391  27.666  36.943  1.00  0.00     0.022 A 
BRANCH  83  87
ATOM     87  S   UNL A   1      44.882  25.914  38.502  1.00  0.00     0.124 S 
ATOM     88  O   UNL A   1      44.429  24.741  37.761  1.00  0.00    -0.237 OA
ATOM     89  O   UNL A   1      46.214  25.823  39.089  1.00  0.00    -0.237 OA
ATOM     90  O   UNL A   1      43.871  26.536  39.356  1.00  0.00    -0.744 OA
ENDBRANCH  83  87
ENDBRANCH  57  80
ENDBRANCH  31  32
ENDBRANCH  23  26
ENDBRANCH  21  22
ENDBRANCH   1  21
TORSDOF 16
ENDMDL
