MODEL 1
REMARK VINA RESULT:     -11.8      0.000      0.000
REMARK SMILES NC(=O)C1CC[NH+](Cc2ccc(C(=O)NCCCNC(=O)c3ccc(-c4c5nc(c(-c6cc(S(=O)(=O)[O-])ccc6F)c6ccc([nH]6)c(-c6cc(S(=O)(=O)[O-])ccc6F)c6nc(c(-c7cc(S(=O)(=O)[O-])ccc7F)c7ccc4[nH]7)C=C6)C=C5)cc3)cc2)CC1
REMARK SMILES IDX 17 1 16 2 15 3 13 4 14 5 12 7 9 8 10 9 86 10 11 11 85 12
REMARK SMILES IDX 8 13 7 14 4 15 5 16 88 17 6 18 87 19 2 21 1 22 3 25 18 26
REMARK SMILES IDX 19 27 20 28 21 30 22 31 23 32 84 33 24 34 83 35 25 36 26 37
REMARK SMILES IDX 27 38 77 39 28 40 82 41 76 42 78 43 29 44 81 45 75 46 74 47
REMARK SMILES IDX 30 49 62 50 42 51 61 52 43 53 46 54 60 55 79 56 44 57 45 58
REMARK SMILES IDX 59 60 80 61 47 62 31 63 32 64 40 65 33 66 39 67 41 68 38 69
REMARK SMILES IDX 34 70 35 71 36 72 37 73 63 74 64 75 72 76 65 77 71 78 73 79
REMARK SMILES IDX 70 80 66 81 67 82 68 83 69 84 48 85 49 86 57 87 50 88 56 89
REMARK SMILES IDX 58 90 55 91 51 92 52 93 53 94 54 95
REMARK H PARENT 15 6 7 20 1 23 1 24 19 29 78 48 46 59
REMARK Flexibility Score: inf
ROOT
ATOM      1  C   UNL A   1      32.900  29.320  24.843  1.00  0.00     0.042 C 
ENDROOT
BRANCH   1   2
ATOM      2  C   UNL A   1      31.385  29.431  25.014  1.00  0.00     0.118 C 
BRANCH   2   3
ATOM      3  N   UNL A   1      30.715  29.681  23.747  1.00  0.00    -0.352 N 
ATOM      4  C   UNL A   1      30.334  28.816  22.751  1.00  0.00     0.251 C 
ATOM      5  O   UNL A   1      29.643  29.238  21.825  1.00  0.00    -0.269 OA
ATOM      6  H   UNL A   1      30.500  30.626  23.575  1.00  0.00     0.163 HD
BRANCH   4   7
ATOM      7  C   UNL A   1      30.681  27.375  22.797  1.00  0.00     0.039 A 
ATOM      8  C   UNL A   1      31.357  24.662  23.093  1.00  0.00     0.006 A 
ATOM      9  C   UNL A   1      30.269  25.204  23.793  1.00  0.00     0.010 A 
ATOM     10  C   UNL A   1      32.035  25.471  22.170  1.00  0.00     0.010 A 
ATOM     11  C   UNL A   1      29.934  26.552  23.646  1.00  0.00     0.014 A 
ATOM     12  C   UNL A   1      31.691  26.815  22.016  1.00  0.00     0.014 A 
BRANCH   8  13
ATOM     13  C   UNL A   1      31.829  23.248  23.370  1.00  0.00     0.299 C 
BRANCH  13  14
ATOM     14  N   UNL A   1      32.459  23.019  24.687  1.00  0.00    -0.331 N 
ATOM     15  C   UNL A   1      34.467  22.247  26.688  1.00  0.00     0.089 C 
ATOM     16  C   UNL A   1      33.235  21.392  26.375  1.00  0.00     0.075 C 
ATOM     17  C   UNL A   1      34.184  23.710  26.326  1.00  0.00     0.075 C 
ATOM     18  C   UNL A   1      32.752  21.606  24.940  1.00  0.00     0.263 C 
ATOM     19  C   UNL A   1      33.641  23.864  24.902  1.00  0.00     0.263 C 
ATOM     20  H   UNL A   1      31.762  23.303  25.376  1.00  0.00     0.348 HD
BRANCH  15  21
ATOM     21  C   UNL A   1      35.722  21.723  25.994  1.00  0.00     0.220 C 
ATOM     22  N   UNL A   1      36.823  22.519  26.093  1.00  0.00    -0.369 N 
ATOM     23  H   UNL A   1      37.669  22.245  25.670  1.00  0.00     0.159 HD
ATOM     24  H   UNL A   1      36.773  23.369  26.588  1.00  0.00     0.159 HD
ATOM     25  O   UNL A   1      35.774  20.686  25.340  1.00  0.00    -0.275 OA
ENDBRANCH  15  21
ENDBRANCH  13  14
ENDBRANCH   8  13
ENDBRANCH   4   7
ENDBRANCH   2   3
ENDBRANCH   1   2
BRANCH   1  26
ATOM     26  C   UNL A   1      33.683  29.432  26.148  1.00  0.00     0.118 C 
BRANCH  26  27
ATOM     27  N   UNL A   1      33.542  30.743  26.759  1.00  0.00    -0.352 N 
ATOM     28  C   UNL A   1      34.278  31.348  27.748  1.00  0.00     0.251 C 
ATOM     29  H   UNL A   1      32.800  31.286  26.406  1.00  0.00     0.163 HD
ATOM     30  O   UNL A   1      33.832  32.371  28.264  1.00  0.00    -0.269 OA
BRANCH  28  31
ATOM     31  C   UNL A   1      35.571  30.788  28.211  1.00  0.00     0.039 A 
ATOM     32  C   UNL A   1      35.551  29.824  29.225  1.00  0.00     0.014 A 
ATOM     33  C   UNL A   1      36.800  31.244  27.722  1.00  0.00     0.014 A 
ATOM     34  C   UNL A   1      36.749  29.303  29.723  1.00  0.00     0.010 A 
ATOM     35  C   UNL A   1      37.992  30.669  28.167  1.00  0.00     0.010 A 
ATOM     36  C   UNL A   1      37.981  29.706  29.187  1.00  0.00    -0.014 A 
BRANCH  36  37
ATOM     37  C   UNL A   1      39.257  29.151  29.715  1.00  0.00     0.031 A 
ATOM     38  C   UNL A   1      39.908  29.762  30.928  1.00  0.00     0.074 A 
ATOM     39  C   UNL A   1      39.843  28.113  29.086  1.00  0.00     0.049 A 
ATOM     40  N   UNL A   1      41.024  29.428  31.528  1.00  0.00    -0.248 NA
ATOM     41  C   UNL A   1      39.229  30.919  31.529  1.00  0.00     0.031 C 
ATOM     42  C   UNL A   1      39.332  27.464  27.876  1.00  0.00     0.029 A 
ATOM     43  N   UNL A   1      40.991  27.419  29.374  1.00  0.00    -0.354 N 
ATOM     44  C   UNL A   1      41.185  30.339  32.568  1.00  0.00     0.074 A 
ATOM     45  C   UNL A   1      40.085  31.276  32.474  1.00  0.00     0.031 C 
ATOM     46  C   UNL A   1      40.148  26.451  27.544  1.00  0.00     0.029 A 
ATOM     47  C   UNL A   1      41.257  26.398  28.492  1.00  0.00     0.049 A 
ATOM     48  H   UNL A   1      41.570  27.632  30.141  1.00  0.00     0.167 HD
ATOM     49  C   UNL A   1      42.146  30.377  33.526  1.00  0.00     0.034 A 
ATOM     50  C   UNL A   1      42.279  25.520  28.449  1.00  0.00     0.034 A 
ATOM     51  C   UNL A   1      43.232  29.428  33.611  1.00  0.00     0.049 A 
ATOM     52  C   UNL A   1      43.334  25.579  29.524  1.00  0.00     0.074 A 
ATOM     53  C   UNL A   1      44.231  29.342  34.565  1.00  0.00     0.029 A 
ATOM     54  N   UNL A   1      43.463  28.400  32.705  1.00  0.00    -0.354 N 
ATOM     55  N   UNL A   1      43.441  26.413  30.533  1.00  0.00    -0.248 NA
ATOM     56  C   UNL A   1      44.391  24.563  29.466  1.00  0.00     0.031 C 
ATOM     57  C   UNL A   1      45.101  28.306  34.201  1.00  0.00     0.029 A 
ATOM     58  C   UNL A   1      44.603  27.694  33.062  1.00  0.00     0.049 A 
ATOM     59  H   UNL A   1      42.900  28.202  31.922  1.00  0.00     0.167 HD
ATOM     60  C   UNL A   1      44.565  26.002  31.244  1.00  0.00     0.074 A 
ATOM     61  C   UNL A   1      45.083  24.834  30.562  1.00  0.00     0.031 C 
ATOM     62  C   UNL A   1      45.120  26.541  32.362  1.00  0.00     0.034 A 
BRANCH  49  63
ATOM     63  C   UNL A   1      42.075  31.500  34.536  1.00  0.00     0.023 A 
ATOM     64  C   UNL A   1      41.136  31.496  35.584  1.00  0.00     0.031 A 
ATOM     65  C   UNL A   1      42.935  32.609  34.432  1.00  0.00     0.131 A 
ATOM     66  C   UNL A   1      41.023  32.609  36.431  1.00  0.00     0.055 A 
ATOM     67  C   UNL A   1      42.873  33.677  35.331  1.00  0.00     0.041 A 
ATOM     68  F   UNL A   1      43.840  32.683  33.444  1.00  0.00    -0.206 F 
ATOM     69  C   UNL A   1      41.902  33.689  36.327  1.00  0.00     0.022 A 
BRANCH  66  70
ATOM     70  S   UNL A   1      39.612  32.692  37.567  1.00  0.00     0.124 S 
ATOM     71  O   UNL A   1      38.805  31.560  37.118  1.00  0.00    -0.237 OA
ATOM     72  O   UNL A   1      40.249  32.545  38.871  1.00  0.00    -0.237 OA
ATOM     73  O   UNL A   1      39.032  34.007  37.300  1.00  0.00    -0.744 OA
ENDBRANCH  66  70
ENDBRANCH  49  63
BRANCH  50  74
ATOM     74  C   UNL A   1      42.359  24.510  27.355  1.00  0.00     0.023 A 
ATOM     75  C   UNL A   1      41.572  23.348  27.383  1.00  0.00     0.031 A 
ATOM     76  C   UNL A   1      43.254  24.674  26.283  1.00  0.00     0.131 A 
ATOM     77  C   UNL A   1      41.727  22.373  26.385  1.00  0.00     0.055 A 
ATOM     78  C   UNL A   1      43.369  23.726  25.266  1.00  0.00     0.041 A 
ATOM     79  F   UNL A   1      44.024  25.772  26.204  1.00  0.00    -0.206 F 
ATOM     80  C   UNL A   1      42.611  22.561  25.320  1.00  0.00     0.022 A 
BRANCH  77  81
ATOM     81  S   UNL A   1      40.810  20.815  26.539  1.00  0.00     0.124 S 
ATOM     82  O   UNL A   1      39.517  21.173  25.969  1.00  0.00    -0.237 OA
ATOM     83  O   UNL A   1      41.631  19.903  25.749  1.00  0.00    -0.237 OA
ATOM     84  O   UNL A   1      40.811  20.561  27.978  1.00  0.00    -0.744 OA
ENDBRANCH  77  81
ENDBRANCH  50  74
BRANCH  62  85
ATOM     85  C   UNL A   1      46.330  25.836  32.927  1.00  0.00     0.023 A 
ATOM     86  C   UNL A   1      47.622  26.062  32.421  1.00  0.00     0.031 A 
ATOM     87  C   UNL A   1      46.182  24.894  33.960  1.00  0.00     0.131 A 
ATOM     88  C   UNL A   1      48.702  25.304  32.895  1.00  0.00     0.055 A 
ATOM     89  C   UNL A   1      47.271  24.191  34.476  1.00  0.00     0.041 A 
ATOM     90  F   UNL A   1      44.972  24.634  34.483  1.00  0.00    -0.206 F 
ATOM     91  C   UNL A   1      48.538  24.381  33.931  1.00  0.00     0.022 A 
BRANCH  88  92
ATOM     92  S   UNL A   1      50.303  25.450  32.055  1.00  0.00     0.124 S 
ATOM     93  O   UNL A   1      49.993  26.373  30.967  1.00  0.00    -0.237 OA
ATOM     94  O   UNL A   1      51.162  25.978  33.111  1.00  0.00    -0.237 OA
ATOM     95  O   UNL A   1      50.601  24.081  31.642  1.00  0.00    -0.744 OA
ENDBRANCH  88  92
ENDBRANCH  62  85
ENDBRANCH  36  37
ENDBRANCH  28  31
ENDBRANCH  26  27
ENDBRANCH   1  26
TORSDOF 16
ENDMDL
MODEL 2
REMARK VINA RESULT:     -11.8      1.635      2.010
REMARK SMILES NC(=O)C1CC[NH+](Cc2ccc(C(=O)NCCCNC(=O)c3ccc(-c4c5nc(c(-c6cc(S(=O)(=O)[O-])ccc6F)c6ccc([nH]6)c(-c6cc(S(=O)(=O)[O-])ccc6F)c6nc(c(-c7cc(S(=O)(=O)[O-])ccc7F)c7ccc4[nH]7)C=C6)C=C5)cc3)cc2)CC1
REMARK SMILES IDX 17 1 16 2 15 3 13 4 14 5 12 7 9 8 10 9 86 10 11 11 85 12
REMARK SMILES IDX 8 13 7 14 4 15 5 16 88 17 6 18 87 19 2 21 1 22 3 25 18 26
REMARK SMILES IDX 19 27 20 28 21 30 22 31 23 32 84 33 24 34 83 35 25 36 26 37
REMARK SMILES IDX 27 38 77 39 28 40 82 41 76 42 78 43 29 44 81 45 75 46 74 47
REMARK SMILES IDX 30 49 62 50 42 51 61 52 43 53 46 54 60 55 79 56 44 57 45 58
REMARK SMILES IDX 59 60 80 61 47 62 31 63 32 64 40 65 33 66 39 67 41 68 38 69
REMARK SMILES IDX 34 70 35 71 36 72 37 73 63 74 64 75 72 76 65 77 71 78 73 79
REMARK SMILES IDX 70 80 66 81 67 82 68 83 69 84 48 85 49 86 57 87 50 88 56 89
REMARK SMILES IDX 58 90 55 91 51 92 52 93 53 94 54 95
REMARK H PARENT 15 6 7 20 1 23 1 24 19 29 78 48 46 59
REMARK Flexibility Score: inf
ROOT
ATOM      1  C   UNL A   1      32.885  29.348  24.891  1.00  0.00     0.042 C 
ENDROOT
BRANCH   1   2
ATOM      2  C   UNL A   1      31.446  29.852  25.001  1.00  0.00     0.118 C 
BRANCH   2   3
ATOM      3  N   UNL A   1      30.826  30.010  23.694  1.00  0.00    -0.352 N 
ATOM      4  C   UNL A   1      30.348  29.074  22.811  1.00  0.00     0.251 C 
ATOM      5  O   UNL A   1      29.726  29.450  21.819  1.00  0.00    -0.269 OA
ATOM      6  H   UNL A   1      30.736  30.943  23.393  1.00  0.00     0.163 HD
BRANCH   4   7
ATOM      7  C   UNL A   1      30.506  27.620  23.058  1.00  0.00     0.039 A 
ATOM      8  C   UNL A   1      30.794  24.835  23.318  1.00  0.00     0.006 A 
ATOM      9  C   UNL A   1      31.669  25.567  22.502  1.00  0.00     0.010 A 
ATOM     10  C   UNL A   1      29.841  25.529  24.078  1.00  0.00     0.010 A 
ATOM     11  C   UNL A   1      31.526  26.950  22.373  1.00  0.00     0.014 A 
ATOM     12  C   UNL A   1      29.706  26.914  23.956  1.00  0.00     0.014 A 
BRANCH   8  13
ATOM     13  C   UNL A   1      30.836  23.320  23.337  1.00  0.00     0.299 C 
BRANCH  13  14
ATOM     14  N   UNL A   1      31.936  22.710  24.114  1.00  0.00    -0.331 N 
ATOM     15  C   UNL A   1      33.514  20.679  25.532  1.00  0.00     0.089 C 
ATOM     16  C   UNL A   1      32.690  21.747  26.258  1.00  0.00     0.075 C 
ATOM     17  C   UNL A   1      33.882  21.176  24.129  1.00  0.00     0.075 C 
ATOM     18  C   UNL A   1      31.499  22.206  25.418  1.00  0.00     0.263 C 
ATOM     19  C   UNL A   1      32.663  21.686  23.353  1.00  0.00     0.263 C 
ATOM     20  H   UNL A   1      32.594  23.467  24.297  1.00  0.00     0.348 HD
BRANCH  15  21
ATOM     21  C   UNL A   1      32.796  19.332  25.486  1.00  0.00     0.220 C 
ATOM     22  N   UNL A   1      32.846  18.601  26.635  1.00  0.00    -0.369 N 
ATOM     23  H   UNL A   1      32.405  17.722  26.679  1.00  0.00     0.159 HD
ATOM     24  H   UNL A   1      33.323  18.952  27.422  1.00  0.00     0.159 HD
ATOM     25  O   UNL A   1      32.238  18.873  24.494  1.00  0.00    -0.275 OA
ENDBRANCH  15  21
ENDBRANCH  13  14
ENDBRANCH   8  13
ENDBRANCH   4   7
ENDBRANCH   2   3
ENDBRANCH   1   2
BRANCH   1  26
ATOM     26  C   UNL A   1      33.680  29.449  26.189  1.00  0.00     0.118 C 
BRANCH  26  27
ATOM     27  N   UNL A   1      33.557  30.760  26.805  1.00  0.00    -0.352 N 
ATOM     28  C   UNL A   1      34.299  31.349  27.799  1.00  0.00     0.251 C 
ATOM     29  H   UNL A   1      32.825  31.315  26.452  1.00  0.00     0.163 HD
ATOM     30  O   UNL A   1      33.868  32.377  28.317  1.00  0.00    -0.269 OA
BRANCH  28  31
ATOM     31  C   UNL A   1      35.583  30.768  28.262  1.00  0.00     0.039 A 
ATOM     32  C   UNL A   1      35.548  29.827  29.298  1.00  0.00     0.014 A 
ATOM     33  C   UNL A   1      36.818  31.183  27.753  1.00  0.00     0.014 A 
ATOM     34  C   UNL A   1      36.737  29.288  29.798  1.00  0.00     0.010 A 
ATOM     35  C   UNL A   1      37.999  30.588  28.201  1.00  0.00     0.010 A 
ATOM     36  C   UNL A   1      37.975  29.648  29.242  1.00  0.00    -0.014 A 
BRANCH  36  37
ATOM     37  C   UNL A   1      39.241  29.074  29.771  1.00  0.00     0.031 A 
ATOM     38  C   UNL A   1      39.889  29.662  30.997  1.00  0.00     0.074 A 
ATOM     39  C   UNL A   1      39.821  28.038  29.132  1.00  0.00     0.049 A 
ATOM     40  N   UNL A   1      40.998  29.309  31.600  1.00  0.00    -0.248 NA
ATOM     41  C   UNL A   1      39.217  30.817  31.609  1.00  0.00     0.031 C 
ATOM     42  C   UNL A   1      39.313  27.411  27.911  1.00  0.00     0.029 A 
ATOM     43  N   UNL A   1      40.961  27.329  29.419  1.00  0.00    -0.354 N 
ATOM     44  C   UNL A   1      41.160  30.204  32.653  1.00  0.00     0.074 A 
ATOM     45  C   UNL A   1      40.070  31.152  32.565  1.00  0.00     0.031 C 
ATOM     46  C   UNL A   1      40.122  26.394  27.570  1.00  0.00     0.029 A 
ATOM     47  C   UNL A   1      41.223  26.318  28.525  1.00  0.00     0.049 A 
ATOM     48  H   UNL A   1      41.536  27.526  30.193  1.00  0.00     0.167 HD
ATOM     49  C   UNL A   1      42.115  30.219  33.618  1.00  0.00     0.034 A 
ATOM     50  C   UNL A   1      42.237  25.431  28.477  1.00  0.00     0.034 A 
ATOM     51  C   UNL A   1      43.190  29.258  33.699  1.00  0.00     0.049 A 
ATOM     52  C   UNL A   1      43.284  25.465  29.560  1.00  0.00     0.074 A 
ATOM     53  C   UNL A   1      44.182  29.149  34.658  1.00  0.00     0.029 A 
ATOM     54  N   UNL A   1      43.418  28.241  32.780  1.00  0.00    -0.354 N 
ATOM     55  N   UNL A   1      43.392  26.284  30.581  1.00  0.00    -0.248 NA
ATOM     56  C   UNL A   1      44.331  24.439  29.495  1.00  0.00     0.031 C 
ATOM     57  C   UNL A   1      45.044  28.111  34.286  1.00  0.00     0.029 A 
ATOM     58  C   UNL A   1      44.549  27.519  33.136  1.00  0.00     0.049 A 
ATOM     59  H   UNL A   1      42.859  28.059  31.990  1.00  0.00     0.167 HD
ATOM     60  C   UNL A   1      44.507  25.852  31.295  1.00  0.00     0.074 A 
ATOM     61  C   UNL A   1      45.018  24.689  30.600  1.00  0.00     0.031 C 
ATOM     62  C   UNL A   1      45.059  26.370  32.423  1.00  0.00     0.034 A 
BRANCH  49  63
ATOM     63  C   UNL A   1      42.047  31.329  34.644  1.00  0.00     0.023 A 
ATOM     64  C   UNL A   1      41.037  31.374  35.622  1.00  0.00     0.031 A 
ATOM     65  C   UNL A   1      42.985  32.378  34.623  1.00  0.00     0.131 A 
ATOM     66  C   UNL A   1      40.939  32.479  36.481  1.00  0.00     0.055 A 
ATOM     67  C   UNL A   1      42.932  33.433  35.537  1.00  0.00     0.041 A 
ATOM     68  F   UNL A   1      43.962  32.404  33.703  1.00  0.00    -0.206 F 
ATOM     69  C   UNL A   1      41.894  33.498  36.462  1.00  0.00     0.022 A 
BRANCH  66  70
ATOM     70  S   UNL A   1      39.459  32.642  37.516  1.00  0.00     0.124 S 
ATOM     71  O   UNL A   1      38.860  33.864  36.983  1.00  0.00    -0.237 OA
ATOM     72  O   UNL A   1      38.741  31.404  37.237  1.00  0.00    -0.237 OA
ATOM     73  O   UNL A   1      39.998  32.761  38.870  1.00  0.00    -0.744 OA
ENDBRANCH  66  70
ENDBRANCH  49  63
BRANCH  50  74
ATOM     74  C   UNL A   1      42.315  24.434  27.371  1.00  0.00     0.023 A 
ATOM     75  C   UNL A   1      41.592  23.232  27.425  1.00  0.00     0.031 A 
ATOM     76  C   UNL A   1      43.145  24.654  26.257  1.00  0.00     0.131 A 
ATOM     77  C   UNL A   1      41.748  22.275  26.410  1.00  0.00     0.055 A 
ATOM     78  C   UNL A   1      43.258  23.721  25.225  1.00  0.00     0.041 A 
ATOM     79  F   UNL A   1      43.852  25.791  26.151  1.00  0.00    -0.206 F 
ATOM     80  C   UNL A   1      42.566  22.518  25.305  1.00  0.00     0.022 A 
BRANCH  77  81
ATOM     81  S   UNL A   1      40.922  20.670  26.594  1.00  0.00     0.124 S 
ATOM     82  O   UNL A   1      41.853  19.777  25.914  1.00  0.00    -0.237 OA
ATOM     83  O   UNL A   1      40.844  20.535  28.045  1.00  0.00    -0.237 OA
ATOM     84  O   UNL A   1      39.640  20.868  25.921  1.00  0.00    -0.744 OA
ENDBRANCH  77  81
ENDBRANCH  50  74
BRANCH  62  85
ATOM     85  C   UNL A   1      46.258  25.646  32.988  1.00  0.00     0.023 A 
ATOM     86  C   UNL A   1      46.120  24.560  33.869  1.00  0.00     0.031 A 
ATOM     87  C   UNL A   1      47.559  26.077  32.672  1.00  0.00     0.131 A 
ATOM     88  C   UNL A   1      47.256  23.989  34.461  1.00  0.00     0.055 A 
ATOM     89  C   UNL A   1      48.689  25.461  33.211  1.00  0.00     0.041 A 
ATOM     90  F   UNL A   1      47.754  27.111  31.837  1.00  0.00    -0.206 F 
ATOM     91  C   UNL A   1      48.541  24.422  34.125  1.00  0.00     0.022 A 
BRANCH  88  92
ATOM     92  S   UNL A   1      47.027  22.754  35.770  1.00  0.00     0.124 S 
ATOM     93  O   UNL A   1      47.938  23.236  36.805  1.00  0.00    -0.237 OA
ATOM     94  O   UNL A   1      45.603  22.878  36.068  1.00  0.00    -0.237 OA
ATOM     95  O   UNL A   1      47.420  21.500  35.133  1.00  0.00    -0.744 OA
ENDBRANCH  88  92
ENDBRANCH  62  85
ENDBRANCH  36  37
ENDBRANCH  28  31
ENDBRANCH  26  27
ENDBRANCH   1  26
TORSDOF 16
ENDMDL
MODEL 3
REMARK VINA RESULT:     -11.7      3.956      9.721
REMARK SMILES NC(=O)C1CC[NH+](Cc2ccc(C(=O)NCCCNC(=O)c3ccc(-c4c5nc(c(-c6cc(S(=O)(=O)[O-])ccc6F)c6ccc([nH]6)c(-c6cc(S(=O)(=O)[O-])ccc6F)c6nc(c(-c7cc(S(=O)(=O)[O-])ccc7F)c7ccc4[nH]7)C=C6)C=C5)cc3)cc2)CC1
REMARK SMILES IDX 17 1 16 2 15 3 13 4 14 5 12 7 9 8 10 9 86 10 11 11 85 12
REMARK SMILES IDX 8 13 7 14 4 15 5 16 88 17 6 18 87 19 2 21 1 22 3 25 18 26
REMARK SMILES IDX 19 27 20 28 21 30 22 31 23 32 84 33 24 34 83 35 25 36 26 37
REMARK SMILES IDX 27 38 77 39 28 40 82 41 76 42 78 43 29 44 81 45 75 46 74 47
REMARK SMILES IDX 30 49 62 50 42 51 61 52 43 53 46 54 60 55 79 56 44 57 45 58
REMARK SMILES IDX 59 60 80 61 47 62 31 63 32 64 40 65 33 66 39 67 41 68 38 69
REMARK SMILES IDX 34 70 35 71 36 72 37 73 63 74 64 75 72 76 65 77 71 78 73 79
REMARK SMILES IDX 70 80 66 81 67 82 68 83 69 84 48 85 49 86 57 87 50 88 56 89
REMARK SMILES IDX 58 90 55 91 51 92 52 93 53 94 54 95
REMARK H PARENT 15 6 7 20 1 23 1 24 19 29 78 48 46 59
REMARK Flexibility Score: inf
ROOT
ATOM      1  C   UNL A   1      35.851  21.795  26.021  1.00  0.00     0.042 C 
ENDROOT
BRANCH   1   2
ATOM      2  C   UNL A   1      35.709  20.658  25.009  1.00  0.00     0.118 C 
BRANCH   2   3
ATOM      3  N   UNL A   1      34.622  19.756  25.357  1.00  0.00    -0.352 N 
ATOM      4  C   UNL A   1      33.264  19.891  25.206  1.00  0.00     0.251 C 
ATOM      5  O   UNL A   1      32.538  18.927  25.442  1.00  0.00    -0.269 OA
ATOM      6  H   UNL A   1      34.908  18.909  25.770  1.00  0.00     0.163 HD
BRANCH   4   7
ATOM      7  C   UNL A   1      32.659  21.148  24.705  1.00  0.00     0.039 A 
ATOM      8  C   UNL A   1      31.342  23.489  23.872  1.00  0.00     0.006 A 
ATOM      9  C   UNL A   1      31.537  23.230  25.236  1.00  0.00     0.010 A 
ATOM     10  C   UNL A   1      31.903  22.612  22.933  1.00  0.00     0.010 A 
ATOM     11  C   UNL A   1      32.191  22.068  25.650  1.00  0.00     0.014 A 
ATOM     12  C   UNL A   1      32.566  21.455  23.348  1.00  0.00     0.014 A 
BRANCH   8  13
ATOM     13  C   UNL A   1      30.492  24.660  23.418  1.00  0.00     0.299 C 
BRANCH  13  14
ATOM     14  N   UNL A   1      31.075  26.003  23.623  1.00  0.00    -0.331 N 
ATOM     15  C   UNL A   1      31.396  28.920  23.486  1.00  0.00     0.089 C 
ATOM     16  C   UNL A   1      32.222  27.952  22.632  1.00  0.00     0.075 C 
ATOM     17  C   UNL A   1      30.907  28.203  24.750  1.00  0.00     0.075 C 
ATOM     18  C   UNL A   1      31.466  26.650  22.368  1.00  0.00     0.263 C 
ATOM     19  C   UNL A   1      30.215  26.873  24.435  1.00  0.00     0.263 C 
ATOM     20  H   UNL A   1      31.931  25.851  24.155  1.00  0.00     0.348 HD
BRANCH  15  21
ATOM     21  C   UNL A   1      30.241  29.537  22.701  1.00  0.00     0.220 C 
ATOM     22  N   UNL A   1      30.573  30.069  21.490  1.00  0.00    -0.369 N 
ATOM     23  H   UNL A   1      29.880  30.484  20.928  1.00  0.00     0.159 HD
ATOM     24  H   UNL A   1      31.506  30.037  21.178  1.00  0.00     0.159 HD
ATOM     25  O   UNL A   1      29.087  29.617  23.107  1.00  0.00    -0.275 OA
ENDBRANCH  15  21
ENDBRANCH  13  14
ENDBRANCH   8  13
ENDBRANCH   4   7
ENDBRANCH   2   3
ENDBRANCH   1   2
BRANCH   1  26
ATOM     26  C   UNL A   1      37.176  22.546  25.931  1.00  0.00     0.118 C 
BRANCH  26  27
ATOM     27  N   UNL A   1      38.317  21.664  26.109  1.00  0.00    -0.352 N 
ATOM     28  C   UNL A   1      39.631  21.953  26.385  1.00  0.00     0.251 C 
ATOM     29  H   UNL A   1      38.116  20.704  26.017  1.00  0.00     0.163 HD
ATOM     30  O   UNL A   1      40.463  21.057  26.264  1.00  0.00    -0.269 OA
BRANCH  28  31
ATOM     31  C   UNL A   1      40.059  23.311  26.803  1.00  0.00     0.039 A 
ATOM     32  C   UNL A   1      40.727  23.447  28.025  1.00  0.00     0.014 A 
ATOM     33  C   UNL A   1      39.752  24.453  26.057  1.00  0.00     0.014 A 
ATOM     34  C   UNL A   1      41.109  24.712  28.480  1.00  0.00     0.010 A 
ATOM     35  C   UNL A   1      40.200  25.708  26.476  1.00  0.00     0.010 A 
ATOM     36  C   UNL A   1      40.866  25.855  27.702  1.00  0.00    -0.014 A 
BRANCH  36  37
ATOM     37  C   UNL A   1      41.273  27.202  28.183  1.00  0.00     0.031 A 
ATOM     38  C   UNL A   1      42.725  27.603  28.185  1.00  0.00     0.074 A 
ATOM     39  C   UNL A   1      40.336  28.057  28.642  1.00  0.00     0.049 A 
ATOM     40  N   UNL A   1      43.276  28.726  28.577  1.00  0.00    -0.248 NA
ATOM     41  C   UNL A   1      43.687  26.599  27.709  1.00  0.00     0.031 C 
ATOM     42  C   UNL A   1      38.904  27.768  28.732  1.00  0.00     0.029 A 
ATOM     43  N   UNL A   1      40.446  29.340  29.118  1.00  0.00    -0.354 N 
ATOM     44  C   UNL A   1      44.647  28.557  28.406  1.00  0.00     0.074 A 
ATOM     45  C   UNL A   1      44.844  27.202  27.936  1.00  0.00     0.031 C 
ATOM     46  C   UNL A   1      38.266  28.851  29.205  1.00  0.00     0.029 A 
ATOM     47  C   UNL A   1      39.244  29.898  29.486  1.00  0.00     0.049 A 
ATOM     48  H   UNL A   1      41.305  29.816  29.189  1.00  0.00     0.167 HD
ATOM     49  C   UNL A   1      45.646  29.456  28.599  1.00  0.00     0.034 A 
ATOM     50  C   UNL A   1      38.961  31.113  29.994  1.00  0.00     0.034 A 
ATOM     51  C   UNL A   1      45.431  30.808  29.059  1.00  0.00     0.049 A 
ATOM     52  C   UNL A   1      40.086  32.096  30.199  1.00  0.00     0.074 A 
ATOM     53  C   UNL A   1      46.361  31.816  29.243  1.00  0.00     0.029 A 
ATOM     54  N   UNL A   1      44.197  31.342  29.413  1.00  0.00    -0.354 N 
ATOM     55  N   UNL A   1      41.371  31.939  29.979  1.00  0.00    -0.248 NA
ATOM     56  C   UNL A   1      39.716  33.425  30.697  1.00  0.00     0.031 C 
ATOM     57  C   UNL A   1      45.702  32.935  29.767  1.00  0.00     0.029 A 
ATOM     58  C   UNL A   1      44.347  32.654  29.839  1.00  0.00     0.049 A 
ATOM     59  H   UNL A   1      43.340  30.858  29.368  1.00  0.00     0.167 HD
ATOM     60  C   UNL A   1      41.959  33.163  30.289  1.00  0.00     0.074 A 
ATOM     61  C   UNL A   1      40.884  34.049  30.685  1.00  0.00     0.031 C 
ATOM     62  C   UNL A   1      43.268  33.523  30.249  1.00  0.00     0.034 A 
BRANCH  49  63
ATOM     63  C   UNL A   1      47.060  28.987  28.339  1.00  0.00     0.023 A 
ATOM     64  C   UNL A   1      47.546  28.787  27.034  1.00  0.00     0.031 A 
ATOM     65  C   UNL A   1      47.926  28.703  29.411  1.00  0.00     0.131 A 
ATOM     66  C   UNL A   1      48.823  28.241  26.836  1.00  0.00     0.055 A 
ATOM     67  C   UNL A   1      49.228  28.240  29.204  1.00  0.00     0.041 A 
ATOM     68  F   UNL A   1      47.517  28.855  30.680  1.00  0.00    -0.206 F 
ATOM     69  C   UNL A   1      49.678  27.989  27.912  1.00  0.00     0.022 A 
BRANCH  66  70
ATOM     70  S   UNL A   1      49.293  27.720  25.163  1.00  0.00     0.124 S 
ATOM     71  O   UNL A   1      50.501  28.509  24.937  1.00  0.00    -0.237 OA
ATOM     72  O   UNL A   1      49.488  26.284  25.324  1.00  0.00    -0.237 OA
ATOM     73  O   UNL A   1      48.143  28.107  24.347  1.00  0.00    -0.744 OA
ENDBRANCH  66  70
ENDBRANCH  49  63
BRANCH  50  74
ATOM     74  C   UNL A   1      37.558  31.476  30.345  1.00  0.00     0.023 A 
ATOM     75  C   UNL A   1      36.670  31.963  29.373  1.00  0.00     0.031 A 
ATOM     76  C   UNL A   1      37.095  31.375  31.669  1.00  0.00     0.131 A 
ATOM     77  C   UNL A   1      35.381  32.375  29.746  1.00  0.00     0.055 A 
ATOM     78  C   UNL A   1      35.795  31.739  32.026  1.00  0.00     0.041 A 
ATOM     79  F   UNL A   1      37.901  30.908  32.637  1.00  0.00    -0.206 F 
ATOM     80  C   UNL A   1      34.934  32.254  31.064  1.00  0.00     0.022 A 
BRANCH  77  81
ATOM     81  S   UNL A   1      34.318  33.146  28.494  1.00  0.00     0.124 S 
ATOM     82  O   UNL A   1      33.660  31.985  27.906  1.00  0.00    -0.237 OA
ATOM     83  O   UNL A   1      33.476  34.017  29.309  1.00  0.00    -0.237 OA
ATOM     84  O   UNL A   1      35.265  33.838  27.623  1.00  0.00    -0.744 OA
ENDBRANCH  77  81
ENDBRANCH  50  74
BRANCH  62  85
ATOM     85  C   UNL A   1      43.592  34.953  30.610  1.00  0.00     0.023 A 
ATOM     86  C   UNL A   1      43.774  35.356  31.945  1.00  0.00     0.031 A 
ATOM     87  C   UNL A   1      43.678  35.934  29.607  1.00  0.00     0.131 A 
ATOM     88  C   UNL A   1      43.959  36.713  32.247  1.00  0.00     0.055 A 
ATOM     89  C   UNL A   1      43.930  37.273  29.908  1.00  0.00     0.041 A 
ATOM     90  F   UNL A   1      43.511  35.609  28.314  1.00  0.00    -0.206 F 
ATOM     91  C   UNL A   1      44.055  37.673  31.236  1.00  0.00     0.022 A 
BRANCH  88  92
ATOM     92  S   UNL A   1      43.949  37.227  33.987  1.00  0.00     0.124 S 
ATOM     93  O   UNL A   1      44.066  35.948  34.682  1.00  0.00    -0.237 OA
ATOM     94  O   UNL A   1      45.117  38.099  34.060  1.00  0.00    -0.237 OA
ATOM     95  O   UNL A   1      42.662  37.900  34.139  1.00  0.00    -0.744 OA
ENDBRANCH  88  92
ENDBRANCH  62  85
ENDBRANCH  36  37
ENDBRANCH  28  31
ENDBRANCH  26  27
ENDBRANCH   1  26
TORSDOF 16
ENDMDL
