MODEL 1
REMARK VINA RESULT:     -11.8      0.000      0.000
REMARK SMILES CN(C)c1cccc2c(S(=O)(=O)N[C@H](CO)C(=O)NCCCNC(=O)c3ccc(-c4c5nc(c(-c6cc(S(=O)(=O)[O-])ccc6F)c6ccc([nH]6)c(-c6cc(S(=O)(=O)[O-])ccc6F)c6nc(c(-c7cc(S(=O)(=O)[O-])ccc7F)c7ccc4[nH]7)C=C6)C=C5)cc3)cccc12
REMARK SMILES IDX 20 1 19 2 17 3 18 4 14 6 13 7 10 9 11 10 12 11 9 12 4 13
REMARK SMILES IDX 5 14 92 15 6 16 8 17 91 18 7 19 90 20 89 21 2 22 1 23 3 24
REMARK SMILES IDX 15 25 16 26 21 28 22 29 23 30 24 31 25 33 26 34 27 35 88 36
REMARK SMILES IDX 28 37 87 38 29 39 30 40 31 41 81 42 32 43 86 44 80 45 82 46
REMARK SMILES IDX 33 47 85 48 79 49 78 50 34 52 66 53 46 54 65 55 47 56 50 57
REMARK SMILES IDX 64 58 83 59 48 60 49 61 63 63 84 64 51 65 35 66 36 67 44 68
REMARK SMILES IDX 37 69 43 70 45 71 42 72 38 73 39 74 40 75 41 76 67 77 68 78
REMARK SMILES IDX 76 79 69 80 75 81 77 82 74 83 70 84 71 85 72 86 73 87 52 88
REMARK SMILES IDX 53 89 61 90 54 91 60 92 62 93 59 94 55 95 56 96 57 97 58 98
REMARK H PARENT 19 5 13 8 16 27 23 32 82 51 50 62
REMARK Flexibility Score: inf
ROOT
ATOM      1  C   UNL A   1      31.421  29.473  24.918  1.00  0.00     0.117 C 
ENDROOT
BRANCH   1   2
ATOM      2  N   UNL A   1      30.793  29.705  23.630  1.00  0.00    -0.355 N 
ATOM      3  C   UNL A   1      30.497  28.838  22.633  1.00  0.00     0.240 C 
ATOM      4  O   UNL A   1      29.863  29.283  21.671  1.00  0.00    -0.273 OA
ATOM      5  H   UNL A   1      30.543  30.640  23.453  1.00  0.00     0.163 HD
BRANCH   3   6
ATOM      6  C   UNL A   1      30.951  27.392  22.635  1.00  0.00     0.184 C 
BRANCH   6   7
ATOM      7  N   UNL A   1      31.404  26.728  21.394  1.00  0.00    -0.196 NA
ATOM      8  H   UNL A   1      30.700  26.020  21.187  1.00  0.00     0.142 HD
BRANCH   7   9
ATOM      9  S   UNL A   1      32.882  25.959  21.220  1.00  0.00     0.241 S 
ATOM     10  O   UNL A   1      33.899  26.891  21.661  1.00  0.00    -0.207 OA
ATOM     11  O   UNL A   1      32.903  25.470  19.861  1.00  0.00    -0.207 OA
BRANCH   9  12
ATOM     12  C   UNL A   1      32.995  24.525  22.270  1.00  0.00     0.090 A 
ATOM     13  C   UNL A   1      34.236  23.220  25.571  1.00  0.00     0.044 A 
ATOM     14  C   UNL A   1      34.565  24.431  26.204  1.00  0.00     0.026 A 
ATOM     15  C   UNL A   1      33.645  23.273  24.269  1.00  0.00     0.006 A 
ATOM     16  C   UNL A   1      34.260  25.656  25.630  1.00  0.00     0.003 A 
ATOM     17  C   UNL A   1      33.441  24.529  23.617  1.00  0.00     0.004 A 
ATOM     18  C   UNL A   1      33.204  22.105  23.604  1.00  0.00     0.011 A 
ATOM     19  C   UNL A   1      33.673  25.697  24.372  1.00  0.00     0.010 A 
ATOM     20  C   UNL A   1      32.702  22.122  22.307  1.00  0.00     0.002 A 
ATOM     21  C   UNL A   1      32.632  23.325  21.630  1.00  0.00     0.022 A 
BRANCH  13  22
ATOM     22  N   UNL A   1      34.513  22.005  26.224  1.00  0.00    -0.377 N 
ATOM     23  C   UNL A   1      33.937  21.781  27.543  1.00  0.00     0.143 C 
ATOM     24  C   UNL A   1      35.817  21.399  25.958  1.00  0.00     0.143 C 
ENDBRANCH  13  22
ENDBRANCH   9  12
ENDBRANCH   7   9
ENDBRANCH   6   7
BRANCH   6  25
ATOM     25  C   UNL A   1      29.963  26.468  23.379  1.00  0.00     0.186 C 
BRANCH  25  26
ATOM     26  O   UNL A   1      28.738  27.136  23.690  1.00  0.00    -0.394 OA
ATOM     27  H   UNL A   1      28.930  27.955  24.175  1.00  0.00     0.210 HD
ENDBRANCH  25  26
ENDBRANCH   6  25
ENDBRANCH   3   6
ENDBRANCH   1   2
BRANCH   1  28
ATOM     28  C   UNL A   1      32.922  29.271  24.787  1.00  0.00     0.042 C 
BRANCH  28  29
ATOM     29  C   UNL A   1      33.660  29.368  26.117  1.00  0.00     0.118 C 
BRANCH  29  30
ATOM     30  N   UNL A   1      33.601  30.704  26.695  1.00  0.00    -0.352 N 
ATOM     31  C   UNL A   1      34.387  31.269  27.670  1.00  0.00     0.251 C 
ATOM     32  H   UNL A   1      32.894  31.289  26.334  1.00  0.00     0.163 HD
ATOM     33  O   UNL A   1      34.067  32.339  28.176  1.00  0.00    -0.269 OA
BRANCH  31  34
ATOM     34  C   UNL A   1      35.603  30.562  28.117  1.00  0.00     0.039 A 
ATOM     35  C   UNL A   1      36.824  30.850  27.503  1.00  0.00     0.014 A 
ATOM     36  C   UNL A   1      35.535  29.638  29.161  1.00  0.00     0.014 A 
ATOM     37  C   UNL A   1      37.993  30.263  27.989  1.00  0.00     0.010 A 
ATOM     38  C   UNL A   1      36.708  29.119  29.697  1.00  0.00     0.010 A 
ATOM     39  C   UNL A   1      37.949  29.427  29.117  1.00  0.00    -0.014 A 
BRANCH  39  40
ATOM     40  C   UNL A   1      39.178  28.843  29.707  1.00  0.00     0.031 A 
ATOM     41  C   UNL A   1      39.768  29.457  30.946  1.00  0.00     0.074 A 
ATOM     42  C   UNL A   1      39.809  27.832  29.079  1.00  0.00     0.049 A 
ATOM     43  N   UNL A   1      40.911  29.210  31.531  1.00  0.00    -0.248 NA
ATOM     44  C   UNL A   1      38.982  30.525  31.585  1.00  0.00     0.031 C 
ATOM     45  C   UNL A   1      39.349  27.180  27.849  1.00  0.00     0.029 A 
ATOM     46  N   UNL A   1      40.983  27.186  29.376  1.00  0.00    -0.354 N 
ATOM     47  C   UNL A   1      40.993  30.107  32.591  1.00  0.00     0.074 A 
ATOM     48  C   UNL A   1      39.811  30.941  32.529  1.00  0.00     0.031 C 
ATOM     49  C   UNL A   1      40.225  26.221  27.506  1.00  0.00     0.029 A 
ATOM     50  C   UNL A   1      41.329  26.220  28.460  1.00  0.00     0.049 A 
ATOM     51  H   UNL A   1      41.525  27.395  30.170  1.00  0.00     0.167 HD
ATOM     52  C   UNL A   1      41.956  30.210  33.540  1.00  0.00     0.034 A 
ATOM     53  C   UNL A   1      42.425  25.439  28.385  1.00  0.00     0.034 A 
ATOM     54  C   UNL A   1      43.110  29.349  33.602  1.00  0.00     0.049 A 
ATOM     55  C   UNL A   1      43.491  25.584  29.440  1.00  0.00     0.074 A 
ATOM     56  C   UNL A   1      44.106  29.305  34.562  1.00  0.00     0.029 A 
ATOM     57  N   UNL A   1      43.427  28.379  32.658  1.00  0.00    -0.354 N 
ATOM     58  N   UNL A   1      43.533  26.406  30.463  1.00  0.00    -0.248 NA
ATOM     59  C   UNL A   1      44.656  24.697  29.329  1.00  0.00     0.031 C 
ATOM     60  C   UNL A   1      45.053  28.352  34.169  1.00  0.00     0.029 A 
ATOM     61  C   UNL A   1      44.618  27.758  32.995  1.00  0.00     0.049 A 
ATOM     62  H   UNL A   1      42.884  28.165  31.866  1.00  0.00     0.167 HD
ATOM     63  C   UNL A   1      44.723  26.123  31.126  1.00  0.00     0.074 A 
ATOM     64  C   UNL A   1      45.358  25.043  30.398  1.00  0.00     0.031 C 
ATOM     65  C   UNL A   1      45.245  26.699  32.239  1.00  0.00     0.034 A 
BRANCH  52  66
ATOM     66  C   UNL A   1      41.804  31.307  34.565  1.00  0.00     0.023 A 
ATOM     67  C   UNL A   1      40.772  31.286  35.520  1.00  0.00     0.031 A 
ATOM     68  C   UNL A   1      42.676  32.410  34.563  1.00  0.00     0.131 A 
ATOM     69  C   UNL A   1      40.586  32.383  36.375  1.00  0.00     0.055 A 
ATOM     70  C   UNL A   1      42.536  33.461  35.472  1.00  0.00     0.041 A 
ATOM     71  F   UNL A   1      43.669  32.494  33.663  1.00  0.00    -0.206 F 
ATOM     72  C   UNL A   1      41.476  33.459  36.374  1.00  0.00     0.022 A 
BRANCH  69  73
ATOM     73  S   UNL A   1      39.081  32.447  37.385  1.00  0.00     0.124 S 
ATOM     74  O   UNL A   1      38.402  33.613  36.826  1.00  0.00    -0.237 OA
ATOM     75  O   UNL A   1      38.463  31.155  37.110  1.00  0.00    -0.237 OA
ATOM     76  O   UNL A   1      39.588  32.620  38.744  1.00  0.00    -0.744 OA
ENDBRANCH  69  73
ENDBRANCH  52  66
BRANCH  53  77
ATOM     77  C   UNL A   1      42.589  24.472  27.264  1.00  0.00     0.023 A 
ATOM     78  C   UNL A   1      42.036  23.185  27.335  1.00  0.00     0.031 A 
ATOM     79  C   UNL A   1      43.330  24.811  26.117  1.00  0.00     0.131 A 
ATOM     80  C   UNL A   1      42.264  22.267  26.300  1.00  0.00     0.055 A 
ATOM     81  C   UNL A   1      43.518  23.909  25.070  1.00  0.00     0.041 A 
ATOM     82  F   UNL A   1      43.875  26.032  25.996  1.00  0.00    -0.206 F 
ATOM     83  C   UNL A   1      42.993  22.623  25.162  1.00  0.00     0.022 A 
BRANCH  80  84
ATOM     84  S   UNL A   1      41.655  20.569  26.492  1.00  0.00     0.124 S 
ATOM     85  O   UNL A   1      40.222  20.743  26.288  1.00  0.00    -0.237 OA
ATOM     86  O   UNL A   1      42.375  19.869  25.433  1.00  0.00    -0.237 OA
ATOM     87  O   UNL A   1      42.055  20.217  27.852  1.00  0.00    -0.744 OA
ENDBRANCH  80  84
ENDBRANCH  53  77
BRANCH  65  88
ATOM     88  C   UNL A   1      46.556  26.151  32.736  1.00  0.00     0.023 A 
ATOM     89  C   UNL A   1      46.606  25.072  33.635  1.00  0.00     0.031 A 
ATOM     90  C   UNL A   1      47.770  26.719  32.311  1.00  0.00     0.131 A 
ATOM     91  C   UNL A   1      47.843  24.622  34.117  1.00  0.00     0.055 A 
ATOM     92  C   UNL A   1      49.000  26.234  32.754  1.00  0.00     0.041 A 
ATOM     93  F   UNL A   1      47.776  27.752  31.453  1.00  0.00    -0.206 F 
ATOM     94  C   UNL A   1      49.041  25.186  33.670  1.00  0.00     0.022 A 
BRANCH  91  95
ATOM     95  S   UNL A   1      47.865  23.331  35.390  1.00  0.00     0.124 S 
ATOM     96  O   UNL A   1      49.181  23.522  35.992  1.00  0.00    -0.237 OA
ATOM     97  O   UNL A   1      46.724  23.692  36.224  1.00  0.00    -0.237 OA
ATOM     98  O   UNL A   1      47.706  22.094  34.627  1.00  0.00    -0.744 OA
ENDBRANCH  91  95
ENDBRANCH  65  88
ENDBRANCH  39  40
ENDBRANCH  31  34
ENDBRANCH  29  30
ENDBRANCH  28  29
ENDBRANCH   1  28
TORSDOF 19
ENDMDL
MODEL 2
REMARK VINA RESULT:     -11.7      2.352      8.413
REMARK SMILES CN(C)c1cccc2c(S(=O)(=O)N[C@H](CO)C(=O)NCCCNC(=O)c3ccc(-c4c5nc(c(-c6cc(S(=O)(=O)[O-])ccc6F)c6ccc([nH]6)c(-c6cc(S(=O)(=O)[O-])ccc6F)c6nc(c(-c7cc(S(=O)(=O)[O-])ccc7F)c7ccc4[nH]7)C=C6)C=C5)cc3)cccc12
REMARK SMILES IDX 20 1 19 2 17 3 18 4 14 6 13 7 10 9 11 10 12 11 9 12 4 13
REMARK SMILES IDX 5 14 92 15 6 16 8 17 91 18 7 19 90 20 89 21 2 22 1 23 3 24
REMARK SMILES IDX 15 25 16 26 21 28 22 29 23 30 24 31 25 33 26 34 27 35 88 36
REMARK SMILES IDX 28 37 87 38 29 39 30 40 31 41 81 42 32 43 86 44 80 45 82 46
REMARK SMILES IDX 33 47 85 48 79 49 78 50 34 52 66 53 46 54 65 55 47 56 50 57
REMARK SMILES IDX 64 58 83 59 48 60 49 61 63 63 84 64 51 65 35 66 36 67 44 68
REMARK SMILES IDX 37 69 43 70 45 71 42 72 38 73 39 74 40 75 41 76 67 77 68 78
REMARK SMILES IDX 76 79 69 80 75 81 77 82 74 83 70 84 71 85 72 86 73 87 52 88
REMARK SMILES IDX 53 89 61 90 54 91 60 92 62 93 59 94 55 95 56 96 57 97 58 98
REMARK H PARENT 19 5 13 8 16 27 23 32 82 51 50 62
REMARK Flexibility Score: inf
ROOT
ATOM      1  C   UNL A   1      32.675  26.556  26.451  1.00  0.00     0.117 C 
ENDROOT
BRANCH   1   2
ATOM      2  N   UNL A   1      31.716  25.589  26.953  1.00  0.00    -0.355 N 
ATOM      3  C   UNL A   1      31.578  24.271  26.678  1.00  0.00     0.240 C 
ATOM      4  O   UNL A   1      30.732  23.647  27.328  1.00  0.00    -0.273 OA
ATOM      5  H   UNL A   1      31.063  25.950  27.595  1.00  0.00     0.163 HD
BRANCH   3   6
ATOM      6  C   UNL A   1      32.369  23.567  25.595  1.00  0.00     0.184 C 
BRANCH   6   7
ATOM      7  N   UNL A   1      32.023  23.724  24.166  1.00  0.00    -0.196 NA
ATOM      8  H   UNL A   1      31.916  22.777  23.803  1.00  0.00     0.142 HD
BRANCH   7   9
ATOM      9  S   UNL A   1      32.972  24.532  23.048  1.00  0.00     0.241 S 
ATOM     10  O   UNL A   1      32.693  23.946  21.753  1.00  0.00    -0.207 OA
ATOM     11  O   UNL A   1      34.315  24.486  23.578  1.00  0.00    -0.207 OA
BRANCH   9  12
ATOM     12  C   UNL A   1      32.533  26.255  22.949  1.00  0.00     0.090 A 
ATOM     13  C   UNL A   1      29.683  28.708  22.971  1.00  0.00     0.044 A 
ATOM     14  C   UNL A   1      28.638  27.865  23.386  1.00  0.00     0.026 A 
ATOM     15  C   UNL A   1      31.004  28.165  22.893  1.00  0.00     0.006 A 
ATOM     16  C   UNL A   1      28.876  26.560  23.789  1.00  0.00     0.003 A 
ATOM     17  C   UNL A   1      31.237  26.785  23.186  1.00  0.00     0.004 A 
ATOM     18  C   UNL A   1      32.122  28.969  22.569  1.00  0.00     0.011 A 
ATOM     19  C   UNL A   1      30.164  26.046  23.723  1.00  0.00     0.010 A 
ATOM     20  C   UNL A   1      33.401  28.449  22.408  1.00  0.00     0.002 A 
ATOM     21  C   UNL A   1      33.598  27.090  22.562  1.00  0.00     0.022 A 
BRANCH  13  22
ATOM     22  N   UNL A   1      29.395  30.043  22.630  1.00  0.00    -0.377 N 
ATOM     23  C   UNL A   1      28.664  30.861  23.589  1.00  0.00     0.143 C 
ATOM     24  C   UNL A   1      29.174  30.326  21.212  1.00  0.00     0.143 C 
ENDBRANCH  13  22
ENDBRANCH   9  12
ENDBRANCH   7   9
ENDBRANCH   6   7
BRANCH   6  25
ATOM     25  C   UNL A   1      32.588  22.070  25.908  1.00  0.00     0.186 C 
BRANCH  25  26
ATOM     26  O   UNL A   1      31.504  21.263  25.442  1.00  0.00    -0.394 OA
ATOM     27  H   UNL A   1      31.736  20.325  25.532  1.00  0.00     0.210 HD
ENDBRANCH  25  26
ENDBRANCH   6  25
ENDBRANCH   3   6
ENDBRANCH   1   2
BRANCH   1  28
ATOM     28  C   UNL A   1      32.119  27.970  26.479  1.00  0.00     0.042 C 
BRANCH  28  29
ATOM     29  C   UNL A   1      33.098  29.012  25.950  1.00  0.00     0.118 C 
BRANCH  29  30
ATOM     30  N   UNL A   1      32.681  30.377  26.248  1.00  0.00    -0.352 N 
ATOM     31  C   UNL A   1      33.241  31.292  27.106  1.00  0.00     0.251 C 
ATOM     32  H   UNL A   1      31.881  30.688  25.765  1.00  0.00     0.163 HD
ATOM     33  O   UNL A   1      32.640  32.325  27.382  1.00  0.00    -0.269 OA
BRANCH  31  34
ATOM     34  C   UNL A   1      34.558  31.008  27.708  1.00  0.00     0.039 A 
ATOM     35  C   UNL A   1      35.498  32.035  27.807  1.00  0.00     0.014 A 
ATOM     36  C   UNL A   1      34.846  29.732  28.197  1.00  0.00     0.014 A 
ATOM     37  C   UNL A   1      36.705  31.799  28.468  1.00  0.00     0.010 A 
ATOM     38  C   UNL A   1      36.010  29.523  28.926  1.00  0.00     0.010 A 
ATOM     39  C   UNL A   1      36.951  30.554  29.069  1.00  0.00    -0.014 A 
BRANCH  39  40
ATOM     40  C   UNL A   1      38.189  30.289  29.843  1.00  0.00     0.031 A 
ATOM     41  C   UNL A   1      39.217  29.339  29.295  1.00  0.00     0.074 A 
ATOM     42  C   UNL A   1      38.340  30.826  31.070  1.00  0.00     0.049 A 
ATOM     43  N   UNL A   1      40.283  28.848  29.869  1.00  0.00    -0.248 NA
ATOM     44  C   UNL A   1      38.986  28.843  27.928  1.00  0.00     0.031 C 
ATOM     45  C   UNL A   1      37.391  31.733  31.721  1.00  0.00     0.029 A 
ATOM     46  N   UNL A   1      39.339  30.671  31.998  1.00  0.00    -0.354 N 
ATOM     47  C   UNL A   1      40.836  27.966  28.947  1.00  0.00     0.074 A 
ATOM     48  C   UNL A   1      39.953  27.949  27.800  1.00  0.00     0.031 C 
ATOM     49  C   UNL A   1      37.860  32.062  32.936  1.00  0.00     0.029 A 
ATOM     50  C   UNL A   1      39.114  31.356  33.170  1.00  0.00     0.049 A 
ATOM     51  H   UNL A   1      40.140  30.122  31.840  1.00  0.00     0.167 HD
ATOM     52  C   UNL A   1      41.986  27.253  29.041  1.00  0.00     0.034 A 
ATOM     53  C   UNL A   1      39.829  31.389  34.313  1.00  0.00     0.034 A 
ATOM     54  C   UNL A   1      42.867  27.308  30.180  1.00  0.00     0.049 A 
ATOM     55  C   UNL A   1      41.093  30.575  34.402  1.00  0.00     0.074 A 
ATOM     56  C   UNL A   1      44.097  26.697  30.352  1.00  0.00     0.029 A 
ATOM     57  N   UNL A   1      42.609  28.016  31.348  1.00  0.00    -0.354 N 
ATOM     58  N   UNL A   1      41.628  29.781  33.503  1.00  0.00    -0.248 NA
ATOM     59  C   UNL A   1      41.848  30.661  35.659  1.00  0.00     0.031 C 
ATOM     60  C   UNL A   1      44.554  26.986  31.643  1.00  0.00     0.029 A 
ATOM     61  C   UNL A   1      43.639  27.827  32.256  1.00  0.00     0.049 A 
ATOM     62  H   UNL A   1      41.811  28.569  31.508  1.00  0.00     0.167 HD
ATOM     63  C   UNL A   1      42.792  29.284  34.082  1.00  0.00     0.074 A 
ATOM     64  C   UNL A   1      42.889  29.883  35.398  1.00  0.00     0.031 C 
ATOM     65  C   UNL A   1      43.702  28.416  33.573  1.00  0.00     0.034 A 
BRANCH  52  66
ATOM     66  C   UNL A   1      42.332  26.342  27.889  1.00  0.00     0.023 A 
ATOM     67  C   UNL A   1      41.821  25.036  27.802  1.00  0.00     0.031 A 
ATOM     68  C   UNL A   1      43.220  26.770  26.885  1.00  0.00     0.131 A 
ATOM     69  C   UNL A   1      42.263  24.176  26.785  1.00  0.00     0.055 A 
ATOM     70  C   UNL A   1      43.593  25.936  25.828  1.00  0.00     0.041 A 
ATOM     71  F   UNL A   1      43.755  28.000  26.925  1.00  0.00    -0.206 F 
ATOM     72  C   UNL A   1      43.127  24.625  25.784  1.00  0.00     0.022 A 
BRANCH  69  73
ATOM     73  S   UNL A   1      41.807  22.423  26.875  1.00  0.00     0.124 S 
ATOM     74  O   UNL A   1      42.071  21.980  25.509  1.00  0.00    -0.237 OA
ATOM     75  O   UNL A   1      42.713  21.914  27.898  1.00  0.00    -0.237 OA
ATOM     76  O   UNL A   1      40.396  22.456  27.251  1.00  0.00    -0.744 OA
ENDBRANCH  69  73
ENDBRANCH  52  66
BRANCH  53  77
ATOM     77  C   UNL A   1      39.359  32.196  35.474  1.00  0.00     0.023 A 
ATOM     78  C   UNL A   1      39.781  33.522  35.648  1.00  0.00     0.031 A 
ATOM     79  C   UNL A   1      38.505  31.641  36.445  1.00  0.00     0.131 A 
ATOM     80  C   UNL A   1      39.384  34.239  36.787  1.00  0.00     0.055 A 
ATOM     81  C   UNL A   1      38.078  32.372  37.553  1.00  0.00     0.041 A 
ATOM     82  F   UNL A   1      38.067  30.378  36.321  1.00  0.00    -0.206 F 
ATOM     83  C   UNL A   1      38.526  33.676  37.736  1.00  0.00     0.022 A 
BRANCH  80  84
ATOM     84  S   UNL A   1      40.065  35.900  37.050  1.00  0.00     0.124 S 
ATOM     85  O   UNL A   1      39.353  36.325  38.250  1.00  0.00    -0.237 OA
ATOM     86  O   UNL A   1      41.488  35.620  37.212  1.00  0.00    -0.237 OA
ATOM     87  O   UNL A   1      39.708  36.611  35.825  1.00  0.00    -0.744 OA
ENDBRANCH  80  84
ENDBRANCH  53  77
BRANCH  65  88
ATOM     88  C   UNL A   1      44.885  28.085  34.444  1.00  0.00     0.023 A 
ATOM     89  C   UNL A   1      44.859  26.996  35.332  1.00  0.00     0.031 A 
ATOM     90  C   UNL A   1      46.048  28.872  34.390  1.00  0.00     0.131 A 
ATOM     91  C   UNL A   1      45.960  26.750  36.165  1.00  0.00     0.055 A 
ATOM     92  C   UNL A   1      47.160  28.591  35.184  1.00  0.00     0.041 A 
ATOM     93  F   UNL A   1      46.122  29.924  33.558  1.00  0.00    -0.206 F 
ATOM     94  C   UNL A   1      47.116  27.531  36.085  1.00  0.00     0.022 A 
BRANCH  91  95
ATOM     95  S   UNL A   1      45.836  25.433  37.405  1.00  0.00     0.124 S 
ATOM     96  O   UNL A   1      46.871  25.816  38.359  1.00  0.00    -0.237 OA
ATOM     97  O   UNL A   1      44.459  25.567  37.869  1.00  0.00    -0.237 OA
ATOM     98  O   UNL A   1      46.115  24.217  36.642  1.00  0.00    -0.744 OA
ENDBRANCH  91  95
ENDBRANCH  65  88
ENDBRANCH  39  40
ENDBRANCH  31  34
ENDBRANCH  29  30
ENDBRANCH  28  29
ENDBRANCH   1  28
TORSDOF 19
ENDMDL
MODEL 3
REMARK VINA RESULT:     -11.4      2.845      4.495
REMARK SMILES CN(C)c1cccc2c(S(=O)(=O)N[C@H](CO)C(=O)NCCCNC(=O)c3ccc(-c4c5nc(c(-c6cc(S(=O)(=O)[O-])ccc6F)c6ccc([nH]6)c(-c6cc(S(=O)(=O)[O-])ccc6F)c6nc(c(-c7cc(S(=O)(=O)[O-])ccc7F)c7ccc4[nH]7)C=C6)C=C5)cc3)cccc12
REMARK SMILES IDX 20 1 19 2 17 3 18 4 14 6 13 7 10 9 11 10 12 11 9 12 4 13
REMARK SMILES IDX 5 14 92 15 6 16 8 17 91 18 7 19 90 20 89 21 2 22 1 23 3 24
REMARK SMILES IDX 15 25 16 26 21 28 22 29 23 30 24 31 25 33 26 34 27 35 88 36
REMARK SMILES IDX 28 37 87 38 29 39 30 40 31 41 81 42 32 43 86 44 80 45 82 46
REMARK SMILES IDX 33 47 85 48 79 49 78 50 34 52 66 53 46 54 65 55 47 56 50 57
REMARK SMILES IDX 64 58 83 59 48 60 49 61 63 63 84 64 51 65 35 66 36 67 44 68
REMARK SMILES IDX 37 69 43 70 45 71 42 72 38 73 39 74 40 75 41 76 67 77 68 78
REMARK SMILES IDX 76 79 69 80 75 81 77 82 74 83 70 84 71 85 72 86 73 87 52 88
REMARK SMILES IDX 53 89 61 90 54 91 60 92 62 93 59 94 55 95 56 96 57 97 58 98
REMARK H PARENT 19 5 13 8 16 27 23 32 82 51 50 62
REMARK Flexibility Score: inf
ROOT
ATOM      1  C   UNL A   1      32.178  27.342  26.792  1.00  0.00     0.117 C 
ENDROOT
BRANCH   1   2
ATOM      2  N   UNL A   1      31.082  26.391  26.799  1.00  0.00    -0.355 N 
ATOM      3  C   UNL A   1      31.079  25.058  26.562  1.00  0.00     0.240 C 
ATOM      4  O   UNL A   1      30.012  24.459  26.734  1.00  0.00    -0.273 OA
ATOM      5  H   UNL A   1      30.201  26.776  27.008  1.00  0.00     0.163 HD
BRANCH   3   6
ATOM      6  C   UNL A   1      32.295  24.307  26.059  1.00  0.00     0.184 C 
BRANCH   6   7
ATOM      7  N   UNL A   1      32.818  24.519  24.693  1.00  0.00    -0.196 NA
ATOM      8  H   UNL A   1      33.432  25.331  24.756  1.00  0.00     0.142 HD
BRANCH   7   9
ATOM      9  S   UNL A   1      31.860  24.782  23.345  1.00  0.00     0.241 S 
ATOM     10  O   UNL A   1      30.616  24.074  23.565  1.00  0.00    -0.207 OA
ATOM     11  O   UNL A   1      32.687  24.438  22.212  1.00  0.00    -0.207 OA
BRANCH   9  12
ATOM     12  C   UNL A   1      31.454  26.507  23.163  1.00  0.00     0.090 A 
ATOM     13  C   UNL A   1      28.649  29.004  22.972  1.00  0.00     0.044 A 
ATOM     14  C   UNL A   1      27.573  28.193  23.372  1.00  0.00     0.026 A 
ATOM     15  C   UNL A   1      29.963  28.437  22.971  1.00  0.00     0.006 A 
ATOM     16  C   UNL A   1      27.771  26.900  23.832  1.00  0.00     0.003 A 
ATOM     17  C   UNL A   1      30.160  27.066  23.325  1.00  0.00     0.004 A 
ATOM     18  C   UNL A   1      31.107  29.211  22.667  1.00  0.00     0.011 A 
ATOM     19  C   UNL A   1      29.052  26.364  23.841  1.00  0.00     0.010 A 
ATOM     20  C   UNL A   1      32.383  28.666  22.580  1.00  0.00     0.002 A 
ATOM     21  C   UNL A   1      32.550  27.310  22.793  1.00  0.00     0.022 A 
BRANCH  13  22
ATOM     22  N   UNL A   1      28.400  30.329  22.571  1.00  0.00    -0.377 N 
ATOM     23  C   UNL A   1      27.719  31.219  23.502  1.00  0.00     0.143 C 
ATOM     24  C   UNL A   1      28.155  30.548  21.145  1.00  0.00     0.143 C 
ENDBRANCH  13  22
ENDBRANCH   9  12
ENDBRANCH   7   9
ENDBRANCH   6   7
BRANCH   6  25
ATOM     25  C   UNL A   1      32.208  22.791  26.345  1.00  0.00     0.186 C 
BRANCH  25  26
ATOM     26  O   UNL A   1      31.870  22.524  27.708  1.00  0.00    -0.394 OA
ATOM     27  H   UNL A   1      30.997  22.101  27.748  1.00  0.00     0.210 HD
ENDBRANCH  25  26
ENDBRANCH   6  25
ENDBRANCH   3   6
ENDBRANCH   1   2
BRANCH   1  28
ATOM     28  C   UNL A   1      31.721  28.727  26.365  1.00  0.00     0.042 C 
BRANCH  28  29
ATOM     29  C   UNL A   1      32.875  29.657  26.007  1.00  0.00     0.118 C 
BRANCH  29  30
ATOM     30  N   UNL A   1      32.613  31.043  26.374  1.00  0.00    -0.352 N 
ATOM     31  C   UNL A   1      33.290  31.858  27.249  1.00  0.00     0.251 C 
ATOM     32  H   UNL A   1      31.837  31.457  25.928  1.00  0.00     0.163 HD
ATOM     33  O   UNL A   1      32.808  32.934  27.585  1.00  0.00    -0.269 OA
BRANCH  31  34
ATOM     34  C   UNL A   1      34.585  31.412  27.796  1.00  0.00     0.039 A 
ATOM     35  C   UNL A   1      35.606  32.346  27.981  1.00  0.00     0.014 A 
ATOM     36  C   UNL A   1      34.775  30.074  28.152  1.00  0.00     0.014 A 
ATOM     37  C   UNL A   1      36.796  31.952  28.595  1.00  0.00     0.010 A 
ATOM     38  C   UNL A   1      35.926  29.703  28.836  1.00  0.00     0.010 A 
ATOM     39  C   UNL A   1      36.947  30.637  29.065  1.00  0.00    -0.014 A 
BRANCH  39  40
ATOM     40  C   UNL A   1      38.168  30.200  29.787  1.00  0.00     0.031 A 
ATOM     41  C   UNL A   1      38.418  30.693  31.185  1.00  0.00     0.074 A 
ATOM     42  C   UNL A   1      39.087  29.445  29.154  1.00  0.00     0.049 A 
ATOM     43  N   UNL A   1      39.483  30.565  31.932  1.00  0.00    -0.248 NA
ATOM     44  C   UNL A   1      37.335  31.471  31.808  1.00  0.00     0.031 C 
ATOM     45  C   UNL A   1      38.969  28.939  27.784  1.00  0.00     0.029 A 
ATOM     46  N   UNL A   1      40.311  28.987  29.571  1.00  0.00    -0.354 N 
ATOM     47  C   UNL A   1      39.210  31.269  33.100  1.00  0.00     0.074 A 
ATOM     48  C   UNL A   1      37.902  31.867  32.936  1.00  0.00     0.031 C 
ATOM     49  C   UNL A   1      40.070  28.231  27.480  1.00  0.00     0.029 A 
ATOM     50  C   UNL A   1      40.990  28.273  28.612  1.00  0.00     0.049 A 
ATOM     51  H   UNL A   1      40.669  29.154  30.473  1.00  0.00     0.167 HD
ATOM     52  C   UNL A   1      39.973  31.385  34.215  1.00  0.00     0.034 A 
ATOM     53  C   UNL A   1      42.225  27.733  28.635  1.00  0.00     0.034 A 
ATOM     54  C   UNL A   1      41.260  30.755  34.371  1.00  0.00     0.049 A 
ATOM     55  C   UNL A   1      43.062  27.891  29.878  1.00  0.00     0.074 A 
ATOM     56  C   UNL A   1      42.083  30.734  35.483  1.00  0.00     0.029 A 
ATOM     57  N   UNL A   1      41.915  30.036  33.379  1.00  0.00    -0.354 N 
ATOM     58  N   UNL A   1      42.772  28.520  30.993  1.00  0.00    -0.248 NA
ATOM     59  C   UNL A   1      44.392  27.268  29.863  1.00  0.00     0.031 C 
ATOM     60  C   UNL A   1      43.259  30.054  35.145  1.00  0.00     0.029 A 
ATOM     61  C   UNL A   1      43.146  29.598  33.841  1.00  0.00     0.049 A 
ATOM     62  H   UNL A   1      41.558  29.864  32.478  1.00  0.00     0.167 HD
ATOM     63  C   UNL A   1      43.879  28.354  31.820  1.00  0.00     0.074 A 
ATOM     64  C   UNL A   1      44.832  27.551  31.081  1.00  0.00     0.031 C 
ATOM     65  C   UNL A   1      44.090  28.819  33.076  1.00  0.00     0.034 A 
BRANCH  52  66
ATOM     66  C   UNL A   1      39.437  32.244  35.335  1.00  0.00     0.023 A 
ATOM     67  C   UNL A   1      39.793  33.598  35.462  1.00  0.00     0.031 A 
ATOM     68  C   UNL A   1      38.591  31.691  36.313  1.00  0.00     0.131 A 
ATOM     69  C   UNL A   1      39.376  34.330  36.584  1.00  0.00     0.055 A 
ATOM     70  C   UNL A   1      38.111  32.449  37.384  1.00  0.00     0.041 A 
ATOM     71  F   UNL A   1      38.231  30.399  36.255  1.00  0.00    -0.206 F 
ATOM     72  C   UNL A   1      38.518  33.772  37.533  1.00  0.00     0.022 A 
BRANCH  69  73
ATOM     73  S   UNL A   1      40.090  35.974  36.857  1.00  0.00     0.124 S 
ATOM     74  O   UNL A   1      39.240  36.490  37.927  1.00  0.00    -0.237 OA
ATOM     75  O   UNL A   1      41.466  35.662  37.229  1.00  0.00    -0.237 OA
ATOM     76  O   UNL A   1      39.928  36.637  35.566  1.00  0.00    -0.744 OA
ENDBRANCH  69  73
ENDBRANCH  52  66
BRANCH  53  77
ATOM     77  C   UNL A   1      42.760  27.019  27.442  1.00  0.00     0.023 A 
ATOM     78  C   UNL A   1      42.508  25.653  27.247  1.00  0.00     0.031 A 
ATOM     79  C   UNL A   1      43.560  27.685  26.495  1.00  0.00     0.131 A 
ATOM     80  C   UNL A   1      43.082  24.984  26.155  1.00  0.00     0.055 A 
ATOM     81  C   UNL A   1      44.092  27.026  25.387  1.00  0.00     0.041 A 
ATOM     82  F   UNL A   1      43.825  28.994  26.633  1.00  0.00    -0.206 F 
ATOM     83  C   UNL A   1      43.864  25.664  25.217  1.00  0.00     0.022 A 
BRANCH  80  84
ATOM     84  S   UNL A   1      42.851  23.190  26.014  1.00  0.00     0.124 S 
ATOM     85  O   UNL A   1      43.866  22.687  26.932  1.00  0.00    -0.237 OA
ATOM     86  O   UNL A   1      41.464  23.031  26.439  1.00  0.00    -0.237 OA
ATOM     87  O   UNL A   1      43.101  22.926  24.599  1.00  0.00    -0.744 OA
ENDBRANCH  80  84
ENDBRANCH  53  77
BRANCH  65  88
ATOM     88  C   UNL A   1      45.396  28.447  33.727  1.00  0.00     0.023 A 
ATOM     89  C   UNL A   1      46.535  29.263  33.605  1.00  0.00     0.031 A 
ATOM     90  C   UNL A   1      45.506  27.259  34.471  1.00  0.00     0.131 A 
ATOM     91  C   UNL A   1      47.747  28.859  34.180  1.00  0.00     0.055 A 
ATOM     92  C   UNL A   1      46.703  26.888  35.085  1.00  0.00     0.041 A 
ATOM     93  F   UNL A   1      44.448  26.445  34.617  1.00  0.00    -0.206 F 
ATOM     94  C   UNL A   1      47.834  27.684  34.933  1.00  0.00     0.022 A 
BRANCH  91  95
ATOM     95  S   UNL A   1      49.231  29.856  33.877  1.00  0.00     0.124 S 
ATOM     96  O   UNL A   1      49.838  29.161  32.747  1.00  0.00    -0.237 OA
ATOM     97  O   UNL A   1      48.670  31.172  33.589  1.00  0.00    -0.237 OA
ATOM     98  O   UNL A   1      49.971  29.762  35.134  1.00  0.00    -0.744 OA
ENDBRANCH  91  95
ENDBRANCH  65  88
ENDBRANCH  39  40
ENDBRANCH  31  34
ENDBRANCH  29  30
ENDBRANCH  28  29
ENDBRANCH   1  28
TORSDOF 19
ENDMDL
