MODEL 1
REMARK VINA RESULT:     -13.5      0.000      0.000
REMARK SMILES CC1=C(CC(=O)NCCCNC(=O)c2ccc(-c3c4nc(c(-c5cc(S(=O)(=O)[O-])ccc5F)c5ccc([nH]5)c(-c5cc(S(=O)(=O)[O-])ccc5F)c5nc(c(-c6cc(S(=O)(=O)[O-])ccc6F)c6ccc3[nH]6)C=C5)C=C4)cc2)c2cc(F)ccc2/C1=C\c1ccc([S@@+](C)[O-])cc1
REMARK SMILES IDX 9 1 8 2 7 3 5 4 6 5 4 7 3 8 1 9 2 10 84 11 77 12 83 13 85 14
REMARK SMILES IDX 78 15 82 16 79 17 81 18 80 19 86 20 87 21 94 22 88 23 93 24
REMARK SMILES IDX 89 25 90 26 91 27 92 28 10 29 11 30 12 31 13 33 14 34 15 35
REMARK SMILES IDX 76 36 16 37 75 38 17 39 18 40 19 41 69 42 20 43 74 44 68 45
REMARK SMILES IDX 70 46 21 47 73 48 67 49 66 50 22 52 54 53 34 54 53 55 35 56
REMARK SMILES IDX 38 57 52 58 71 59 36 60 37 61 51 63 72 64 39 65 23 66 24 67
REMARK SMILES IDX 32 68 25 69 31 70 33 71 30 72 26 73 27 74 28 75 29 76 55 77
REMARK SMILES IDX 56 78 64 79 57 80 63 81 65 82 62 83 58 84 59 85 60 86 61 87
REMARK SMILES IDX 40 88 41 89 49 90 42 91 48 92 50 93 47 94 43 95 44 96 45 97
REMARK SMILES IDX 46 98
REMARK H PARENT 7 6 11 32 70 51 38 62
REMARK Flexibility Score: inf
ROOT
ATOM      1  C   UNL A   1      35.162  21.768  26.607  1.00  0.00     0.042 C 
ENDROOT
BRANCH   1   2
ATOM      2  C   UNL A   1      33.760  21.371  26.159  1.00  0.00     0.117 C 
BRANCH   2   3
ATOM      3  N   UNL A   1      32.726  22.119  26.849  1.00  0.00    -0.356 N 
ATOM      4  C   UNL A   1      32.411  23.441  26.751  1.00  0.00     0.224 C 
ATOM      5  O   UNL A   1      31.489  23.873  27.448  1.00  0.00    -0.275 OA
ATOM      6  H   UNL A   1      32.175  21.597  27.476  1.00  0.00     0.163 HD
BRANCH   4   7
ATOM      7  C   UNL A   1      33.151  24.346  25.769  1.00  0.00     0.136 C 
BRANCH   7   8
ATOM      8  C   UNL A   1      32.305  25.436  25.194  1.00  0.00    -0.027 C 
ATOM      9  C   UNL A   1      30.734  24.136  23.645  1.00  0.00     0.045 C 
ATOM     10  C   UNL A   1      31.295  25.358  24.295  1.00  0.00    -0.039 C 
ATOM     11  C   UNL A   1      30.770  26.707  24.017  1.00  0.00    -0.014 C 
ATOM     12  C   UNL A   1      32.433  26.848  25.601  1.00  0.00    -0.011 A 
ATOM     13  C   UNL A   1      31.476  27.629  24.926  1.00  0.00    -0.010 A 
ATOM     14  C   UNL A   1      29.860  26.988  23.064  1.00  0.00     0.017 C 
ATOM     15  C   UNL A   1      33.302  27.429  26.517  1.00  0.00     0.048 A 
ATOM     16  C   UNL A   1      31.349  28.984  25.207  1.00  0.00     0.012 A 
ATOM     17  C   UNL A   1      33.196  28.797  26.753  1.00  0.00     0.123 A 
ATOM     18  C   UNL A   1      32.228  29.573  26.117  1.00  0.00     0.040 A 
ATOM     19  F   UNL A   1      34.031  29.378  27.624  1.00  0.00    -0.207 F 
BRANCH  14  20
ATOM     20  C   UNL A   1      29.341  28.320  22.742  1.00  0.00    -0.025 A 
ATOM     21  C   UNL A   1      30.136  29.271  22.093  1.00  0.00     0.013 A 
ATOM     22  C   UNL A   1      28.061  28.675  23.174  1.00  0.00     0.013 A 
ATOM     23  C   UNL A   1      29.705  30.599  21.990  1.00  0.00     0.061 A 
ATOM     24  C   UNL A   1      27.625  29.996  23.056  1.00  0.00     0.061 A 
ATOM     25  C   UNL A   1      28.458  30.978  22.502  1.00  0.00     0.152 A 
BRANCH  25  26
ATOM     26  S   UNL A   1      27.994  32.722  22.634  1.00  0.00    -0.018 S 
ATOM     27  C   UNL A   1      29.529  33.405  23.287  1.00  0.00     0.346 C 
ATOM     28  O   UNL A   1      27.790  33.252  21.168  1.00  0.00    -0.612 OA
ENDBRANCH  25  26
ENDBRANCH  14  20
ENDBRANCH   7   8
ENDBRANCH   4   7
ENDBRANCH   2   3
ENDBRANCH   1   2
BRANCH   1  29
ATOM     29  C   UNL A   1      36.160  21.921  25.464  1.00  0.00     0.118 C 
BRANCH  29  30
ATOM     30  N   UNL A   1      37.205  20.906  25.486  1.00  0.00    -0.352 N 
ATOM     31  C   UNL A   1      38.551  21.025  25.741  1.00  0.00     0.251 C 
ATOM     32  H   UNL A   1      36.900  19.991  25.287  1.00  0.00     0.163 HD
ATOM     33  O   UNL A   1      39.288  20.062  25.540  1.00  0.00    -0.269 OA
BRANCH  31  34
ATOM     34  C   UNL A   1      39.115  22.310  26.215  1.00  0.00     0.039 A 
ATOM     35  C   UNL A   1      38.546  23.527  25.838  1.00  0.00     0.014 A 
ATOM     36  C   UNL A   1      40.235  22.293  27.051  1.00  0.00     0.014 A 
ATOM     37  C   UNL A   1      39.198  24.718  26.142  1.00  0.00     0.010 A 
ATOM     38  C   UNL A   1      40.839  23.497  27.431  1.00  0.00     0.010 A 
ATOM     39  C   UNL A   1      40.359  24.718  26.933  1.00  0.00    -0.014 A 
BRANCH  39  40
ATOM     40  C   UNL A   1      41.050  26.003  27.220  1.00  0.00     0.031 A 
ATOM     41  C   UNL A   1      40.413  27.036  28.109  1.00  0.00     0.074 A 
ATOM     42  C   UNL A   1      42.285  26.212  26.721  1.00  0.00     0.049 A 
ATOM     43  N   UNL A   1      40.896  28.184  28.512  1.00  0.00    -0.248 NA
ATOM     44  C   UNL A   1      39.061  26.749  28.614  1.00  0.00     0.031 C 
ATOM     45  C   UNL A   1      43.001  25.277  25.853  1.00  0.00     0.029 A 
ATOM     46  N   UNL A   1      43.164  27.253  26.886  1.00  0.00    -0.354 N 
ATOM     47  C   UNL A   1      39.905  28.762  29.297  1.00  0.00     0.074 A 
ATOM     48  C   UNL A   1      38.781  27.854  29.291  1.00  0.00     0.031 C 
ATOM     49  C   UNL A   1      44.228  25.757  25.609  1.00  0.00     0.029 A 
ATOM     50  C   UNL A   1      44.366  27.067  26.244  1.00  0.00     0.049 A 
ATOM     51  H   UNL A   1      42.954  28.057  27.415  1.00  0.00     0.167 HD
ATOM     52  C   UNL A   1      39.940  29.937  29.972  1.00  0.00     0.034 A 
ATOM     53  C   UNL A   1      45.455  27.858  26.162  1.00  0.00     0.034 A 
ATOM     54  C   UNL A   1      41.072  30.827  29.979  1.00  0.00     0.049 A 
ATOM     55  C   UNL A   1      45.456  29.173  26.898  1.00  0.00     0.074 A 
ATOM     56  C   UNL A   1      41.210  32.027  30.656  1.00  0.00     0.029 A 
ATOM     57  N   UNL A   1      42.254  30.626  29.281  1.00  0.00    -0.354 N 
ATOM     58  N   UNL A   1      44.530  29.679  27.679  1.00  0.00    -0.248 NA
ATOM     59  C   UNL A   1      46.642  30.026  26.746  1.00  0.00     0.031 C 
ATOM     60  C   UNL A   1      42.448  32.577  30.322  1.00  0.00     0.029 A 
ATOM     61  C   UNL A   1      43.116  31.690  29.492  1.00  0.00     0.049 A 
ATOM     62  H   UNL A   1      42.451  29.842  28.719  1.00  0.00     0.167 HD
ATOM     63  C   UNL A   1      45.027  30.901  28.121  1.00  0.00     0.074 A 
ATOM     64  C   UNL A   1      46.348  31.043  27.546  1.00  0.00     0.031 C 
ATOM     65  C   UNL A   1      44.436  31.823  28.923  1.00  0.00     0.034 A 
BRANCH  52  66
ATOM     66  C   UNL A   1      38.728  30.344  30.774  1.00  0.00     0.023 A 
ATOM     67  C   UNL A   1      37.818  31.280  30.249  1.00  0.00     0.031 A 
ATOM     68  C   UNL A   1      38.542  29.906  32.097  1.00  0.00     0.131 A 
ATOM     69  C   UNL A   1      36.786  31.775  31.055  1.00  0.00     0.055 A 
ATOM     70  C   UNL A   1      37.486  30.371  32.882  1.00  0.00     0.041 A 
ATOM     71  F   UNL A   1      39.387  29.015  32.645  1.00  0.00    -0.206 F 
ATOM     72  C   UNL A   1      36.612  31.322  32.366  1.00  0.00     0.022 A 
BRANCH  69  73
ATOM     73  S   UNL A   1      35.664  33.068  30.454  1.00  0.00     0.124 S 
ATOM     74  O   UNL A   1      36.255  34.269  31.039  1.00  0.00    -0.237 OA
ATOM     75  O   UNL A   1      35.805  32.942  29.006  1.00  0.00    -0.237 OA
ATOM     76  O   UNL A   1      34.366  32.686  30.999  1.00  0.00    -0.744 OA
ENDBRANCH  69  73
ENDBRANCH  52  66
BRANCH  53  77
ATOM     77  C   UNL A   1      46.639  27.386  25.387  1.00  0.00     0.023 A 
ATOM     78  C   UNL A   1      46.918  27.901  24.108  1.00  0.00     0.031 A 
ATOM     79  C   UNL A   1      47.437  26.331  25.861  1.00  0.00     0.131 A 
ATOM     80  C   UNL A   1      47.910  27.309  23.318  1.00  0.00     0.055 A 
ATOM     81  C   UNL A   1      48.475  25.793  25.099  1.00  0.00     0.041 A 
ATOM     82  F   UNL A   1      47.203  25.798  27.071  1.00  0.00    -0.206 F 
ATOM     83  C   UNL A   1      48.703  26.269  23.812  1.00  0.00     0.022 A 
BRANCH  80  84
ATOM     84  S   UNL A   1      48.100  27.766  21.571  1.00  0.00     0.124 S 
ATOM     85  O   UNL A   1      49.190  28.734  21.629  1.00  0.00    -0.237 OA
ATOM     86  O   UNL A   1      48.430  26.480  20.960  1.00  0.00    -0.237 OA
ATOM     87  O   UNL A   1      46.794  28.305  21.212  1.00  0.00    -0.744 OA
ENDBRANCH  80  84
ENDBRANCH  53  77
BRANCH  65  88
ATOM     88  C   UNL A   1      45.193  33.089  29.245  1.00  0.00     0.023 A 
ATOM     89  C   UNL A   1      45.092  34.204  28.391  1.00  0.00     0.031 A 
ATOM     90  C   UNL A   1      46.125  33.137  30.296  1.00  0.00     0.131 A 
ATOM     91  C   UNL A   1      45.942  35.302  28.576  1.00  0.00     0.055 A 
ATOM     92  C   UNL A   1      46.936  34.253  30.505  1.00  0.00     0.041 A 
ATOM     93  F   UNL A   1      46.265  32.094  31.129  1.00  0.00    -0.206 F 
ATOM     94  C   UNL A   1      46.857  35.336  29.632  1.00  0.00     0.022 A 
BRANCH  91  95
ATOM     95  S   UNL A   1      45.956  36.681  27.398  1.00  0.00     0.124 S 
ATOM     96  O   UNL A   1      47.111  37.452  27.849  1.00  0.00    -0.237 OA
ATOM     97  O   UNL A   1      46.124  35.992  26.121  1.00  0.00    -0.237 OA
ATOM     98  O   UNL A   1      44.661  37.326  27.596  1.00  0.00    -0.744 OA
ENDBRANCH  91  95
ENDBRANCH  65  88
ENDBRANCH  39  40
ENDBRANCH  31  34
ENDBRANCH  29  30
ENDBRANCH   1  29
TORSDOF 16
ENDMDL
MODEL 2
REMARK VINA RESULT:     -13.5      6.818     10.311
REMARK SMILES CC1=C(CC(=O)NCCCNC(=O)c2ccc(-c3c4nc(c(-c5cc(S(=O)(=O)[O-])ccc5F)c5ccc([nH]5)c(-c5cc(S(=O)(=O)[O-])ccc5F)c5nc(c(-c6cc(S(=O)(=O)[O-])ccc6F)c6ccc3[nH]6)C=C5)C=C4)cc2)c2cc(F)ccc2/C1=C\c1ccc([S@@+](C)[O-])cc1
REMARK SMILES IDX 9 1 8 2 7 3 5 4 6 5 4 7 3 8 1 9 2 10 84 11 77 12 83 13 85 14
REMARK SMILES IDX 78 15 82 16 79 17 81 18 80 19 86 20 87 21 94 22 88 23 93 24
REMARK SMILES IDX 89 25 90 26 91 27 92 28 10 29 11 30 12 31 13 33 14 34 15 35
REMARK SMILES IDX 76 36 16 37 75 38 17 39 18 40 19 41 69 42 20 43 74 44 68 45
REMARK SMILES IDX 70 46 21 47 73 48 67 49 66 50 22 52 54 53 34 54 53 55 35 56
REMARK SMILES IDX 38 57 52 58 71 59 36 60 37 61 51 63 72 64 39 65 23 66 24 67
REMARK SMILES IDX 32 68 25 69 31 70 33 71 30 72 26 73 27 74 28 75 29 76 55 77
REMARK SMILES IDX 56 78 64 79 57 80 63 81 65 82 62 83 58 84 59 85 60 86 61 87
REMARK SMILES IDX 40 88 41 89 49 90 42 91 48 92 50 93 47 94 43 95 44 96 45 97
REMARK SMILES IDX 46 98
REMARK H PARENT 7 6 11 32 70 51 38 62
REMARK Flexibility Score: inf
ROOT
ATOM      1  C   UNL A   1      36.469  33.604  33.400  1.00  0.00     0.042 C 
ENDROOT
BRANCH   1   2
ATOM      2  C   UNL A   1      36.297  34.438  32.136  1.00  0.00     0.117 C 
BRANCH   2   3
ATOM      3  N   UNL A   1      35.008  34.230  31.506  1.00  0.00    -0.356 N 
ATOM      4  C   UNL A   1      34.703  34.131  30.181  1.00  0.00     0.224 C 
ATOM      5  O   UNL A   1      33.522  33.964  29.865  1.00  0.00    -0.275 OA
ATOM      6  H   UNL A   1      34.244  34.149  32.123  1.00  0.00     0.163 HD
BRANCH   4   7
ATOM      7  C   UNL A   1      35.805  34.180  29.126  1.00  0.00     0.136 C 
BRANCH   7   8
ATOM      8  C   UNL A   1      36.470  32.862  28.885  1.00  0.00    -0.027 C 
ATOM      9  C   UNL A   1      38.778  33.226  29.934  1.00  0.00     0.045 C 
ATOM     10  C   UNL A   1      37.720  32.457  29.211  1.00  0.00    -0.039 C 
ATOM     11  C   UNL A   1      37.932  31.074  28.749  1.00  0.00    -0.014 C 
ATOM     12  C   UNL A   1      35.780  31.721  28.254  1.00  0.00    -0.011 A 
ATOM     13  C   UNL A   1      36.642  30.610  28.204  1.00  0.00    -0.010 A 
ATOM     14  C   UNL A   1      39.115  30.429  28.794  1.00  0.00     0.017 C 
ATOM     15  C   UNL A   1      34.479  31.630  27.773  1.00  0.00     0.048 A 
ATOM     16  C   UNL A   1      36.188  29.387  27.724  1.00  0.00     0.012 A 
ATOM     17  C   UNL A   1      34.052  30.413  27.250  1.00  0.00     0.123 A 
ATOM     18  C   UNL A   1      34.886  29.296  27.229  1.00  0.00     0.040 A 
ATOM     19  F   UNL A   1      32.805  30.306  26.772  1.00  0.00    -0.207 F 
BRANCH  14  20
ATOM     20  C   UNL A   1      39.366  29.067  28.315  1.00  0.00    -0.025 A 
ATOM     21  C   UNL A   1      38.954  27.951  29.054  1.00  0.00     0.013 A 
ATOM     22  C   UNL A   1      40.111  28.881  27.149  1.00  0.00     0.013 A 
ATOM     23  C   UNL A   1      39.391  26.669  28.697  1.00  0.00     0.061 A 
ATOM     24  C   UNL A   1      40.531  27.600  26.784  1.00  0.00     0.061 A 
ATOM     25  C   UNL A   1      40.210  26.490  27.577  1.00  0.00     0.152 A 
BRANCH  25  26
ATOM     26  S   UNL A   1      41.013  24.899  27.253  1.00  0.00    -0.018 S 
ATOM     27  C   UNL A   1      41.987  25.332  25.799  1.00  0.00     0.346 C 
ATOM     28  O   UNL A   1      41.992  24.630  28.453  1.00  0.00    -0.612 OA
ENDBRANCH  25  26
ENDBRANCH  14  20
ENDBRANCH   7   8
ENDBRANCH   4   7
ENDBRANCH   2   3
ENDBRANCH   1   2
BRANCH   1  29
ATOM     29  C   UNL A   1      37.296  32.339  33.204  1.00  0.00     0.118 C 
BRANCH  29  30
ATOM     30  N   UNL A   1      36.557  31.280  32.528  1.00  0.00    -0.352 N 
ATOM     31  C   UNL A   1      36.991  30.067  32.044  1.00  0.00     0.251 C 
ATOM     32  H   UNL A   1      35.598  31.460  32.397  1.00  0.00     0.163 HD
ATOM     33  O   UNL A   1      36.232  29.391  31.352  1.00  0.00    -0.269 OA
BRANCH  31  34
ATOM     34  C   UNL A   1      38.368  29.597  32.320  1.00  0.00     0.039 A 
ATOM     35  C   UNL A   1      39.431  30.496  32.402  1.00  0.00     0.014 A 
ATOM     36  C   UNL A   1      38.597  28.229  32.497  1.00  0.00     0.014 A 
ATOM     37  C   UNL A   1      40.736  30.020  32.478  1.00  0.00     0.010 A 
ATOM     38  C   UNL A   1      39.903  27.758  32.662  1.00  0.00     0.010 A 
ATOM     39  C   UNL A   1      40.990  28.643  32.597  1.00  0.00    -0.014 A 
BRANCH  39  40
ATOM     40  C   UNL A   1      42.394  28.159  32.648  1.00  0.00     0.031 A 
ATOM     41  C   UNL A   1      43.056  27.857  33.966  1.00  0.00     0.074 A 
ATOM     42  C   UNL A   1      43.057  27.935  31.495  1.00  0.00     0.049 A 
ATOM     43  N   UNL A   1      44.250  27.374  34.194  1.00  0.00    -0.248 NA
ATOM     44  C   UNL A   1      42.281  28.131  35.187  1.00  0.00     0.031 C 
ATOM     45  C   UNL A   1      42.512  28.185  30.161  1.00  0.00     0.029 A 
ATOM     46  N   UNL A   1      44.308  27.427  31.254  1.00  0.00    -0.354 N 
ATOM     47  C   UNL A   1      44.378  27.304  35.577  1.00  0.00     0.074 A 
ATOM     48  C   UNL A   1      43.151  27.823  36.138  1.00  0.00     0.031 C 
ATOM     49  C   UNL A   1      43.398  27.779  29.242  1.00  0.00     0.029 A 
ATOM     50  C   UNL A   1      44.604  27.303  29.916  1.00  0.00     0.049 A 
ATOM     51  H   UNL A   1      44.936  27.176  31.970  1.00  0.00     0.167 HD
ATOM     52  C   UNL A   1      45.419  26.836  36.307  1.00  0.00     0.034 A 
ATOM     53  C   UNL A   1      45.719  26.865  29.295  1.00  0.00     0.034 A 
ATOM     54  C   UNL A   1      46.632  26.310  35.734  1.00  0.00     0.049 A 
ATOM     55  C   UNL A   1      46.873  26.377  30.132  1.00  0.00     0.074 A 
ATOM     56  C   UNL A   1      47.730  25.787  36.393  1.00  0.00     0.029 A 
ATOM     57  N   UNL A   1      46.912  26.242  34.377  1.00  0.00    -0.354 N 
ATOM     58  N   UNL A   1      46.955  26.269  31.438  1.00  0.00    -0.248 NA
ATOM     59  C   UNL A   1      48.086  25.952  29.419  1.00  0.00     0.031 C 
ATOM     60  C   UNL A   1      48.696  25.457  35.442  1.00  0.00     0.029 A 
ATOM     61  C   UNL A   1      48.175  25.707  34.181  1.00  0.00     0.049 A 
ATOM     62  H   UNL A   1      46.303  26.529  33.659  1.00  0.00     0.167 HD
ATOM     63  C   UNL A   1      48.220  25.752  31.701  1.00  0.00     0.074 A 
ATOM     64  C   UNL A   1      48.856  25.540  30.417  1.00  0.00     0.031 C 
ATOM     65  C   UNL A   1      48.801  25.489  32.898  1.00  0.00     0.034 A 
BRANCH  52  66
ATOM     66  C   UNL A   1      45.310  26.854  37.812  1.00  0.00     0.023 A 
ATOM     67  C   UNL A   1      45.734  27.984  38.535  1.00  0.00     0.031 A 
ATOM     68  C   UNL A   1      44.909  25.715  38.533  1.00  0.00     0.131 A 
ATOM     69  C   UNL A   1      45.782  27.939  39.934  1.00  0.00     0.055 A 
ATOM     70  C   UNL A   1      44.919  25.690  39.929  1.00  0.00     0.041 A 
ATOM     71  F   UNL A   1      44.499  24.609  37.888  1.00  0.00    -0.206 F 
ATOM     72  C   UNL A   1      45.372  26.800  40.634  1.00  0.00     0.022 A 
BRANCH  69  73
ATOM     73  S   UNL A   1      46.432  29.332  40.896  1.00  0.00     0.124 S 
ATOM     74  O   UNL A   1      47.612  29.705  40.119  1.00  0.00    -0.237 OA
ATOM     75  O   UNL A   1      45.323  30.279  40.845  1.00  0.00    -0.237 OA
ATOM     76  O   UNL A   1      46.710  28.752  42.206  1.00  0.00    -0.744 OA
ENDBRANCH  69  73
ENDBRANCH  52  66
BRANCH  53  77
ATOM     77  C   UNL A   1      45.754  26.832  27.804  1.00  0.00     0.023 A 
ATOM     78  C   UNL A   1      45.667  25.614  27.106  1.00  0.00     0.031 A 
ATOM     79  C   UNL A   1      45.994  28.002  27.064  1.00  0.00     0.131 A 
ATOM     80  C   UNL A   1      45.900  25.583  25.725  1.00  0.00     0.055 A 
ATOM     81  C   UNL A   1      46.150  27.976  25.677  1.00  0.00     0.041 A 
ATOM     82  F   UNL A   1      46.097  29.186  27.686  1.00  0.00    -0.206 F 
ATOM     83  C   UNL A   1      46.124  26.759  25.003  1.00  0.00     0.022 A 
BRANCH  80  84
ATOM     84  S   UNL A   1      46.071  24.003  24.849  1.00  0.00     0.124 S 
ATOM     85  O   UNL A   1      44.751  23.844  24.248  1.00  0.00    -0.237 OA
ATOM     86  O   UNL A   1      47.159  24.294  23.918  1.00  0.00    -0.237 OA
ATOM     87  O   UNL A   1      46.401  23.056  25.909  1.00  0.00    -0.744 OA
ENDBRANCH  80  84
ENDBRANCH  53  77
BRANCH  65  88
ATOM     88  C   UNL A   1      50.207  24.938  32.911  1.00  0.00     0.023 A 
ATOM     89  C   UNL A   1      50.416  23.545  32.876  1.00  0.00     0.031 A 
ATOM     90  C   UNL A   1      51.319  25.773  33.117  1.00  0.00     0.131 A 
ATOM     91  C   UNL A   1      51.700  23.028  33.089  1.00  0.00     0.055 A 
ATOM     92  C   UNL A   1      52.604  25.254  33.281  1.00  0.00     0.041 A 
ATOM     93  F   UNL A   1      51.168  27.105  33.169  1.00  0.00    -0.206 F 
ATOM     94  C   UNL A   1      52.796  23.874  33.283  1.00  0.00     0.022 A 
BRANCH  91  95
ATOM     95  S   UNL A   1      51.977  21.240  33.216  1.00  0.00     0.124 S 
ATOM     96  O   UNL A   1      50.638  20.710  32.971  1.00  0.00    -0.237 OA
ATOM     97  O   UNL A   1      52.948  21.003  32.151  1.00  0.00    -0.237 OA
ATOM     98  O   UNL A   1      52.479  21.057  34.574  1.00  0.00    -0.744 OA
ENDBRANCH  91  95
ENDBRANCH  65  88
ENDBRANCH  39  40
ENDBRANCH  31  34
ENDBRANCH  29  30
ENDBRANCH   1  29
TORSDOF 16
ENDMDL
MODEL 3
REMARK VINA RESULT:     -13.5      5.874      9.206
REMARK SMILES CC1=C(CC(=O)NCCCNC(=O)c2ccc(-c3c4nc(c(-c5cc(S(=O)(=O)[O-])ccc5F)c5ccc([nH]5)c(-c5cc(S(=O)(=O)[O-])ccc5F)c5nc(c(-c6cc(S(=O)(=O)[O-])ccc6F)c6ccc3[nH]6)C=C5)C=C4)cc2)c2cc(F)ccc2/C1=C\c1ccc([S@@+](C)[O-])cc1
REMARK SMILES IDX 9 1 8 2 7 3 5 4 6 5 4 7 3 8 1 9 2 10 84 11 77 12 83 13 85 14
REMARK SMILES IDX 78 15 82 16 79 17 81 18 80 19 86 20 87 21 94 22 88 23 93 24
REMARK SMILES IDX 89 25 90 26 91 27 92 28 10 29 11 30 12 31 13 33 14 34 15 35
REMARK SMILES IDX 76 36 16 37 75 38 17 39 18 40 19 41 69 42 20 43 74 44 68 45
REMARK SMILES IDX 70 46 21 47 73 48 67 49 66 50 22 52 54 53 34 54 53 55 35 56
REMARK SMILES IDX 38 57 52 58 71 59 36 60 37 61 51 63 72 64 39 65 23 66 24 67
REMARK SMILES IDX 32 68 25 69 31 70 33 71 30 72 26 73 27 74 28 75 29 76 55 77
REMARK SMILES IDX 56 78 64 79 57 80 63 81 65 82 62 83 58 84 59 85 60 86 61 87
REMARK SMILES IDX 40 88 41 89 49 90 42 91 48 92 50 93 47 94 43 95 44 96 45 97
REMARK SMILES IDX 46 98
REMARK H PARENT 7 6 11 32 70 51 38 62
REMARK Flexibility Score: inf
ROOT
ATOM      1  C   UNL A   1      31.753  31.645  26.546  1.00  0.00     0.042 C 
ENDROOT
BRANCH   1   2
ATOM      2  C   UNL A   1      32.106  30.254  26.031  1.00  0.00     0.117 C 
BRANCH   2   3
ATOM      3  N   UNL A   1      31.471  29.956  24.762  1.00  0.00    -0.356 N 
ATOM      4  C   UNL A   1      31.976  29.296  23.682  1.00  0.00     0.224 C 
ATOM      5  O   UNL A   1      31.253  29.164  22.690  1.00  0.00    -0.275 OA
ATOM      6  H   UNL A   1      30.544  30.275  24.669  1.00  0.00     0.163 HD
BRANCH   4   7
ATOM      7  C   UNL A   1      33.380  28.700  23.723  1.00  0.00     0.136 C 
BRANCH   7   8
ATOM      8  C   UNL A   1      33.406  27.234  24.016  1.00  0.00    -0.027 C 
ATOM      9  C   UNL A   1      33.663  27.200  26.564  1.00  0.00     0.045 C 
ATOM     10  C   UNL A   1      33.535  26.596  25.204  1.00  0.00    -0.039 C 
ATOM     11  C   UNL A   1      33.524  25.137  24.989  1.00  0.00    -0.014 C 
ATOM     12  C   UNL A   1      33.231  26.205  22.972  1.00  0.00    -0.011 A 
ATOM     13  C   UNL A   1      33.255  24.924  23.554  1.00  0.00    -0.010 A 
ATOM     14  C   UNL A   1      33.774  24.225  25.950  1.00  0.00     0.017 C 
ATOM     15  C   UNL A   1      33.033  26.358  21.606  1.00  0.00     0.048 A 
ATOM     16  C   UNL A   1      33.028  23.794  22.779  1.00  0.00     0.012 A 
ATOM     17  C   UNL A   1      32.855  25.214  20.832  1.00  0.00     0.123 A 
ATOM     18  C   UNL A   1      32.842  23.943  21.403  1.00  0.00     0.040 A 
ATOM     19  F   UNL A   1      32.674  25.339  19.511  1.00  0.00    -0.207 F 
BRANCH  14  20
ATOM     20  C   UNL A   1      33.802  22.772  25.764  1.00  0.00    -0.025 A 
ATOM     21  C   UNL A   1      34.971  22.114  25.366  1.00  0.00     0.013 A 
ATOM     22  C   UNL A   1      32.616  22.046  25.895  1.00  0.00     0.013 A 
ATOM     23  C   UNL A   1      34.927  20.768  24.982  1.00  0.00     0.061 A 
ATOM     24  C   UNL A   1      32.577  20.699  25.528  1.00  0.00     0.061 A 
ATOM     25  C   UNL A   1      33.720  20.060  25.029  1.00  0.00     0.152 A 
BRANCH  25  26
ATOM     26  S   UNL A   1      33.571  18.417  24.284  1.00  0.00    -0.018 S 
ATOM     27  C   UNL A   1      32.748  17.539  25.625  1.00  0.00     0.346 C 
ATOM     28  O   UNL A   1      32.569  18.552  23.080  1.00  0.00    -0.612 OA
ENDBRANCH  25  26
ENDBRANCH  14  20
ENDBRANCH   7   8
ENDBRANCH   4   7
ENDBRANCH   2   3
ENDBRANCH   1   2
BRANCH   1  29
ATOM     29  C   UNL A   1      32.864  32.311  27.349  1.00  0.00     0.118 C 
BRANCH  29  30
ATOM     30  N   UNL A   1      32.576  33.704  27.667  1.00  0.00    -0.352 N 
ATOM     31  C   UNL A   1      33.136  34.531  28.613  1.00  0.00     0.251 C 
ATOM     32  H   UNL A   1      31.872  34.118  27.118  1.00  0.00     0.163 HD
ATOM     33  O   UNL A   1      32.625  35.628  28.828  1.00  0.00    -0.269 OA
BRANCH  31  34
ATOM     34  C   UNL A   1      34.315  34.091  29.392  1.00  0.00     0.039 A 
ATOM     35  C   UNL A   1      35.603  34.489  29.032  1.00  0.00     0.014 A 
ATOM     36  C   UNL A   1      34.127  33.264  30.504  1.00  0.00     0.014 A 
ATOM     37  C   UNL A   1      36.705  33.920  29.663  1.00  0.00     0.010 A 
ATOM     38  C   UNL A   1      35.235  32.763  31.194  1.00  0.00     0.010 A 
ATOM     39  C   UNL A   1      36.535  33.040  30.745  1.00  0.00    -0.014 A 
BRANCH  39  40
ATOM     40  C   UNL A   1      37.728  32.424  31.383  1.00  0.00     0.031 A 
ATOM     41  C   UNL A   1      38.191  32.874  32.743  1.00  0.00     0.074 A 
ATOM     42  C   UNL A   1      38.362  31.412  30.757  1.00  0.00     0.049 A 
ATOM     43  N   UNL A   1      39.174  32.411  33.472  1.00  0.00    -0.248 NA
ATOM     44  C   UNL A   1      37.460  33.988  33.369  1.00  0.00     0.031 C 
ATOM     45  C   UNL A   1      37.997  30.890  29.440  1.00  0.00     0.029 A 
ATOM     46  N   UNL A   1      39.421  30.629  31.144  1.00  0.00    -0.354 N 
ATOM     47  C   UNL A   1      39.193  33.183  34.627  1.00  0.00     0.074 A 
ATOM     48  C   UNL A   1      38.142  34.167  34.491  1.00  0.00     0.031 C 
ATOM     49  C   UNL A   1      38.776  29.839  29.154  1.00  0.00     0.029 A 
ATOM     50  C   UNL A   1      39.746  29.653  30.232  1.00  0.00     0.049 A 
ATOM     51  H   UNL A   1      39.902  30.755  31.994  1.00  0.00     0.167 HD
ATOM     52  C   UNL A   1      40.003  33.070  35.707  1.00  0.00     0.034 A 
ATOM     53  C   UNL A   1      40.716  28.715  30.249  1.00  0.00     0.034 A 
ATOM     54  C   UNL A   1      41.038  32.076  35.835  1.00  0.00     0.049 A 
ATOM     55  C   UNL A   1      41.623  28.631  31.450  1.00  0.00     0.074 A 
ATOM     56  C   UNL A   1      41.892  31.867  36.904  1.00  0.00     0.029 A 
ATOM     57  N   UNL A   1      41.366  31.133  34.872  1.00  0.00    -0.354 N 
ATOM     58  N   UNL A   1      41.591  29.336  32.556  1.00  0.00    -0.248 NA
ATOM     59  C   UNL A   1      42.696  27.628  31.410  1.00  0.00     0.031 C 
ATOM     60  C   UNL A   1      42.772  30.838  36.565  1.00  0.00     0.029 A 
ATOM     61  C   UNL A   1      42.425  30.355  35.313  1.00  0.00     0.049 A 
ATOM     62  H   UNL A   1      40.913  31.031  34.004  1.00  0.00     0.167 HD
ATOM     63  C   UNL A   1      42.629  28.854  33.348  1.00  0.00     0.074 A 
ATOM     64  C   UNL A   1      43.250  27.776  32.607  1.00  0.00     0.031 C 
ATOM     65  C   UNL A   1      43.034  29.276  34.573  1.00  0.00     0.034 A 
BRANCH  52  66
ATOM     66  C   UNL A   1      39.815  34.032  36.855  1.00  0.00     0.023 A 
ATOM     67  C   UNL A   1      39.242  33.585  38.060  1.00  0.00     0.031 A 
ATOM     68  C   UNL A   1      40.083  35.405  36.714  1.00  0.00     0.131 A 
ATOM     69  C   UNL A   1      38.921  34.509  39.063  1.00  0.00     0.055 A 
ATOM     70  C   UNL A   1      39.800  36.315  37.734  1.00  0.00     0.041 A 
ATOM     71  F   UNL A   1      40.626  35.881  35.581  1.00  0.00    -0.206 F 
ATOM     72  C   UNL A   1      39.202  35.869  38.908  1.00  0.00     0.022 A 
BRANCH  69  73
ATOM     73  S   UNL A   1      38.076  33.990  40.581  1.00  0.00     0.124 S 
ATOM     74  O   UNL A   1      36.971  33.195  40.049  1.00  0.00    -0.237 OA
ATOM     75  O   UNL A   1      39.120  33.232  41.265  1.00  0.00    -0.237 OA
ATOM     76  O   UNL A   1      37.688  35.246  41.213  1.00  0.00    -0.744 OA
ENDBRANCH  69  73
ENDBRANCH  52  66
BRANCH  53  77
ATOM     77  C   UNL A   1      40.829  27.766  29.105  1.00  0.00     0.023 A 
ATOM     78  C   UNL A   1      41.793  27.960  28.098  1.00  0.00     0.031 A 
ATOM     79  C   UNL A   1      39.902  26.724  28.939  1.00  0.00     0.131 A 
ATOM     80  C   UNL A   1      41.755  27.178  26.936  1.00  0.00     0.055 A 
ATOM     81  C   UNL A   1      39.917  25.898  27.813  1.00  0.00     0.041 A 
ATOM     82  F   UNL A   1      38.957  26.506  29.866  1.00  0.00    -0.206 F 
ATOM     83  C   UNL A   1      40.834  26.137  26.795  1.00  0.00     0.022 A 
BRANCH  80  84
ATOM     84  S   UNL A   1      42.800  27.588  25.510  1.00  0.00     0.124 S 
ATOM     85  O   UNL A   1      41.990  28.585  24.817  1.00  0.00    -0.237 OA
ATOM     86  O   UNL A   1      44.007  28.096  26.159  1.00  0.00    -0.237 OA
ATOM     87  O   UNL A   1      42.958  26.312  24.821  1.00  0.00    -0.744 OA
ENDBRANCH  80  84
ENDBRANCH  53  77
BRANCH  65  88
ATOM     88  C   UNL A   1      44.211  28.585  35.220  1.00  0.00     0.023 A 
ATOM     89  C   UNL A   1      43.994  27.533  36.130  1.00  0.00     0.031 A 
ATOM     90  C   UNL A   1      45.521  29.068  35.060  1.00  0.00     0.131 A 
ATOM     91  C   UNL A   1      45.065  27.028  36.879  1.00  0.00     0.055 A 
ATOM     92  C   UNL A   1      46.592  28.529  35.772  1.00  0.00     0.041 A 
ATOM     93  F   UNL A   1      45.776  30.076  34.212  1.00  0.00    -0.206 F 
ATOM     94  C   UNL A   1      46.364  27.514  36.699  1.00  0.00     0.022 A 
BRANCH  91  95
ATOM     95  S   UNL A   1      44.795  25.791  38.177  1.00  0.00     0.124 S 
ATOM     96  O   UNL A   1      46.094  25.125  38.234  1.00  0.00    -0.237 OA
ATOM     97  O   UNL A   1      44.469  26.623  39.332  1.00  0.00    -0.237 OA
ATOM     98  O   UNL A   1      43.699  24.974  37.664  1.00  0.00    -0.744 OA
ENDBRANCH  91  95
ENDBRANCH  65  88
ENDBRANCH  39  40
ENDBRANCH  31  34
ENDBRANCH  29  30
ENDBRANCH   1  29
TORSDOF 16
ENDMDL
