MODEL 1
REMARK VINA RESULT:     -11.3      0.000      0.000
REMARK SMILES C[C@H](NC(=O)c1cc(S(=O)(=O)N(C)C)cs1)C(=O)NCCCNC(=O)c1ccc(-c2c3nc(c(-c4cc(S(=O)(=O)[O-])ccc4F)c4ccc([nH]4)c(-c4cc(S(=O)(=O)[O-])ccc4F)c4nc(c(-c5cc(S(=O)(=O)[O-])ccc5F)c5ccc2[nH]5)C=C4)C=C3)cc1
REMARK SMILES IDX 20 1 19 2 17 3 18 4 2 6 1 7 3 8 4 9 5 11 6 12 7 13 16 14
REMARK SMILES IDX 8 15 15 16 9 17 10 18 11 19 12 20 13 21 14 22 21 23 22 24
REMARK SMILES IDX 23 25 24 26 25 28 26 29 27 30 88 31 28 32 87 33 29 34 30 35
REMARK SMILES IDX 31 36 81 37 32 38 86 39 80 40 82 41 33 42 85 43 79 44 78 45
REMARK SMILES IDX 34 47 66 48 46 49 65 50 47 51 50 52 64 53 83 54 48 55 49 56
REMARK SMILES IDX 63 58 84 59 51 60 35 61 36 62 44 63 37 64 43 65 45 66 42 67
REMARK SMILES IDX 38 68 39 69 40 70 41 71 67 72 68 73 76 74 69 75 75 76 77 77
REMARK SMILES IDX 74 78 70 79 71 80 72 81 73 82 52 83 53 84 61 85 54 86 60 87
REMARK SMILES IDX 62 88 59 89 55 90 56 91 57 92 58 93
REMARK H PARENT 19 5 3 10 23 27 82 46 50 57
REMARK Flexibility Score: inf
ROOT
ATOM      1  C   UNL A   1      31.844  30.837  26.556  1.00  0.00     0.117 C 
ENDROOT
BRANCH   1   2
ATOM      2  N   UNL A   1      33.124  30.318  27.004  1.00  0.00    -0.354 N 
ATOM      3  C   UNL A   1      33.851  29.246  26.587  1.00  0.00     0.242 C 
ATOM      4  O   UNL A   1      34.972  29.099  27.087  1.00  0.00    -0.273 OA
ATOM      5  H   UNL A   1      33.537  30.829  27.736  1.00  0.00     0.163 HD
BRANCH   3   6
ATOM      6  C   UNL A   1      33.333  28.254  25.530  1.00  0.00     0.168 C 
ATOM      7  C   UNL A   1      33.393  26.801  25.983  1.00  0.00     0.041 C 
BRANCH   6   8
ATOM      8  N   UNL A   1      33.988  28.450  24.239  1.00  0.00    -0.340 N 
ATOM      9  C   UNL A   1      33.412  28.448  22.989  1.00  0.00     0.262 C 
ATOM     10  H   UNL A   1      34.960  28.601  24.266  1.00  0.00     0.164 HD
ATOM     11  O   UNL A   1      34.155  28.532  22.013  1.00  0.00    -0.268 OA
BRANCH   9  12
ATOM     12  C   UNL A   1      31.973  28.333  22.890  1.00  0.00     0.093 A 
ATOM     13  C   UNL A   1      31.038  29.312  22.620  1.00  0.00     0.047 A 
ATOM     14  S   UNL A   1      31.242  26.801  23.116  1.00  0.00    -0.137 S 
ATOM     15  C   UNL A   1      29.708  28.796  22.619  1.00  0.00     0.094 A 
ATOM     16  C   UNL A   1      29.671  27.448  22.908  1.00  0.00     0.087 A 
BRANCH  15  17
ATOM     17  S   UNL A   1      28.293  29.750  22.331  1.00  0.00     0.243 S 
ATOM     18  O   UNL A   1      28.284  29.952  20.897  1.00  0.00    -0.207 OA
ATOM     19  O   UNL A   1      27.248  29.006  22.996  1.00  0.00    -0.207 OA
BRANCH  17  20
ATOM     20  N   UNL A   1      28.467  31.269  23.083  1.00  0.00    -0.204 NA
ATOM     21  C   UNL A   1      28.756  32.395  22.170  1.00  0.00     0.124 C 
ATOM     22  C   UNL A   1      27.368  31.593  24.017  1.00  0.00     0.124 C 
ENDBRANCH  17  20
ENDBRANCH  15  17
ENDBRANCH   9  12
ENDBRANCH   6   8
ENDBRANCH   3   6
ENDBRANCH   1   2
BRANCH   1  23
ATOM     23  C   UNL A   1      31.632  32.300  26.927  1.00  0.00     0.042 C 
BRANCH  23  24
ATOM     24  C   UNL A   1      32.904  33.093  27.214  1.00  0.00     0.118 C 
BRANCH  24  25
ATOM     25  N   UNL A   1      32.673  34.276  28.030  1.00  0.00    -0.352 N 
ATOM     26  C   UNL A   1      33.294  34.696  29.183  1.00  0.00     0.251 C 
ATOM     27  H   UNL A   1      31.958  34.870  27.705  1.00  0.00     0.163 HD
ATOM     28  O   UNL A   1      32.831  35.656  29.794  1.00  0.00    -0.269 OA
BRANCH  26  29
ATOM     29  C   UNL A   1      34.483  33.987  29.706  1.00  0.00     0.039 A 
ATOM     30  C   UNL A   1      35.753  34.415  29.306  1.00  0.00     0.014 A 
ATOM     31  C   UNL A   1      34.359  32.901  30.576  1.00  0.00     0.014 A 
ATOM     32  C   UNL A   1      36.894  33.815  29.847  1.00  0.00     0.010 A 
ATOM     33  C   UNL A   1      35.495  32.350  31.169  1.00  0.00     0.010 A 
ATOM     34  C   UNL A   1      36.774  32.808  30.818  1.00  0.00    -0.014 A 
BRANCH  34  35
ATOM     35  C   UNL A   1      37.968  32.239  31.500  1.00  0.00     0.031 A 
ATOM     36  C   UNL A   1      38.765  31.146  30.844  1.00  0.00     0.074 A 
ATOM     37  C   UNL A   1      38.278  32.647  32.747  1.00  0.00     0.049 A 
ATOM     38  N   UNL A   1      39.756  30.440  31.326  1.00  0.00    -0.248 NA
ATOM     39  C   UNL A   1      38.373  30.778  29.476  1.00  0.00     0.031 C 
ATOM     40  C   UNL A   1      37.555  33.669  33.507  1.00  0.00     0.029 A 
ATOM     41  N   UNL A   1      39.270  32.238  33.602  1.00  0.00    -0.354 N 
ATOM     42  C   UNL A   1      40.093  29.529  30.330  1.00  0.00     0.074 A 
ATOM     43  C   UNL A   1      39.167  29.745  29.238  1.00  0.00     0.031 C 
ATOM     44  C   UNL A   1      38.135  33.815  34.709  1.00  0.00     0.029 A 
ATOM     45  C   UNL A   1      39.240  32.869  34.824  1.00  0.00     0.049 A 
ATOM     46  H   UNL A   1      39.941  31.558  33.364  1.00  0.00     0.167 HD
ATOM     47  C   UNL A   1      41.094  28.612  30.321  1.00  0.00     0.034 A 
ATOM     48  C   UNL A   1      40.003  32.694  35.921  1.00  0.00     0.034 A 
ATOM     49  C   UNL A   1      42.023  28.423  31.409  1.00  0.00     0.049 A 
ATOM     50  C   UNL A   1      41.102  31.666  35.890  1.00  0.00     0.074 A 
ATOM     51  C   UNL A   1      43.113  27.573  31.474  1.00  0.00     0.029 A 
ATOM     52  N   UNL A   1      41.969  29.090  32.625  1.00  0.00    -0.354 N 
ATOM     53  N   UNL A   1      41.435  30.842  34.925  1.00  0.00    -0.248 NA
ATOM     54  C   UNL A   1      41.931  31.550  37.097  1.00  0.00     0.031 C 
ATOM     55  C   UNL A   1      43.684  27.686  32.748  1.00  0.00     0.029 A 
ATOM     56  C   UNL A   1      42.988  28.651  33.457  1.00  0.00     0.049 A 
ATOM     57  H   UNL A   1      41.304  29.776  32.863  1.00  0.00     0.167 HD
ATOM     58  C   UNL A   1      42.526  30.122  35.402  1.00  0.00     0.074 A 
ATOM     59  C   UNL A   1      42.803  30.619  36.734  1.00  0.00     0.031 C 
ATOM     60  C   UNL A   1      43.237  29.141  34.791  1.00  0.00     0.034 A 
BRANCH  47  61
ATOM     61  C   UNL A   1      41.209  27.729  29.102  1.00  0.00     0.023 A 
ATOM     62  C   UNL A   1      42.216  27.926  28.141  1.00  0.00     0.031 A 
ATOM     63  C   UNL A   1      40.279  26.698  28.881  1.00  0.00     0.131 A 
ATOM     64  C   UNL A   1      42.223  27.159  26.966  1.00  0.00     0.055 A 
ATOM     65  C   UNL A   1      40.339  25.885  27.746  1.00  0.00     0.041 A 
ATOM     66  F   UNL A   1      39.286  26.473  29.755  1.00  0.00    -0.206 F 
ATOM     67  C   UNL A   1      41.305  26.124  26.773  1.00  0.00     0.022 A 
BRANCH  64  68
ATOM     68  S   UNL A   1      43.358  27.630  25.633  1.00  0.00     0.124 S 
ATOM     69  O   UNL A   1      43.901  28.889  26.140  1.00  0.00    -0.237 OA
ATOM     70  O   UNL A   1      44.283  26.505  25.594  1.00  0.00    -0.237 OA
ATOM     71  O   UNL A   1      42.484  27.762  24.469  1.00  0.00    -0.744 OA
ENDBRANCH  64  68
ENDBRANCH  47  61
BRANCH  48  72
ATOM     72  C   UNL A   1      39.746  33.493  37.151  1.00  0.00     0.023 A 
ATOM     73  C   UNL A   1      38.977  32.971  38.202  1.00  0.00     0.031 A 
ATOM     74  C   UNL A   1      40.241  34.803  37.277  1.00  0.00     0.131 A 
ATOM     75  C   UNL A   1      38.693  33.768  39.321  1.00  0.00     0.055 A 
ATOM     76  C   UNL A   1      39.990  35.577  38.410  1.00  0.00     0.041 A 
ATOM     77  F   UNL A   1      40.989  35.342  36.302  1.00  0.00    -0.206 F 
ATOM     78  C   UNL A   1      39.202  35.064  39.436  1.00  0.00     0.022 A 
BRANCH  75  79
ATOM     79  S   UNL A   1      37.591  33.107  40.601  1.00  0.00     0.124 S 
ATOM     80  O   UNL A   1      37.164  34.323  41.285  1.00  0.00    -0.237 OA
ATOM     81  O   UNL A   1      36.574  32.430  39.801  1.00  0.00    -0.237 OA
ATOM     82  O   UNL A   1      38.460  32.225  41.376  1.00  0.00    -0.744 OA
ENDBRANCH  75  79
ENDBRANCH  48  72
BRANCH  60  83
ATOM     83  C   UNL A   1      44.401  28.571  35.561  1.00  0.00     0.023 A 
ATOM     84  C   UNL A   1      44.224  27.564  36.524  1.00  0.00     0.031 A 
ATOM     85  C   UNL A   1      45.701  29.062  35.344  1.00  0.00     0.131 A 
ATOM     86  C   UNL A   1      45.322  27.113  37.273  1.00  0.00     0.055 A 
ATOM     87  C   UNL A   1      46.797  28.574  36.056  1.00  0.00     0.041 A 
ATOM     88  F   UNL A   1      45.923  30.025  34.436  1.00  0.00    -0.206 F 
ATOM     89  C   UNL A   1      46.610  27.603  37.035  1.00  0.00     0.022 A 
BRANCH  86  90
ATOM     90  S   UNL A   1      45.033  25.933  38.620  1.00  0.00     0.124 S 
ATOM     91  O   UNL A   1      43.842  26.485  39.258  1.00  0.00    -0.237 OA
ATOM     92  O   UNL A   1      44.845  24.677  37.900  1.00  0.00    -0.237 OA
ATOM     93  O   UNL A   1      46.257  26.013  39.415  1.00  0.00    -0.744 OA
ENDBRANCH  86  90
ENDBRANCH  60  83
ENDBRANCH  34  35
ENDBRANCH  26  29
ENDBRANCH  24  25
ENDBRANCH  23  24
ENDBRANCH   1  23
TORSDOF 17
ENDMDL
MODEL 2
REMARK VINA RESULT:     -11.1      0.868      7.842
REMARK SMILES C[C@H](NC(=O)c1cc(S(=O)(=O)N(C)C)cs1)C(=O)NCCCNC(=O)c1ccc(-c2c3nc(c(-c4cc(S(=O)(=O)[O-])ccc4F)c4ccc([nH]4)c(-c4cc(S(=O)(=O)[O-])ccc4F)c4nc(c(-c5cc(S(=O)(=O)[O-])ccc5F)c5ccc2[nH]5)C=C4)C=C3)cc1
REMARK SMILES IDX 20 1 19 2 17 3 18 4 2 6 1 7 3 8 4 9 5 11 6 12 7 13 16 14
REMARK SMILES IDX 8 15 15 16 9 17 10 18 11 19 12 20 13 21 14 22 21 23 22 24
REMARK SMILES IDX 23 25 24 26 25 28 26 29 27 30 88 31 28 32 87 33 29 34 30 35
REMARK SMILES IDX 31 36 81 37 32 38 86 39 80 40 82 41 33 42 85 43 79 44 78 45
REMARK SMILES IDX 34 47 66 48 46 49 65 50 47 51 50 52 64 53 83 54 48 55 49 56
REMARK SMILES IDX 63 58 84 59 51 60 35 61 36 62 44 63 37 64 43 65 45 66 42 67
REMARK SMILES IDX 38 68 39 69 40 70 41 71 67 72 68 73 76 74 69 75 75 76 77 77
REMARK SMILES IDX 74 78 70 79 71 80 72 81 73 82 52 83 53 84 61 85 54 86 60 87
REMARK SMILES IDX 62 88 59 89 55 90 56 91 57 92 58 93
REMARK H PARENT 19 5 3 10 23 27 82 46 50 57
REMARK Flexibility Score: inf
ROOT
ATOM      1  C   UNL A   1      31.723  30.888  26.445  1.00  0.00     0.117 C 
ENDROOT
BRANCH   1   2
ATOM      2  N   UNL A   1      32.956  30.306  26.945  1.00  0.00    -0.354 N 
ATOM      3  C   UNL A   1      33.617  29.170  26.593  1.00  0.00     0.242 C 
ATOM      4  O   UNL A   1      34.715  28.973  27.125  1.00  0.00    -0.273 OA
ATOM      5  H   UNL A   1      33.388  30.822  27.664  1.00  0.00     0.163 HD
BRANCH   3   6
ATOM      6  C   UNL A   1      33.055  28.167  25.569  1.00  0.00     0.168 C 
ATOM      7  C   UNL A   1      33.156  26.717  26.024  1.00  0.00     0.041 C 
BRANCH   6   8
ATOM      8  N   UNL A   1      33.637  28.366  24.244  1.00  0.00    -0.340 N 
ATOM      9  C   UNL A   1      32.979  28.543  23.049  1.00  0.00     0.262 C 
ATOM     10  H   UNL A   1      34.620  28.372  24.201  1.00  0.00     0.164 HD
ATOM     11  O   UNL A   1      33.654  28.594  22.022  1.00  0.00    -0.268 OA
BRANCH   9  12
ATOM     12  C   UNL A   1      31.535  28.644  23.062  1.00  0.00     0.093 A 
ATOM     13  C   UNL A   1      30.743  29.767  23.205  1.00  0.00     0.047 A 
ATOM     14  S   UNL A   1      30.597  27.224  22.871  1.00  0.00    -0.137 S 
ATOM     15  C   UNL A   1      29.353  29.447  23.175  1.00  0.00     0.094 A 
ATOM     16  C   UNL A   1      29.132  28.093  23.032  1.00  0.00     0.087 A 
BRANCH  15  17
ATOM     17  S   UNL A   1      28.082  30.610  23.340  1.00  0.00     0.243 S 
ATOM     18  O   UNL A   1      26.893  29.813  23.559  1.00  0.00    -0.207 OA
ATOM     19  O   UNL A   1      28.585  31.513  24.351  1.00  0.00    -0.207 OA
BRANCH  17  20
ATOM     20  N   UNL A   1      27.893  31.459  21.874  1.00  0.00    -0.204 NA
ATOM     21  C   UNL A   1      28.711  32.685  21.746  1.00  0.00     0.124 C 
ATOM     22  C   UNL A   1      28.006  30.600  20.677  1.00  0.00     0.124 C 
ENDBRANCH  17  20
ENDBRANCH  15  17
ENDBRANCH   9  12
ENDBRANCH   6   8
ENDBRANCH   3   6
ENDBRANCH   1   2
BRANCH   1  23
ATOM     23  C   UNL A   1      31.539  32.342  26.863  1.00  0.00     0.042 C 
BRANCH  23  24
ATOM     24  C   UNL A   1      32.786  33.027  27.414  1.00  0.00     0.118 C 
BRANCH  24  25
ATOM     25  N   UNL A   1      32.536  34.378  27.895  1.00  0.00    -0.352 N 
ATOM     26  C   UNL A   1      33.099  35.067  28.943  1.00  0.00     0.251 C 
ATOM     27  H   UNL A   1      31.854  34.878  27.390  1.00  0.00     0.163 HD
ATOM     28  O   UNL A   1      32.623  36.153  29.268  1.00  0.00    -0.269 OA
BRANCH  26  29
ATOM     29  C   UNL A   1      34.240  34.502  29.698  1.00  0.00     0.039 A 
ATOM     30  C   UNL A   1      33.992  33.874  30.924  1.00  0.00     0.014 A 
ATOM     31  C   UNL A   1      35.548  34.594  29.218  1.00  0.00     0.014 A 
ATOM     32  C   UNL A   1      35.040  33.262  31.618  1.00  0.00     0.010 A 
ATOM     33  C   UNL A   1      36.580  33.923  29.874  1.00  0.00     0.010 A 
ATOM     34  C   UNL A   1      36.334  33.241  31.076  1.00  0.00    -0.014 A 
BRANCH  34  35
ATOM     35  C   UNL A   1      37.440  32.493  31.732  1.00  0.00     0.031 A 
ATOM     36  C   UNL A   1      37.971  32.940  33.066  1.00  0.00     0.074 A 
ATOM     37  C   UNL A   1      38.023  31.465  31.083  1.00  0.00     0.049 A 
ATOM     38  N   UNL A   1      39.003  32.499  33.737  1.00  0.00    -0.248 NA
ATOM     39  C   UNL A   1      37.263  34.054  33.713  1.00  0.00     0.031 C 
ATOM     40  C   UNL A   1      37.627  30.962  29.766  1.00  0.00     0.029 A 
ATOM     41  N   UNL A   1      39.083  30.669  31.436  1.00  0.00    -0.354 N 
ATOM     42  C   UNL A   1      39.084  33.293  34.876  1.00  0.00     0.074 A 
ATOM     43  C   UNL A   1      38.023  34.272  34.777  1.00  0.00     0.031 C 
ATOM     44  C   UNL A   1      38.426  29.938  29.427  1.00  0.00     0.029 A 
ATOM     45  C   UNL A   1      39.417  29.738  30.479  1.00  0.00     0.049 A 
ATOM     46  H   UNL A   1      39.561  30.755  32.292  1.00  0.00     0.167 HD
ATOM     47  C   UNL A   1      39.952  33.201  35.916  1.00  0.00     0.034 A 
ATOM     48  C   UNL A   1      40.419  28.838  30.443  1.00  0.00     0.034 A 
ATOM     49  C   UNL A   1      40.992  32.205  36.012  1.00  0.00     0.049 A 
ATOM     50  C   UNL A   1      41.373  28.759  31.604  1.00  0.00     0.074 A 
ATOM     51  C   UNL A   1      41.878  31.980  37.051  1.00  0.00     0.029 A 
ATOM     52  N   UNL A   1      41.291  31.271  35.029  1.00  0.00    -0.354 N 
ATOM     53  N   UNL A   1      41.410  29.490  32.694  1.00  0.00    -0.248 NA
ATOM     54  C   UNL A   1      42.417  27.729  31.532  1.00  0.00     0.031 C 
ATOM     55  C   UNL A   1      42.747  30.948  36.674  1.00  0.00     0.029 A 
ATOM     56  C   UNL A   1      42.365  30.488  35.425  1.00  0.00     0.049 A 
ATOM     57  H   UNL A   1      40.811  31.178  34.175  1.00  0.00     0.167 HD
ATOM     58  C   UNL A   1      42.470  28.994  33.446  1.00  0.00     0.074 A 
ATOM     59  C   UNL A   1      43.037  27.894  32.692  1.00  0.00     0.031 C 
ATOM     60  C   UNL A   1      42.932  29.409  34.653  1.00  0.00     0.034 A 
BRANCH  47  61
ATOM     61  C   UNL A   1      39.821  34.227  37.016  1.00  0.00     0.023 A 
ATOM     62  C   UNL A   1      39.347  33.882  38.294  1.00  0.00     0.031 A 
ATOM     63  C   UNL A   1      40.142  35.574  36.774  1.00  0.00     0.131 A 
ATOM     64  C   UNL A   1      39.132  34.881  39.254  1.00  0.00     0.055 A 
ATOM     65  C   UNL A   1      40.001  36.552  37.761  1.00  0.00     0.041 A 
ATOM     66  F   UNL A   1      40.583  35.966  35.568  1.00  0.00    -0.206 F 
ATOM     67  C   UNL A   1      39.477  36.211  39.005  1.00  0.00     0.022 A 
BRANCH  64  68
ATOM     68  S   UNL A   1      38.260  34.438  40.781  1.00  0.00     0.124 S 
ATOM     69  O   UNL A   1      37.209  33.557  40.276  1.00  0.00    -0.237 OA
ATOM     70  O   UNL A   1      39.307  33.798  41.568  1.00  0.00    -0.237 OA
ATOM     71  O   UNL A   1      37.790  35.725  41.293  1.00  0.00    -0.744 OA
ENDBRANCH  64  68
ENDBRANCH  47  61
BRANCH  48  72
ATOM     72  C   UNL A   1      40.588  27.950  29.260  1.00  0.00     0.023 A 
ATOM     73  C   UNL A   1      41.519  28.257  28.256  1.00  0.00     0.031 A 
ATOM     74  C   UNL A   1      39.800  26.797  29.104  1.00  0.00     0.131 A 
ATOM     75  C   UNL A   1      41.613  27.440  27.118  1.00  0.00     0.055 A 
ATOM     76  C   UNL A   1      39.925  25.965  27.991  1.00  0.00     0.041 A 
ATOM     77  F   UNL A   1      38.903  26.457  30.043  1.00  0.00    -0.206 F 
ATOM     78  C   UNL A   1      40.829  26.292  26.984  1.00  0.00     0.022 A 
BRANCH  75  79
ATOM     79  S   UNL A   1      42.734  27.938  25.783  1.00  0.00     0.124 S 
ATOM     80  O   UNL A   1      44.033  27.561  26.327  1.00  0.00    -0.237 OA
ATOM     81  O   UNL A   1      42.248  27.133  24.666  1.00  0.00    -0.237 OA
ATOM     82  O   UNL A   1      42.500  29.375  25.660  1.00  0.00    -0.744 OA
ENDBRANCH  75  79
ENDBRANCH  48  72
BRANCH  60  83
ATOM     83  C   UNL A   1      44.089  28.639  35.235  1.00  0.00     0.023 A 
ATOM     84  C   UNL A   1      43.891  27.601  36.162  1.00  0.00     0.031 A 
ATOM     85  C   UNL A   1      45.409  28.967  34.876  1.00  0.00     0.131 A 
ATOM     86  C   UNL A   1      44.999  26.960  36.738  1.00  0.00     0.055 A 
ATOM     87  C   UNL A   1      46.504  28.292  35.414  1.00  0.00     0.041 A 
ATOM     88  F   UNL A   1      45.651  29.952  33.996  1.00  0.00    -0.206 F 
ATOM     89  C   UNL A   1      46.304  27.290  36.359  1.00  0.00     0.022 A 
BRANCH  86  90
ATOM     90  S   UNL A   1      44.714  25.740  38.050  1.00  0.00     0.124 S 
ATOM     91  O   UNL A   1      46.034  25.640  38.664  1.00  0.00    -0.237 OA
ATOM     92  O   UNL A   1      43.682  26.385  38.857  1.00  0.00    -0.237 OA
ATOM     93  O   UNL A   1      44.276  24.550  37.322  1.00  0.00    -0.744 OA
ENDBRANCH  86  90
ENDBRANCH  60  83
ENDBRANCH  34  35
ENDBRANCH  26  29
ENDBRANCH  24  25
ENDBRANCH  23  24
ENDBRANCH   1  23
TORSDOF 17
ENDMDL
MODEL 3
REMARK VINA RESULT:     -11.0      2.520      3.921
REMARK SMILES C[C@H](NC(=O)c1cc(S(=O)(=O)N(C)C)cs1)C(=O)NCCCNC(=O)c1ccc(-c2c3nc(c(-c4cc(S(=O)(=O)[O-])ccc4F)c4ccc([nH]4)c(-c4cc(S(=O)(=O)[O-])ccc4F)c4nc(c(-c5cc(S(=O)(=O)[O-])ccc5F)c5ccc2[nH]5)C=C4)C=C3)cc1
REMARK SMILES IDX 20 1 19 2 17 3 18 4 2 6 1 7 3 8 4 9 5 11 6 12 7 13 16 14
REMARK SMILES IDX 8 15 15 16 9 17 10 18 11 19 12 20 13 21 14 22 21 23 22 24
REMARK SMILES IDX 23 25 24 26 25 28 26 29 27 30 88 31 28 32 87 33 29 34 30 35
REMARK SMILES IDX 31 36 81 37 32 38 86 39 80 40 82 41 33 42 85 43 79 44 78 45
REMARK SMILES IDX 34 47 66 48 46 49 65 50 47 51 50 52 64 53 83 54 48 55 49 56
REMARK SMILES IDX 63 58 84 59 51 60 35 61 36 62 44 63 37 64 43 65 45 66 42 67
REMARK SMILES IDX 38 68 39 69 40 70 41 71 67 72 68 73 76 74 69 75 75 76 77 77
REMARK SMILES IDX 74 78 70 79 71 80 72 81 73 82 52 83 53 84 61 85 54 86 60 87
REMARK SMILES IDX 62 88 59 89 55 90 56 91 57 92 58 93
REMARK H PARENT 19 5 3 10 23 27 82 46 50 57
REMARK Flexibility Score: inf
ROOT
ATOM      1  C   UNL A   1      31.240  29.948  25.338  1.00  0.00     0.117 C 
ENDROOT
BRANCH   1   2
ATOM      2  N   UNL A   1      30.773  29.871  23.966  1.00  0.00    -0.354 N 
ATOM      3  C   UNL A   1      31.173  29.090  22.926  1.00  0.00     0.242 C 
ATOM      4  O   UNL A   1      30.518  29.167  21.882  1.00  0.00    -0.273 OA
ATOM      5  H   UNL A   1      30.041  30.492  23.749  1.00  0.00     0.163 HD
BRANCH   3   6
ATOM      6  C   UNL A   1      32.375  28.132  23.024  1.00  0.00     0.168 C 
ATOM      7  C   UNL A   1      33.632  28.793  23.574  1.00  0.00     0.041 C 
BRANCH   6   8
ATOM      8  N   UNL A   1      32.626  27.451  21.756  1.00  0.00    -0.340 N 
ATOM      9  C   UNL A   1      32.805  26.103  21.541  1.00  0.00     0.262 C 
ATOM     10  H   UNL A   1      32.675  28.026  20.959  1.00  0.00     0.164 HD
ATOM     11  O   UNL A   1      33.106  25.737  20.406  1.00  0.00    -0.268 OA
BRANCH   9  12
ATOM     12  C   UNL A   1      32.644  25.197  22.657  1.00  0.00     0.093 A 
ATOM     13  C   UNL A   1      33.612  24.612  23.450  1.00  0.00     0.047 A 
ATOM     14  S   UNL A   1      31.065  24.738  23.138  1.00  0.00    -0.137 S 
ATOM     15  C   UNL A   1      33.044  23.766  24.449  1.00  0.00     0.094 A 
ATOM     16  C   UNL A   1      31.669  23.717  24.372  1.00  0.00     0.087 A 
BRANCH  15  17
ATOM     17  S   UNL A   1      33.969  22.868  25.603  1.00  0.00     0.243 S 
ATOM     18  O   UNL A   1      34.941  23.818  26.103  1.00  0.00    -0.207 OA
ATOM     19  O   UNL A   1      32.961  22.294  26.465  1.00  0.00    -0.207 OA
BRANCH  17  20
ATOM     20  N   UNL A   1      34.808  21.614  24.810  1.00  0.00    -0.204 NA
ATOM     21  C   UNL A   1      36.279  21.642  24.968  1.00  0.00     0.124 C 
ATOM     22  C   UNL A   1      34.256  20.271  25.083  1.00  0.00     0.124 C 
ENDBRANCH  17  20
ENDBRANCH  15  17
ENDBRANCH   9  12
ENDBRANCH   6   8
ENDBRANCH   3   6
ENDBRANCH   1   2
BRANCH   1  23
ATOM     23  C   UNL A   1      31.230  31.368  25.892  1.00  0.00     0.042 C 
BRANCH  23  24
ATOM     24  C   UNL A   1      32.364  31.702  26.856  1.00  0.00     0.118 C 
BRANCH  24  25
ATOM     25  N   UNL A   1      32.391  33.103  27.251  1.00  0.00    -0.352 N 
ATOM     26  C   UNL A   1      33.264  33.780  28.070  1.00  0.00     0.251 C 
ATOM     27  H   UNL A   1      31.669  33.654  26.870  1.00  0.00     0.163 HD
ATOM     28  O   UNL A   1      33.006  34.938  28.390  1.00  0.00    -0.269 OA
BRANCH  26  29
ATOM     29  C   UNL A   1      34.482  33.119  28.592  1.00  0.00     0.039 A 
ATOM     30  C   UNL A   1      35.730  33.672  28.289  1.00  0.00     0.014 A 
ATOM     31  C   UNL A   1      34.405  31.959  29.366  1.00  0.00     0.014 A 
ATOM     32  C   UNL A   1      36.890  33.115  28.836  1.00  0.00     0.010 A 
ATOM     33  C   UNL A   1      35.554  31.447  29.968  1.00  0.00     0.010 A 
ATOM     34  C   UNL A   1      36.808  32.026  29.717  1.00  0.00    -0.014 A 
BRANCH  34  35
ATOM     35  C   UNL A   1      38.012  31.492  30.408  1.00  0.00     0.031 A 
ATOM     36  C   UNL A   1      38.854  30.431  29.753  1.00  0.00     0.074 A 
ATOM     37  C   UNL A   1      38.294  31.900  31.661  1.00  0.00     0.049 A 
ATOM     38  N   UNL A   1      39.862  29.755  30.241  1.00  0.00    -0.248 NA
ATOM     39  C   UNL A   1      38.489  30.061  28.379  1.00  0.00     0.031 C 
ATOM     40  C   UNL A   1      37.529  32.892  32.421  1.00  0.00     0.029 A 
ATOM     41  N   UNL A   1      39.290  31.519  32.525  1.00  0.00    -0.354 N 
ATOM     42  C   UNL A   1      40.241  28.864  29.243  1.00  0.00     0.074 A 
ATOM     43  C   UNL A   1      39.321  29.057  28.142  1.00  0.00     0.031 C 
ATOM     44  C   UNL A   1      38.090  33.048  33.631  1.00  0.00     0.029 A 
ATOM     45  C   UNL A   1      39.225  32.139  33.752  1.00  0.00     0.049 A 
ATOM     46  H   UNL A   1      39.986  30.863  32.290  1.00  0.00     0.167 HD
ATOM     47  C   UNL A   1      41.272  27.981  29.239  1.00  0.00     0.034 A 
ATOM     48  C   UNL A   1      39.981  31.982  34.855  1.00  0.00     0.034 A 
ATOM     49  C   UNL A   1      42.195  27.815  30.336  1.00  0.00     0.049 A 
ATOM     50  C   UNL A   1      41.114  30.992  34.830  1.00  0.00     0.074 A 
ATOM     51  C   UNL A   1      43.313  27.002  30.408  1.00  0.00     0.029 A 
ATOM     52  N   UNL A   1      42.105  28.471  31.557  1.00  0.00    -0.354 N 
ATOM     53  N   UNL A   1      41.486  30.187  33.863  1.00  0.00    -0.248 NA
ATOM     54  C   UNL A   1      41.933  30.894  36.045  1.00  0.00     0.031 C 
ATOM     55  C   UNL A   1      43.865  27.125  31.690  1.00  0.00     0.029 A 
ATOM     56  C   UNL A   1      43.128  28.060  32.397  1.00  0.00     0.049 A 
ATOM     57  H   UNL A   1      41.415  29.132  31.792  1.00  0.00     0.167 HD
ATOM     58  C   UNL A   1      42.595  29.500  34.347  1.00  0.00     0.074 A 
ATOM     59  C   UNL A   1      42.840  29.996  35.686  1.00  0.00     0.031 C 
ATOM     60  C   UNL A   1      43.346  28.548  33.738  1.00  0.00     0.034 A 
BRANCH  47  61
ATOM     61  C   UNL A   1      41.431  27.112  28.015  1.00  0.00     0.023 A 
ATOM     62  C   UNL A   1      40.961  25.787  27.986  1.00  0.00     0.031 A 
ATOM     63  C   UNL A   1      42.092  27.603  26.876  1.00  0.00     0.131 A 
ATOM     64  C   UNL A   1      41.227  24.974  26.874  1.00  0.00     0.055 A 
ATOM     65  C   UNL A   1      42.283  26.813  25.740  1.00  0.00     0.041 A 
ATOM     66  F   UNL A   1      42.577  28.853  26.852  1.00  0.00    -0.206 F 
ATOM     67  C   UNL A   1      41.865  25.485  25.741  1.00  0.00     0.022 A 
BRANCH  64  68
ATOM     68  S   UNL A   1      40.856  23.204  26.989  1.00  0.00     0.124 S 
ATOM     69  O   UNL A   1      41.622  22.668  25.865  1.00  0.00    -0.237 OA
ATOM     70  O   UNL A   1      41.348  22.864  28.318  1.00  0.00    -0.237 OA
ATOM     71  O   UNL A   1      39.404  23.147  26.826  1.00  0.00    -0.744 OA
ENDBRANCH  64  68
ENDBRANCH  47  61
BRANCH  48  72
ATOM     72  C   UNL A   1      39.683  32.762  36.088  1.00  0.00     0.023 A 
ATOM     73  C   UNL A   1      38.767  32.286  37.039  1.00  0.00     0.031 A 
ATOM     74  C   UNL A   1      40.289  34.010  36.316  1.00  0.00     0.131 A 
ATOM     75  C   UNL A   1      38.453  33.072  38.159  1.00  0.00     0.055 A 
ATOM     76  C   UNL A   1      40.004  34.769  37.452  1.00  0.00     0.041 A 
ATOM     77  F   UNL A   1      41.179  34.502  35.440  1.00  0.00    -0.206 F 
ATOM     78  C   UNL A   1      39.072  34.305  38.376  1.00  0.00     0.022 A 
BRANCH  75  79
ATOM     79  S   UNL A   1      37.170  32.484  39.298  1.00  0.00     0.124 S 
ATOM     80  O   UNL A   1      37.588  31.106  39.532  1.00  0.00    -0.237 OA
ATOM     81  O   UNL A   1      37.325  33.402  40.424  1.00  0.00    -0.237 OA
ATOM     82  O   UNL A   1      35.936  32.643  38.532  1.00  0.00    -0.744 OA
ENDBRANCH  75  79
ENDBRANCH  48  72
BRANCH  60  83
ATOM     83  C   UNL A   1      44.520  28.012  34.516  1.00  0.00     0.023 A 
ATOM     84  C   UNL A   1      44.374  26.958  35.434  1.00  0.00     0.031 A 
ATOM     85  C   UNL A   1      45.795  28.582  34.355  1.00  0.00     0.131 A 
ATOM     86  C   UNL A   1      45.476  26.538  36.195  1.00  0.00     0.055 A 
ATOM     87  C   UNL A   1      46.898  28.126  35.078  1.00  0.00     0.041 A 
ATOM     88  F   UNL A   1      45.986  29.593  33.493  1.00  0.00    -0.206 F 
ATOM     89  C   UNL A   1      46.740  27.107  36.013  1.00  0.00     0.022 A 
BRANCH  86  90
ATOM     90  S   UNL A   1      45.219  25.289  37.485  1.00  0.00     0.124 S 
ATOM     91  O   UNL A   1      45.271  24.047  36.721  1.00  0.00    -0.237 OA
ATOM     92  O   UNL A   1      46.343  25.533  38.384  1.00  0.00    -0.237 OA
ATOM     93  O   UNL A   1      43.906  25.627  38.032  1.00  0.00    -0.744 OA
ENDBRANCH  86  90
ENDBRANCH  60  83
ENDBRANCH  34  35
ENDBRANCH  26  29
ENDBRANCH  24  25
ENDBRANCH  23  24
ENDBRANCH   1  23
TORSDOF 17
ENDMDL
