MODEL 1
REMARK VINA RESULT:     -12.4      0.000      0.000
REMARK SMILES O=C(NCCCNC(=O)[C@@H]1CCCN(c2cnnc(O)c2Cl)C1)c1ccc(-c2c3nc(c(-c4cc(S(=O)(=O)[O-])ccc4F)c4ccc([nH]4)c(-c4cc(S(=O)(=O)[O-])ccc4F)c4nc(c(-c5cc(S(=O)(=O)[O-])ccc5F)c5ccc2[nH]5)C=C4)C=C3)cc1
REMARK SMILES IDX 4 1 3 2 1 3 2 4 24 6 25 7 86 8 26 9 85 10 27 11 28 12 29 13
REMARK SMILES IDX 79 14 30 15 84 16 78 17 80 18 31 19 83 20 77 21 76 22 32 24
REMARK SMILES IDX 64 25 44 26 63 27 45 28 48 29 62 30 81 31 46 32 47 33 61 35
REMARK SMILES IDX 82 36 49 37 33 38 34 39 42 40 35 41 41 42 43 43 40 44 36 45
REMARK SMILES IDX 37 46 38 47 39 48 65 49 66 50 74 51 67 52 73 53 75 54 72 55
REMARK SMILES IDX 68 56 69 57 70 58 71 59 50 60 51 61 59 62 52 63 58 64 60 65
REMARK SMILES IDX 57 66 53 67 54 68 55 69 56 70 5 71 6 72 7 73 8 74 9 76 10 77
REMARK SMILES IDX 11 78 23 79 12 80 14 81 13 82 15 83 16 84 21 85 17 86 19 87
REMARK SMILES IDX 22 88 18 89 20 90
REMARK H PARENT 3 5 80 23 48 34 7 75 20 91
REMARK Flexibility Score: inf
ROOT
ATOM      1  C   UNL A   1      32.882  32.077  26.993  1.00  0.00     0.118 C 
ENDROOT
BRANCH   1   2
ATOM      2  N   UNL A   1      32.599  33.419  27.476  1.00  0.00    -0.352 N 
ATOM      3  O   UNL A   1      32.885  35.348  28.619  1.00  0.00    -0.269 OA
ATOM      4  C   UNL A   1      33.283  34.215  28.367  1.00  0.00     0.251 C 
ATOM      5  H   UNL A   1      31.782  33.825  27.106  1.00  0.00     0.163 HD
BRANCH   4   6
ATOM      6  C   UNL A   1      34.465  33.695  29.079  1.00  0.00     0.039 A 
ATOM      7  C   UNL A   1      35.735  34.224  28.862  1.00  0.00     0.014 A 
ATOM      8  C   UNL A   1      34.285  32.650  29.990  1.00  0.00     0.014 A 
ATOM      9  C   UNL A   1      36.845  33.580  29.395  1.00  0.00     0.010 A 
ATOM     10  C   UNL A   1      35.394  32.066  30.604  1.00  0.00     0.010 A 
ATOM     11  C   UNL A   1      36.686  32.491  30.267  1.00  0.00    -0.014 A 
BRANCH  11  12
ATOM     12  C   UNL A   1      37.889  31.840  30.837  1.00  0.00     0.031 A 
ATOM     13  C   UNL A   1      38.343  32.150  32.236  1.00  0.00     0.074 A 
ATOM     14  C   UNL A   1      38.540  30.926  30.093  1.00  0.00     0.049 A 
ATOM     15  N   UNL A   1      39.326  31.617  32.914  1.00  0.00    -0.248 NA
ATOM     16  C   UNL A   1      37.603  33.187  32.972  1.00  0.00     0.031 C 
ATOM     17  C   UNL A   1      38.182  30.561  28.721  1.00  0.00     0.029 A 
ATOM     18  N   UNL A   1      39.613  30.124  30.383  1.00  0.00    -0.354 N 
ATOM     19  C   UNL A   1      39.330  32.256  34.148  1.00  0.00     0.074 A 
ATOM     20  C   UNL A   1      38.271  33.240  34.117  1.00  0.00     0.031 C 
ATOM     21  C   UNL A   1      38.991  29.577  28.304  1.00  0.00     0.029 A 
ATOM     22  C   UNL A   1      39.961  29.281  29.354  1.00  0.00     0.049 A 
ATOM     23  H   UNL A   1      40.089  30.149  31.245  1.00  0.00     0.167 HD
ATOM     24  C   UNL A   1      40.137  32.028  35.211  1.00  0.00     0.034 A 
ATOM     25  C   UNL A   1      40.953  28.374  29.259  1.00  0.00     0.034 A 
ATOM     26  C   UNL A   1      41.180  31.035  35.225  1.00  0.00     0.049 A 
ATOM     27  C   UNL A   1      41.846  28.153  30.447  1.00  0.00     0.074 A 
ATOM     28  C   UNL A   1      42.030  30.705  36.266  1.00  0.00     0.029 A 
ATOM     29  N   UNL A   1      41.519  30.217  34.156  1.00  0.00    -0.354 N 
ATOM     30  N   UNL A   1      41.795  28.722  31.629  1.00  0.00    -0.248 NA
ATOM     31  C   UNL A   1      42.927  27.171  30.300  1.00  0.00     0.031 C 
ATOM     32  C   UNL A   1      42.915  29.727  35.811  1.00  0.00     0.029 A 
ATOM     33  C   UNL A   1      42.582  29.401  34.506  1.00  0.00     0.049 A 
ATOM     34  H   UNL A   1      41.071  30.217  33.279  1.00  0.00     0.167 HD
ATOM     35  C   UNL A   1      42.826  28.156  32.371  1.00  0.00     0.074 A 
ATOM     36  C   UNL A   1      43.470  27.184  31.511  1.00  0.00     0.031 C 
ATOM     37  C   UNL A   1      43.205  28.424  33.645  1.00  0.00     0.034 A 
BRANCH  24  38
ATOM     38  C   UNL A   1      39.936  32.844  36.462  1.00  0.00     0.023 A 
ATOM     39  C   UNL A   1      39.020  32.416  37.440  1.00  0.00     0.031 A 
ATOM     40  C   UNL A   1      40.544  34.100  36.620  1.00  0.00     0.131 A 
ATOM     41  C   UNL A   1      38.712  33.256  38.518  1.00  0.00     0.055 A 
ATOM     42  C   UNL A   1      40.257  34.920  37.713  1.00  0.00     0.041 A 
ATOM     43  F   UNL A   1      41.427  34.550  35.715  1.00  0.00    -0.206 F 
ATOM     44  C   UNL A   1      39.329  34.503  38.663  1.00  0.00     0.022 A 
BRANCH  41  45
ATOM     45  S   UNL A   1      37.470  32.782  39.752  1.00  0.00     0.124 S 
ATOM     46  O   UNL A   1      36.283  32.581  38.922  1.00  0.00    -0.237 OA
ATOM     47  O   UNL A   1      38.049  31.566  40.315  1.00  0.00    -0.237 OA
ATOM     48  O   UNL A   1      37.410  33.930  40.648  1.00  0.00    -0.744 OA
ENDBRANCH  41  45
ENDBRANCH  24  38
BRANCH  25  49
ATOM     49  C   UNL A   1      41.095  27.594  27.998  1.00  0.00     0.023 A 
ATOM     50  C   UNL A   1      40.767  26.226  27.959  1.00  0.00     0.031 A 
ATOM     51  C   UNL A   1      41.677  28.171  26.857  1.00  0.00     0.131 A 
ATOM     52  C   UNL A   1      41.090  25.467  26.828  1.00  0.00     0.055 A 
ATOM     53  C   UNL A   1      41.937  27.423  25.708  1.00  0.00     0.041 A 
ATOM     54  F   UNL A   1      42.018  29.469  26.856  1.00  0.00    -0.206 F 
ATOM     55  C   UNL A   1      41.658  26.059  25.696  1.00  0.00     0.022 A 
BRANCH  52  56
ATOM     56  S   UNL A   1      40.889  23.664  26.833  1.00  0.00     0.124 S 
ATOM     57  O   UNL A   1      39.483  23.512  26.472  1.00  0.00    -0.237 OA
ATOM     58  O   UNL A   1      41.850  23.257  25.810  1.00  0.00    -0.237 OA
ATOM     59  O   UNL A   1      41.233  23.283  28.198  1.00  0.00    -0.744 OA
ENDBRANCH  52  56
ENDBRANCH  25  49
BRANCH  37  60
ATOM     60  C   UNL A   1      44.371  27.662  34.222  1.00  0.00     0.023 A 
ATOM     61  C   UNL A   1      44.150  26.436  34.876  1.00  0.00     0.031 A 
ATOM     62  C   UNL A   1      45.658  28.224  34.266  1.00  0.00     0.131 A 
ATOM     63  C   UNL A   1      45.194  25.831  35.587  1.00  0.00     0.055 A 
ATOM     64  C   UNL A   1      46.705  27.594  34.938  1.00  0.00     0.041 A 
ATOM     65  F   UNL A   1      45.911  29.397  33.663  1.00  0.00    -0.206 F 
ATOM     66  C   UNL A   1      46.472  26.400  35.614  1.00  0.00     0.022 A 
BRANCH  63  67
ATOM     67  S   UNL A   1      44.912  24.326  36.558  1.00  0.00     0.124 S 
ATOM     68  O   UNL A   1      44.537  24.870  37.862  1.00  0.00    -0.237 OA
ATOM     69  O   UNL A   1      43.830  23.683  35.817  1.00  0.00    -0.237 OA
ATOM     70  O   UNL A   1      46.197  23.637  36.522  1.00  0.00    -0.744 OA
ENDBRANCH  63  67
ENDBRANCH  37  60
ENDBRANCH  11  12
ENDBRANCH   4   6
ENDBRANCH   1   2
BRANCH   1  71
ATOM     71  C   UNL A   1      31.674  31.314  26.454  1.00  0.00     0.042 C 
BRANCH  71  72
ATOM     72  C   UNL A   1      31.971  29.896  25.985  1.00  0.00     0.117 C 
BRANCH  72  73
ATOM     73  N   UNL A   1      32.972  29.821  24.938  1.00  0.00    -0.356 N 
ATOM     74  C   UNL A   1      33.328  28.813  24.107  1.00  0.00     0.224 C 
ATOM     75  H   UNL A   1      33.485  30.653  24.810  1.00  0.00     0.163 HD
ATOM     76  O   UNL A   1      34.082  29.138  23.182  1.00  0.00    -0.275 OA
BRANCH  74  77
ATOM     77  C   UNL A   1      32.965  27.345  24.353  1.00  0.00     0.098 C 
ATOM     78  C   UNL A   1      33.683  26.451  23.307  1.00  0.00     0.017 C 
ATOM     79  C   UNL A   1      31.487  26.951  24.378  1.00  0.00     0.130 C 
ATOM     80  C   UNL A   1      33.025  26.546  21.922  1.00  0.00     0.022 C 
ATOM     81  N   UNL A   1      30.908  27.006  23.041  1.00  0.00    -0.368 N 
ATOM     82  C   UNL A   1      31.535  26.229  21.983  1.00  0.00     0.116 C 
BRANCH  81  83
ATOM     83  C   UNL A   1      29.927  27.932  22.743  1.00  0.00     0.082 A 
ATOM     84  C   UNL A   1      30.221  29.090  22.028  1.00  0.00     0.163 A 
ATOM     85  C   UNL A   1      28.593  27.789  23.143  1.00  0.00     0.129 A 
ATOM     86  N   UNL A   1      29.315  30.045  21.735  1.00  0.00    -0.153 NA
ATOM     87  C   UNL A   1      27.675  28.773  22.806  1.00  0.00     0.252 A 
ATOM     88  Cl  UNL A   1      28.060  26.387  24.012  1.00  0.00    -0.076 Cl
ATOM     89  N   UNL A   1      28.022  29.877  22.122  1.00  0.00    -0.111 NA
BRANCH  87  90
ATOM     90  O   UNL A   1      26.349  28.669  23.129  1.00  0.00    -0.491 OA
ATOM     91  H   UNL A   1      25.709  28.552  22.455  1.00  0.00     0.295 HD
ENDBRANCH  87  90
ENDBRANCH  81  83
ENDBRANCH  74  77
ENDBRANCH  72  73
ENDBRANCH  71  72
ENDBRANCH   1  71
TORSDOF 15
ENDMDL
MODEL 2
REMARK VINA RESULT:     -12.3      2.027      7.926
REMARK SMILES O=C(NCCCNC(=O)[C@@H]1CCCN(c2cnnc(O)c2Cl)C1)c1ccc(-c2c3nc(c(-c4cc(S(=O)(=O)[O-])ccc4F)c4ccc([nH]4)c(-c4cc(S(=O)(=O)[O-])ccc4F)c4nc(c(-c5cc(S(=O)(=O)[O-])ccc5F)c5ccc2[nH]5)C=C4)C=C3)cc1
REMARK SMILES IDX 4 1 3 2 1 3 2 4 24 6 25 7 86 8 26 9 85 10 27 11 28 12 29 13
REMARK SMILES IDX 79 14 30 15 84 16 78 17 80 18 31 19 83 20 77 21 76 22 32 24
REMARK SMILES IDX 64 25 44 26 63 27 45 28 48 29 62 30 81 31 46 32 47 33 61 35
REMARK SMILES IDX 82 36 49 37 33 38 34 39 42 40 35 41 41 42 43 43 40 44 36 45
REMARK SMILES IDX 37 46 38 47 39 48 65 49 66 50 74 51 67 52 73 53 75 54 72 55
REMARK SMILES IDX 68 56 69 57 70 58 71 59 50 60 51 61 59 62 52 63 58 64 60 65
REMARK SMILES IDX 57 66 53 67 54 68 55 69 56 70 5 71 6 72 7 73 8 74 9 76 10 77
REMARK SMILES IDX 11 78 23 79 12 80 14 81 13 82 15 83 16 84 21 85 17 86 19 87
REMARK SMILES IDX 22 88 18 89 20 90
REMARK H PARENT 3 5 80 23 48 34 7 75 20 91
REMARK Flexibility Score: inf
ROOT
ATOM      1  C   UNL A   1      32.906  32.440  27.199  1.00  0.00     0.118 C 
ENDROOT
BRANCH   1   2
ATOM      2  N   UNL A   1      32.603  33.787  27.657  1.00  0.00    -0.352 N 
ATOM      3  O   UNL A   1      32.824  35.714  28.819  1.00  0.00    -0.269 OA
ATOM      4  C   UNL A   1      33.225  34.575  28.599  1.00  0.00     0.251 C 
ATOM      5  H   UNL A   1      31.823  34.203  27.223  1.00  0.00     0.163 HD
BRANCH   4   6
ATOM      6  C   UNL A   1      34.340  34.041  29.403  1.00  0.00     0.039 A 
ATOM      7  C   UNL A   1      35.667  34.304  29.071  1.00  0.00     0.014 A 
ATOM      8  C   UNL A   1      34.036  33.257  30.520  1.00  0.00     0.014 A 
ATOM      9  C   UNL A   1      36.685  33.622  29.727  1.00  0.00     0.010 A 
ATOM     10  C   UNL A   1      35.066  32.652  31.243  1.00  0.00     0.010 A 
ATOM     11  C   UNL A   1      36.394  32.785  30.817  1.00  0.00    -0.014 A 
BRANCH  11  12
ATOM     12  C   UNL A   1      37.504  32.090  31.511  1.00  0.00     0.031 A 
ATOM     13  C   UNL A   1      38.247  30.967  30.845  1.00  0.00     0.074 A 
ATOM     14  C   UNL A   1      37.867  32.520  32.734  1.00  0.00     0.049 A 
ATOM     15  N   UNL A   1      39.286  30.303  31.278  1.00  0.00    -0.248 NA
ATOM     16  C   UNL A   1      37.767  30.529  29.524  1.00  0.00     0.031 C 
ATOM     17  C   UNL A   1      37.202  33.598  33.470  1.00  0.00     0.029 A 
ATOM     18  N   UNL A   1      38.886  32.128  33.564  1.00  0.00    -0.354 N 
ATOM     19  C   UNL A   1      39.580  29.368  30.294  1.00  0.00     0.074 A 
ATOM     20  C   UNL A   1      38.591  29.525  29.252  1.00  0.00     0.031 C 
ATOM     21  C   UNL A   1      37.857  33.813  34.619  1.00  0.00     0.029 A 
ATOM     22  C   UNL A   1      38.950  32.851  34.731  1.00  0.00     0.049 A 
ATOM     23  H   UNL A   1      39.510  31.400  33.344  1.00  0.00     0.167 HD
ATOM     24  C   UNL A   1      40.594  28.470  30.261  1.00  0.00     0.034 A 
ATOM     25  C   UNL A   1      39.789  32.751  35.781  1.00  0.00     0.034 A 
ATOM     26  C   UNL A   1      41.576  28.335  31.306  1.00  0.00     0.049 A 
ATOM     27  C   UNL A   1      40.894  31.734  35.728  1.00  0.00     0.074 A 
ATOM     28  C   UNL A   1      42.662  27.479  31.350  1.00  0.00     0.029 A 
ATOM     29  N   UNL A   1      41.596  29.068  32.484  1.00  0.00    -0.354 N 
ATOM     30  N   UNL A   1      41.196  30.900  34.760  1.00  0.00    -0.248 NA
ATOM     31  C   UNL A   1      41.776  31.641  36.898  1.00  0.00     0.031 C 
ATOM     32  C   UNL A   1      43.306  27.656  32.575  1.00  0.00     0.029 A 
ATOM     33  C   UNL A   1      42.660  28.665  33.273  1.00  0.00     0.049 A 
ATOM     34  H   UNL A   1      40.948  29.770  32.724  1.00  0.00     0.167 HD
ATOM     35  C   UNL A   1      42.311  30.195  35.198  1.00  0.00     0.074 A 
ATOM     36  C   UNL A   1      42.644  30.715  36.508  1.00  0.00     0.031 C 
ATOM     37  C   UNL A   1      42.991  29.202  34.571  1.00  0.00     0.034 A 
BRANCH  24  38
ATOM     38  C   UNL A   1      40.721  27.563  29.065  1.00  0.00     0.023 A 
ATOM     39  C   UNL A   1      41.635  27.874  28.041  1.00  0.00     0.031 A 
ATOM     40  C   UNL A   1      39.850  26.477  28.876  1.00  0.00     0.131 A 
ATOM     41  C   UNL A   1      41.633  27.125  26.857  1.00  0.00     0.055 A 
ATOM     42  C   UNL A   1      39.874  25.714  27.707  1.00  0.00     0.041 A 
ATOM     43  F   UNL A   1      38.964  26.140  29.826  1.00  0.00    -0.206 F 
ATOM     44  C   UNL A   1      40.761  26.044  26.687  1.00  0.00     0.022 A 
BRANCH  41  45
ATOM     45  S   UNL A   1      42.730  27.548  25.477  1.00  0.00     0.124 S 
ATOM     46  O   UNL A   1      42.089  28.746  24.938  1.00  0.00    -0.237 OA
ATOM     47  O   UNL A   1      44.002  27.775  26.158  1.00  0.00    -0.237 OA
ATOM     48  O   UNL A   1      42.675  26.376  24.612  1.00  0.00    -0.744 OA
ENDBRANCH  41  45
ENDBRANCH  24  38
BRANCH  25  49
ATOM     49  C   UNL A   1      39.616  33.682  36.931  1.00  0.00     0.023 A 
ATOM     50  C   UNL A   1      40.499  34.760  37.121  1.00  0.00     0.031 A 
ATOM     51  C   UNL A   1      38.649  33.433  37.919  1.00  0.00     0.131 A 
ATOM     52  C   UNL A   1      40.443  35.504  38.306  1.00  0.00     0.055 A 
ATOM     53  C   UNL A   1      38.555  34.218  39.068  1.00  0.00     0.041 A 
ATOM     54  F   UNL A   1      37.795  32.406  37.785  1.00  0.00    -0.206 F 
ATOM     55  C   UNL A   1      39.466  35.250  39.274  1.00  0.00     0.022 A 
BRANCH  52  56
ATOM     56  S   UNL A   1      41.708  36.749  38.681  1.00  0.00     0.124 S 
ATOM     57  O   UNL A   1      42.195  37.100  37.351  1.00  0.00    -0.237 OA
ATOM     58  O   UNL A   1      40.919  37.776  39.356  1.00  0.00    -0.237 OA
ATOM     59  O   UNL A   1      42.655  36.033  39.528  1.00  0.00    -0.744 OA
ENDBRANCH  52  56
ENDBRANCH  25  49
BRANCH  37  60
ATOM     60  C   UNL A   1      44.180  28.595  35.270  1.00  0.00     0.023 A 
ATOM     61  C   UNL A   1      43.989  27.558  36.202  1.00  0.00     0.031 A 
ATOM     62  C   UNL A   1      45.465  29.146  35.135  1.00  0.00     0.131 A 
ATOM     63  C   UNL A   1      45.059  27.134  36.999  1.00  0.00     0.055 A 
ATOM     64  C   UNL A   1      46.538  28.689  35.899  1.00  0.00     0.041 A 
ATOM     65  F   UNL A   1      45.691  30.143  34.264  1.00  0.00    -0.206 F 
ATOM     66  C   UNL A   1      46.335  27.689  36.846  1.00  0.00     0.022 A 
BRANCH  63  67
ATOM     67  S   UNL A   1      44.819  25.902  38.307  1.00  0.00     0.124 S 
ATOM     68  O   UNL A   1      46.192  25.498  38.601  1.00  0.00    -0.237 OA
ATOM     69  O   UNL A   1      44.163  26.687  39.349  1.00  0.00    -0.237 OA
ATOM     70  O   UNL A   1      43.993  24.877  37.678  1.00  0.00    -0.744 OA
ENDBRANCH  63  67
ENDBRANCH  37  60
ENDBRANCH  11  12
ENDBRANCH   4   6
ENDBRANCH   1   2
BRANCH   1  71
ATOM     71  C   UNL A   1      31.709  31.653  26.669  1.00  0.00     0.042 C 
BRANCH  71  72
ATOM     72  C   UNL A   1      32.013  30.210  26.287  1.00  0.00     0.117 C 
BRANCH  72  73
ATOM     73  N   UNL A   1      32.926  30.078  25.169  1.00  0.00    -0.356 N 
ATOM     74  C   UNL A   1      33.208  29.030  24.359  1.00  0.00     0.224 C 
ATOM     75  H   UNL A   1      33.432  30.897  24.961  1.00  0.00     0.163 HD
ATOM     76  O   UNL A   1      33.888  29.305  23.363  1.00  0.00    -0.275 OA
BRANCH  74  77
ATOM     77  C   UNL A   1      32.858  27.577  24.701  1.00  0.00     0.098 C 
ATOM     78  C   UNL A   1      33.642  26.621  23.764  1.00  0.00     0.017 C 
ATOM     79  C   UNL A   1      31.387  27.157  24.685  1.00  0.00     0.130 C 
ATOM     80  C   UNL A   1      33.052  26.595  22.346  1.00  0.00     0.022 C 
ATOM     81  N   UNL A   1      30.875  27.097  23.321  1.00  0.00    -0.368 N 
ATOM     82  C   UNL A   1      31.566  26.254  22.359  1.00  0.00     0.116 C 
BRANCH  81  83
ATOM     83  C   UNL A   1      29.895  27.977  22.904  1.00  0.00     0.082 A 
ATOM     84  C   UNL A   1      30.211  29.104  22.149  1.00  0.00     0.163 A 
ATOM     85  C   UNL A   1      28.540  27.817  23.217  1.00  0.00     0.129 A 
ATOM     86  N   UNL A   1      29.305  30.016  21.741  1.00  0.00    -0.153 NA
ATOM     87  C   UNL A   1      27.624  28.756  22.762  1.00  0.00     0.252 A 
ATOM     88  Cl  UNL A   1      27.980  26.449  24.123  1.00  0.00    -0.076 Cl
ATOM     89  N   UNL A   1      27.991  29.831  22.045  1.00  0.00    -0.111 NA
BRANCH  87  90
ATOM     90  O   UNL A   1      26.281  28.631  22.997  1.00  0.00    -0.491 OA
ATOM     91  H   UNL A   1      25.773  29.383  23.230  1.00  0.00     0.295 HD
ENDBRANCH  87  90
ENDBRANCH  81  83
ENDBRANCH  74  77
ENDBRANCH  72  73
ENDBRANCH  71  72
ENDBRANCH   1  71
TORSDOF 15
ENDMDL
MODEL 3
REMARK VINA RESULT:     -12.3      1.465      1.687
REMARK SMILES O=C(NCCCNC(=O)[C@@H]1CCCN(c2cnnc(O)c2Cl)C1)c1ccc(-c2c3nc(c(-c4cc(S(=O)(=O)[O-])ccc4F)c4ccc([nH]4)c(-c4cc(S(=O)(=O)[O-])ccc4F)c4nc(c(-c5cc(S(=O)(=O)[O-])ccc5F)c5ccc2[nH]5)C=C4)C=C3)cc1
REMARK SMILES IDX 4 1 3 2 1 3 2 4 24 6 25 7 86 8 26 9 85 10 27 11 28 12 29 13
REMARK SMILES IDX 79 14 30 15 84 16 78 17 80 18 31 19 83 20 77 21 76 22 32 24
REMARK SMILES IDX 64 25 44 26 63 27 45 28 48 29 62 30 81 31 46 32 47 33 61 35
REMARK SMILES IDX 82 36 49 37 33 38 34 39 42 40 35 41 41 42 43 43 40 44 36 45
REMARK SMILES IDX 37 46 38 47 39 48 65 49 66 50 74 51 67 52 73 53 75 54 72 55
REMARK SMILES IDX 68 56 69 57 70 58 71 59 50 60 51 61 59 62 52 63 58 64 60 65
REMARK SMILES IDX 57 66 53 67 54 68 55 69 56 70 5 71 6 72 7 73 8 74 9 76 10 77
REMARK SMILES IDX 11 78 23 79 12 80 14 81 13 82 15 83 16 84 21 85 17 86 19 87
REMARK SMILES IDX 22 88 18 89 20 90
REMARK H PARENT 3 5 80 23 48 34 7 75 20 91
REMARK Flexibility Score: inf
ROOT
ATOM      1  C   UNL A   1      33.033  32.035  27.274  1.00  0.00     0.118 C 
ENDROOT
BRANCH   1   2
ATOM      2  N   UNL A   1      32.659  33.376  27.695  1.00  0.00    -0.352 N 
ATOM      3  O   UNL A   1      32.801  35.362  28.766  1.00  0.00    -0.269 OA
ATOM      4  C   UNL A   1      33.271  34.245  28.570  1.00  0.00     0.251 C 
ATOM      5  H   UNL A   1      31.831  33.719  27.287  1.00  0.00     0.163 HD
BRANCH   4   6
ATOM      6  C   UNL A   1      34.461  33.824  29.333  1.00  0.00     0.039 A 
ATOM      7  C   UNL A   1      35.735  34.279  29.002  1.00  0.00     0.014 A 
ATOM      8  C   UNL A   1      34.283  32.949  30.409  1.00  0.00     0.014 A 
ATOM      9  C   UNL A   1      36.845  33.706  29.610  1.00  0.00     0.010 A 
ATOM     10  C   UNL A   1      35.396  32.450  31.088  1.00  0.00     0.010 A 
ATOM     11  C   UNL A   1      36.687  32.782  30.656  1.00  0.00    -0.014 A 
BRANCH  11  12
ATOM     12  C   UNL A   1      37.891  32.207  31.301  1.00  0.00     0.031 A 
ATOM     13  C   UNL A   1      38.347  32.687  32.650  1.00  0.00     0.074 A 
ATOM     14  C   UNL A   1      38.542  31.208  30.674  1.00  0.00     0.049 A 
ATOM     15  N   UNL A   1      39.331  32.243  33.387  1.00  0.00    -0.248 NA
ATOM     16  C   UNL A   1      37.607  33.807  33.254  1.00  0.00     0.031 C 
ATOM     17  C   UNL A   1      38.183  30.677  29.358  1.00  0.00     0.029 A 
ATOM     18  N   UNL A   1      39.616  30.449  31.059  1.00  0.00    -0.354 N 
ATOM     19  C   UNL A   1      39.336  33.029  34.532  1.00  0.00     0.074 A 
ATOM     20  C   UNL A   1      38.277  34.001  34.383  1.00  0.00     0.031 C 
ATOM     21  C   UNL A   1      38.991  29.650  29.065  1.00  0.00     0.029 A 
ATOM     22  C   UNL A   1      39.962  29.486  30.142  1.00  0.00     0.049 A 
ATOM     23  H   UNL A   1      40.093  30.581  31.910  1.00  0.00     0.167 HD
ATOM     24  C   UNL A   1      40.145  32.934  35.614  1.00  0.00     0.034 A 
ATOM     25  C   UNL A   1      40.955  28.574  30.158  1.00  0.00     0.034 A 
ATOM     26  C   UNL A   1      41.189  31.951  35.749  1.00  0.00     0.049 A 
ATOM     27  C   UNL A   1      41.850  28.502  31.363  1.00  0.00     0.074 A 
ATOM     28  C   UNL A   1      42.040  31.752  36.822  1.00  0.00     0.029 A 
ATOM     29  N   UNL A   1      41.527  31.008  34.790  1.00  0.00    -0.354 N 
ATOM     30  N   UNL A   1      41.800  29.213  32.466  1.00  0.00    -0.248 NA
ATOM     31  C   UNL A   1      42.932  27.510  31.336  1.00  0.00     0.031 C 
ATOM     32  C   UNL A   1      42.925  30.726  36.490  1.00  0.00     0.029 A 
ATOM     33  C   UNL A   1      42.590  30.241  35.235  1.00  0.00     0.049 A 
ATOM     34  H   UNL A   1      41.077  30.900  33.920  1.00  0.00     0.167 HD
ATOM     35  C   UNL A   1      42.833  28.743  33.270  1.00  0.00     0.074 A 
ATOM     36  C   UNL A   1      43.476  27.672  32.536  1.00  0.00     0.031 C 
ATOM     37  C   UNL A   1      43.214  29.166  34.501  1.00  0.00     0.034 A 
BRANCH  24  38
ATOM     38  C   UNL A   1      39.945  33.898  36.756  1.00  0.00     0.023 A 
ATOM     39  C   UNL A   1      39.356  33.455  37.955  1.00  0.00     0.031 A 
ATOM     40  C   UNL A   1      40.210  35.270  36.608  1.00  0.00     0.131 A 
ATOM     41  C   UNL A   1      39.019  34.385  38.947  1.00  0.00     0.055 A 
ATOM     42  C   UNL A   1      39.901  36.188  37.614  1.00  0.00     0.041 A 
ATOM     43  F   UNL A   1      40.775  35.739  35.484  1.00  0.00    -0.206 F 
ATOM     44  C   UNL A   1      39.293  35.747  38.785  1.00  0.00     0.022 A 
BRANCH  41  45
ATOM     45  S   UNL A   1      38.176  33.868  40.467  1.00  0.00     0.124 S 
ATOM     46  O   UNL A   1      37.016  33.152  39.940  1.00  0.00    -0.237 OA
ATOM     47  O   UNL A   1      39.187  33.032  41.107  1.00  0.00    -0.237 OA
ATOM     48  O   UNL A   1      37.871  35.124  41.143  1.00  0.00    -0.744 OA
ENDBRANCH  41  45
ENDBRANCH  24  38
BRANCH  25  49
ATOM     49  C   UNL A   1      41.096  27.645  29.003  1.00  0.00     0.023 A 
ATOM     50  C   UNL A   1      42.070  27.872  28.013  1.00  0.00     0.031 A 
ATOM     51  C   UNL A   1      40.182  26.597  28.806  1.00  0.00     0.131 A 
ATOM     52  C   UNL A   1      42.061  27.108  26.840  1.00  0.00     0.055 A 
ATOM     53  C   UNL A   1      40.219  25.796  27.664  1.00  0.00     0.041 A 
ATOM     54  F   UNL A   1      39.227  26.353  29.718  1.00  0.00    -0.206 F 
ATOM     55  C   UNL A   1      41.152  26.061  26.666  1.00  0.00     0.022 A 
BRANCH  52  56
ATOM     56  S   UNL A   1      43.154  27.524  25.453  1.00  0.00     0.124 S 
ATOM     57  O   UNL A   1      43.549  26.205  24.969  1.00  0.00    -0.237 OA
ATOM     58  O   UNL A   1      42.253  28.272  24.581  1.00  0.00    -0.237 OA
ATOM     59  O   UNL A   1      44.215  28.309  26.074  1.00  0.00    -0.744 OA
ENDBRANCH  52  56
ENDBRANCH  25  49
BRANCH  37  60
ATOM     60  C   UNL A   1      44.380  28.482  35.166  1.00  0.00     0.023 A 
ATOM     61  C   UNL A   1      44.149  27.468  36.114  1.00  0.00     0.031 A 
ATOM     62  C   UNL A   1      45.695  28.941  34.983  1.00  0.00     0.131 A 
ATOM     63  C   UNL A   1      45.214  26.977  36.878  1.00  0.00     0.055 A 
ATOM     64  C   UNL A   1      46.760  28.416  35.715  1.00  0.00     0.041 A 
ATOM     65  F   UNL A   1      45.960  29.913  34.095  1.00  0.00    -0.206 F 
ATOM     66  C   UNL A   1      46.520  27.440  36.678  1.00  0.00     0.022 A 
BRANCH  63  67
ATOM     67  S   UNL A   1      44.934  25.774  38.206  1.00  0.00     0.124 S 
ATOM     68  O   UNL A   1      44.033  26.506  39.095  1.00  0.00    -0.237 OA
ATOM     69  O   UNL A   1      44.327  24.659  37.484  1.00  0.00    -0.237 OA
ATOM     70  O   UNL A   1      46.266  25.525  38.744  1.00  0.00    -0.744 OA
ENDBRANCH  63  67
ENDBRANCH  37  60
ENDBRANCH  11  12
ENDBRANCH   4   6
ENDBRANCH   1   2
BRANCH   1  71
ATOM     71  C   UNL A   1      31.940  31.258  26.543  1.00  0.00     0.042 C 
BRANCH  71  72
ATOM     72  C   UNL A   1      32.307  29.825  26.183  1.00  0.00     0.117 C 
BRANCH  72  73
ATOM     73  N   UNL A   1      33.183  29.714  25.033  1.00  0.00    -0.356 N 
ATOM     74  C   UNL A   1      33.401  28.697  24.165  1.00  0.00     0.224 C 
ATOM     75  H   UNL A   1      33.715  30.523  24.850  1.00  0.00     0.163 HD
ATOM     76  O   UNL A   1      34.062  28.996  23.163  1.00  0.00    -0.275 OA
BRANCH  74  77
ATOM     77  C   UNL A   1      33.003  27.244  24.446  1.00  0.00     0.098 C 
ATOM     78  C   UNL A   1      33.705  26.308  23.427  1.00  0.00     0.017 C 
ATOM     79  C   UNL A   1      31.516  26.885  24.473  1.00  0.00     0.130 C 
ATOM     80  C   UNL A   1      33.056  26.383  22.037  1.00  0.00     0.022 C 
ATOM     81  N   UNL A   1      30.945  26.919  23.132  1.00  0.00    -0.368 N 
ATOM     82  C   UNL A   1      31.559  26.102  22.097  1.00  0.00     0.116 C 
BRANCH  81  83
ATOM     83  C   UNL A   1      29.987  27.860  22.804  1.00  0.00     0.082 A 
ATOM     84  C   UNL A   1      30.318  29.008  22.089  1.00  0.00     0.163 A 
ATOM     85  C   UNL A   1      28.643  27.743  23.175  1.00  0.00     0.129 A 
ATOM     86  N   UNL A   1      29.435  29.976  21.768  1.00  0.00    -0.153 NA
ATOM     87  C   UNL A   1      27.749  28.740  22.810  1.00  0.00     0.252 A 
ATOM     88  Cl  UNL A   1      28.065  26.357  24.041  1.00  0.00    -0.076 Cl
ATOM     89  N   UNL A   1      28.131  29.833  22.126  1.00  0.00    -0.111 NA
BRANCH  87  90
ATOM     90  O   UNL A   1      26.414  28.661  23.103  1.00  0.00    -0.491 OA
ATOM     91  H   UNL A   1      25.855  28.101  22.601  1.00  0.00     0.295 HD
ENDBRANCH  87  90
ENDBRANCH  81  83
ENDBRANCH  74  77
ENDBRANCH  72  73
ENDBRANCH  71  72
ENDBRANCH   1  71
TORSDOF 15
ENDMDL
