MODEL 1
REMARK VINA RESULT:     -10.2      0.000      0.000
REMARK SMILES COC[C@H](C)[C@H](CC(C)C)C(=O)NCCCNC(=O)c1ccc(-c2c3nc(c(-c4cc(S(=O)(=O)[O-])ccc4F)c4ccc([nH]4)c(-c4cc(S(=O)(=O)[O-])ccc4F)c4nc(c(-c5cc(S(=O)(=O)[O-])ccc5F)c5ccc2[nH]5)C=C4)C=C3)cc1
REMARK SMILES IDX 15 1 14 2 13 3 11 4 12 5 6 7 4 8 5 9 3 10 2 11 1 12 7 13
REMARK SMILES IDX 8 14 9 15 10 16 16 17 17 18 18 19 19 21 20 22 21 23 82 24
REMARK SMILES IDX 22 25 81 26 23 27 24 28 25 29 75 30 26 31 80 32 74 33 76 34
REMARK SMILES IDX 27 35 79 36 73 37 72 38 28 40 60 41 40 42 59 43 41 44 44 45
REMARK SMILES IDX 58 46 77 47 42 48 43 49 57 51 78 52 45 53 29 54 30 55 38 56
REMARK SMILES IDX 31 57 37 58 39 59 36 60 32 61 33 62 34 63 35 64 61 65 62 66
REMARK SMILES IDX 70 67 63 68 69 69 71 70 68 71 64 72 65 73 66 74 67 75 46 76
REMARK SMILES IDX 47 77 55 78 48 79 54 80 56 81 53 82 49 83 50 84 51 85 52 86
REMARK H PARENT 13 6 17 20 76 39 44 50
REMARK Flexibility Score: inf
ROOT
ATOM      1  C   UNL A   1      31.863  31.212  26.629  1.00  0.00     0.042 C 
ENDROOT
BRANCH   1   2
ATOM      2  C   UNL A   1      32.086  29.719  26.483  1.00  0.00     0.117 C 
BRANCH   2   3
ATOM      3  N   UNL A   1      32.769  29.359  25.249  1.00  0.00    -0.356 N 
ATOM      4  C   UNL A   1      32.274  29.003  24.030  1.00  0.00     0.223 C 
ATOM      5  O   UNL A   1      33.071  28.908  23.094  1.00  0.00    -0.275 OA
ATOM      6  H   UNL A   1      33.751  29.374  25.303  1.00  0.00     0.163 HD
BRANCH   4   7
ATOM      7  C   UNL A   1      30.778  28.773  23.802  1.00  0.00     0.084 C 
BRANCH   7   8
ATOM      8  C   UNL A   1      30.356  27.289  24.051  1.00  0.00     0.024 C 
ATOM      9  C   UNL A   1      30.704  26.372  22.872  1.00  0.00     0.011 C 
BRANCH   8  10
ATOM     10  C   UNL A   1      30.840  26.644  25.363  1.00  0.00     0.163 C 
BRANCH  10  11
ATOM     11  O   UNL A   1      31.862  25.669  25.128  1.00  0.00    -0.384 OA
ATOM     12  C   UNL A   1      32.940  25.790  26.053  1.00  0.00     0.194 C 
ENDBRANCH  10  11
ENDBRANCH   8  10
ENDBRANCH   7   8
BRANCH   7  13
ATOM     13  C   UNL A   1      30.278  29.497  22.529  1.00  0.00     0.017 C 
BRANCH  13  14
ATOM     14  C   UNL A   1      28.978  30.316  22.705  1.00  0.00    -0.017 C 
ATOM     15  C   UNL A   1      27.742  29.432  22.911  1.00  0.00     0.007 C 
ATOM     16  C   UNL A   1      29.124  31.249  23.914  1.00  0.00     0.007 C 
ENDBRANCH  13  14
ENDBRANCH   7  13
ENDBRANCH   4   7
ENDBRANCH   2   3
ENDBRANCH   1   2
BRANCH   1  17
ATOM     17  C   UNL A   1      33.041  31.934  27.264  1.00  0.00     0.118 C 
BRANCH  17  18
ATOM     18  N   UNL A   1      32.789  33.358  27.470  1.00  0.00    -0.352 N 
ATOM     19  C   UNL A   1      33.302  34.231  28.399  1.00  0.00     0.251 C 
ATOM     20  H   UNL A   1      32.147  33.757  26.841  1.00  0.00     0.163 HD
ATOM     21  O   UNL A   1      32.795  35.343  28.528  1.00  0.00    -0.269 OA
BRANCH  19  22
ATOM     22  C   UNL A   1      34.434  33.822  29.257  1.00  0.00     0.039 A 
ATOM     23  C   UNL A   1      34.215  32.915  30.297  1.00  0.00     0.014 A 
ATOM     24  C   UNL A   1      35.715  34.323  29.025  1.00  0.00     0.014 A 
ATOM     25  C   UNL A   1      35.301  32.439  31.038  1.00  0.00     0.010 A 
ATOM     26  C   UNL A   1      36.803  33.764  29.682  1.00  0.00     0.010 A 
ATOM     27  C   UNL A   1      36.610  32.817  30.698  1.00  0.00    -0.014 A 
BRANCH  27  28
ATOM     28  C   UNL A   1      37.800  32.254  31.389  1.00  0.00     0.031 A 
ATOM     29  C   UNL A   1      38.596  31.161  30.725  1.00  0.00     0.074 A 
ATOM     30  C   UNL A   1      38.096  32.646  32.644  1.00  0.00     0.049 A 
ATOM     31  N   UNL A   1      39.560  30.424  31.213  1.00  0.00    -0.248 NA
ATOM     32  C   UNL A   1      38.222  30.820  29.344  1.00  0.00     0.031 C 
ATOM     33  C   UNL A   1      37.366  33.659  33.411  1.00  0.00     0.029 A 
ATOM     34  N   UNL A   1      39.079  32.227  33.506  1.00  0.00    -0.354 N 
ATOM     35  C   UNL A   1      39.882  29.512  30.213  1.00  0.00     0.074 A 
ATOM     36  C   UNL A   1      38.966  29.749  29.119  1.00  0.00     0.031 C 
ATOM     37  C   UNL A   1      37.940  33.799  34.616  1.00  0.00     0.029 A 
ATOM     38  C   UNL A   1      39.043  32.852  34.732  1.00  0.00     0.049 A 
ATOM     39  H   UNL A   1      39.746  31.545  33.269  1.00  0.00     0.167 HD
ATOM     40  C   UNL A   1      40.867  28.580  30.200  1.00  0.00     0.034 A 
ATOM     41  C   UNL A   1      39.802  32.668  35.831  1.00  0.00     0.034 A 
ATOM     42  C   UNL A   1      41.797  28.389  31.285  1.00  0.00     0.049 A 
ATOM     43  C   UNL A   1      40.896  31.631  35.791  1.00  0.00     0.074 A 
ATOM     44  C   UNL A   1      42.884  27.536  31.349  1.00  0.00     0.029 A 
ATOM     45  N   UNL A   1      41.747  29.061  32.500  1.00  0.00    -0.354 N 
ATOM     46  N   UNL A   1      41.223  30.815  34.815  1.00  0.00    -0.248 NA
ATOM     47  C   UNL A   1      41.727  31.497  36.993  1.00  0.00     0.031 C 
ATOM     48  C   UNL A   1      43.455  27.647  32.621  1.00  0.00     0.029 A 
ATOM     49  C   UNL A   1      42.768  28.621  33.328  1.00  0.00     0.049 A 
ATOM     50  H   UNL A   1      41.086  29.750  32.737  1.00  0.00     0.167 HD
ATOM     51  C   UNL A   1      42.319  30.092  35.279  1.00  0.00     0.074 A 
ATOM     52  C   UNL A   1      42.602  30.579  36.614  1.00  0.00     0.031 C 
ATOM     53  C   UNL A   1      43.029  29.116  34.659  1.00  0.00     0.034 A 
BRANCH  40  54
ATOM     54  C   UNL A   1      40.971  27.692  28.981  1.00  0.00     0.023 A 
ATOM     55  C   UNL A   1      41.967  27.883  28.008  1.00  0.00     0.031 A 
ATOM     56  C   UNL A   1      40.039  26.661  28.772  1.00  0.00     0.131 A 
ATOM     57  C   UNL A   1      41.959  27.117  26.835  1.00  0.00     0.055 A 
ATOM     58  C   UNL A   1      40.088  25.841  27.642  1.00  0.00     0.041 A 
ATOM     59  F   UNL A   1      39.052  26.440  29.655  1.00  0.00    -0.206 F 
ATOM     60  C   UNL A   1      41.042  26.078  26.656  1.00  0.00     0.022 A 
BRANCH  57  61
ATOM     61  S   UNL A   1      43.067  27.594  25.482  1.00  0.00     0.124 S 
ATOM     62  O   UNL A   1      42.151  28.300  24.588  1.00  0.00    -0.237 OA
ATOM     63  O   UNL A   1      44.058  28.419  26.161  1.00  0.00    -0.237 OA
ATOM     64  O   UNL A   1      43.560  26.316  24.974  1.00  0.00    -0.744 OA
ENDBRANCH  57  61
ENDBRANCH  40  54
BRANCH  41  65
ATOM     65  C   UNL A   1      39.556  33.467  37.065  1.00  0.00     0.023 A 
ATOM     66  C   UNL A   1      38.917  32.897  38.177  1.00  0.00     0.031 A 
ATOM     67  C   UNL A   1      39.919  34.825  37.139  1.00  0.00     0.131 A 
ATOM     68  C   UNL A   1      38.612  33.690  39.294  1.00  0.00     0.055 A 
ATOM     69  C   UNL A   1      39.662  35.596  38.273  1.00  0.00     0.041 A 
ATOM     70  F   UNL A   1      40.541  35.419  36.108  1.00  0.00    -0.206 F 
ATOM     71  C   UNL A   1      38.992  35.033  39.355  1.00  0.00     0.022 A 
BRANCH  68  72
ATOM     72  S   UNL A   1      37.633  32.961  40.636  1.00  0.00     0.124 S 
ATOM     73  O   UNL A   1      38.252  31.649  40.775  1.00  0.00    -0.237 OA
ATOM     74  O   UNL A   1      37.870  33.902  41.727  1.00  0.00    -0.237 OA
ATOM     75  O   UNL A   1      36.273  32.959  40.102  1.00  0.00    -0.744 OA
ENDBRANCH  68  72
ENDBRANCH  41  65
BRANCH  53  76
ATOM     76  C   UNL A   1      44.210  28.549  35.406  1.00  0.00     0.023 A 
ATOM     77  C   UNL A   1      44.063  27.504  36.335  1.00  0.00     0.031 A 
ATOM     78  C   UNL A   1      45.498  29.066  35.185  1.00  0.00     0.131 A 
ATOM     79  C   UNL A   1      45.181  27.043  37.046  1.00  0.00     0.055 A 
ATOM     80  C   UNL A   1      46.615  28.564  35.854  1.00  0.00     0.041 A 
ATOM     81  F   UNL A   1      45.692  30.065  34.310  1.00  0.00    -0.206 F 
ATOM     82  C   UNL A   1      46.458  27.555  36.799  1.00  0.00     0.022 A 
BRANCH  79  83
ATOM     83  S   UNL A   1      44.933  25.816  38.359  1.00  0.00     0.124 S 
ATOM     84  O   UNL A   1      44.065  26.535  39.286  1.00  0.00    -0.237 OA
ATOM     85  O   UNL A   1      44.316  24.708  37.637  1.00  0.00    -0.237 OA
ATOM     86  O   UNL A   1      46.286  25.558  38.848  1.00  0.00    -0.744 OA
ENDBRANCH  79  83
ENDBRANCH  53  76
ENDBRANCH  27  28
ENDBRANCH  19  22
ENDBRANCH  17  18
ENDBRANCH   1  17
TORSDOF 18
ENDMDL
MODEL 2
REMARK VINA RESULT:     -10.2      0.885      1.814
REMARK SMILES COC[C@H](C)[C@H](CC(C)C)C(=O)NCCCNC(=O)c1ccc(-c2c3nc(c(-c4cc(S(=O)(=O)[O-])ccc4F)c4ccc([nH]4)c(-c4cc(S(=O)(=O)[O-])ccc4F)c4nc(c(-c5cc(S(=O)(=O)[O-])ccc5F)c5ccc2[nH]5)C=C4)C=C3)cc1
REMARK SMILES IDX 15 1 14 2 13 3 11 4 12 5 6 7 4 8 5 9 3 10 2 11 1 12 7 13
REMARK SMILES IDX 8 14 9 15 10 16 16 17 17 18 18 19 19 21 20 22 21 23 82 24
REMARK SMILES IDX 22 25 81 26 23 27 24 28 25 29 75 30 26 31 80 32 74 33 76 34
REMARK SMILES IDX 27 35 79 36 73 37 72 38 28 40 60 41 40 42 59 43 41 44 44 45
REMARK SMILES IDX 58 46 77 47 42 48 43 49 57 51 78 52 45 53 29 54 30 55 38 56
REMARK SMILES IDX 31 57 37 58 39 59 36 60 32 61 33 62 34 63 35 64 61 65 62 66
REMARK SMILES IDX 70 67 63 68 69 69 71 70 68 71 64 72 65 73 66 74 67 75 46 76
REMARK SMILES IDX 47 77 55 78 48 79 54 80 56 81 53 82 49 83 50 84 51 85 52 86
REMARK H PARENT 13 6 17 20 76 39 44 50
REMARK Flexibility Score: inf
ROOT
ATOM      1  C   UNL A   1      31.967  31.081  26.867  1.00  0.00     0.042 C 
ENDROOT
BRANCH   1   2
ATOM      2  C   UNL A   1      32.258  30.071  25.774  1.00  0.00     0.117 C 
BRANCH   2   3
ATOM      3  N   UNL A   1      31.229  30.027  24.745  1.00  0.00    -0.356 N 
ATOM      4  C   UNL A   1      30.854  29.022  23.905  1.00  0.00     0.223 C 
ATOM      5  O   UNL A   1      29.832  29.187  23.235  1.00  0.00    -0.275 OA
ATOM      6  H   UNL A   1      30.720  30.862  24.637  1.00  0.00     0.163 HD
BRANCH   4   7
ATOM      7  C   UNL A   1      31.634  27.708  23.820  1.00  0.00     0.084 C 
BRANCH   7   8
ATOM      8  C   UNL A   1      32.388  27.546  22.461  1.00  0.00     0.024 C 
ATOM      9  C   UNL A   1      33.779  28.194  22.478  1.00  0.00     0.011 C 
BRANCH   8  10
ATOM     10  C   UNL A   1      32.495  26.118  21.896  1.00  0.00     0.163 C 
BRANCH  10  11
ATOM     11  O   UNL A   1      33.725  25.490  22.273  1.00  0.00    -0.384 OA
ATOM     12  C   UNL A   1      33.551  24.104  22.563  1.00  0.00     0.194 C 
ENDBRANCH  10  11
ENDBRANCH   8  10
ENDBRANCH   7   8
BRANCH   7  13
ATOM     13  C   UNL A   1      30.811  26.520  24.372  1.00  0.00     0.017 C 
BRANCH  13  14
ATOM     14  C   UNL A   1      31.178  26.075  25.808  1.00  0.00    -0.017 C 
ATOM     15  C   UNL A   1      30.589  24.709  26.175  1.00  0.00     0.007 C 
ATOM     16  C   UNL A   1      32.704  26.008  25.944  1.00  0.00     0.007 C 
ENDBRANCH  13  14
ENDBRANCH   7  13
ENDBRANCH   4   7
ENDBRANCH   2   3
ENDBRANCH   1   2
BRANCH   1  17
ATOM     17  C   UNL A   1      33.193  31.871  27.296  1.00  0.00     0.118 C 
BRANCH  17  18
ATOM     18  N   UNL A   1      32.903  33.281  27.539  1.00  0.00    -0.352 N 
ATOM     19  C   UNL A   1      33.396  34.144  28.490  1.00  0.00     0.251 C 
ATOM     20  H   UNL A   1      32.248  33.679  26.923  1.00  0.00     0.163 HD
ATOM     21  O   UNL A   1      32.859  35.237  28.649  1.00  0.00    -0.269 OA
BRANCH  19  22
ATOM     22  C   UNL A   1      34.542  33.743  29.333  1.00  0.00     0.039 A 
ATOM     23  C   UNL A   1      34.337  32.862  30.397  1.00  0.00     0.014 A 
ATOM     24  C   UNL A   1      35.822  34.227  29.062  1.00  0.00     0.014 A 
ATOM     25  C   UNL A   1      35.435  32.393  31.126  1.00  0.00     0.010 A 
ATOM     26  C   UNL A   1      36.919  33.673  29.708  1.00  0.00     0.010 A 
ATOM     27  C   UNL A   1      36.740  32.751  30.750  1.00  0.00    -0.014 A 
BRANCH  27  28
ATOM     28  C   UNL A   1      37.939  32.193  31.428  1.00  0.00     0.031 A 
ATOM     29  C   UNL A   1      38.729  31.099  30.759  1.00  0.00     0.074 A 
ATOM     30  C   UNL A   1      38.249  32.590  32.679  1.00  0.00     0.049 A 
ATOM     31  N   UNL A   1      39.700  30.366  31.237  1.00  0.00    -0.248 NA
ATOM     32  C   UNL A   1      38.338  30.753  29.383  1.00  0.00     0.031 C 
ATOM     33  C   UNL A   1      37.527  33.604  33.451  1.00  0.00     0.029 A 
ATOM     34  N   UNL A   1      39.243  32.176  33.530  1.00  0.00    -0.354 N 
ATOM     35  C   UNL A   1      40.011  29.450  30.237  1.00  0.00     0.074 A 
ATOM     36  C   UNL A   1      39.082  29.682  29.153  1.00  0.00     0.031 C 
ATOM     37  C   UNL A   1      38.115  33.750  34.648  1.00  0.00     0.029 A 
ATOM     38  C   UNL A   1      39.221  32.805  34.754  1.00  0.00     0.049 A 
ATOM     39  H   UNL A   1      39.909  31.494  33.287  1.00  0.00     0.167 HD
ATOM     40  C   UNL A   1      40.998  28.520  30.215  1.00  0.00     0.034 A 
ATOM     41  C   UNL A   1      39.994  32.627  35.845  1.00  0.00     0.034 A 
ATOM     42  C   UNL A   1      41.941  28.335  31.289  1.00  0.00     0.049 A 
ATOM     43  C   UNL A   1      41.089  31.592  35.794  1.00  0.00     0.074 A 
ATOM     44  C   UNL A   1      43.031  27.484  31.343  1.00  0.00     0.029 A 
ATOM     45  N   UNL A   1      41.905  29.011  32.502  1.00  0.00    -0.354 N 
ATOM     46  N   UNL A   1      41.406  30.772  34.818  1.00  0.00    -0.248 NA
ATOM     47  C   UNL A   1      41.935  31.464  36.987  1.00  0.00     0.031 C 
ATOM     48  C   UNL A   1      43.617  27.601  32.608  1.00  0.00     0.029 A 
ATOM     49  C   UNL A   1      42.937  28.576  33.320  1.00  0.00     0.049 A 
ATOM     50  H   UNL A   1      41.245  29.699  32.745  1.00  0.00     0.167 HD
ATOM     51  C   UNL A   1      42.509  30.053  35.271  1.00  0.00     0.074 A 
ATOM     52  C   UNL A   1      42.807  30.545  36.600  1.00  0.00     0.031 C 
ATOM     53  C   UNL A   1      43.213  29.076  34.646  1.00  0.00     0.034 A 
BRANCH  40  54
ATOM     54  C   UNL A   1      41.089  27.629  28.998  1.00  0.00     0.023 A 
ATOM     55  C   UNL A   1      42.087  27.804  28.024  1.00  0.00     0.031 A 
ATOM     56  C   UNL A   1      40.142  26.610  28.792  1.00  0.00     0.131 A 
ATOM     57  C   UNL A   1      42.067  27.034  26.852  1.00  0.00     0.055 A 
ATOM     58  C   UNL A   1      40.180  25.787  27.664  1.00  0.00     0.041 A 
ATOM     59  F   UNL A   1      39.153  26.405  29.677  1.00  0.00    -0.206 F 
ATOM     60  C   UNL A   1      41.136  26.008  26.677  1.00  0.00     0.022 A 
BRANCH  57  61
ATOM     61  S   UNL A   1      43.180  27.494  25.498  1.00  0.00     0.124 S 
ATOM     62  O   UNL A   1      44.131  28.367  26.182  1.00  0.00    -0.237 OA
ATOM     63  O   UNL A   1      43.698  26.202  25.062  1.00  0.00    -0.237 OA
ATOM     64  O   UNL A   1      42.302  28.168  24.544  1.00  0.00    -0.744 OA
ENDBRANCH  57  61
ENDBRANCH  40  54
BRANCH  41  65
ATOM     65  C   UNL A   1      39.761  33.430  37.079  1.00  0.00     0.023 A 
ATOM     66  C   UNL A   1      39.026  32.903  38.152  1.00  0.00     0.031 A 
ATOM     67  C   UNL A   1      40.235  34.750  37.189  1.00  0.00     0.131 A 
ATOM     68  C   UNL A   1      38.740  33.707  39.266  1.00  0.00     0.055 A 
ATOM     69  C   UNL A   1      39.994  35.528  38.323  1.00  0.00     0.041 A 
ATOM     70  F   UNL A   1      40.951  35.300  36.195  1.00  0.00    -0.206 F 
ATOM     71  C   UNL A   1      39.230  35.011  39.365  1.00  0.00     0.022 A 
BRANCH  68  72
ATOM     72  S   UNL A   1      37.642  33.050  40.552  1.00  0.00     0.124 S 
ATOM     73  O   UNL A   1      37.590  34.161  41.494  1.00  0.00    -0.237 OA
ATOM     74  O   UNL A   1      36.419  32.788  39.800  1.00  0.00    -0.237 OA
ATOM     75  O   UNL A   1      38.346  31.860  41.026  1.00  0.00    -0.744 OA
ENDBRANCH  68  72
ENDBRANCH  41  65
BRANCH  53  76
ATOM     76  C   UNL A   1      44.404  28.514  35.380  1.00  0.00     0.023 A 
ATOM     77  C   UNL A   1      44.265  27.504  36.348  1.00  0.00     0.031 A 
ATOM     78  C   UNL A   1      45.694  29.001  35.109  1.00  0.00     0.131 A 
ATOM     79  C   UNL A   1      45.394  27.047  37.044  1.00  0.00     0.055 A 
ATOM     80  C   UNL A   1      46.820  28.503  35.764  1.00  0.00     0.041 A 
ATOM     81  F   UNL A   1      45.881  29.968  34.195  1.00  0.00    -0.206 F 
ATOM     82  C   UNL A   1      46.672  27.529  36.747  1.00  0.00     0.022 A 
BRANCH  79  83
ATOM     83  S   UNL A   1      45.161  25.869  38.403  1.00  0.00     0.124 S 
ATOM     84  O   UNL A   1      44.579  24.721  37.714  1.00  0.00    -0.237 OA
ATOM     85  O   UNL A   1      46.522  25.691  38.899  1.00  0.00    -0.237 OA
ATOM     86  O   UNL A   1      44.257  26.570  39.313  1.00  0.00    -0.744 OA
ENDBRANCH  79  83
ENDBRANCH  53  76
ENDBRANCH  27  28
ENDBRANCH  19  22
ENDBRANCH  17  18
ENDBRANCH   1  17
TORSDOF 18
ENDMDL
MODEL 3
REMARK VINA RESULT:     -10.1      2.124      2.884
REMARK SMILES COC[C@H](C)[C@H](CC(C)C)C(=O)NCCCNC(=O)c1ccc(-c2c3nc(c(-c4cc(S(=O)(=O)[O-])ccc4F)c4ccc([nH]4)c(-c4cc(S(=O)(=O)[O-])ccc4F)c4nc(c(-c5cc(S(=O)(=O)[O-])ccc5F)c5ccc2[nH]5)C=C4)C=C3)cc1
REMARK SMILES IDX 15 1 14 2 13 3 11 4 12 5 6 7 4 8 5 9 3 10 2 11 1 12 7 13
REMARK SMILES IDX 8 14 9 15 10 16 16 17 17 18 18 19 19 21 20 22 21 23 82 24
REMARK SMILES IDX 22 25 81 26 23 27 24 28 25 29 75 30 26 31 80 32 74 33 76 34
REMARK SMILES IDX 27 35 79 36 73 37 72 38 28 40 60 41 40 42 59 43 41 44 44 45
REMARK SMILES IDX 58 46 77 47 42 48 43 49 57 51 78 52 45 53 29 54 30 55 38 56
REMARK SMILES IDX 31 57 37 58 39 59 36 60 32 61 33 62 34 63 35 64 61 65 62 66
REMARK SMILES IDX 70 67 63 68 69 69 71 70 68 71 64 72 65 73 66 74 67 75 46 76
REMARK SMILES IDX 47 77 55 78 48 79 54 80 56 81 53 82 49 83 50 84 51 85 52 86
REMARK H PARENT 13 6 17 20 76 39 44 50
REMARK Flexibility Score: inf
ROOT
ATOM      1  C   UNL A   1      32.376  29.193  25.143  1.00  0.00     0.042 C 
ENDROOT
BRANCH   1   2
ATOM      2  C   UNL A   1      33.716  28.508  24.959  1.00  0.00     0.117 C 
BRANCH   2   3
ATOM      3  N   UNL A   1      33.939  28.039  23.598  1.00  0.00    -0.356 N 
ATOM      4  C   UNL A   1      33.522  26.905  22.969  1.00  0.00     0.223 C 
ATOM      5  O   UNL A   1      33.707  26.824  21.752  1.00  0.00    -0.275 OA
ATOM      6  H   UNL A   1      34.482  28.642  23.040  1.00  0.00     0.163 HD
BRANCH   4   7
ATOM      7  C   UNL A   1      32.805  25.782  23.722  1.00  0.00     0.084 C 
BRANCH   7   8
ATOM      8  C   UNL A   1      33.783  24.660  24.198  1.00  0.00     0.024 C 
ATOM      9  C   UNL A   1      34.007  24.679  25.715  1.00  0.00     0.011 C 
BRANCH   8  10
ATOM     10  C   UNL A   1      33.460  23.225  23.745  1.00  0.00     0.163 C 
BRANCH  10  11
ATOM     11  O   UNL A   1      33.133  22.380  24.854  1.00  0.00    -0.384 OA
ATOM     12  C   UNL A   1      31.730  22.144  24.951  1.00  0.00     0.194 C 
ENDBRANCH  10  11
ENDBRANCH   8  10
ENDBRANCH   7   8
BRANCH   7  13
ATOM     13  C   UNL A   1      31.482  25.384  23.024  1.00  0.00     0.017 C 
BRANCH  13  14
ATOM     14  C   UNL A   1      30.193  25.800  23.771  1.00  0.00    -0.017 C 
ATOM     15  C   UNL A   1      30.346  25.747  25.295  1.00  0.00     0.007 C 
ATOM     16  C   UNL A   1      29.807  27.227  23.362  1.00  0.00     0.007 C 
ENDBRANCH  13  14
ENDBRANCH   7  13
ENDBRANCH   4   7
ENDBRANCH   2   3
ENDBRANCH   1   2
BRANCH   1  17
ATOM     17  C   UNL A   1      32.145  29.686  26.562  1.00  0.00     0.118 C 
BRANCH  17  18
ATOM     18  N   UNL A   1      31.991  31.136  26.640  1.00  0.00    -0.352 N 
ATOM     19  C   UNL A   1      32.771  32.087  27.255  1.00  0.00     0.251 C 
ATOM     20  H   UNL A   1      31.198  31.491  26.178  1.00  0.00     0.163 HD
ATOM     21  O   UNL A   1      32.344  33.232  27.376  1.00  0.00    -0.269 OA
BRANCH  19  22
ATOM     22  C   UNL A   1      34.099  31.723  27.792  1.00  0.00     0.039 A 
ATOM     23  C   UNL A   1      35.053  32.721  28.001  1.00  0.00     0.014 A 
ATOM     24  C   UNL A   1      34.395  30.396  28.105  1.00  0.00     0.014 A 
ATOM     25  C   UNL A   1      36.268  32.398  28.614  1.00  0.00     0.010 A 
ATOM     26  C   UNL A   1      35.549  30.097  28.817  1.00  0.00     0.010 A 
ATOM     27  C   UNL A   1      36.502  31.093  29.078  1.00  0.00    -0.014 A 
BRANCH  27  28
ATOM     28  C   UNL A   1      37.731  30.730  29.829  1.00  0.00     0.031 A 
ATOM     29  C   UNL A   1      38.726  29.781  29.214  1.00  0.00     0.074 A 
ATOM     30  C   UNL A   1      37.898  31.164  31.095  1.00  0.00     0.049 A 
ATOM     31  N   UNL A   1      39.771  29.210  29.753  1.00  0.00    -0.248 NA
ATOM     32  C   UNL A   1      38.480  29.385  27.818  1.00  0.00     0.031 C 
ATOM     33  C   UNL A   1      36.977  32.044  31.819  1.00  0.00     0.029 A 
ATOM     34  N   UNL A   1      38.892  30.909  32.007  1.00  0.00    -0.354 N 
ATOM     35  C   UNL A   1      40.285  28.362  28.776  1.00  0.00     0.074 A 
ATOM     36  C   UNL A   1      39.398  28.449  27.637  1.00  0.00     0.031 C 
ATOM     37  C   UNL A   1      37.461  32.274  33.049  1.00  0.00     0.029 A 
ATOM     38  C   UNL A   1      38.695  31.519  33.225  1.00  0.00     0.049 A 
ATOM     39  H   UNL A   1      39.672  30.344  31.808  1.00  0.00     0.167 HD
ATOM     40  C   UNL A   1      41.408  27.602  28.818  1.00  0.00     0.034 A 
ATOM     41  C   UNL A   1      39.419  31.459  34.361  1.00  0.00     0.034 A 
ATOM     42  C   UNL A   1      42.302  27.563  29.948  1.00  0.00     0.049 A 
ATOM     43  C   UNL A   1      40.667  30.613  34.382  1.00  0.00     0.074 A 
ATOM     44  C   UNL A   1      43.509  26.898  30.071  1.00  0.00     0.029 A 
ATOM     45  N   UNL A   1      42.084  28.217  31.154  1.00  0.00    -0.354 N 
ATOM     46  N   UNL A   1      41.170  29.862  33.429  1.00  0.00    -0.248 NA
ATOM     47  C   UNL A   1      41.449  30.615  35.624  1.00  0.00     0.031 C 
ATOM     48  C   UNL A   1      43.990  27.099  31.369  1.00  0.00     0.029 A 
ATOM     49  C   UNL A   1      43.121  27.948  32.034  1.00  0.00     0.049 A 
ATOM     50  H   UNL A   1      41.309  28.790  31.354  1.00  0.00     0.167 HD
ATOM     51  C   UNL A   1      42.344  29.325  33.951  1.00  0.00     0.074 A 
ATOM     52  C   UNL A   1      42.479  29.851  35.294  1.00  0.00     0.031 C 
ATOM     53  C   UNL A   1      43.233  28.478  33.373  1.00  0.00     0.034 A 
BRANCH  40  54
ATOM     54  C   UNL A   1      41.713  26.744  27.612  1.00  0.00     0.023 A 
ATOM     55  C   UNL A   1      41.366  25.383  27.565  1.00  0.00     0.031 A 
ATOM     56  C   UNL A   1      42.393  27.287  26.507  1.00  0.00     0.131 A 
ATOM     57  C   UNL A   1      41.771  24.592  26.480  1.00  0.00     0.055 A 
ATOM     58  C   UNL A   1      42.717  26.514  25.390  1.00  0.00     0.041 A 
ATOM     59  F   UNL A   1      42.769  28.575  26.500  1.00  0.00    -0.206 F 
ATOM     60  C   UNL A   1      42.421  25.153  25.379  1.00  0.00     0.022 A 
BRANCH  57  61
ATOM     61  S   UNL A   1      41.569  22.794  26.598  1.00  0.00     0.124 S 
ATOM     62  O   UNL A   1      40.114  22.663  26.612  1.00  0.00    -0.237 OA
ATOM     63  O   UNL A   1      42.242  22.321  25.395  1.00  0.00    -0.237 OA
ATOM     64  O   UNL A   1      42.230  22.456  27.857  1.00  0.00    -0.744 OA
ENDBRANCH  57  61
ENDBRANCH  40  54
BRANCH  41  65
ATOM     65  C   UNL A   1      38.987  32.207  35.576  1.00  0.00     0.023 A 
ATOM     66  C   UNL A   1      38.323  31.552  36.626  1.00  0.00     0.031 A 
ATOM     67  C   UNL A   1      39.192  33.594  35.690  1.00  0.00     0.131 A 
ATOM     68  C   UNL A   1      37.843  32.290  37.719  1.00  0.00     0.055 A 
ATOM     69  C   UNL A   1      38.760  34.315  36.804  1.00  0.00     0.041 A 
ATOM     70  F   UNL A   1      39.828  34.268  34.718  1.00  0.00    -0.206 F 
ATOM     71  C   UNL A   1      38.069  33.665  37.822  1.00  0.00     0.022 A 
BRANCH  68  72
ATOM     72  S   UNL A   1      36.842  31.438  38.969  1.00  0.00     0.124 S 
ATOM     73  O   UNL A   1      37.700  31.522  40.145  1.00  0.00    -0.237 OA
ATOM     74  O   UNL A   1      35.634  32.256  38.996  1.00  0.00    -0.237 OA
ATOM     75  O   UNL A   1      36.672  30.097  38.413  1.00  0.00    -0.744 OA
ENDBRANCH  68  72
ENDBRANCH  41  65
BRANCH  53  76
ATOM     76  C   UNL A   1      44.451  28.109  34.181  1.00  0.00     0.023 A 
ATOM     77  C   UNL A   1      44.473  26.973  35.008  1.00  0.00     0.031 A 
ATOM     78  C   UNL A   1      45.605  28.910  34.122  1.00  0.00     0.131 A 
ATOM     79  C   UNL A   1      45.610  26.697  35.782  1.00  0.00     0.055 A 
ATOM     80  C   UNL A   1      46.753  28.599  34.850  1.00  0.00     0.041 A 
ATOM     81  F   UNL A   1      45.636  30.007  33.348  1.00  0.00    -0.206 F 
ATOM     82  C   UNL A   1      46.755  27.494  35.696  1.00  0.00     0.022 A 
BRANCH  79  83
ATOM     83  S   UNL A   1      45.544  25.325  36.967  1.00  0.00     0.124 S 
ATOM     84  O   UNL A   1      45.977  25.970  38.203  1.00  0.00    -0.237 OA
ATOM     85  O   UNL A   1      44.140  24.931  36.911  1.00  0.00    -0.237 OA
ATOM     86  O   UNL A   1      46.482  24.350  36.414  1.00  0.00    -0.744 OA
ENDBRANCH  79  83
ENDBRANCH  53  76
ENDBRANCH  27  28
ENDBRANCH  19  22
ENDBRANCH  17  18
ENDBRANCH   1  17
TORSDOF 18
ENDMDL
