MODEL 1
REMARK VINA RESULT:     -12.9      0.000      0.000
REMARK SMILES CC(C)[C@H](NC(=O)[C@H]1CC(=O)N(c2ccc(F)cc2)C1)C(=O)N1CCC[C@@H]1C(=O)NCCCNC(=O)c1ccc(-c2c3nc(c(-c4cc(S(=O)(=O)[O-])ccc4F)c4ccc([nH]4)c(-c4cc(S(=O)(=O)[O-])ccc4F)c4nc(c(-c5cc(S(=O)(=O)[O-])ccc5F)c5ccc2[nH]5)C=C4)C=C3)cc1
REMARK SMILES IDX 31 1 30 2 28 3 29 4 27 6 23 7 24 8 25 9 26 10 21 11 22 12
REMARK SMILES IDX 4 13 2 14 1 15 3 16 5 17 6 18 7 20 8 21 9 22 20 23 10 24
REMARK SMILES IDX 12 25 11 26 13 27 14 28 19 29 15 30 18 31 16 32 17 33 32 34
REMARK SMILES IDX 33 35 34 36 35 37 36 39 37 40 38 41 99 42 39 43 98 44 40 45
REMARK SMILES IDX 41 46 42 47 92 48 43 49 97 50 91 51 93 52 44 53 96 54 90 55
REMARK SMILES IDX 89 56 45 58 77 59 57 60 76 61 58 62 61 63 75 64 94 65 59 66
REMARK SMILES IDX 60 67 74 69 95 70 62 71 46 72 47 73 55 74 48 75 54 76 56 77
REMARK SMILES IDX 53 78 49 79 50 80 51 81 52 82 78 83 79 84 87 85 80 86 86 87
REMARK SMILES IDX 88 88 85 89 81 90 82 91 83 92 84 93 63 94 64 95 72 96 65 97
REMARK SMILES IDX 71 98 73 99 70 100 66 101 67 102 68 103 69 104
REMARK H PARENT 30 5 5 19 34 38 93 57 61 68
REMARK Flexibility Score: inf
ROOT
ATOM      1  C   UNL A   1      35.293  23.161  23.998  1.00  0.00     0.117 C 
ENDROOT
BRANCH   1   2
ATOM      2  N   UNL A   1      34.131  22.767  23.244  1.00  0.00    -0.354 N 
ATOM      3  C   UNL A   1      32.873  22.490  23.705  1.00  0.00     0.242 C 
ATOM      4  O   UNL A   1      32.032  22.153  22.865  1.00  0.00    -0.273 OA
ATOM      5  H   UNL A   1      34.257  22.686  22.272  1.00  0.00     0.163 HD
BRANCH   3   6
ATOM      6  C   UNL A   1      32.564  22.381  25.220  1.00  0.00     0.174 C 
ATOM      7  N   UNL A   1      33.080  23.439  26.106  1.00  0.00    -0.329 N 
ATOM      8  C   UNL A   1      33.497  22.846  27.359  1.00  0.00     0.120 C 
ATOM      9  C   UNL A   1      33.986  21.460  26.984  1.00  0.00     0.024 C 
ATOM     10  C   UNL A   1      33.136  21.067  25.780  1.00  0.00     0.037 C 
BRANCH   7  11
ATOM     11  C   UNL A   1      32.551  24.710  26.005  1.00  0.00     0.246 C 
ATOM     12  O   UNL A   1      31.326  24.871  26.067  1.00  0.00    -0.272 OA
BRANCH  11  13
ATOM     13  C   UNL A   1      33.442  25.914  25.530  1.00  0.00     0.174 C 
BRANCH  13  14
ATOM     14  C   UNL A   1      33.210  27.206  26.356  1.00  0.00     0.015 C 
ATOM     15  C   UNL A   1      34.059  28.398  25.876  1.00  0.00     0.010 C 
ATOM     16  C   UNL A   1      31.746  27.653  26.344  1.00  0.00     0.010 C 
ENDBRANCH  13  14
BRANCH  13  17
ATOM     17  N   UNL A   1      33.642  26.067  24.068  1.00  0.00    -0.344 N 
ATOM     18  C   UNL A   1      33.050  26.387  22.907  1.00  0.00     0.226 C 
ATOM     19  H   UNL A   1      34.582  25.848  23.873  1.00  0.00     0.164 HD
ATOM     20  O   UNL A   1      33.811  26.262  21.932  1.00  0.00    -0.275 OA
BRANCH  18  21
ATOM     21  C   UNL A   1      31.658  26.905  22.610  1.00  0.00     0.107 C 
ATOM     22  C   UNL A   1      30.450  26.375  23.348  1.00  0.00     0.116 C 
ATOM     23  C   UNL A   1      31.540  28.420  22.669  1.00  0.00     0.139 C 
ATOM     24  C   UNL A   1      29.441  27.494  23.233  1.00  0.00     0.227 C 
ATOM     25  N   UNL A   1      30.138  28.645  22.887  1.00  0.00    -0.312 N 
ATOM     26  O   UNL A   1      28.253  27.363  23.444  1.00  0.00    -0.274 OA
BRANCH  25  27
ATOM     27  C   UNL A   1      29.530  29.892  22.710  1.00  0.00     0.044 A 
ATOM     28  C   UNL A   1      29.081  30.278  21.444  1.00  0.00     0.029 A 
ATOM     29  C   UNL A   1      29.436  30.776  23.790  1.00  0.00     0.029 A 
ATOM     30  C   UNL A   1      28.544  31.553  21.257  1.00  0.00     0.041 A 
ATOM     31  C   UNL A   1      28.888  32.047  23.602  1.00  0.00     0.041 A 
ATOM     32  C   UNL A   1      28.451  32.424  22.336  1.00  0.00     0.123 A 
ATOM     33  F   UNL A   1      27.940  33.649  22.156  1.00  0.00    -0.207 F 
ENDBRANCH  25  27
ENDBRANCH  18  21
ENDBRANCH  13  17
ENDBRANCH  11  13
ENDBRANCH   7  11
ENDBRANCH   3   6
ENDBRANCH   1   2
BRANCH   1  34
ATOM     34  C   UNL A   1      36.330  22.072  24.172  1.00  0.00     0.042 C 
BRANCH  34  35
ATOM     35  C   UNL A   1      36.960  22.052  25.555  1.00  0.00     0.118 C 
BRANCH  35  36
ATOM     36  N   UNL A   1      37.903  20.954  25.752  1.00  0.00    -0.352 N 
ATOM     37  C   UNL A   1      39.223  20.973  26.144  1.00  0.00     0.251 C 
ATOM     38  H   UNL A   1      37.536  20.057  25.578  1.00  0.00     0.163 HD
ATOM     39  O   UNL A   1      39.866  19.925  26.130  1.00  0.00    -0.269 OA
BRANCH  37  40
ATOM     40  C   UNL A   1      39.841  22.236  26.604  1.00  0.00     0.039 A 
ATOM     41  C   UNL A   1      40.818  22.219  27.602  1.00  0.00     0.014 A 
ATOM     42  C   UNL A   1      39.437  23.451  26.046  1.00  0.00     0.014 A 
ATOM     43  C   UNL A   1      41.435  23.416  27.987  1.00  0.00     0.010 A 
ATOM     44  C   UNL A   1      40.126  24.617  26.347  1.00  0.00     0.010 A 
ATOM     45  C   UNL A   1      41.120  24.620  27.335  1.00  0.00    -0.014 A 
BRANCH  45  46
ATOM     46  C   UNL A   1      41.768  25.914  27.682  1.00  0.00     0.031 A 
ATOM     47  C   UNL A   1      40.998  26.934  28.483  1.00  0.00     0.074 A 
ATOM     48  C   UNL A   1      42.995  26.210  27.211  1.00  0.00     0.049 A 
ATOM     49  N   UNL A   1      41.298  28.179  28.747  1.00  0.00    -0.248 NA
ATOM     50  C   UNL A   1      39.695  26.507  29.020  1.00  0.00     0.031 C 
ATOM     51  C   UNL A   1      43.831  25.323  26.400  1.00  0.00     0.029 A 
ATOM     52  N   UNL A   1      43.753  27.349  27.341  1.00  0.00    -0.354 N 
ATOM     53  C   UNL A   1      40.214  28.688  29.453  1.00  0.00     0.074 A 
ATOM     54  C   UNL A   1      39.222  27.639  29.522  1.00  0.00     0.031 C 
ATOM     55  C   UNL A   1      44.996  25.934  26.135  1.00  0.00     0.029 A 
ATOM     56  C   UNL A   1      44.975  27.275  26.711  1.00  0.00     0.049 A 
ATOM     57  H   UNL A   1      43.451  28.143  27.838  1.00  0.00     0.167 HD
ATOM     58  C   UNL A   1      40.067  29.912  30.017  1.00  0.00     0.034 A 
ATOM     59  C   UNL A   1      45.959  28.189  26.599  1.00  0.00     0.034 A 
ATOM     60  C   UNL A   1      41.083  30.930  29.988  1.00  0.00     0.049 A 
ATOM     61  C   UNL A   1      45.775  29.545  27.230  1.00  0.00     0.074 A 
ATOM     62  C   UNL A   1      41.063  32.180  30.583  1.00  0.00     0.029 A 
ATOM     63  N   UNL A   1      42.304  30.815  29.339  1.00  0.00    -0.354 N 
ATOM     64  N   UNL A   1      44.742  30.011  27.892  1.00  0.00    -0.248 NA
ATOM     65  C   UNL A   1      46.884  30.500  27.095  1.00  0.00     0.031 C 
ATOM     66  C   UNL A   1      42.249  32.840  30.250  1.00  0.00     0.029 A 
ATOM     67  C   UNL A   1      43.037  31.978  29.502  1.00  0.00     0.049 A 
ATOM     68  H   UNL A   1      42.606  30.023  28.838  1.00  0.00     0.167 HD
ATOM     69  C   UNL A   1      45.086  31.304  28.274  1.00  0.00     0.074 A 
ATOM     70  C   UNL A   1      46.422  31.546  27.767  1.00  0.00     0.031 C 
ATOM     71  C   UNL A   1      44.364  32.205  28.983  1.00  0.00     0.034 A 
BRANCH  58  72
ATOM     72  C   UNL A   1      38.766  30.213  30.715  1.00  0.00     0.023 A 
ATOM     73  C   UNL A   1      37.745  30.941  30.082  1.00  0.00     0.031 A 
ATOM     74  C   UNL A   1      38.539  29.752  32.023  1.00  0.00     0.131 A 
ATOM     75  C   UNL A   1      36.561  31.232  30.775  1.00  0.00     0.055 A 
ATOM     76  C   UNL A   1      37.331  29.985  32.683  1.00  0.00     0.041 A 
ATOM     77  F   UNL A   1      39.486  29.067  32.681  1.00  0.00    -0.206 F 
ATOM     78  C   UNL A   1      36.336  30.736  32.062  1.00  0.00     0.022 A 
BRANCH  75  79
ATOM     79  S   UNL A   1      35.350  32.337  30.003  1.00  0.00     0.124 S 
ATOM     80  O   UNL A   1      34.357  32.471  31.065  1.00  0.00    -0.237 OA
ATOM     81  O   UNL A   1      36.143  33.528  29.717  1.00  0.00    -0.237 OA
ATOM     82  O   UNL A   1      34.904  31.590  28.829  1.00  0.00    -0.744 OA
ENDBRANCH  75  79
ENDBRANCH  58  72
BRANCH  59  83
ATOM     83  C   UNL A   1      47.209  27.851  25.862  1.00  0.00     0.023 A 
ATOM     84  C   UNL A   1      47.265  27.941  24.463  1.00  0.00     0.031 A 
ATOM     85  C   UNL A   1      48.368  27.446  26.547  1.00  0.00     0.131 A 
ATOM     86  C   UNL A   1      48.451  27.613  23.789  1.00  0.00     0.055 A 
ATOM     87  C   UNL A   1      49.557  27.157  25.876  1.00  0.00     0.041 A 
ATOM     88  F   UNL A   1      48.367  27.355  27.886  1.00  0.00    -0.206 F 
ATOM     89  C   UNL A   1      49.601  27.235  24.487  1.00  0.00     0.022 A 
BRANCH  86  90
ATOM     90  S   UNL A   1      48.469  27.668  21.976  1.00  0.00     0.124 S 
ATOM     91  O   UNL A   1      48.699  26.268  21.639  1.00  0.00    -0.237 OA
ATOM     92  O   UNL A   1      47.143  28.193  21.672  1.00  0.00    -0.237 OA
ATOM     93  O   UNL A   1      49.577  28.573  21.675  1.00  0.00    -0.744 OA
ENDBRANCH  86  90
ENDBRANCH  59  83
BRANCH  71  94
ATOM     94  C   UNL A   1      45.008  33.530  29.292  1.00  0.00     0.023 A 
ATOM     95  C   UNL A   1      44.909  34.615  28.407  1.00  0.00     0.031 A 
ATOM     96  C   UNL A   1      45.661  33.724  30.522  1.00  0.00     0.131 A 
ATOM     97  C   UNL A   1      45.475  35.850  28.759  1.00  0.00     0.055 A 
ATOM     98  C   UNL A   1      46.184  34.965  30.884  1.00  0.00     0.041 A 
ATOM     99  F   UNL A   1      45.773  32.716  31.401  1.00  0.00    -0.206 F 
ATOM    100  C   UNL A   1      46.094  36.036  29.999  1.00  0.00     0.022 A 
BRANCH  97 101
ATOM    101  S   UNL A   1      45.406  37.214  27.567  1.00  0.00     0.124 S 
ATOM    102  O   UNL A   1      43.968  37.382  27.384  1.00  0.00    -0.237 OA
ATOM    103  O   UNL A   1      46.088  38.291  28.277  1.00  0.00    -0.237 OA
ATOM    104  O   UNL A   1      46.122  36.690  26.405  1.00  0.00    -0.744 OA
ENDBRANCH  97 101
ENDBRANCH  71  94
ENDBRANCH  45  46
ENDBRANCH  37  40
ENDBRANCH  35  36
ENDBRANCH  34  35
ENDBRANCH   1  34
TORSDOF 19
ENDMDL
MODEL 2
REMARK VINA RESULT:     -12.5      2.399      7.309
REMARK SMILES CC(C)[C@H](NC(=O)[C@H]1CC(=O)N(c2ccc(F)cc2)C1)C(=O)N1CCC[C@@H]1C(=O)NCCCNC(=O)c1ccc(-c2c3nc(c(-c4cc(S(=O)(=O)[O-])ccc4F)c4ccc([nH]4)c(-c4cc(S(=O)(=O)[O-])ccc4F)c4nc(c(-c5cc(S(=O)(=O)[O-])ccc5F)c5ccc2[nH]5)C=C4)C=C3)cc1
REMARK SMILES IDX 31 1 30 2 28 3 29 4 27 6 23 7 24 8 25 9 26 10 21 11 22 12
REMARK SMILES IDX 4 13 2 14 1 15 3 16 5 17 6 18 7 20 8 21 9 22 20 23 10 24
REMARK SMILES IDX 12 25 11 26 13 27 14 28 19 29 15 30 18 31 16 32 17 33 32 34
REMARK SMILES IDX 33 35 34 36 35 37 36 39 37 40 38 41 99 42 39 43 98 44 40 45
REMARK SMILES IDX 41 46 42 47 92 48 43 49 97 50 91 51 93 52 44 53 96 54 90 55
REMARK SMILES IDX 89 56 45 58 77 59 57 60 76 61 58 62 61 63 75 64 94 65 59 66
REMARK SMILES IDX 60 67 74 69 95 70 62 71 46 72 47 73 55 74 48 75 54 76 56 77
REMARK SMILES IDX 53 78 49 79 50 80 51 81 52 82 78 83 79 84 87 85 80 86 86 87
REMARK SMILES IDX 88 88 85 89 81 90 82 91 83 92 84 93 63 94 64 95 72 96 65 97
REMARK SMILES IDX 71 98 73 99 70 100 66 101 67 102 68 103 69 104
REMARK H PARENT 30 5 5 19 34 38 93 57 61 68
REMARK Flexibility Score: inf
ROOT
ATOM      1  C   UNL A   1      35.657  23.637  24.290  1.00  0.00     0.117 C 
ENDROOT
BRANCH   1   2
ATOM      2  N   UNL A   1      34.691  23.110  23.361  1.00  0.00    -0.354 N 
ATOM      3  C   UNL A   1      33.435  22.634  23.619  1.00  0.00     0.242 C 
ATOM      4  O   UNL A   1      32.787  22.214  22.655  1.00  0.00    -0.273 OA
ATOM      5  H   UNL A   1      34.970  23.090  22.418  1.00  0.00     0.163 HD
BRANCH   3   6
ATOM      6  C   UNL A   1      32.926  22.417  25.067  1.00  0.00     0.174 C 
ATOM      7  N   UNL A   1      33.176  23.485  26.052  1.00  0.00    -0.329 N 
ATOM      8  C   UNL A   1      33.477  22.884  27.335  1.00  0.00     0.120 C 
ATOM      9  C   UNL A   1      34.180  21.585  26.995  1.00  0.00     0.024 C 
ATOM     10  C   UNL A   1      33.568  21.154  25.666  1.00  0.00     0.037 C 
BRANCH   7  11
ATOM     11  C   UNL A   1      32.516  24.689  25.912  1.00  0.00     0.246 C 
ATOM     12  O   UNL A   1      31.278  24.715  25.922  1.00  0.00    -0.272 OA
BRANCH  11  13
ATOM     13  C   UNL A   1      33.289  25.979  25.458  1.00  0.00     0.174 C 
BRANCH  13  14
ATOM     14  C   UNL A   1      32.933  27.231  26.302  1.00  0.00     0.015 C 
ATOM     15  C   UNL A   1      33.629  28.514  25.814  1.00  0.00     0.010 C 
ATOM     16  C   UNL A   1      31.427  27.509  26.328  1.00  0.00     0.010 C 
ENDBRANCH  13  14
BRANCH  13  17
ATOM     17  N   UNL A   1      33.477  26.172  24.000  1.00  0.00    -0.344 N 
ATOM     18  C   UNL A   1      32.871  26.502  22.848  1.00  0.00     0.226 C 
ATOM     19  H   UNL A   1      34.422  25.985  23.796  1.00  0.00     0.164 HD
ATOM     20  O   UNL A   1      33.630  26.422  21.868  1.00  0.00    -0.275 OA
BRANCH  18  21
ATOM     21  C   UNL A   1      31.462  26.985  22.570  1.00  0.00     0.107 C 
ATOM     22  C   UNL A   1      30.289  26.498  23.388  1.00  0.00     0.116 C 
ATOM     23  C   UNL A   1      31.329  28.499  22.527  1.00  0.00     0.139 C 
ATOM     24  C   UNL A   1      29.264  27.596  23.234  1.00  0.00     0.227 C 
ATOM     25  N   UNL A   1      29.934  28.727  22.783  1.00  0.00    -0.312 N 
ATOM     26  O   UNL A   1      28.086  27.470  23.498  1.00  0.00    -0.274 OA
BRANCH  25  27
ATOM     27  C   UNL A   1      29.305  29.953  22.542  1.00  0.00     0.044 A 
ATOM     28  C   UNL A   1      28.875  30.277  21.253  1.00  0.00     0.029 A 
ATOM     29  C   UNL A   1      29.172  30.878  23.583  1.00  0.00     0.029 A 
ATOM     30  C   UNL A   1      28.317  31.533  21.003  1.00  0.00     0.041 A 
ATOM     31  C   UNL A   1      28.603  32.128  23.332  1.00  0.00     0.041 A 
ATOM     32  C   UNL A   1      28.185  32.445  22.044  1.00  0.00     0.123 A 
ATOM     33  F   UNL A   1      27.654  33.651  21.802  1.00  0.00    -0.207 F 
ENDBRANCH  25  27
ENDBRANCH  18  21
ENDBRANCH  13  17
ENDBRANCH  11  13
ENDBRANCH   7  11
ENDBRANCH   3   6
ENDBRANCH   1   2
BRANCH   1  34
ATOM     34  C   UNL A   1      36.867  22.754  24.508  1.00  0.00     0.042 C 
BRANCH  34  35
ATOM     35  C   UNL A   1      37.447  22.857  25.909  1.00  0.00     0.118 C 
BRANCH  35  36
ATOM     36  N   UNL A   1      38.558  21.940  26.151  1.00  0.00    -0.352 N 
ATOM     37  C   UNL A   1      39.866  22.197  26.496  1.00  0.00     0.251 C 
ATOM     38  H   UNL A   1      38.336  20.986  26.053  1.00  0.00     0.163 HD
ATOM     39  O   UNL A   1      40.668  21.266  26.534  1.00  0.00    -0.269 OA
BRANCH  37  40
ATOM     40  C   UNL A   1      40.283  23.573  26.845  1.00  0.00     0.039 A 
ATOM     41  C   UNL A   1      40.146  24.607  25.917  1.00  0.00     0.014 A 
ATOM     42  C   UNL A   1      40.826  23.836  28.105  1.00  0.00     0.014 A 
ATOM     43  C   UNL A   1      40.491  25.915  26.281  1.00  0.00     0.010 A 
ATOM     44  C   UNL A   1      41.060  25.145  28.502  1.00  0.00     0.010 A 
ATOM     45  C   UNL A   1      40.916  26.200  27.590  1.00  0.00    -0.014 A 
BRANCH  45  46
ATOM     46  C   UNL A   1      41.264  27.575  28.040  1.00  0.00     0.031 A 
ATOM     47  C   UNL A   1      42.710  28.005  28.051  1.00  0.00     0.074 A 
ATOM     48  C   UNL A   1      40.310  28.399  28.517  1.00  0.00     0.049 A 
ATOM     49  N   UNL A   1      43.250  29.081  28.559  1.00  0.00    -0.248 NA
ATOM     50  C   UNL A   1      43.681  27.076  27.448  1.00  0.00     0.031 C 
ATOM     51  C   UNL A   1      38.880  28.091  28.589  1.00  0.00     0.029 A 
ATOM     52  N   UNL A   1      40.401  29.665  29.041  1.00  0.00    -0.354 N 
ATOM     53  C   UNL A   1      44.620  28.944  28.363  1.00  0.00     0.074 A 
ATOM     54  C   UNL A   1      44.834  27.655  27.747  1.00  0.00     0.031 C 
ATOM     55  C   UNL A   1      38.226  29.150  29.091  1.00  0.00     0.029 A 
ATOM     56  C   UNL A   1      39.190  30.193  29.427  1.00  0.00     0.049 A 
ATOM     57  H   UNL A   1      41.253  30.150  29.133  1.00  0.00     0.167 HD
ATOM     58  C   UNL A   1      45.610  29.826  28.646  1.00  0.00     0.034 A 
ATOM     59  C   UNL A   1      38.893  31.378  29.998  1.00  0.00     0.034 A 
ATOM     60  C   UNL A   1      45.380  31.129  29.211  1.00  0.00     0.049 A 
ATOM     61  C   UNL A   1      40.008  32.342  30.308  1.00  0.00     0.074 A 
ATOM     62  C   UNL A   1      46.304  32.125  29.477  1.00  0.00     0.029 A 
ATOM     63  N   UNL A   1      44.139  31.624  29.587  1.00  0.00    -0.354 N 
ATOM     64  N   UNL A   1      41.298  32.196  30.118  1.00  0.00    -0.248 NA
ATOM     65  C   UNL A   1      39.630  33.627  30.914  1.00  0.00     0.031 C 
ATOM     66  C   UNL A   1      45.630  33.200  30.062  1.00  0.00     0.029 A 
ATOM     67  C   UNL A   1      44.277  32.902  30.101  1.00  0.00     0.049 A 
ATOM     68  H   UNL A   1      43.287  31.138  29.500  1.00  0.00     0.167 HD
ATOM     69  C   UNL A   1      41.884  33.379  30.558  1.00  0.00     0.074 A 
ATOM     70  C   UNL A   1      40.807  34.229  31.025  1.00  0.00     0.031 C 
ATOM     71  C   UNL A   1      43.193  33.731  30.569  1.00  0.00     0.034 A 
BRANCH  58  72
ATOM     72  C   UNL A   1      47.027  29.412  28.346  1.00  0.00     0.023 A 
ATOM     73  C   UNL A   1      47.852  28.845  29.333  1.00  0.00     0.031 A 
ATOM     74  C   UNL A   1      47.555  29.570  27.054  1.00  0.00     0.131 A 
ATOM     75  C   UNL A   1      49.176  28.503  29.026  1.00  0.00     0.055 A 
ATOM     76  C   UNL A   1      48.853  29.164  26.736  1.00  0.00     0.041 A 
ATOM     77  F   UNL A   1      46.818  30.122  26.077  1.00  0.00    -0.206 F 
ATOM     78  C   UNL A   1      49.675  28.634  27.728  1.00  0.00     0.022 A 
BRANCH  75  79
ATOM     79  S   UNL A   1      50.267  27.961  30.368  1.00  0.00     0.124 S 
ATOM     80  O   UNL A   1      49.364  27.134  31.163  1.00  0.00    -0.237 OA
ATOM     81  O   UNL A   1      51.322  27.250  29.653  1.00  0.00    -0.237 OA
ATOM     82  O   UNL A   1      50.679  29.212  31.001  1.00  0.00    -0.744 OA
ENDBRANCH  75  79
ENDBRANCH  58  72
BRANCH  59  83
ATOM     83  C   UNL A   1      37.476  31.718  30.310  1.00  0.00     0.023 A 
ATOM     84  C   UNL A   1      36.612  32.186  29.308  1.00  0.00     0.031 A 
ATOM     85  C   UNL A   1      36.964  31.568  31.611  1.00  0.00     0.131 A 
ATOM     86  C   UNL A   1      35.283  32.505  29.626  1.00  0.00     0.055 A 
ATOM     87  C   UNL A   1      35.631  31.850  31.914  1.00  0.00     0.041 A 
ATOM     88  F   UNL A   1      37.748  31.114  32.601  1.00  0.00    -0.206 F 
ATOM     89  C   UNL A   1      34.783  32.327  30.919  1.00  0.00     0.022 A 
BRANCH  86  90
ATOM     90  S   UNL A   1      34.212  33.177  28.326  1.00  0.00     0.124 S 
ATOM     91  O   UNL A   1      33.249  33.947  29.104  1.00  0.00    -0.237 OA
ATOM     92  O   UNL A   1      35.152  33.948  27.521  1.00  0.00    -0.237 OA
ATOM     93  O   UNL A   1      33.676  31.982  27.676  1.00  0.00    -0.744 OA
ENDBRANCH  86  90
ENDBRANCH  59  83
BRANCH  71  94
ATOM     94  C   UNL A   1      43.543  35.107  31.067  1.00  0.00     0.023 A 
ATOM     95  C   UNL A   1      43.511  36.223  30.217  1.00  0.00     0.031 A 
ATOM     96  C   UNL A   1      43.836  35.308  32.427  1.00  0.00     0.131 A 
ATOM     97  C   UNL A   1      43.788  37.498  30.736  1.00  0.00     0.055 A 
ATOM     98  C   UNL A   1      44.069  36.582  32.945  1.00  0.00     0.041 A 
ATOM     99  F   UNL A   1      43.871  34.269  33.278  1.00  0.00    -0.206 F 
ATOM    100  C   UNL A   1      44.048  37.685  32.097  1.00  0.00     0.022 A 
BRANCH  97 101
ATOM    101  S   UNL A   1      43.820  38.913  29.603  1.00  0.00     0.124 S 
ATOM    102  O   UNL A   1      42.859  38.505  28.583  1.00  0.00    -0.237 OA
ATOM    103  O   UNL A   1      43.407  40.017  30.463  1.00  0.00    -0.237 OA
ATOM    104  O   UNL A   1      45.212  38.965  29.159  1.00  0.00    -0.744 OA
ENDBRANCH  97 101
ENDBRANCH  71  94
ENDBRANCH  45  46
ENDBRANCH  37  40
ENDBRANCH  35  36
ENDBRANCH  34  35
ENDBRANCH   1  34
TORSDOF 19
ENDMDL
MODEL 3
REMARK VINA RESULT:     -11.6      3.260      8.884
REMARK SMILES CC(C)[C@H](NC(=O)[C@H]1CC(=O)N(c2ccc(F)cc2)C1)C(=O)N1CCC[C@@H]1C(=O)NCCCNC(=O)c1ccc(-c2c3nc(c(-c4cc(S(=O)(=O)[O-])ccc4F)c4ccc([nH]4)c(-c4cc(S(=O)(=O)[O-])ccc4F)c4nc(c(-c5cc(S(=O)(=O)[O-])ccc5F)c5ccc2[nH]5)C=C4)C=C3)cc1
REMARK SMILES IDX 31 1 30 2 28 3 29 4 27 6 23 7 24 8 25 9 26 10 21 11 22 12
REMARK SMILES IDX 4 13 2 14 1 15 3 16 5 17 6 18 7 20 8 21 9 22 20 23 10 24
REMARK SMILES IDX 12 25 11 26 13 27 14 28 19 29 15 30 18 31 16 32 17 33 32 34
REMARK SMILES IDX 33 35 34 36 35 37 36 39 37 40 38 41 99 42 39 43 98 44 40 45
REMARK SMILES IDX 41 46 42 47 92 48 43 49 97 50 91 51 93 52 44 53 96 54 90 55
REMARK SMILES IDX 89 56 45 58 77 59 57 60 76 61 58 62 61 63 75 64 94 65 59 66
REMARK SMILES IDX 60 67 74 69 95 70 62 71 46 72 47 73 55 74 48 75 54 76 56 77
REMARK SMILES IDX 53 78 49 79 50 80 51 81 52 82 78 83 79 84 87 85 80 86 86 87
REMARK SMILES IDX 88 88 85 89 81 90 82 91 83 92 84 93 63 94 64 95 72 96 65 97
REMARK SMILES IDX 71 98 73 99 70 100 66 101 67 102 68 103 69 104
REMARK H PARENT 30 5 5 19 34 38 93 57 61 68
REMARK Flexibility Score: inf
ROOT
ATOM      1  C   UNL A   1      35.515  24.474  24.401  1.00  0.00     0.117 C 
ENDROOT
BRANCH   1   2
ATOM      2  N   UNL A   1      34.672  24.445  23.234  1.00  0.00    -0.354 N 
ATOM      3  C   UNL A   1      33.859  25.432  22.749  1.00  0.00     0.242 C 
ATOM      4  O   UNL A   1      33.209  25.171  21.731  1.00  0.00    -0.273 OA
ATOM      5  H   UNL A   1      34.680  23.606  22.720  1.00  0.00     0.163 HD
BRANCH   3   6
ATOM      6  C   UNL A   1      33.586  26.732  23.547  1.00  0.00     0.174 C 
ATOM      7  N   UNL A   1      32.255  26.898  24.157  1.00  0.00    -0.329 N 
ATOM      8  C   UNL A   1      31.858  28.287  24.057  1.00  0.00     0.120 C 
ATOM      9  C   UNL A   1      32.490  28.775  22.768  1.00  0.00     0.024 C 
ATOM     10  C   UNL A   1      33.771  27.957  22.636  1.00  0.00     0.037 C 
BRANCH   7  11
ATOM     11  C   UNL A   1      31.896  26.078  25.208  1.00  0.00     0.246 C 
ATOM     12  O   UNL A   1      32.699  25.871  26.126  1.00  0.00    -0.272 OA
BRANCH  11  13
ATOM     13  C   UNL A   1      30.607  25.183  25.124  1.00  0.00     0.174 C 
BRANCH  13  14
ATOM     14  C   UNL A   1      30.019  24.829  26.514  1.00  0.00     0.015 C 
ATOM     15  C   UNL A   1      28.538  25.220  26.668  1.00  0.00     0.010 C 
ATOM     16  C   UNL A   1      30.135  23.336  26.834  1.00  0.00     0.010 C 
ENDBRANCH  13  14
BRANCH  13  17
ATOM     17  N   UNL A   1      30.593  24.122  24.088  1.00  0.00    -0.344 N 
ATOM     18  C   UNL A   1      31.203  23.010  23.647  1.00  0.00     0.226 C 
ATOM     19  H   UNL A   1      29.836  24.305  23.485  1.00  0.00     0.164 HD
ATOM     20  O   UNL A   1      30.696  22.570  22.600  1.00  0.00    -0.275 OA
BRANCH  18  21
ATOM     21  C   UNL A   1      32.345  22.205  24.230  1.00  0.00     0.107 C 
ATOM     22  C   UNL A   1      32.778  22.383  25.667  1.00  0.00     0.116 C 
ATOM     23  C   UNL A   1      32.206  20.704  24.030  1.00  0.00     0.139 C 
ATOM     24  C   UNL A   1      33.446  21.072  26.006  1.00  0.00     0.227 C 
ATOM     25  N   UNL A   1      33.040  20.143  25.056  1.00  0.00    -0.312 N 
ATOM     26  O   UNL A   1      34.176  20.906  26.962  1.00  0.00    -0.274 OA
BRANCH  25  27
ATOM     27  C   UNL A   1      33.447  18.805  25.060  1.00  0.00     0.044 A 
ATOM     28  C   UNL A   1      32.613  17.822  25.602  1.00  0.00     0.029 A 
ATOM     29  C   UNL A   1      34.717  18.466  24.584  1.00  0.00     0.029 A 
ATOM     30  C   UNL A   1      33.055  16.499  25.673  1.00  0.00     0.041 A 
ATOM     31  C   UNL A   1      35.152  17.140  24.648  1.00  0.00     0.041 A 
ATOM     32  C   UNL A   1      34.318  16.171  25.195  1.00  0.00     0.123 A 
ATOM     33  F   UNL A   1      34.744  14.902  25.268  1.00  0.00    -0.207 F 
ENDBRANCH  25  27
ENDBRANCH  18  21
ENDBRANCH  13  17
ENDBRANCH  11  13
ENDBRANCH   7  11
ENDBRANCH   3   6
ENDBRANCH   1   2
BRANCH   1  34
ATOM     34  C   UNL A   1      36.169  23.151  24.739  1.00  0.00     0.042 C 
BRANCH  34  35
ATOM     35  C   UNL A   1      36.888  23.156  26.078  1.00  0.00     0.118 C 
BRANCH  35  36
ATOM     36  N   UNL A   1      37.987  22.197  26.155  1.00  0.00    -0.352 N 
ATOM     37  C   UNL A   1      39.330  22.398  26.389  1.00  0.00     0.251 C 
ATOM     38  H   UNL A   1      37.727  21.258  26.019  1.00  0.00     0.163 HD
ATOM     39  O   UNL A   1      40.102  21.446  26.291  1.00  0.00    -0.269 OA
BRANCH  37  40
ATOM     40  C   UNL A   1      39.821  23.736  26.782  1.00  0.00     0.039 A 
ATOM     41  C   UNL A   1      40.126  24.689  25.808  1.00  0.00     0.014 A 
ATOM     42  C   UNL A   1      39.990  24.045  28.134  1.00  0.00     0.014 A 
ATOM     43  C   UNL A   1      40.535  25.971  26.196  1.00  0.00     0.010 A 
ATOM     44  C   UNL A   1      40.285  25.345  28.519  1.00  0.00     0.010 A 
ATOM     45  C   UNL A   1      40.581  26.321  27.557  1.00  0.00    -0.014 A 
BRANCH  45  46
ATOM     46  C   UNL A   1      40.977  27.677  28.024  1.00  0.00     0.031 A 
ATOM     47  C   UNL A   1      42.437  28.053  28.048  1.00  0.00     0.074 A 
ATOM     48  C   UNL A   1      40.051  28.530  28.505  1.00  0.00     0.049 A 
ATOM     49  N   UNL A   1      43.014  29.103  28.572  1.00  0.00    -0.248 NA
ATOM     50  C   UNL A   1      43.377  27.096  27.439  1.00  0.00     0.031 C 
ATOM     51  C   UNL A   1      38.611  28.274  28.567  1.00  0.00     0.029 A 
ATOM     52  N   UNL A   1      40.186  29.786  29.045  1.00  0.00    -0.354 N 
ATOM     53  C   UNL A   1      44.380  28.918  28.381  1.00  0.00     0.074 A 
ATOM     54  C   UNL A   1      44.549  27.629  27.751  1.00  0.00     0.031 C 
ATOM     55  C   UNL A   1      37.993  29.351  29.077  1.00  0.00     0.029 A 
ATOM     56  C   UNL A   1      38.993  30.354  29.430  1.00  0.00     0.049 A 
ATOM     57  H   UNL A   1      41.055  30.238  29.147  1.00  0.00     0.167 HD
ATOM     58  C   UNL A   1      45.400  29.760  28.679  1.00  0.00     0.034 A 
ATOM     59  C   UNL A   1      38.736  31.542  30.013  1.00  0.00     0.034 A 
ATOM     60  C   UNL A   1      45.214  31.064  29.258  1.00  0.00     0.049 A 
ATOM     61  C   UNL A   1      39.884  32.461  30.340  1.00  0.00     0.074 A 
ATOM     62  C   UNL A   1      46.173  32.022  29.540  1.00  0.00     0.029 A 
ATOM     63  N   UNL A   1      43.990  31.600  29.633  1.00  0.00    -0.354 N 
ATOM     64  N   UNL A   1      41.169  32.270  30.155  1.00  0.00    -0.248 NA
ATOM     65  C   UNL A   1      39.550  33.752  30.959  1.00  0.00     0.031 C 
ATOM     66  C   UNL A   1      45.535  33.115  30.134  1.00  0.00     0.029 A 
ATOM     67  C   UNL A   1      44.171  32.866  30.162  1.00  0.00     0.049 A 
ATOM     68  H   UNL A   1      43.122  31.146  29.536  1.00  0.00     0.167 HD
ATOM     69  C   UNL A   1      41.795  33.425  30.612  1.00  0.00     0.074 A 
ATOM     70  C   UNL A   1      40.748  34.309  31.083  1.00  0.00     0.031 C 
ATOM     71  C   UNL A   1      43.116  33.729  30.634  1.00  0.00     0.034 A 
BRANCH  58  72
ATOM     72  C   UNL A   1      46.802  29.297  28.382  1.00  0.00     0.023 A 
ATOM     73  C   UNL A   1      47.506  28.468  29.272  1.00  0.00     0.031 A 
ATOM     74  C   UNL A   1      47.438  29.677  27.188  1.00  0.00     0.131 A 
ATOM     75  C   UNL A   1      48.823  28.085  28.977  1.00  0.00     0.055 A 
ATOM     76  C   UNL A   1      48.723  29.236  26.868  1.00  0.00     0.041 A 
ATOM     77  F   UNL A   1      46.819  30.482  26.311  1.00  0.00    -0.206 F 
ATOM     78  C   UNL A   1      49.427  28.442  27.770  1.00  0.00     0.022 A 
BRANCH  75  79
ATOM     79  S   UNL A   1      49.767  27.182  30.234  1.00  0.00     0.124 S 
ATOM     80  O   UNL A   1      48.983  25.956  30.363  1.00  0.00    -0.237 OA
ATOM     81  O   UNL A   1      51.076  27.039  29.607  1.00  0.00    -0.237 OA
ATOM     82  O   UNL A   1      49.726  28.068  31.395  1.00  0.00    -0.744 OA
ENDBRANCH  75  79
ENDBRANCH  58  72
BRANCH  59  83
ATOM     83  C   UNL A   1      37.331  31.931  30.322  1.00  0.00     0.023 A 
ATOM     84  C   UNL A   1      36.485  32.426  29.317  1.00  0.00     0.031 A 
ATOM     85  C   UNL A   1      36.811  31.799  31.621  1.00  0.00     0.131 A 
ATOM     86  C   UNL A   1      35.167  32.790  29.632  1.00  0.00     0.055 A 
ATOM     87  C   UNL A   1      35.488  32.127  31.922  1.00  0.00     0.041 A 
ATOM     88  F   UNL A   1      37.578  31.321  32.614  1.00  0.00    -0.206 F 
ATOM     89  C   UNL A   1      34.659  32.631  30.924  1.00  0.00     0.022 A 
BRANCH  86  90
ATOM     90  S   UNL A   1      34.122  33.497  28.328  1.00  0.00     0.124 S 
ATOM     91  O   UNL A   1      33.305  34.440  29.083  1.00  0.00    -0.237 OA
ATOM     92  O   UNL A   1      35.109  34.079  27.426  1.00  0.00    -0.237 OA
ATOM     93  O   UNL A   1      33.409  32.336  27.799  1.00  0.00    -0.744 OA
ENDBRANCH  86  90
ENDBRANCH  59  83
BRANCH  71  94
ATOM     94  C   UNL A   1      43.513  35.085  31.150  1.00  0.00     0.023 A 
ATOM     95  C   UNL A   1      43.640  36.187  30.290  1.00  0.00     0.031 A 
ATOM     96  C   UNL A   1      43.691  35.287  32.530  1.00  0.00     0.131 A 
ATOM     97  C   UNL A   1      43.956  37.448  30.820  1.00  0.00     0.055 A 
ATOM     98  C   UNL A   1      43.963  36.550  33.055  1.00  0.00     0.041 A 
ATOM     99  F   UNL A   1      43.573  34.263  33.390  1.00  0.00    -0.206 F 
ATOM    100  C   UNL A   1      44.100  37.639  32.198  1.00  0.00     0.022 A 
BRANCH  97 101
ATOM    101  S   UNL A   1      44.194  38.838  29.682  1.00  0.00     0.124 S 
ATOM    102  O   UNL A   1      45.494  38.529  29.095  1.00  0.00    -0.237 OA
ATOM    103  O   UNL A   1      43.046  38.716  28.789  1.00  0.00    -0.237 OA
ATOM    104  O   UNL A   1      44.171  40.007  30.559  1.00  0.00    -0.744 OA
ENDBRANCH  97 101
ENDBRANCH  71  94
ENDBRANCH  45  46
ENDBRANCH  37  40
ENDBRANCH  35  36
ENDBRANCH  34  35
ENDBRANCH   1  34
TORSDOF 19
ENDMDL
