MODEL 1
REMARK VINA RESULT:     -12.7      0.000      0.000
REMARK SMILES Cc1ccc(Cl)cc1NC(=O)N[C@@](C)(C(=O)NCCCNC(=O)c1ccc(-c2c3nc(c(-c4cc(S(=O)(=O)[O-])ccc4F)c4ccc([nH]4)c(-c4cc(S(=O)(=O)[O-])ccc4F)c4nc(c(-c5cc(S(=O)(=O)[O-])ccc5F)c5ccc2[nH]5)C=C4)C=C3)cc1)C(F)(F)F
REMARK SMILES IDX 19 1 18 2 17 3 15 4 16 5 13 7 14 8 12 9 9 10 10 11 11 13
REMARK SMILES IDX 8 15 1 16 2 17 3 18 4 19 7 20 5 21 6 22 87 23 88 24 89 25
REMARK SMILES IDX 90 26 20 27 21 28 22 29 23 31 24 32 25 33 86 34 26 35 85 36
REMARK SMILES IDX 27 37 28 38 29 39 79 40 30 41 84 42 78 43 80 44 31 45 83 46
REMARK SMILES IDX 77 47 76 48 32 50 64 51 44 52 63 53 45 54 48 55 62 56 81 57
REMARK SMILES IDX 46 58 47 59 61 61 82 62 49 63 33 64 34 65 42 66 35 67 41 68
REMARK SMILES IDX 43 69 40 70 36 71 37 72 38 73 39 74 65 75 66 76 74 77 67 78
REMARK SMILES IDX 73 79 75 80 72 81 68 82 69 83 70 84 71 85 50 86 51 87 59 88
REMARK SMILES IDX 52 89 58 90 60 91 57 92 53 93 54 94 55 95 56 96
REMARK H PARENT 17 6 9 12 12 14 21 30 80 49 48 60
REMARK Flexibility Score: inf
ROOT
ATOM      1  C   UNL A   1      36.035  21.796  24.400  1.00  0.00     0.042 C 
ENDROOT
BRANCH   1   2
ATOM      2  C   UNL A   1      34.864  21.027  25.006  1.00  0.00     0.117 C 
BRANCH   2   3
ATOM      3  N   UNL A   1      33.672  21.144  24.185  1.00  0.00    -0.354 N 
ATOM      4  C   UNL A   1      32.455  21.414  24.759  1.00  0.00     0.255 C 
ATOM      5  O   UNL A   1      31.762  20.455  25.096  1.00  0.00    -0.272 OA
ATOM      6  H   UNL A   1      33.736  21.028  23.210  1.00  0.00     0.163 HD
BRANCH   4   7
ATOM      7  C   UNL A   1      32.093  22.891  25.073  1.00  0.00     0.213 C 
ATOM      8  C   UNL A   1      33.331  23.641  25.600  1.00  0.00     0.056 C 
BRANCH   7   9
ATOM      9  N   UNL A   1      31.023  22.834  26.121  1.00  0.00    -0.316 N 
ATOM     10  N   UNL A   1      29.905  24.925  26.477  1.00  0.00    -0.308 N 
ATOM     11  C   UNL A   1      30.141  23.631  26.726  1.00  0.00     0.320 C 
ATOM     12  H   UNL A   1      29.029  25.211  26.824  1.00  0.00     0.171 HD
ATOM     13  O   UNL A   1      29.378  23.074  27.524  1.00  0.00    -0.248 OA
ATOM     14  H   UNL A   1      30.948  21.919  26.476  1.00  0.00     0.166 HD
BRANCH  10  15
ATOM     15  C   UNL A   1      30.584  25.972  25.851  1.00  0.00     0.047 A 
ATOM     16  C   UNL A   1      28.661  26.244  24.173  1.00  0.00     0.046 C 
ATOM     17  C   UNL A   1      30.037  26.563  24.695  1.00  0.00    -0.027 A 
ATOM     18  C   UNL A   1      30.799  27.510  23.986  1.00  0.00     0.007 A 
ATOM     19  C   UNL A   1      32.052  27.907  24.448  1.00  0.00     0.021 A 
ATOM     20  C   UNL A   1      31.763  26.490  26.384  1.00  0.00     0.047 A 
ATOM     21  C   UNL A   1      32.509  27.428  25.668  1.00  0.00     0.043 A 
ATOM     22  Cl  UNL A   1      34.023  27.968  26.284  1.00  0.00    -0.084 Cl
ENDBRANCH  10  15
ENDBRANCH   7   9
BRANCH   7  23
ATOM     23  C   UNL A   1      31.681  23.349  23.650  1.00  0.00     0.420 C 
ATOM     24  F   UNL A   1      32.254  24.513  23.275  1.00  0.00    -0.168 F 
ATOM     25  F   UNL A   1      31.985  22.447  22.696  1.00  0.00    -0.168 F 
ATOM     26  F   UNL A   1      30.332  23.503  23.561  1.00  0.00    -0.168 F 
ENDBRANCH   7  23
ENDBRANCH   4   7
ENDBRANCH   2   3
ENDBRANCH   1   2
BRANCH   1  27
ATOM     27  C   UNL A   1      37.163  22.084  25.386  1.00  0.00     0.118 C 
BRANCH  27  28
ATOM     28  N   UNL A   1      38.041  20.937  25.591  1.00  0.00    -0.352 N 
ATOM     29  C   UNL A   1      39.315  20.923  26.107  1.00  0.00     0.251 C 
ATOM     30  H   UNL A   1      37.675  20.062  25.324  1.00  0.00     0.163 HD
ATOM     31  O   UNL A   1      39.994  19.903  26.063  1.00  0.00    -0.269 OA
BRANCH  29  32
ATOM     32  C   UNL A   1      39.849  22.172  26.679  1.00  0.00     0.039 A 
ATOM     33  C   UNL A   1      40.828  22.109  27.671  1.00  0.00     0.014 A 
ATOM     34  C   UNL A   1      39.443  23.399  26.148  1.00  0.00     0.014 A 
ATOM     35  C   UNL A   1      41.460  23.283  28.083  1.00  0.00     0.010 A 
ATOM     36  C   UNL A   1      40.134  24.551  26.497  1.00  0.00     0.010 A 
ATOM     37  C   UNL A   1      41.147  24.506  27.470  1.00  0.00    -0.014 A 
BRANCH  37  38
ATOM     38  C   UNL A   1      41.818  25.777  27.844  1.00  0.00     0.031 A 
ATOM     39  C   UNL A   1      41.034  26.809  28.610  1.00  0.00     0.074 A 
ATOM     40  C   UNL A   1      43.064  26.047  27.411  1.00  0.00     0.049 A 
ATOM     41  N   UNL A   1      41.319  28.060  28.851  1.00  0.00    -0.248 NA
ATOM     42  C   UNL A   1      39.726  26.378  29.130  1.00  0.00     0.031 C 
ATOM     43  C   UNL A   1      43.913  25.136  26.639  1.00  0.00     0.029 A 
ATOM     44  N   UNL A   1      43.829  27.181  27.537  1.00  0.00    -0.354 N 
ATOM     45  C   UNL A   1      40.209  28.579  29.507  1.00  0.00     0.074 A 
ATOM     46  C   UNL A   1      39.227  27.518  29.578  1.00  0.00     0.031 C 
ATOM     47  C   UNL A   1      45.080  25.743  26.370  1.00  0.00     0.029 A 
ATOM     48  C   UNL A   1      45.046  27.104  26.897  1.00  0.00     0.049 A 
ATOM     49  H   UNL A   1      43.534  27.976  28.037  1.00  0.00     0.167 HD
ATOM     50  C   UNL A   1      40.033  29.822  30.020  1.00  0.00     0.034 A 
ATOM     51  C   UNL A   1      46.009  28.034  26.735  1.00  0.00     0.034 A 
ATOM     52  C   UNL A   1      41.043  30.848  29.976  1.00  0.00     0.049 A 
ATOM     53  C   UNL A   1      45.798  29.408  27.324  1.00  0.00     0.074 A 
ATOM     54  C   UNL A   1      41.001  32.123  30.510  1.00  0.00     0.029 A 
ATOM     55  N   UNL A   1      42.283  30.711  29.366  1.00  0.00    -0.354 N 
ATOM     56  N   UNL A   1      44.752  29.878  27.963  1.00  0.00    -0.248 NA
ATOM     57  C   UNL A   1      46.896  30.373  27.179  1.00  0.00     0.031 C 
ATOM     58  C   UNL A   1      42.193  32.774  30.180  1.00  0.00     0.029 A 
ATOM     59  C   UNL A   1      43.009  31.883  29.501  1.00  0.00     0.049 A 
ATOM     60  H   UNL A   1      42.601  29.900  28.905  1.00  0.00     0.167 HD
ATOM     61  C   UNL A   1      45.086  31.178  28.334  1.00  0.00     0.074 A 
ATOM     62  C   UNL A   1      46.427  31.418  27.844  1.00  0.00     0.031 C 
ATOM     63  C   UNL A   1      44.354  32.089  29.024  1.00  0.00     0.034 A 
BRANCH  50  64
ATOM     64  C   UNL A   1      38.696  30.133  30.646  1.00  0.00     0.023 A 
ATOM     65  C   UNL A   1      37.677  30.783  29.928  1.00  0.00     0.031 A 
ATOM     66  C   UNL A   1      38.448  29.809  31.991  1.00  0.00     0.131 A 
ATOM     67  C   UNL A   1      36.494  31.163  30.578  1.00  0.00     0.055 A 
ATOM     68  C   UNL A   1      37.233  30.111  32.609  1.00  0.00     0.041 A 
ATOM     69  F   UNL A   1      39.389  29.207  32.735  1.00  0.00    -0.206 F 
ATOM     70  C   UNL A   1      36.254  30.808  31.907  1.00  0.00     0.022 A 
BRANCH  67  71
ATOM     71  S   UNL A   1      35.340  32.254  29.704  1.00  0.00     0.124 S 
ATOM     72  O   UNL A   1      36.223  33.341  29.287  1.00  0.00    -0.237 OA
ATOM     73  O   UNL A   1      34.839  31.396  28.637  1.00  0.00    -0.237 OA
ATOM     74  O   UNL A   1      34.362  32.612  30.729  1.00  0.00    -0.744 OA
ENDBRANCH  67  71
ENDBRANCH  50  64
BRANCH  51  75
ATOM     75  C   UNL A   1      47.253  27.715  25.975  1.00  0.00     0.023 A 
ATOM     76  C   UNL A   1      47.325  27.928  24.588  1.00  0.00     0.031 A 
ATOM     77  C   UNL A   1      48.371  27.148  26.611  1.00  0.00     0.131 A 
ATOM     78  C   UNL A   1      48.466  27.529  23.876  1.00  0.00     0.055 A 
ATOM     79  C   UNL A   1      49.526  26.803  25.907  1.00  0.00     0.041 A 
ATOM     80  F   UNL A   1      48.359  26.929  27.936  1.00  0.00    -0.206 F 
ATOM     81  C   UNL A   1      49.572  26.979  24.527  1.00  0.00     0.022 A 
BRANCH  78  82
ATOM     82  S   UNL A   1      48.448  27.655  22.066  1.00  0.00     0.124 S 
ATOM     83  O   UNL A   1      49.567  28.558  21.821  1.00  0.00    -0.237 OA
ATOM     84  O   UNL A   1      48.643  26.266  21.665  1.00  0.00    -0.237 OA
ATOM     85  O   UNL A   1      47.126  28.205  21.777  1.00  0.00    -0.744 OA
ENDBRANCH  78  82
ENDBRANCH  51  75
BRANCH  63  86
ATOM     86  C   UNL A   1      45.022  33.394  29.369  1.00  0.00     0.023 A 
ATOM     87  C   UNL A   1      44.963  34.510  28.520  1.00  0.00     0.031 A 
ATOM     88  C   UNL A   1      45.696  33.525  30.597  1.00  0.00     0.131 A 
ATOM     89  C   UNL A   1      45.598  35.704  28.897  1.00  0.00     0.055 A 
ATOM     90  C   UNL A   1      46.284  34.727  30.988  1.00  0.00     0.041 A 
ATOM     91  F   UNL A   1      45.777  32.485  31.444  1.00  0.00    -0.206 F 
ATOM     92  C   UNL A   1      46.241  35.824  30.132  1.00  0.00     0.022 A 
BRANCH  89  93
ATOM     93  S   UNL A   1      45.609  37.094  27.732  1.00  0.00     0.124 S 
ATOM     94  O   UNL A   1      45.881  36.424  26.464  1.00  0.00    -0.237 OA
ATOM     95  O   UNL A   1      44.267  37.645  27.887  1.00  0.00    -0.237 OA
ATOM     96  O   UNL A   1      46.688  37.947  28.227  1.00  0.00    -0.744 OA
ENDBRANCH  89  93
ENDBRANCH  63  86
ENDBRANCH  37  38
ENDBRANCH  29  32
ENDBRANCH  27  28
ENDBRANCH   1  27
TORSDOF 16
ENDMDL
MODEL 2
REMARK VINA RESULT:     -12.5      0.668      7.495
REMARK SMILES Cc1ccc(Cl)cc1NC(=O)N[C@@](C)(C(=O)NCCCNC(=O)c1ccc(-c2c3nc(c(-c4cc(S(=O)(=O)[O-])ccc4F)c4ccc([nH]4)c(-c4cc(S(=O)(=O)[O-])ccc4F)c4nc(c(-c5cc(S(=O)(=O)[O-])ccc5F)c5ccc2[nH]5)C=C4)C=C3)cc1)C(F)(F)F
REMARK SMILES IDX 19 1 18 2 17 3 15 4 16 5 13 7 14 8 12 9 9 10 10 11 11 13
REMARK SMILES IDX 8 15 1 16 2 17 3 18 4 19 7 20 5 21 6 22 87 23 88 24 89 25
REMARK SMILES IDX 90 26 20 27 21 28 22 29 23 31 24 32 25 33 86 34 26 35 85 36
REMARK SMILES IDX 27 37 28 38 29 39 79 40 30 41 84 42 78 43 80 44 31 45 83 46
REMARK SMILES IDX 77 47 76 48 32 50 64 51 44 52 63 53 45 54 48 55 62 56 81 57
REMARK SMILES IDX 46 58 47 59 61 61 82 62 49 63 33 64 34 65 42 66 35 67 41 68
REMARK SMILES IDX 43 69 40 70 36 71 37 72 38 73 39 74 65 75 66 76 74 77 67 78
REMARK SMILES IDX 73 79 75 80 72 81 68 82 69 83 70 84 71 85 50 86 51 87 59 88
REMARK SMILES IDX 52 89 58 90 60 91 57 92 53 93 54 94 55 95 56 96
REMARK H PARENT 17 6 9 12 12 14 21 30 80 49 48 60
REMARK Flexibility Score: inf
ROOT
ATOM      1  C   UNL A   1      36.359  20.684  25.009  1.00  0.00     0.042 C 
ENDROOT
BRANCH   1   2
ATOM      2  C   UNL A   1      35.127  21.501  25.388  1.00  0.00     0.117 C 
BRANCH   2   3
ATOM      3  N   UNL A   1      34.268  21.729  24.240  1.00  0.00    -0.354 N 
ATOM      4  C   UNL A   1      32.922  21.935  24.407  1.00  0.00     0.255 C 
ATOM      5  O   UNL A   1      32.190  20.947  24.377  1.00  0.00    -0.272 OA
ATOM      6  H   UNL A   1      34.654  21.735  23.335  1.00  0.00     0.163 HD
BRANCH   4   7
ATOM      7  C   UNL A   1      32.427  23.364  24.760  1.00  0.00     0.213 C 
ATOM      8  C   UNL A   1      33.607  24.235  25.227  1.00  0.00     0.056 C 
BRANCH   7   9
ATOM      9  N   UNL A   1      31.430  23.188  25.865  1.00  0.00    -0.316 N 
ATOM     10  N   UNL A   1      30.161  25.164  26.347  1.00  0.00    -0.308 N 
ATOM     11  C   UNL A   1      30.521  23.890  26.543  1.00  0.00     0.320 C 
ATOM     12  H   UNL A   1      29.286  25.364  26.752  1.00  0.00     0.171 HD
ATOM     13  O   UNL A   1      29.857  23.249  27.366  1.00  0.00    -0.248 OA
ATOM     14  H   UNL A   1      31.455  22.261  26.196  1.00  0.00     0.166 HD
BRANCH  10  15
ATOM     15  C   UNL A   1      30.709  26.282  25.715  1.00  0.00     0.047 A 
ATOM     16  C   UNL A   1      28.719  26.370  24.096  1.00  0.00     0.046 C 
ATOM     17  C   UNL A   1      30.070  26.824  24.582  1.00  0.00    -0.027 A 
ATOM     18  C   UNL A   1      30.709  27.851  23.864  1.00  0.00     0.007 A 
ATOM     19  C   UNL A   1      31.928  28.371  24.294  1.00  0.00     0.021 A 
ATOM     20  C   UNL A   1      31.844  26.913  26.220  1.00  0.00     0.047 A 
ATOM     21  C   UNL A   1      32.468  27.930  25.495  1.00  0.00     0.043 A 
ATOM     22  Cl  UNL A   1      33.936  28.617  26.074  1.00  0.00    -0.084 Cl
ENDBRANCH  10  15
ENDBRANCH   7   9
BRANCH   7  23
ATOM     23  C   UNL A   1      31.890  23.785  23.368  1.00  0.00     0.420 C 
ATOM     24  F   UNL A   1      32.373  23.032  22.356  1.00  0.00    -0.168 F 
ATOM     25  F   UNL A   1      30.547  23.728  23.279  1.00  0.00    -0.168 F 
ATOM     26  F   UNL A   1      32.198  25.084  23.102  1.00  0.00    -0.168 F 
ENDBRANCH   7  23
ENDBRANCH   4   7
ENDBRANCH   2   3
ENDBRANCH   1   2
BRANCH   1  27
ATOM     27  C   UNL A   1      37.681  21.339  25.397  1.00  0.00     0.118 C 
BRANCH  27  28
ATOM     28  N   UNL A   1      38.680  20.375  25.846  1.00  0.00    -0.352 N 
ATOM     29  C   UNL A   1      39.892  20.622  26.445  1.00  0.00     0.251 C 
ATOM     30  H   UNL A   1      38.457  19.426  25.702  1.00  0.00     0.163 HD
ATOM     31  O   UNL A   1      40.700  19.716  26.615  1.00  0.00    -0.269 OA
BRANCH  29  32
ATOM     32  C   UNL A   1      40.204  22.008  26.840  1.00  0.00     0.039 A 
ATOM     33  C   UNL A   1      41.163  22.240  27.826  1.00  0.00     0.014 A 
ATOM     34  C   UNL A   1      39.611  23.069  26.151  1.00  0.00     0.014 A 
ATOM     35  C   UNL A   1      41.587  23.547  28.073  1.00  0.00     0.010 A 
ATOM     36  C   UNL A   1      40.097  24.355  26.338  1.00  0.00     0.010 A 
ATOM     37  C   UNL A   1      41.087  24.609  27.302  1.00  0.00    -0.014 A 
BRANCH  37  38
ATOM     38  C   UNL A   1      41.534  26.012  27.499  1.00  0.00     0.031 A 
ATOM     39  C   UNL A   1      42.875  26.425  26.954  1.00  0.00     0.074 A 
ATOM     40  C   UNL A   1      40.806  26.864  28.245  1.00  0.00     0.049 A 
ATOM     41  N   UNL A   1      43.571  27.505  27.189  1.00  0.00    -0.248 NA
ATOM     42  C   UNL A   1      43.541  25.459  26.065  1.00  0.00     0.031 C 
ATOM     43  C   UNL A   1      39.503  26.569  28.847  1.00  0.00     0.029 A 
ATOM     44  N   UNL A   1      41.070  28.150  28.648  1.00  0.00    -0.354 N 
ATOM     45  C   UNL A   1      44.774  27.330  26.514  1.00  0.00     0.074 A 
ATOM     46  C   UNL A   1      44.730  26.017  25.908  1.00  0.00     0.031 C 
ATOM     47  C   UNL A   1      39.081  27.645  29.532  1.00  0.00     0.029 A 
ATOM     48  C   UNL A   1      40.102  28.685  29.468  1.00  0.00     0.049 A 
ATOM     49  H   UNL A   1      41.877  28.644  28.376  1.00  0.00     0.167 HD
ATOM     50  C   UNL A   1      45.812  28.194  26.398  1.00  0.00     0.034 A 
ATOM     51  C   UNL A   1      40.060  29.869  30.114  1.00  0.00     0.034 A 
ATOM     52  C   UNL A   1      45.813  29.514  26.975  1.00  0.00     0.049 A 
ATOM     53  C   UNL A   1      41.221  30.821  29.961  1.00  0.00     0.074 A 
ATOM     54  C   UNL A   1      46.781  30.497  26.877  1.00  0.00     0.029 A 
ATOM     55  N   UNL A   1      44.789  30.037  27.754  1.00  0.00    -0.354 N 
ATOM     56  N   UNL A   1      42.344  30.652  29.302  1.00  0.00    -0.248 NA
ATOM     57  C   UNL A   1      41.109  32.124  30.631  1.00  0.00     0.031 C 
ATOM     58  C   UNL A   1      46.367  31.595  27.637  1.00  0.00     0.029 A 
ATOM     59  C   UNL A   1      45.109  31.325  28.153  1.00  0.00     0.049 A 
ATOM     60  H   UNL A   1      43.959  29.564  27.990  1.00  0.00     0.167 HD
ATOM     61  C   UNL A   1      43.049  31.844  29.441  1.00  0.00     0.074 A 
ATOM     62  C   UNL A   1      42.228  32.721  30.249  1.00  0.00     0.031 C 
ATOM     63  C   UNL A   1      44.262  32.187  28.939  1.00  0.00     0.034 A 
BRANCH  50  64
ATOM     64  C   UNL A   1      47.028  27.723  25.639  1.00  0.00     0.023 A 
ATOM     65  C   UNL A   1      47.228  28.050  24.287  1.00  0.00     0.031 A 
ATOM     66  C   UNL A   1      47.984  26.904  26.266  1.00  0.00     0.131 A 
ATOM     67  C   UNL A   1      48.307  27.494  23.583  1.00  0.00     0.055 A 
ATOM     68  C   UNL A   1      49.103  26.425  25.584  1.00  0.00     0.041 A 
ATOM     69  F   UNL A   1      47.837  26.541  27.550  1.00  0.00    -0.206 F 
ATOM     70  C   UNL A   1      49.261  26.706  24.229  1.00  0.00     0.022 A 
BRANCH  67  71
ATOM     71  S   UNL A   1      48.361  27.697  21.783  1.00  0.00     0.124 S 
ATOM     72  O   UNL A   1      48.577  26.322  21.338  1.00  0.00    -0.237 OA
ATOM     73  O   UNL A   1      47.049  28.263  21.489  1.00  0.00    -0.237 OA
ATOM     74  O   UNL A   1      49.491  28.598  21.572  1.00  0.00    -0.744 OA
ENDBRANCH  67  71
ENDBRANCH  50  64
BRANCH  51  75
ATOM     75  C   UNL A   1      38.894  30.223  30.975  1.00  0.00     0.023 A 
ATOM     76  C   UNL A   1      37.914  31.124  30.527  1.00  0.00     0.031 A 
ATOM     77  C   UNL A   1      38.765  29.706  32.276  1.00  0.00     0.131 A 
ATOM     78  C   UNL A   1      36.880  31.522  31.389  1.00  0.00     0.055 A 
ATOM     79  C   UNL A   1      37.705  30.062  33.112  1.00  0.00     0.041 A 
ATOM     80  F   UNL A   1      39.670  28.836  32.754  1.00  0.00    -0.206 F 
ATOM     81  C   UNL A   1      36.762  30.988  32.673  1.00  0.00     0.022 A 
BRANCH  78  82
ATOM     82  S   UNL A   1      35.741  32.821  30.836  1.00  0.00     0.124 S 
ATOM     83  O   UNL A   1      34.450  32.273  31.237  1.00  0.00    -0.237 OA
ATOM     84  O   UNL A   1      36.211  33.976  31.593  1.00  0.00    -0.237 OA
ATOM     85  O   UNL A   1      35.972  32.886  29.396  1.00  0.00    -0.744 OA
ENDBRANCH  78  82
ENDBRANCH  51  75
BRANCH  63  86
ATOM     86  C   UNL A   1      44.733  33.599  29.173  1.00  0.00     0.023 A 
ATOM     87  C   UNL A   1      44.355  34.660  28.335  1.00  0.00     0.031 A 
ATOM     88  C   UNL A   1      45.547  33.884  30.285  1.00  0.00     0.131 A 
ATOM     89  C   UNL A   1      44.818  35.957  28.606  1.00  0.00     0.055 A 
ATOM     90  C   UNL A   1      45.964  35.182  30.576  1.00  0.00     0.041 A 
ATOM     91  F   UNL A   1      45.932  32.902  31.117  1.00  0.00    -0.206 F 
ATOM     92  C   UNL A   1      45.604  36.227  29.730  1.00  0.00     0.022 A 
BRANCH  89  93
ATOM     93  S   UNL A   1      44.414  37.290  27.445  1.00  0.00     0.124 S 
ATOM     94  O   UNL A   1      44.140  38.405  28.346  1.00  0.00    -0.237 OA
ATOM     95  O   UNL A   1      45.634  37.397  26.652  1.00  0.00    -0.237 OA
ATOM     96  O   UNL A   1      43.251  36.776  26.723  1.00  0.00    -0.744 OA
ENDBRANCH  89  93
ENDBRANCH  63  86
ENDBRANCH  37  38
ENDBRANCH  29  32
ENDBRANCH  27  28
ENDBRANCH   1  27
TORSDOF 16
ENDMDL
MODEL 3
REMARK VINA RESULT:     -12.5      5.229     10.055
REMARK SMILES Cc1ccc(Cl)cc1NC(=O)N[C@@](C)(C(=O)NCCCNC(=O)c1ccc(-c2c3nc(c(-c4cc(S(=O)(=O)[O-])ccc4F)c4ccc([nH]4)c(-c4cc(S(=O)(=O)[O-])ccc4F)c4nc(c(-c5cc(S(=O)(=O)[O-])ccc5F)c5ccc2[nH]5)C=C4)C=C3)cc1)C(F)(F)F
REMARK SMILES IDX 19 1 18 2 17 3 15 4 16 5 13 7 14 8 12 9 9 10 10 11 11 13
REMARK SMILES IDX 8 15 1 16 2 17 3 18 4 19 7 20 5 21 6 22 87 23 88 24 89 25
REMARK SMILES IDX 90 26 20 27 21 28 22 29 23 31 24 32 25 33 86 34 26 35 85 36
REMARK SMILES IDX 27 37 28 38 29 39 79 40 30 41 84 42 78 43 80 44 31 45 83 46
REMARK SMILES IDX 77 47 76 48 32 50 64 51 44 52 63 53 45 54 48 55 62 56 81 57
REMARK SMILES IDX 46 58 47 59 61 61 82 62 49 63 33 64 34 65 42 66 35 67 41 68
REMARK SMILES IDX 43 69 40 70 36 71 37 72 38 73 39 74 65 75 66 76 74 77 67 78
REMARK SMILES IDX 73 79 75 80 72 81 68 82 69 83 70 84 71 85 50 86 51 87 59 88
REMARK SMILES IDX 52 89 58 90 60 91 57 92 53 93 54 94 55 95 56 96
REMARK H PARENT 17 6 9 12 12 14 21 30 80 49 48 60
REMARK Flexibility Score: inf
ROOT
ATOM      1  C   UNL A   1      31.984  28.778  24.746  1.00  0.00     0.042 C 
ENDROOT
BRANCH   1   2
ATOM      2  C   UNL A   1      31.402  27.559  25.457  1.00  0.00     0.117 C 
BRANCH   2   3
ATOM      3  N   UNL A   1      30.602  26.751  24.554  1.00  0.00    -0.354 N 
ATOM      4  C   UNL A   1      31.201  25.862  23.697  1.00  0.00     0.255 C 
ATOM      5  O   UNL A   1      31.504  26.272  22.578  1.00  0.00    -0.272 OA
ATOM      6  H   UNL A   1      29.622  26.841  24.556  1.00  0.00     0.163 HD
BRANCH   4   7
ATOM      7  C   UNL A   1      31.584  24.456  24.233  1.00  0.00     0.213 C 
ATOM      8  C   UNL A   1      31.320  23.388  23.156  1.00  0.00     0.056 C 
BRANCH   7   9
ATOM      9  N   UNL A   1      30.715  24.226  25.431  1.00  0.00    -0.316 N 
ATOM     10  N   UNL A   1      31.383  22.349  26.764  1.00  0.00    -0.308 N 
ATOM     11  C   UNL A   1      30.589  23.381  26.455  1.00  0.00     0.320 C 
ATOM     12  H   UNL A   1      31.272  22.069  27.702  1.00  0.00     0.171 HD
ATOM     13  O   UNL A   1      29.703  23.661  27.272  1.00  0.00    -0.248 OA
ATOM     14  H   UNL A   1      30.014  24.916  25.476  1.00  0.00     0.166 HD
BRANCH  10  15
ATOM     15  C   UNL A   1      32.328  21.567  26.097  1.00  0.00     0.047 A 
ATOM     16  C   UNL A   1      34.159  22.371  27.706  1.00  0.00     0.046 C 
ATOM     17  C   UNL A   1      33.681  21.629  26.487  1.00  0.00    -0.027 A 
ATOM     18  C   UNL A   1      34.645  20.958  25.712  1.00  0.00     0.007 A 
ATOM     19  C   UNL A   1      34.269  20.192  24.611  1.00  0.00     0.021 A 
ATOM     20  C   UNL A   1      31.951  20.678  25.093  1.00  0.00     0.047 A 
ATOM     21  C   UNL A   1      32.920  20.021  24.333  1.00  0.00     0.043 A 
ATOM     22  Cl  UNL A   1      32.441  19.018  23.018  1.00  0.00    -0.084 Cl
ENDBRANCH  10  15
ENDBRANCH   7   9
BRANCH   7  23
ATOM     23  C   UNL A   1      33.097  24.694  24.478  1.00  0.00     0.420 C 
ATOM     24  F   UNL A   1      33.579  25.781  23.837  1.00  0.00    -0.168 F 
ATOM     25  F   UNL A   1      33.404  24.849  25.780  1.00  0.00    -0.168 F 
ATOM     26  F   UNL A   1      33.828  23.619  24.077  1.00  0.00    -0.168 F 
ENDBRANCH   7  23
ENDBRANCH   4   7
ENDBRANCH   2   3
ENDBRANCH   1   2
BRANCH   1  27
ATOM     27  C   UNL A   1      32.983  29.567  25.587  1.00  0.00     0.118 C 
BRANCH  27  28
ATOM     28  N   UNL A   1      32.431  30.819  26.094  1.00  0.00    -0.352 N 
ATOM     29  C   UNL A   1      32.932  31.631  27.083  1.00  0.00     0.251 C 
ATOM     30  H   UNL A   1      31.592  31.120  25.675  1.00  0.00     0.163 HD
ATOM     31  O   UNL A   1      32.269  32.565  27.518  1.00  0.00    -0.269 OA
BRANCH  29  32
ATOM     32  C   UNL A   1      34.268  31.323  27.627  1.00  0.00     0.039 A 
ATOM     33  C   UNL A   1      35.232  32.329  27.689  1.00  0.00     0.014 A 
ATOM     34  C   UNL A   1      34.514  30.058  28.168  1.00  0.00     0.014 A 
ATOM     35  C   UNL A   1      36.429  32.087  28.364  1.00  0.00     0.010 A 
ATOM     36  C   UNL A   1      35.667  29.851  28.912  1.00  0.00     0.010 A 
ATOM     37  C   UNL A   1      36.638  30.862  29.016  1.00  0.00    -0.014 A 
BRANCH  37  38
ATOM     38  C   UNL A   1      37.878  30.570  29.780  1.00  0.00     0.031 A 
ATOM     39  C   UNL A   1      38.899  29.646  29.173  1.00  0.00     0.074 A 
ATOM     40  C   UNL A   1      38.032  31.032  31.036  1.00  0.00     0.049 A 
ATOM     41  N   UNL A   1      39.932  29.070  29.727  1.00  0.00    -0.248 NA
ATOM     42  C   UNL A   1      38.691  29.284  27.762  1.00  0.00     0.031 C 
ATOM     43  C   UNL A   1      37.098  31.913  31.739  1.00  0.00     0.029 A 
ATOM     44  N   UNL A   1      39.025  30.803  31.957  1.00  0.00    -0.354 N 
ATOM     45  C   UNL A   1      40.471  28.244  28.747  1.00  0.00     0.074 A 
ATOM     46  C   UNL A   1      39.616  28.355  27.584  1.00  0.00     0.031 C 
ATOM     47  C   UNL A   1      37.567  32.157  32.975  1.00  0.00     0.029 A 
ATOM     48  C   UNL A   1      38.802  31.406  33.175  1.00  0.00     0.049 A 
ATOM     49  H   UNL A   1      39.821  30.257  31.765  1.00  0.00     0.167 HD
ATOM     50  C   UNL A   1      41.587  27.476  28.807  1.00  0.00     0.034 A 
ATOM     51  C   UNL A   1      39.503  31.338  34.325  1.00  0.00     0.034 A 
ATOM     52  C   UNL A   1      42.446  27.416  29.962  1.00  0.00     0.049 A 
ATOM     53  C   UNL A   1      40.749  30.486  34.367  1.00  0.00     0.074 A 
ATOM     54  C   UNL A   1      43.631  26.720  30.120  1.00  0.00     0.029 A 
ATOM     55  N   UNL A   1      42.214  28.085  31.157  1.00  0.00    -0.354 N 
ATOM     56  N   UNL A   1      41.260  29.727  33.425  1.00  0.00    -0.248 NA
ATOM     57  C   UNL A   1      41.517  30.488  35.619  1.00  0.00     0.031 C 
ATOM     58  C   UNL A   1      44.089  26.927  31.424  1.00  0.00     0.029 A 
ATOM     59  C   UNL A   1      43.227  27.808  32.059  1.00  0.00     0.049 A 
ATOM     60  H   UNL A   1      41.442  28.670  31.337  1.00  0.00     0.167 HD
ATOM     61  C   UNL A   1      42.432  29.198  33.958  1.00  0.00     0.074 A 
ATOM     62  C   UNL A   1      42.550  29.720  35.304  1.00  0.00     0.031 C 
ATOM     63  C   UNL A   1      43.334  28.361  33.386  1.00  0.00     0.034 A 
BRANCH  50  64
ATOM     64  C   UNL A   1      41.917  26.633  27.601  1.00  0.00     0.023 A 
ATOM     65  C   UNL A   1      41.493  25.296  27.495  1.00  0.00     0.031 A 
ATOM     66  C   UNL A   1      42.697  27.160  26.556  1.00  0.00     0.131 A 
ATOM     67  C   UNL A   1      41.921  24.509  26.415  1.00  0.00     0.055 A 
ATOM     68  C   UNL A   1      43.046  26.396  25.441  1.00  0.00     0.041 A 
ATOM     69  F   UNL A   1      43.148  28.423  26.610  1.00  0.00    -0.206 F 
ATOM     70  C   UNL A   1      42.672  25.057  25.375  1.00  0.00     0.022 A 
BRANCH  67  71
ATOM     71  S   UNL A   1      41.605  22.724  26.470  1.00  0.00     0.124 S 
ATOM     72  O   UNL A   1      42.355  22.258  25.306  1.00  0.00    -0.237 OA
ATOM     73  O   UNL A   1      42.146  22.346  27.770  1.00  0.00    -0.237 OA
ATOM     74  O   UNL A   1      40.152  22.629  26.347  1.00  0.00    -0.744 OA
ENDBRANCH  67  71
ENDBRANCH  50  64
BRANCH  51  75
ATOM     75  C   UNL A   1      39.047  32.077  35.537  1.00  0.00     0.023 A 
ATOM     76  C   UNL A   1      38.406  31.407  36.593  1.00  0.00     0.031 A 
ATOM     77  C   UNL A   1      39.198  33.471  35.641  1.00  0.00     0.131 A 
ATOM     78  C   UNL A   1      37.895  32.135  37.679  1.00  0.00     0.055 A 
ATOM     79  C   UNL A   1      38.736  34.185  36.749  1.00  0.00     0.041 A 
ATOM     80  F   UNL A   1      39.808  34.162  34.665  1.00  0.00    -0.206 F 
ATOM     81  C   UNL A   1      38.066  33.517  37.770  1.00  0.00     0.022 A 
BRANCH  78  82
ATOM     82  S   UNL A   1      36.918  31.256  38.930  1.00  0.00     0.124 S 
ATOM     83  O   UNL A   1      36.771  29.939  38.319  1.00  0.00    -0.237 OA
ATOM     84  O   UNL A   1      37.788  31.329  40.098  1.00  0.00    -0.237 OA
ATOM     85  O   UNL A   1      35.691  32.043  39.017  1.00  0.00    -0.744 OA
ENDBRANCH  78  82
ENDBRANCH  51  75
BRANCH  63  86
ATOM     86  C   UNL A   1      44.573  28.033  34.178  1.00  0.00     0.023 A 
ATOM     87  C   UNL A   1      44.630  26.938  35.055  1.00  0.00     0.031 A 
ATOM     88  C   UNL A   1      45.729  28.818  34.015  1.00  0.00     0.131 A 
ATOM     89  C   UNL A   1      45.814  26.675  35.761  1.00  0.00     0.055 A 
ATOM     90  C   UNL A   1      46.916  28.524  34.683  1.00  0.00     0.041 A 
ATOM     91  F   UNL A   1      45.724  29.875  33.186  1.00  0.00    -0.206 F 
ATOM     92  C   UNL A   1      46.961  27.450  35.567  1.00  0.00     0.022 A 
BRANCH  89  93
ATOM     93  S   UNL A   1      45.827  25.327  36.975  1.00  0.00     0.124 S 
ATOM     94  O   UNL A   1      47.084  24.653  36.664  1.00  0.00    -0.237 OA
ATOM     95  O   UNL A   1      45.786  26.046  38.243  1.00  0.00    -0.237 OA
ATOM     96  O   UNL A   1      44.621  24.567  36.656  1.00  0.00    -0.744 OA
ENDBRANCH  89  93
ENDBRANCH  63  86
ENDBRANCH  37  38
ENDBRANCH  29  32
ENDBRANCH  27  28
ENDBRANCH   1  27
TORSDOF 16
ENDMDL
