MODEL 1
REMARK VINA RESULT:     -11.1      0.000      0.000
REMARK SMILES CCC[C@@H](CNC(=O)N1C[C@@H](C)[C@H](C(=O)OC)C1)C(=O)NCCCNC(=O)c1ccc(-c2c3nc(c(-c4cc(S(=O)(=O)[O-])ccc4F)c4ccc([nH]4)c(-c4cc(S(=O)(=O)[O-])ccc4F)c4nc(c(-c5cc(S(=O)(=O)[O-])ccc5F)c5ccc2[nH]5)C=C4)C=C3)cc1
REMARK SMILES IDX 22 1 21 2 19 3 20 4 4 6 3 7 2 8 1 9 5 10 6 11 7 12 8 14 9 15
REMARK SMILES IDX 10 16 18 17 11 18 13 19 12 20 14 21 15 22 16 23 17 24 23 25
REMARK SMILES IDX 24 26 25 27 26 28 27 30 28 31 29 32 90 33 30 34 89 35 31 36
REMARK SMILES IDX 32 37 33 38 83 39 34 40 88 41 82 42 84 43 35 44 87 45 81 46
REMARK SMILES IDX 80 47 36 49 68 50 48 51 67 52 49 53 52 54 66 55 85 56 50 57
REMARK SMILES IDX 51 58 65 60 86 61 53 62 37 63 38 64 46 65 39 66 45 67 47 68
REMARK SMILES IDX 44 69 40 70 41 71 42 72 43 73 69 74 70 75 78 76 71 77 77 78
REMARK SMILES IDX 79 79 76 80 72 81 73 82 74 83 75 84 54 85 55 86 63 87 56 88
REMARK SMILES IDX 62 89 64 90 61 91 57 92 58 93 59 94 60 95
REMARK H PARENT 21 5 6 13 25 29 84 48 52 59
REMARK Flexibility Score: inf
ROOT
ATOM      1  C   UNL A   1      36.611  22.101  25.124  1.00  0.00     0.117 C 
ENDROOT
BRANCH   1   2
ATOM      2  N   UNL A   1      35.708  21.929  26.247  1.00  0.00    -0.356 N 
ATOM      3  C   UNL A   1      34.459  21.412  26.323  1.00  0.00     0.224 C 
ATOM      4  O   UNL A   1      33.963  21.283  27.448  1.00  0.00    -0.275 OA
ATOM      5  H   UNL A   1      36.067  22.247  27.106  1.00  0.00     0.163 HD
BRANCH   3   6
ATOM      6  C   UNL A   1      33.648  21.007  25.101  1.00  0.00     0.097 C 
BRANCH   6   7
ATOM      7  C   UNL A   1      33.439  19.489  24.989  1.00  0.00     0.015 C 
BRANCH   7   8
ATOM      8  C   UNL A   1      34.692  18.679  24.643  1.00  0.00    -0.003 C 
ATOM      9  C   UNL A   1      34.408  17.335  23.988  1.00  0.00     0.004 C 
ENDBRANCH   7   8
ENDBRANCH   6   7
BRANCH   6  10
ATOM     10  C   UNL A   1      32.457  21.935  24.816  1.00  0.00     0.131 C 
BRANCH  10  11
ATOM     11  N   UNL A   1      31.438  22.071  25.844  1.00  0.00    -0.337 N 
ATOM     12  C   UNL A   1      31.078  23.181  26.549  1.00  0.00     0.317 C 
ATOM     13  H   UNL A   1      30.942  21.250  26.061  1.00  0.00     0.165 HD
ATOM     14  O   UNL A   1      30.479  23.043  27.613  1.00  0.00    -0.249 OA
BRANCH  12  15
ATOM     15  N   UNL A   1      31.498  24.390  26.092  1.00  0.00    -0.324 N 
ATOM     16  C   UNL A   1      30.647  25.552  25.998  1.00  0.00     0.125 C 
ATOM     17  C   UNL A   1      32.871  24.833  26.233  1.00  0.00     0.137 C 
ATOM     18  C   UNL A   1      31.460  26.503  25.128  1.00  0.00     0.021 C 
ATOM     19  C   UNL A   1      32.937  26.120  25.408  1.00  0.00     0.123 C 
ATOM     20  C   UNL A   1      31.150  27.960  25.432  1.00  0.00     0.010 C 
BRANCH  19  21
ATOM     21  C   UNL A   1      33.692  25.995  24.098  1.00  0.00     0.310 C 
ATOM     22  O   UNL A   1      34.041  24.908  23.647  1.00  0.00    -0.252 OA
BRANCH  21  23
ATOM     23  O   UNL A   1      33.981  27.192  23.528  1.00  0.00    -0.469 OA
ATOM     24  C   UNL A   1      33.577  27.311  22.161  1.00  0.00     0.282 C 
ENDBRANCH  21  23
ENDBRANCH  19  21
ENDBRANCH  12  15
ENDBRANCH  10  11
ENDBRANCH   6  10
ENDBRANCH   3   6
ENDBRANCH   1   2
BRANCH   1  25
ATOM     25  C   UNL A   1      37.610  20.965  24.999  1.00  0.00     0.042 C 
BRANCH  25  26
ATOM     26  C   UNL A   1      38.897  21.231  25.768  1.00  0.00     0.118 C 
BRANCH  26  27
ATOM     27  N   UNL A   1      39.709  20.030  25.948  1.00  0.00    -0.352 N 
ATOM     28  C   UNL A   1      41.058  19.886  26.176  1.00  0.00     0.251 C 
ATOM     29  H   UNL A   1      39.207  19.184  25.897  1.00  0.00     0.163 HD
ATOM     30  O   UNL A   1      41.569  18.777  26.121  1.00  0.00    -0.269 OA
BRANCH  28  31
ATOM     31  C   UNL A   1      41.889  21.078  26.450  1.00  0.00     0.039 A 
ATOM     32  C   UNL A   1      42.266  21.902  25.388  1.00  0.00     0.014 A 
ATOM     33  C   UNL A   1      42.268  21.396  27.755  1.00  0.00     0.014 A 
ATOM     34  C   UNL A   1      42.931  23.102  25.650  1.00  0.00     0.010 A 
ATOM     35  C   UNL A   1      42.832  22.637  28.023  1.00  0.00     0.010 A 
ATOM     36  C   UNL A   1      43.161  23.509  26.975  1.00  0.00    -0.014 A 
BRANCH  36  37
ATOM     37  C   UNL A   1      43.716  24.849  27.294  1.00  0.00     0.031 A 
ATOM     38  C   UNL A   1      42.825  25.924  27.849  1.00  0.00     0.074 A 
ATOM     39  C   UNL A   1      45.002  25.122  26.996  1.00  0.00     0.049 A 
ATOM     40  N   UNL A   1      43.094  27.181  28.093  1.00  0.00    -0.248 NA
ATOM     41  C   UNL A   1      41.435  25.541  28.130  1.00  0.00     0.031 C 
ATOM     42  C   UNL A   1      45.955  24.172  26.415  1.00  0.00     0.029 A 
ATOM     43  N   UNL A   1      45.729  26.277  27.131  1.00  0.00    -0.354 N 
ATOM     44  C   UNL A   1      41.905  27.742  28.545  1.00  0.00     0.074 A 
ATOM     45  C   UNL A   1      40.898  26.705  28.463  1.00  0.00     0.031 C 
ATOM     46  C   UNL A   1      47.148  24.771  26.282  1.00  0.00     0.029 A 
ATOM     47  C   UNL A   1      47.033  26.162  26.709  1.00  0.00     0.049 A 
ATOM     48  H   UNL A   1      45.354  27.110  27.496  1.00  0.00     0.167 HD
ATOM     49  C   UNL A   1      41.681  28.996  29.011  1.00  0.00     0.034 A 
ATOM     50  C   UNL A   1      48.021  27.076  26.656  1.00  0.00     0.034 A 
ATOM     51  C   UNL A   1      42.700  30.015  29.081  1.00  0.00     0.049 A 
ATOM     52  C   UNL A   1      47.736  28.481  27.114  1.00  0.00     0.074 A 
ATOM     53  C   UNL A   1      42.605  31.299  29.590  1.00  0.00     0.029 A 
ATOM     54  N   UNL A   1      44.000  29.873  28.609  1.00  0.00    -0.354 N 
ATOM     55  N   UNL A   1      46.621  28.983  27.594  1.00  0.00    -0.248 NA
ATOM     56  C   UNL A   1      48.841  29.443  27.022  1.00  0.00     0.031 C 
ATOM     57  C   UNL A   1      43.817  31.956  29.351  1.00  0.00     0.029 A 
ATOM     58  C   UNL A   1      44.701  31.061  28.770  1.00  0.00     0.049 A 
ATOM     59  H   UNL A   1      44.371  29.050  28.217  1.00  0.00     0.167 HD
ATOM     60  C   UNL A   1      46.898  30.317  27.882  1.00  0.00     0.074 A 
ATOM     61  C   UNL A   1      48.290  30.533  27.535  1.00  0.00     0.031 C 
ATOM     62  C   UNL A   1      46.080  31.273  28.391  1.00  0.00     0.034 A 
BRANCH  49  63
ATOM     63  C   UNL A   1      40.270  29.327  29.446  1.00  0.00     0.023 A 
ATOM     64  C   UNL A   1      39.929  29.454  30.804  1.00  0.00     0.031 A 
ATOM     65  C   UNL A   1      39.240  29.452  28.498  1.00  0.00     0.131 A 
ATOM     66  C   UNL A   1      38.584  29.586  31.182  1.00  0.00     0.055 A 
ATOM     67  C   UNL A   1      37.914  29.685  28.877  1.00  0.00     0.041 A 
ATOM     68  F   UNL A   1      39.495  29.322  27.187  1.00  0.00    -0.206 F 
ATOM     69  C   UNL A   1      37.576  29.730  30.226  1.00  0.00     0.022 A 
BRANCH  66  70
ATOM     70  S   UNL A   1      38.154  29.366  32.931  1.00  0.00     0.124 S 
ATOM     71  O   UNL A   1      39.476  29.269  33.548  1.00  0.00    -0.237 OA
ATOM     72  O   UNL A   1      37.400  30.579  33.225  1.00  0.00    -0.237 OA
ATOM     73  O   UNL A   1      37.378  28.129  32.941  1.00  0.00    -0.744 OA
ENDBRANCH  66  70
ENDBRANCH  49  63
BRANCH  50  74
ATOM     74  C   UNL A   1      49.369  26.693  26.147  1.00  0.00     0.023 A 
ATOM     75  C   UNL A   1      49.813  27.136  24.892  1.00  0.00     0.031 A 
ATOM     76  C   UNL A   1      50.230  25.877  26.904  1.00  0.00     0.131 A 
ATOM     77  C   UNL A   1      51.071  26.736  24.415  1.00  0.00     0.055 A 
ATOM     78  C   UNL A   1      51.499  25.522  26.445  1.00  0.00     0.041 A 
ATOM     79  F   UNL A   1      49.854  25.431  28.112  1.00  0.00    -0.206 F 
ATOM     80  C   UNL A   1      51.923  25.945  25.190  1.00  0.00     0.022 A 
BRANCH  77  81
ATOM     81  S   UNL A   1      51.557  27.219  22.737  1.00  0.00     0.124 S 
ATOM     82  O   UNL A   1      51.819  28.645  22.902  1.00  0.00    -0.237 OA
ATOM     83  O   UNL A   1      52.724  26.375  22.503  1.00  0.00    -0.237 OA
ATOM     84  O   UNL A   1      50.382  26.889  21.934  1.00  0.00    -0.744 OA
ENDBRANCH  77  81
ENDBRANCH  50  74
BRANCH  62  85
ATOM     85  C   UNL A   1      46.683  32.637  28.623  1.00  0.00     0.023 A 
ATOM     86  C   UNL A   1      46.661  33.631  27.629  1.00  0.00     0.031 A 
ATOM     87  C   UNL A   1      47.291  32.945  29.853  1.00  0.00     0.131 A 
ATOM     88  C   UNL A   1      47.280  34.868  27.865  1.00  0.00     0.055 A 
ATOM     89  C   UNL A   1      47.848  34.199  30.104  1.00  0.00     0.041 A 
ATOM     90  F   UNL A   1      47.345  32.031  30.836  1.00  0.00    -0.206 F 
ATOM     91  C   UNL A   1      47.855  35.166  29.102  1.00  0.00     0.022 A 
BRANCH  88  92
ATOM     92  S   UNL A   1      47.398  36.057  26.500  1.00  0.00     0.124 S 
ATOM     93  O   UNL A   1      48.396  35.432  25.638  1.00  0.00    -0.237 OA
ATOM     94  O   UNL A   1      46.034  36.078  25.983  1.00  0.00    -0.237 OA
ATOM     95  O   UNL A   1      47.831  37.290  27.155  1.00  0.00    -0.744 OA
ENDBRANCH  88  92
ENDBRANCH  62  85
ENDBRANCH  36  37
ENDBRANCH  28  31
ENDBRANCH  26  27
ENDBRANCH  25  26
ENDBRANCH   1  25
TORSDOF 20
ENDMDL
MODEL 2
REMARK VINA RESULT:     -10.7      1.546      7.633
REMARK SMILES CCC[C@@H](CNC(=O)N1C[C@@H](C)[C@H](C(=O)OC)C1)C(=O)NCCCNC(=O)c1ccc(-c2c3nc(c(-c4cc(S(=O)(=O)[O-])ccc4F)c4ccc([nH]4)c(-c4cc(S(=O)(=O)[O-])ccc4F)c4nc(c(-c5cc(S(=O)(=O)[O-])ccc5F)c5ccc2[nH]5)C=C4)C=C3)cc1
REMARK SMILES IDX 22 1 21 2 19 3 20 4 4 6 3 7 2 8 1 9 5 10 6 11 7 12 8 14 9 15
REMARK SMILES IDX 10 16 18 17 11 18 13 19 12 20 14 21 15 22 16 23 17 24 23 25
REMARK SMILES IDX 24 26 25 27 26 28 27 30 28 31 29 32 90 33 30 34 89 35 31 36
REMARK SMILES IDX 32 37 33 38 83 39 34 40 88 41 82 42 84 43 35 44 87 45 81 46
REMARK SMILES IDX 80 47 36 49 68 50 48 51 67 52 49 53 52 54 66 55 85 56 50 57
REMARK SMILES IDX 51 58 65 60 86 61 53 62 37 63 38 64 46 65 39 66 45 67 47 68
REMARK SMILES IDX 44 69 40 70 41 71 42 72 43 73 69 74 70 75 78 76 71 77 77 78
REMARK SMILES IDX 79 79 76 80 72 81 73 82 74 83 75 84 54 85 55 86 63 87 56 88
REMARK SMILES IDX 62 89 64 90 61 91 57 92 58 93 59 94 60 95
REMARK H PARENT 21 5 6 13 25 29 84 48 52 59
REMARK Flexibility Score: inf
ROOT
ATOM      1  C   UNL A   1      36.785  21.431  24.916  1.00  0.00     0.117 C 
ENDROOT
BRANCH   1   2
ATOM      2  N   UNL A   1      35.912  21.558  26.068  1.00  0.00    -0.356 N 
ATOM      3  C   UNL A   1      34.607  21.243  26.244  1.00  0.00     0.224 C 
ATOM      4  O   UNL A   1      34.142  21.353  27.384  1.00  0.00    -0.275 OA
ATOM      5  H   UNL A   1      36.346  21.942  26.864  1.00  0.00     0.163 HD
BRANCH   3   6
ATOM      6  C   UNL A   1      33.699  20.786  25.111  1.00  0.00     0.097 C 
BRANCH   6   7
ATOM      7  C   UNL A   1      33.423  19.276  25.127  1.00  0.00     0.015 C 
BRANCH   7   8
ATOM      8  C   UNL A   1      34.504  18.404  24.481  1.00  0.00    -0.003 C 
ATOM      9  C   UNL A   1      33.968  17.344  23.530  1.00  0.00     0.004 C 
ENDBRANCH   7   8
ENDBRANCH   6   7
BRANCH   6  10
ATOM     10  C   UNL A   1      32.529  21.744  24.833  1.00  0.00     0.131 C 
BRANCH  10  11
ATOM     11  N   UNL A   1      31.566  21.968  25.898  1.00  0.00    -0.337 N 
ATOM     12  C   UNL A   1      31.099  23.148  26.394  1.00  0.00     0.317 C 
ATOM     13  H   UNL A   1      31.201  21.156  26.319  1.00  0.00     0.165 HD
ATOM     14  O   UNL A   1      30.590  23.165  27.513  1.00  0.00    -0.249 OA
BRANCH  12  15
ATOM     15  N   UNL A   1      31.319  24.276  25.669  1.00  0.00    -0.324 N 
ATOM     16  C   UNL A   1      30.959  24.420  24.279  1.00  0.00     0.125 C 
ATOM     17  C   UNL A   1      31.345  25.591  26.278  1.00  0.00     0.137 C 
ATOM     18  C   UNL A   1      31.711  25.676  23.857  1.00  0.00     0.021 C 
ATOM     19  C   UNL A   1      31.827  26.515  25.157  1.00  0.00     0.123 C 
ATOM     20  C   UNL A   1      31.006  26.412  22.729  1.00  0.00     0.010 C 
BRANCH  19  21
ATOM     21  C   UNL A   1      33.250  27.019  25.318  1.00  0.00     0.310 C 
ATOM     22  O   UNL A   1      34.215  26.388  24.899  1.00  0.00    -0.252 OA
BRANCH  21  23
ATOM     23  O   UNL A   1      33.333  28.182  26.010  1.00  0.00    -0.469 OA
ATOM     24  C   UNL A   1      32.871  29.332  25.295  1.00  0.00     0.282 C 
ENDBRANCH  21  23
ENDBRANCH  19  21
ENDBRANCH  12  15
ENDBRANCH  10  11
ENDBRANCH   6  10
ENDBRANCH   3   6
ENDBRANCH   1   2
BRANCH   1  25
ATOM     25  C   UNL A   1      37.808  20.322  25.077  1.00  0.00     0.042 C 
BRANCH  25  26
ATOM     26  C   UNL A   1      39.067  20.788  25.797  1.00  0.00     0.118 C 
BRANCH  26  27
ATOM     27  N   UNL A   1      40.030  19.710  26.008  1.00  0.00    -0.352 N 
ATOM     28  C   UNL A   1      41.390  19.752  26.217  1.00  0.00     0.251 C 
ATOM     29  H   UNL A   1      39.643  18.805  25.999  1.00  0.00     0.163 HD
ATOM     30  O   UNL A   1      42.041  18.717  26.194  1.00  0.00    -0.269 OA
BRANCH  28  31
ATOM     31  C   UNL A   1      42.061  21.051  26.429  1.00  0.00     0.039 A 
ATOM     32  C   UNL A   1      42.376  21.844  25.323  1.00  0.00     0.014 A 
ATOM     33  C   UNL A   1      42.353  21.499  27.718  1.00  0.00     0.014 A 
ATOM     34  C   UNL A   1      42.882  23.130  25.519  1.00  0.00     0.010 A 
ATOM     35  C   UNL A   1      42.755  22.814  27.915  1.00  0.00     0.010 A 
ATOM     36  C   UNL A   1      43.014  23.649  26.818  1.00  0.00    -0.014 A 
BRANCH  36  37
ATOM     37  C   UNL A   1      43.393  25.065  27.058  1.00  0.00     0.031 A 
ATOM     38  C   UNL A   1      44.805  25.520  26.821  1.00  0.00     0.074 A 
ATOM     39  C   UNL A   1      42.484  25.915  27.575  1.00  0.00     0.049 A 
ATOM     40  N   UNL A   1      45.354  26.681  27.068  1.00  0.00    -0.248 NA
ATOM     41  C   UNL A   1      45.730  24.522  26.268  1.00  0.00     0.031 C 
ATOM     42  C   UNL A   1      41.093  25.579  27.888  1.00  0.00     0.029 A 
ATOM     43  N   UNL A   1      42.594  27.233  27.939  1.00  0.00    -0.354 N 
ATOM     44  C   UNL A   1      46.692  26.551  26.713  1.00  0.00     0.074 A 
ATOM     45  C   UNL A   1      46.882  25.173  26.309  1.00  0.00     0.031 C 
ATOM     46  C   UNL A   1      40.470  26.671  28.357  1.00  0.00     0.029 A 
ATOM     47  C   UNL A   1      41.429  27.767  28.438  1.00  0.00     0.049 A 
ATOM     48  H   UNL A   1      43.428  27.748  27.852  1.00  0.00     0.167 HD
ATOM     49  C   UNL A   1      47.664  27.497  26.697  1.00  0.00     0.034 A 
ATOM     50  C   UNL A   1      41.165  28.997  28.922  1.00  0.00     0.034 A 
ATOM     51  C   UNL A   1      47.452  28.864  27.107  1.00  0.00     0.049 A 
ATOM     52  C   UNL A   1      42.273  30.016  28.960  1.00  0.00     0.074 A 
ATOM     53  C   UNL A   1      48.342  29.924  27.076  1.00  0.00     0.029 A 
ATOM     54  N   UNL A   1      46.268  29.360  27.641  1.00  0.00    -0.354 N 
ATOM     55  N   UNL A   1      43.520  29.895  28.566  1.00  0.00    -0.248 NA
ATOM     56  C   UNL A   1      41.938  31.335  29.510  1.00  0.00     0.031 C 
ATOM     57  C   UNL A   1      47.726  31.032  27.667  1.00  0.00     0.029 A 
ATOM     58  C   UNL A   1      46.421  30.694  27.991  1.00  0.00     0.049 A 
ATOM     59  H   UNL A   1      45.440  28.839  27.757  1.00  0.00     0.167 HD
ATOM     60  C   UNL A   1      44.113  31.132  28.801  1.00  0.00     0.074 A 
ATOM     61  C   UNL A   1      43.082  31.986  29.356  1.00  0.00     0.031 C 
ATOM     62  C   UNL A   1      45.392  31.527  28.573  1.00  0.00     0.034 A 
BRANCH  49  63
ATOM     63  C   UNL A   1      49.042  27.062  26.251  1.00  0.00     0.023 A 
ATOM     64  C   UNL A   1      50.065  26.792  27.178  1.00  0.00     0.031 A 
ATOM     65  C   UNL A   1      49.360  26.978  24.884  1.00  0.00     0.131 A 
ATOM     66  C   UNL A   1      51.375  26.562  26.732  1.00  0.00     0.055 A 
ATOM     67  C   UNL A   1      50.645  26.649  24.445  1.00  0.00     0.041 A 
ATOM     68  F   UNL A   1      48.435  27.242  23.948  1.00  0.00    -0.206 F 
ATOM     69  C   UNL A   1      51.668  26.462  25.371  1.00  0.00     0.022 A 
BRANCH  66  70
ATOM     70  S   UNL A   1      52.719  26.596  27.951  1.00  0.00     0.124 S 
ATOM     71  O   UNL A   1      53.150  27.990  27.875  1.00  0.00    -0.237 OA
ATOM     72  O   UNL A   1      52.039  26.204  29.180  1.00  0.00    -0.237 OA
ATOM     73  O   UNL A   1      53.679  25.627  27.430  1.00  0.00    -0.744 OA
ENDBRANCH  66  70
ENDBRANCH  49  63
BRANCH  50  74
ATOM     74  C   UNL A   1      39.797  29.332  29.411  1.00  0.00     0.023 A 
ATOM     75  C   UNL A   1      39.528  29.414  30.785  1.00  0.00     0.031 A 
ATOM     76  C   UNL A   1      38.739  29.569  28.514  1.00  0.00     0.131 A 
ATOM     77  C   UNL A   1      38.226  29.695  31.227  1.00  0.00     0.055 A 
ATOM     78  C   UNL A   1      37.457  29.896  28.958  1.00  0.00     0.041 A 
ATOM     79  F   UNL A   1      38.945  29.507  27.190  1.00  0.00    -0.206 F 
ATOM     80  C   UNL A   1      37.193  29.952  30.323  1.00  0.00     0.022 A 
BRANCH  77  81
ATOM     81  S   UNL A   1      37.888  29.665  33.008  1.00  0.00     0.124 S 
ATOM     82  O   UNL A   1      39.209  29.929  33.566  1.00  0.00    -0.237 OA
ATOM     83  O   UNL A   1      36.905  30.734  33.149  1.00  0.00    -0.237 OA
ATOM     84  O   UNL A   1      37.374  28.316  33.234  1.00  0.00    -0.744 OA
ENDBRANCH  77  81
ENDBRANCH  50  74
BRANCH  62  85
ATOM     85  C   UNL A   1      45.736  32.958  28.907  1.00  0.00     0.023 A 
ATOM     86  C   UNL A   1      45.563  33.995  27.972  1.00  0.00     0.031 A 
ATOM     87  C   UNL A   1      46.247  33.289  30.174  1.00  0.00     0.131 A 
ATOM     88  C   UNL A   1      45.944  35.304  28.303  1.00  0.00     0.055 A 
ATOM     89  C   UNL A   1      46.565  34.603  30.518  1.00  0.00     0.041 A 
ATOM     90  F   UNL A   1      46.438  32.338  31.103  1.00  0.00    -0.206 F 
ATOM     91  C   UNL A   1      46.426  35.618  29.576  1.00  0.00     0.022 A 
BRANCH  88  92
ATOM     92  S   UNL A   1      45.884  36.580  27.016  1.00  0.00     0.124 S 
ATOM     93  O   UNL A   1      44.458  36.885  26.957  1.00  0.00    -0.237 OA
ATOM     94  O   UNL A   1      46.737  37.626  27.570  1.00  0.00    -0.237 OA
ATOM     95  O   UNL A   1      46.422  35.904  25.836  1.00  0.00    -0.744 OA
ENDBRANCH  88  92
ENDBRANCH  62  85
ENDBRANCH  36  37
ENDBRANCH  28  31
ENDBRANCH  26  27
ENDBRANCH  25  26
ENDBRANCH   1  25
TORSDOF 20
ENDMDL
MODEL 3
REMARK VINA RESULT:     -10.7      2.425      7.697
REMARK SMILES CCC[C@@H](CNC(=O)N1C[C@@H](C)[C@H](C(=O)OC)C1)C(=O)NCCCNC(=O)c1ccc(-c2c3nc(c(-c4cc(S(=O)(=O)[O-])ccc4F)c4ccc([nH]4)c(-c4cc(S(=O)(=O)[O-])ccc4F)c4nc(c(-c5cc(S(=O)(=O)[O-])ccc5F)c5ccc2[nH]5)C=C4)C=C3)cc1
REMARK SMILES IDX 22 1 21 2 19 3 20 4 4 6 3 7 2 8 1 9 5 10 6 11 7 12 8 14 9 15
REMARK SMILES IDX 10 16 18 17 11 18 13 19 12 20 14 21 15 22 16 23 17 24 23 25
REMARK SMILES IDX 24 26 25 27 26 28 27 30 28 31 29 32 90 33 30 34 89 35 31 36
REMARK SMILES IDX 32 37 33 38 83 39 34 40 88 41 82 42 84 43 35 44 87 45 81 46
REMARK SMILES IDX 80 47 36 49 68 50 48 51 67 52 49 53 52 54 66 55 85 56 50 57
REMARK SMILES IDX 51 58 65 60 86 61 53 62 37 63 38 64 46 65 39 66 45 67 47 68
REMARK SMILES IDX 44 69 40 70 41 71 42 72 43 73 69 74 70 75 78 76 71 77 77 78
REMARK SMILES IDX 79 79 76 80 72 81 73 82 74 83 75 84 54 85 55 86 63 87 56 88
REMARK SMILES IDX 62 89 64 90 61 91 57 92 58 93 59 94 60 95
REMARK H PARENT 21 5 6 13 25 29 84 48 52 59
REMARK Flexibility Score: inf
ROOT
ATOM      1  C   UNL A   1      36.675  21.130  24.832  1.00  0.00     0.117 C 
ENDROOT
BRANCH   1   2
ATOM      2  N   UNL A   1      35.744  21.177  25.944  1.00  0.00    -0.356 N 
ATOM      3  C   UNL A   1      34.409  20.961  26.006  1.00  0.00     0.224 C 
ATOM      4  O   UNL A   1      33.884  20.956  27.125  1.00  0.00    -0.275 OA
ATOM      5  H   UNL A   1      36.157  21.407  26.807  1.00  0.00     0.163 HD
BRANCH   3   6
ATOM      6  C   UNL A   1      33.539  20.749  24.775  1.00  0.00     0.097 C 
BRANCH   6   7
ATOM      7  C   UNL A   1      33.157  19.278  24.551  1.00  0.00     0.015 C 
BRANCH   7   8
ATOM      8  C   UNL A   1      34.334  18.308  24.410  1.00  0.00    -0.003 C 
ATOM      9  C   UNL A   1      34.076  17.143  23.465  1.00  0.00     0.004 C 
ENDBRANCH   7   8
ENDBRANCH   6   7
BRANCH   6  10
ATOM     10  C   UNL A   1      32.459  21.826  24.589  1.00  0.00     0.131 C 
BRANCH  10  11
ATOM     11  N   UNL A   1      31.767  22.307  25.774  1.00  0.00    -0.337 N 
ATOM     12  C   UNL A   1      31.622  23.587  26.217  1.00  0.00     0.317 C 
ATOM     13  H   UNL A   1      31.347  21.614  26.331  1.00  0.00     0.165 HD
ATOM     14  O   UNL A   1      31.341  23.781  27.398  1.00  0.00    -0.249 OA
BRANCH  12  15
ATOM     15  N   UNL A   1      31.903  24.598  25.353  1.00  0.00    -0.324 N 
ATOM     16  C   UNL A   1      31.000  25.688  25.070  1.00  0.00     0.125 C 
ATOM     17  C   UNL A   1      33.259  25.045  25.106  1.00  0.00     0.137 C 
ATOM     18  C   UNL A   1      31.607  26.322  23.825  1.00  0.00     0.021 C 
ATOM     19  C   UNL A   1      33.125  26.022  23.936  1.00  0.00     0.123 C 
ATOM     20  C   UNL A   1      31.294  27.807  23.730  1.00  0.00     0.010 C 
BRANCH  19  21
ATOM     21  C   UNL A   1      33.644  25.499  22.609  1.00  0.00     0.310 C 
ATOM     22  O   UNL A   1      33.664  26.195  21.598  1.00  0.00    -0.252 OA
BRANCH  21  23
ATOM     23  O   UNL A   1      34.015  24.196  22.652  1.00  0.00    -0.469 OA
ATOM     24  C   UNL A   1      33.348  23.356  21.706  1.00  0.00     0.282 C 
ENDBRANCH  21  23
ENDBRANCH  19  21
ENDBRANCH  12  15
ENDBRANCH  10  11
ENDBRANCH   6  10
ENDBRANCH   3   6
ENDBRANCH   1   2
BRANCH   1  25
ATOM     25  C   UNL A   1      37.731  20.053  24.999  1.00  0.00     0.042 C 
BRANCH  25  26
ATOM     26  C   UNL A   1      38.963  20.551  25.742  1.00  0.00     0.118 C 
BRANCH  26  27
ATOM     27  N   UNL A   1      39.962  19.506  25.947  1.00  0.00    -0.352 N 
ATOM     28  C   UNL A   1      41.315  19.594  26.182  1.00  0.00     0.251 C 
ATOM     29  H   UNL A   1      39.610  18.588  25.910  1.00  0.00     0.163 HD
ATOM     30  O   UNL A   1      42.005  18.586  26.149  1.00  0.00    -0.269 OA
BRANCH  28  31
ATOM     31  C   UNL A   1      41.933  20.913  26.436  1.00  0.00     0.039 A 
ATOM     32  C   UNL A   1      42.281  21.721  25.352  1.00  0.00     0.014 A 
ATOM     33  C   UNL A   1      42.140  21.361  27.741  1.00  0.00     0.014 A 
ATOM     34  C   UNL A   1      42.735  23.022  25.581  1.00  0.00     0.010 A 
ATOM     35  C   UNL A   1      42.489  22.687  27.965  1.00  0.00     0.010 A 
ATOM     36  C   UNL A   1      42.780  23.536  26.888  1.00  0.00    -0.014 A 
BRANCH  36  37
ATOM     37  C   UNL A   1      43.101  24.962  27.154  1.00  0.00     0.031 A 
ATOM     38  C   UNL A   1      44.473  25.497  26.857  1.00  0.00     0.074 A 
ATOM     39  C   UNL A   1      42.181  25.748  27.747  1.00  0.00     0.049 A 
ATOM     40  N   UNL A   1      44.977  26.677  27.113  1.00  0.00    -0.248 NA
ATOM     41  C   UNL A   1      45.415  24.565  26.222  1.00  0.00     0.031 C 
ATOM     42  C   UNL A   1      40.827  25.331  28.123  1.00  0.00     0.029 A 
ATOM     43  N   UNL A   1      42.245  27.059  28.149  1.00  0.00    -0.354 N 
ATOM     44  C   UNL A   1      46.298  26.627  26.682  1.00  0.00     0.074 A 
ATOM     45  C   UNL A   1      46.534  25.273  26.223  1.00  0.00     0.031 C 
ATOM     46  C   UNL A   1      40.178  26.374  28.661  1.00  0.00     0.029 A 
ATOM     47  C   UNL A   1      41.083  27.516  28.727  1.00  0.00     0.049 A 
ATOM     48  H   UNL A   1      43.046  27.618  28.035  1.00  0.00     0.167 HD
ATOM     49  C   UNL A   1      47.219  27.622  26.646  1.00  0.00     0.034 A 
ATOM     50  C   UNL A   1      40.786  28.715  29.265  1.00  0.00     0.034 A 
ATOM     51  C   UNL A   1      46.961  28.963  27.112  1.00  0.00     0.049 A 
ATOM     52  C   UNL A   1      41.842  29.788  29.278  1.00  0.00     0.074 A 
ATOM     53  C   UNL A   1      47.795  30.067  27.069  1.00  0.00     0.029 A 
ATOM     54  N   UNL A   1      45.785  29.380  27.725  1.00  0.00    -0.354 N 
ATOM     55  N   UNL A   1      43.070  29.744  28.813  1.00  0.00    -0.248 NA
ATOM     56  C   UNL A   1      41.472  31.070  29.888  1.00  0.00     0.031 C 
ATOM     57  C   UNL A   1      47.157  31.124  27.729  1.00  0.00     0.029 A 
ATOM     58  C   UNL A   1      45.891  30.709  28.110  1.00  0.00     0.049 A 
ATOM     59  H   UNL A   1      44.993  28.814  27.868  1.00  0.00     0.167 HD
ATOM     60  C   UNL A   1      43.613  31.002  29.057  1.00  0.00     0.074 A 
ATOM     61  C   UNL A   1      42.572  31.785  29.695  1.00  0.00     0.031 C 
ATOM     62  C   UNL A   1      44.856  31.469  28.775  1.00  0.00     0.034 A 
BRANCH  49  63
ATOM     63  C   UNL A   1      48.590  27.272  26.112  1.00  0.00     0.023 A 
ATOM     64  C   UNL A   1      49.645  26.914  26.971  1.00  0.00     0.031 A 
ATOM     65  C   UNL A   1      48.868  27.360  24.737  1.00  0.00     0.131 A 
ATOM     66  C   UNL A   1      50.945  26.767  26.464  1.00  0.00     0.055 A 
ATOM     67  C   UNL A   1      50.145  27.113  24.226  1.00  0.00     0.041 A 
ATOM     68  F   UNL A   1      47.911  27.716  23.866  1.00  0.00    -0.206 F 
ATOM     69  C   UNL A   1      51.198  26.837  25.093  1.00  0.00     0.022 A 
BRANCH  66  70
ATOM     70  S   UNL A   1      52.324  26.682  27.640  1.00  0.00     0.124 S 
ATOM     71  O   UNL A   1      52.887  28.026  27.530  1.00  0.00    -0.237 OA
ATOM     72  O   UNL A   1      51.649  26.374  28.895  1.00  0.00    -0.237 OA
ATOM     73  O   UNL A   1      53.167  25.617  27.104  1.00  0.00    -0.744 OA
ENDBRANCH  66  70
ENDBRANCH  49  63
BRANCH  50  74
ATOM     74  C   UNL A   1      39.432  28.964  29.838  1.00  0.00     0.023 A 
ATOM     75  C   UNL A   1      38.440  29.602  29.079  1.00  0.00     0.031 A 
ATOM     76  C   UNL A   1      39.113  28.575  31.151  1.00  0.00     0.131 A 
ATOM     77  C   UNL A   1      37.183  29.860  29.648  1.00  0.00     0.055 A 
ATOM     78  C   UNL A   1      37.846  28.790  31.696  1.00  0.00     0.041 A 
ATOM     79  F   UNL A   1      40.025  27.957  31.917  1.00  0.00    -0.206 F 
ATOM     80  C   UNL A   1      36.874  29.444  30.945  1.00  0.00     0.022 A 
BRANCH  77  81
ATOM     81  S   UNL A   1      35.970  30.801  28.683  1.00  0.00     0.124 S 
ATOM     82  O   UNL A   1      36.826  31.729  27.952  1.00  0.00    -0.237 OA
ATOM     83  O   UNL A   1      35.333  29.755  27.891  1.00  0.00    -0.237 OA
ATOM     84  O   UNL A   1      35.120  31.409  29.705  1.00  0.00    -0.744 OA
ENDBRANCH  77  81
ENDBRANCH  50  74
BRANCH  62  85
ATOM     85  C   UNL A   1      45.145  32.906  29.137  1.00  0.00     0.023 A 
ATOM     86  C   UNL A   1      45.729  33.251  30.369  1.00  0.00     0.031 A 
ATOM     87  C   UNL A   1      44.830  33.942  28.241  1.00  0.00     0.131 A 
ATOM     88  C   UNL A   1      45.933  34.602  30.690  1.00  0.00     0.055 A 
ATOM     89  C   UNL A   1      45.094  35.279  28.541  1.00  0.00     0.041 A 
ATOM     90  F   UNL A   1      44.266  33.670  27.053  1.00  0.00    -0.206 F 
ATOM     91  C   UNL A   1      45.637  35.616  29.777  1.00  0.00     0.022 A 
BRANCH  88  92
ATOM     92  S   UNL A   1      46.512  35.023  32.357  1.00  0.00     0.124 S 
ATOM     93  O   UNL A   1      45.888  33.981  33.167  1.00  0.00    -0.237 OA
ATOM     94  O   UNL A   1      47.962  34.939  32.217  1.00  0.00    -0.237 OA
ATOM     95  O   UNL A   1      45.989  36.371  32.572  1.00  0.00    -0.744 OA
ENDBRANCH  88  92
ENDBRANCH  62  85
ENDBRANCH  36  37
ENDBRANCH  28  31
ENDBRANCH  26  27
ENDBRANCH  25  26
ENDBRANCH   1  25
TORSDOF 20
ENDMDL
