MODEL 1
REMARK VINA RESULT:     -12.2      0.000      0.000
REMARK SMILES CC(C)c1ccc(NC(=O)C[C@H]2SC[C@@H](C(=O)NCCCNC(=O)c3ccc(-c4c5nc(c(-c6cc(S(=O)(=O)[O-])ccc6F)c6ccc([nH]6)c(-c6cc(S(=O)(=O)[O-])ccc6F)c6nc(c(-c7cc(S(=O)(=O)[O-])ccc7F)c7ccc4[nH]7)C=C6)C=C5)cc3)NC2=O)cc1
REMARK SMILES IDX 19 1 18 2 16 3 17 4 15 6 12 7 13 8 89 9 14 10 88 11 90 12
REMARK SMILES IDX 11 14 9 15 8 16 10 18 7 19 4 20 5 21 92 22 6 23 91 24 2 25
REMARK SMILES IDX 1 26 3 27 20 28 21 29 22 30 23 31 24 33 25 34 26 35 87 36
REMARK SMILES IDX 27 37 86 38 28 39 29 40 30 41 80 42 31 43 85 44 79 45 81 46
REMARK SMILES IDX 32 47 84 48 78 49 77 50 33 52 65 53 45 54 64 55 46 56 49 57
REMARK SMILES IDX 63 58 82 59 47 60 48 61 62 63 83 64 50 65 34 66 35 67 43 68
REMARK SMILES IDX 36 69 42 70 44 71 41 72 37 73 38 74 39 75 40 76 66 77 67 78
REMARK SMILES IDX 75 79 68 80 74 81 76 82 73 83 69 84 70 85 71 86 72 87 51 88
REMARK SMILES IDX 52 89 60 90 53 91 59 92 61 93 58 94 54 95 55 96 56 97 57 98
REMARK H PARENT 18 5 88 13 8 17 22 32 81 51 49 62
REMARK Flexibility Score: inf
ROOT
ATOM      1  C   UNL A   1      37.367  21.650  24.450  1.00  0.00     0.117 C 
ENDROOT
BRANCH   1   2
ATOM      2  N   UNL A   1      35.932  21.519  24.298  1.00  0.00    -0.354 N 
ATOM      3  C   UNL A   1      34.967  21.577  25.267  1.00  0.00     0.243 C 
ATOM      4  O   UNL A   1      33.895  21.023  25.030  1.00  0.00    -0.273 OA
ATOM      5  H   UNL A   1      35.611  21.368  23.380  1.00  0.00     0.163 HD
BRANCH   3   6
ATOM      6  C   UNL A   1      35.179  22.545  26.449  1.00  0.00     0.181 C 
ATOM      7  C   UNL A   1      32.938  24.619  26.194  1.00  0.00     0.145 C 
ATOM      8  S   UNL A   1      32.475  23.080  27.098  1.00  0.00    -0.145 SA
ATOM      9  C   UNL A   1      34.147  24.436  25.267  1.00  0.00     0.234 C 
ATOM     10  C   UNL A   1      34.122  22.454  27.540  1.00  0.00     0.105 C 
ATOM     11  N   UNL A   1      35.268  23.845  25.798  1.00  0.00    -0.343 N 
ATOM     12  O   UNL A   1      34.256  24.893  24.133  1.00  0.00    -0.274 OA
ATOM     13  H   UNL A   1      36.138  24.303  25.737  1.00  0.00     0.164 HD
BRANCH   7  14
ATOM     14  C   UNL A   1      31.651  25.209  25.597  1.00  0.00     0.124 C 
BRANCH  14  15
ATOM     15  C   UNL A   1      30.960  24.524  24.435  1.00  0.00     0.226 C 
ATOM     16  N   UNL A   1      30.263  25.181  23.471  1.00  0.00    -0.326 N 
ATOM     17  H   UNL A   1      29.897  24.589  22.775  1.00  0.00     0.169 HD
ATOM     18  O   UNL A   1      31.000  23.290  24.349  1.00  0.00    -0.275 OA
BRANCH  16  19
ATOM     19  C   UNL A   1      29.962  26.532  23.274  1.00  0.00     0.041 A 
ATOM     20  C   UNL A   1      29.104  29.169  22.778  1.00  0.00    -0.045 A 
ATOM     21  C   UNL A   1      30.415  28.769  22.480  1.00  0.00     0.006 A 
ATOM     22  C   UNL A   1      28.246  28.244  23.381  1.00  0.00     0.006 A 
ATOM     23  C   UNL A   1      30.843  27.463  22.735  1.00  0.00     0.026 A 
ATOM     24  C   UNL A   1      28.676  26.942  23.637  1.00  0.00     0.026 A 
BRANCH  20  25
ATOM     25  C   UNL A   1      28.661  30.588  22.480  1.00  0.00     0.013 C 
ATOM     26  C   UNL A   1      28.091  30.741  21.066  1.00  0.00     0.012 C 
ATOM     27  C   UNL A   1      27.654  31.062  23.529  1.00  0.00     0.012 C 
ENDBRANCH  20  25
ENDBRANCH  16  19
ENDBRANCH  14  15
ENDBRANCH   7  14
ENDBRANCH   3   6
ENDBRANCH   1   2
BRANCH   1  28
ATOM     28  C   UNL A   1      37.953  20.361  25.017  1.00  0.00     0.042 C 
BRANCH  28  29
ATOM     29  C   UNL A   1      39.051  20.600  26.053  1.00  0.00     0.118 C 
BRANCH  29  30
ATOM     30  N   UNL A   1      40.060  19.550  26.039  1.00  0.00    -0.352 N 
ATOM     31  C   UNL A   1      41.426  19.656  26.072  1.00  0.00     0.251 C 
ATOM     32  H   UNL A   1      39.709  18.631  26.001  1.00  0.00     0.163 HD
ATOM     33  O   UNL A   1      42.113  18.663  25.824  1.00  0.00    -0.269 OA
BRANCH  31  34
ATOM     34  C   UNL A   1      42.065  20.951  26.374  1.00  0.00     0.039 A 
ATOM     35  C   UNL A   1      42.364  21.820  25.322  1.00  0.00     0.014 A 
ATOM     36  C   UNL A   1      42.376  21.308  27.690  1.00  0.00     0.014 A 
ATOM     37  C   UNL A   1      42.911  23.076  25.596  1.00  0.00     0.010 A 
ATOM     38  C   UNL A   1      42.855  22.586  27.967  1.00  0.00     0.010 A 
ATOM     39  C   UNL A   1      43.125  23.483  26.923  1.00  0.00    -0.014 A 
BRANCH  39  40
ATOM     40  C   UNL A   1      43.630  24.845  27.240  1.00  0.00     0.031 A 
ATOM     41  C   UNL A   1      42.688  25.893  27.769  1.00  0.00     0.074 A 
ATOM     42  C   UNL A   1      44.917  25.154  26.987  1.00  0.00     0.049 A 
ATOM     43  N   UNL A   1      42.911  27.159  28.011  1.00  0.00    -0.248 NA
ATOM     44  C   UNL A   1      41.308  25.463  28.037  1.00  0.00     0.031 C 
ATOM     45  C   UNL A   1      45.918  24.231  26.446  1.00  0.00     0.029 A 
ATOM     46  N   UNL A   1      45.605  26.332  27.141  1.00  0.00    -0.354 N 
ATOM     47  C   UNL A   1      41.698  27.681  28.448  1.00  0.00     0.074 A 
ATOM     48  C   UNL A   1      40.732  26.604  28.382  1.00  0.00     0.031 C 
ATOM     49  C   UNL A   1      47.092  24.871  26.332  1.00  0.00     0.029 A 
ATOM     50  C   UNL A   1      46.920  26.261  26.743  1.00  0.00     0.049 A 
ATOM     51  H   UNL A   1      45.195  27.151  27.503  1.00  0.00     0.167 HD
ATOM     52  C   UNL A   1      41.422  28.936  28.885  1.00  0.00     0.034 A 
ATOM     53  C   UNL A   1      47.874  27.212  26.696  1.00  0.00     0.034 A 
ATOM     54  C   UNL A   1      42.399  29.995  28.954  1.00  0.00     0.049 A 
ATOM     55  C   UNL A   1      47.532  28.609  27.152  1.00  0.00     0.074 A 
ATOM     56  C   UNL A   1      42.237  31.288  29.420  1.00  0.00     0.029 A 
ATOM     57  N   UNL A   1      43.721  29.887  28.538  1.00  0.00    -0.354 N 
ATOM     58  N   UNL A   1      46.389  29.076  27.599  1.00  0.00    -0.248 NA
ATOM     59  C   UNL A   1      48.611  29.604  27.104  1.00  0.00     0.031 C 
ATOM     60  C   UNL A   1      43.439  31.979  29.229  1.00  0.00     0.029 A 
ATOM     61  C   UNL A   1      44.375  31.097  28.711  1.00  0.00     0.049 A 
ATOM     62  H   UNL A   1      44.132  29.071  28.174  1.00  0.00     0.167 HD
ATOM     63  C   UNL A   1      46.623  30.411  27.915  1.00  0.00     0.074 A 
ATOM     64  C   UNL A   1      48.019  30.668  27.622  1.00  0.00     0.031 C 
ATOM     65  C   UNL A   1      45.765  31.341  28.405  1.00  0.00     0.034 A 
BRANCH  52  66
ATOM     66  C   UNL A   1      40.000  29.229  29.300  1.00  0.00     0.023 A 
ATOM     67  C   UNL A   1      39.623  29.286  30.653  1.00  0.00     0.031 A 
ATOM     68  C   UNL A   1      39.003  29.437  28.331  1.00  0.00     0.131 A 
ATOM     69  C   UNL A   1      38.276  29.472  30.998  1.00  0.00     0.055 A 
ATOM     70  C   UNL A   1      37.678  29.701  28.682  1.00  0.00     0.041 A 
ATOM     71  F   UNL A   1      39.297  29.375  27.022  1.00  0.00    -0.206 F 
ATOM     72  C   UNL A   1      37.305  29.705  30.023  1.00  0.00     0.022 A 
BRANCH  69  73
ATOM     73  S   UNL A   1      37.792  29.270  32.734  1.00  0.00     0.124 S 
ATOM     74  O   UNL A   1      36.512  29.972  32.768  1.00  0.00    -0.237 OA
ATOM     75  O   UNL A   1      37.730  27.820  32.879  1.00  0.00    -0.237 OA
ATOM     76  O   UNL A   1      38.874  29.924  33.469  1.00  0.00    -0.744 OA
ENDBRANCH  69  73
ENDBRANCH  52  66
BRANCH  53  77
ATOM     77  C   UNL A   1      49.239  26.895  26.185  1.00  0.00     0.023 A 
ATOM     78  C   UNL A   1      49.661  27.347  24.925  1.00  0.00     0.031 A 
ATOM     79  C   UNL A   1      50.122  26.088  26.926  1.00  0.00     0.131 A 
ATOM     80  C   UNL A   1      50.907  26.948  24.420  1.00  0.00     0.055 A 
ATOM     81  C   UNL A   1      51.385  25.740  26.442  1.00  0.00     0.041 A 
ATOM     82  F   UNL A   1      49.772  25.634  28.140  1.00  0.00    -0.206 F 
ATOM     83  C   UNL A   1      51.777  26.157  25.175  1.00  0.00     0.022 A 
BRANCH  80  84
ATOM     84  S   UNL A   1      51.336  27.398  22.716  1.00  0.00     0.124 S 
ATOM     85  O   UNL A   1      52.617  26.720  22.544  1.00  0.00    -0.237 OA
ATOM     86  O   UNL A   1      50.212  26.848  21.967  1.00  0.00    -0.237 OA
ATOM     87  O   UNL A   1      51.403  28.857  22.756  1.00  0.00    -0.744 OA
ENDBRANCH  80  84
ENDBRANCH  53  77
BRANCH  65  88
ATOM     88  C   UNL A   1      46.333  32.709  28.696  1.00  0.00     0.023 A 
ATOM     89  C   UNL A   1      46.285  33.747  27.750  1.00  0.00     0.031 A 
ATOM     90  C   UNL A   1      46.947  32.969  29.934  1.00  0.00     0.131 A 
ATOM     91  C   UNL A   1      46.892  34.979  28.033  1.00  0.00     0.055 A 
ATOM     92  C   UNL A   1      47.494  34.217  30.234  1.00  0.00     0.041 A 
ATOM     93  F   UNL A   1      47.023  32.014  30.875  1.00  0.00    -0.206 F 
ATOM     94  C   UNL A   1      47.482  35.227  29.276  1.00  0.00     0.022 A 
BRANCH  91  95
ATOM     95  S   UNL A   1      46.983  36.228  26.720  1.00  0.00     0.124 S 
ATOM     96  O   UNL A   1      48.413  36.510  26.669  1.00  0.00    -0.237 OA
ATOM     97  O   UNL A   1      46.433  35.514  25.573  1.00  0.00    -0.237 OA
ATOM     98  O   UNL A   1      46.152  37.319  27.227  1.00  0.00    -0.744 OA
ENDBRANCH  91  95
ENDBRANCH  65  88
ENDBRANCH  39  40
ENDBRANCH  31  34
ENDBRANCH  29  30
ENDBRANCH  28  29
ENDBRANCH   1  28
TORSDOF 17
ENDMDL
MODEL 2
REMARK VINA RESULT:     -12.2      5.211      8.828
REMARK SMILES CC(C)c1ccc(NC(=O)C[C@H]2SC[C@@H](C(=O)NCCCNC(=O)c3ccc(-c4c5nc(c(-c6cc(S(=O)(=O)[O-])ccc6F)c6ccc([nH]6)c(-c6cc(S(=O)(=O)[O-])ccc6F)c6nc(c(-c7cc(S(=O)(=O)[O-])ccc7F)c7ccc4[nH]7)C=C6)C=C5)cc3)NC2=O)cc1
REMARK SMILES IDX 19 1 18 2 16 3 17 4 15 6 12 7 13 8 89 9 14 10 88 11 90 12
REMARK SMILES IDX 11 14 9 15 8 16 10 18 7 19 4 20 5 21 92 22 6 23 91 24 2 25
REMARK SMILES IDX 1 26 3 27 20 28 21 29 22 30 23 31 24 33 25 34 26 35 87 36
REMARK SMILES IDX 27 37 86 38 28 39 29 40 30 41 80 42 31 43 85 44 79 45 81 46
REMARK SMILES IDX 32 47 84 48 78 49 77 50 33 52 65 53 45 54 64 55 46 56 49 57
REMARK SMILES IDX 63 58 82 59 47 60 48 61 62 63 83 64 50 65 34 66 35 67 43 68
REMARK SMILES IDX 36 69 42 70 44 71 41 72 37 73 38 74 39 75 40 76 66 77 67 78
REMARK SMILES IDX 75 79 68 80 74 81 76 82 73 83 69 84 70 85 71 86 72 87 51 88
REMARK SMILES IDX 52 89 60 90 53 91 59 92 61 93 58 94 54 95 55 96 56 97 57 98
REMARK H PARENT 18 5 88 13 8 17 22 32 81 51 49 62
REMARK Flexibility Score: inf
ROOT
ATOM      1  C   UNL A   1      32.705  28.475  24.214  1.00  0.00     0.117 C 
ENDROOT
BRANCH   1   2
ATOM      2  N   UNL A   1      33.519  27.602  23.390  1.00  0.00    -0.354 N 
ATOM      3  C   UNL A   1      33.181  26.395  22.842  1.00  0.00     0.243 C 
ATOM      4  O   UNL A   1      34.099  25.626  22.563  1.00  0.00    -0.273 OA
ATOM      5  H   UNL A   1      34.431  27.920  23.203  1.00  0.00     0.163 HD
BRANCH   3   6
ATOM      6  C   UNL A   1      31.730  26.193  22.362  1.00  0.00     0.181 C 
ATOM      7  C   UNL A   1      30.645  23.877  24.049  1.00  0.00     0.145 C 
ATOM      8  S   UNL A   1      30.512  25.540  24.835  1.00  0.00    -0.145 SA
ATOM      9  C   UNL A   1      31.717  23.809  22.954  1.00  0.00     0.234 C 
ATOM     10  C   UNL A   1      30.666  26.604  23.370  1.00  0.00     0.105 C 
ATOM     11  N   UNL A   1      31.699  24.786  21.988  1.00  0.00    -0.343 N 
ATOM     12  O   UNL A   1      32.506  22.884  22.780  1.00  0.00    -0.274 OA
ATOM     13  H   UNL A   1      31.666  24.533  21.037  1.00  0.00     0.164 HD
BRANCH   7  14
ATOM     14  C   UNL A   1      30.696  22.836  25.179  1.00  0.00     0.124 C 
BRANCH  14  15
ATOM     15  C   UNL A   1      30.836  23.276  26.622  1.00  0.00     0.226 C 
ATOM     16  N   UNL A   1      32.027  23.470  27.245  1.00  0.00    -0.326 N 
ATOM     17  H   UNL A   1      31.941  23.779  28.176  1.00  0.00     0.169 HD
ATOM     18  O   UNL A   1      29.817  23.454  27.302  1.00  0.00    -0.275 OA
BRANCH  16  19
ATOM     19  C   UNL A   1      33.352  23.317  26.826  1.00  0.00     0.041 A 
ATOM     20  C   UNL A   1      35.943  23.126  25.737  1.00  0.00    -0.045 A 
ATOM     21  C   UNL A   1      35.402  22.081  26.500  1.00  0.00     0.006 A 
ATOM     22  C   UNL A   1      35.188  24.292  25.575  1.00  0.00     0.006 A 
ATOM     23  C   UNL A   1      34.120  22.180  27.048  1.00  0.00     0.026 A 
ATOM     24  C   UNL A   1      33.910  24.390  26.126  1.00  0.00     0.026 A 
BRANCH  20  25
ATOM     25  C   UNL A   1      37.331  22.987  25.143  1.00  0.00     0.013 C 
ATOM     26  C   UNL A   1      38.422  23.540  26.067  1.00  0.00     0.012 C 
ATOM     27  C   UNL A   1      37.610  21.528  24.779  1.00  0.00     0.012 C 
ENDBRANCH  20  25
ENDBRANCH  16  19
ENDBRANCH  14  15
ENDBRANCH   7  14
ENDBRANCH   3   6
ENDBRANCH   1   2
BRANCH   1  28
ATOM     28  C   UNL A   1      32.995  28.221  25.690  1.00  0.00     0.042 C 
BRANCH  28  29
ATOM     29  C   UNL A   1      34.244  28.945  26.192  1.00  0.00     0.118 C 
BRANCH  29  30
ATOM     30  N   UNL A   1      33.945  30.285  26.681  1.00  0.00    -0.352 N 
ATOM     31  C   UNL A   1      34.537  30.994  27.693  1.00  0.00     0.251 C 
ATOM     32  H   UNL A   1      33.210  30.747  26.216  1.00  0.00     0.163 HD
ATOM     33  O   UNL A   1      33.995  32.021  28.106  1.00  0.00    -0.269 OA
BRANCH  31  34
ATOM     34  C   UNL A   1      35.795  30.516  28.299  1.00  0.00     0.039 A 
ATOM     35  C   UNL A   1      35.735  29.700  29.431  1.00  0.00     0.014 A 
ATOM     36  C   UNL A   1      37.034  30.875  27.757  1.00  0.00     0.014 A 
ATOM     37  C   UNL A   1      36.914  29.189  29.979  1.00  0.00     0.010 A 
ATOM     38  C   UNL A   1      38.201  30.309  28.261  1.00  0.00     0.010 A 
ATOM     39  C   UNL A   1      38.153  29.458  29.375  1.00  0.00    -0.014 A 
BRANCH  39  40
ATOM     40  C   UNL A   1      39.410  28.857  29.894  1.00  0.00     0.031 A 
ATOM     41  C   UNL A   1      40.093  29.456  31.094  1.00  0.00     0.074 A 
ATOM     42  C   UNL A   1      39.968  27.817  29.244  1.00  0.00     0.049 A 
ATOM     43  N   UNL A   1      41.241  29.141  31.635  1.00  0.00    -0.248 NA
ATOM     44  C   UNL A   1      39.402  30.573  31.755  1.00  0.00     0.031 C 
ATOM     45  C   UNL A   1      39.415  27.170  28.051  1.00  0.00     0.029 A 
ATOM     46  N   UNL A   1      41.129  27.125  29.484  1.00  0.00    -0.354 N 
ATOM     47  C   UNL A   1      41.418  30.027  32.693  1.00  0.00     0.074 A 
ATOM     48  C   UNL A   1      40.283  30.927  32.678  1.00  0.00     0.031 C 
ATOM     49  C   UNL A   1      40.225  26.167  27.678  1.00  0.00     0.029 A 
ATOM     50  C   UNL A   1      41.380  26.129  28.570  1.00  0.00     0.049 A 
ATOM     51  H   UNL A   1      41.727  27.325  30.241  1.00  0.00     0.167 HD
ATOM     52  C   UNL A   1      42.421  30.071  33.605  1.00  0.00     0.034 A 
ATOM     53  C   UNL A   1      42.428  25.290  28.452  1.00  0.00     0.034 A 
ATOM     54  C   UNL A   1      43.540  29.160  33.611  1.00  0.00     0.049 A 
ATOM     55  C   UNL A   1      43.550  25.384  29.457  1.00  0.00     0.074 A 
ATOM     56  C   UNL A   1      44.588  29.088  34.513  1.00  0.00     0.029 A 
ATOM     57  N   UNL A   1      43.762  28.164  32.667  1.00  0.00    -0.354 N 
ATOM     58  N   UNL A   1      43.683  26.203  30.475  1.00  0.00    -0.248 NA
ATOM     59  C   UNL A   1      44.660  24.434  29.301  1.00  0.00     0.031 C 
ATOM     60  C   UNL A   1      45.474  28.095  34.080  1.00  0.00     0.029 A 
ATOM     61  C   UNL A   1      44.943  27.495  32.950  1.00  0.00     0.049 A 
ATOM     62  H   UNL A   1      43.168  27.965  31.909  1.00  0.00     0.167 HD
ATOM     63  C   UNL A   1      44.875  25.845  31.097  1.00  0.00     0.074 A 
ATOM     64  C   UNL A   1      45.413  24.726  30.350  1.00  0.00     0.031 C 
ATOM     65  C   UNL A   1      45.471  26.387  32.188  1.00  0.00     0.034 A 
BRANCH  52  66
ATOM     66  C   UNL A   1      42.359  31.155  34.653  1.00  0.00     0.023 A 
ATOM     67  C   UNL A   1      42.931  32.422  34.440  1.00  0.00     0.031 A 
ATOM     68  C   UNL A   1      41.737  30.916  35.891  1.00  0.00     0.131 A 
ATOM     69  C   UNL A   1      42.933  33.373  35.471  1.00  0.00     0.055 A 
ATOM     70  C   UNL A   1      41.672  31.894  36.885  1.00  0.00     0.041 A 
ATOM     71  F   UNL A   1      41.190  29.719  36.162  1.00  0.00    -0.206 F 
ATOM     72  C   UNL A   1      42.285  33.128  36.683  1.00  0.00     0.022 A 
BRANCH  69  73
ATOM     73  S   UNL A   1      43.911  34.884  35.252  1.00  0.00     0.124 S 
ATOM     74  O   UNL A   1      42.989  35.906  35.744  1.00  0.00    -0.237 OA
ATOM     75  O   UNL A   1      45.082  34.627  36.082  1.00  0.00    -0.237 OA
ATOM     76  O   UNL A   1      44.163  34.923  33.813  1.00  0.00    -0.744 OA
ENDBRANCH  69  73
ENDBRANCH  52  66
BRANCH  53  77
ATOM     77  C   UNL A   1      42.489  24.300  27.339  1.00  0.00     0.023 A 
ATOM     78  C   UNL A   1      41.900  23.033  27.468  1.00  0.00     0.031 A 
ATOM     79  C   UNL A   1      43.185  24.587  26.150  1.00  0.00     0.131 A 
ATOM     80  C   UNL A   1      42.061  22.080  26.451  1.00  0.00     0.055 A 
ATOM     81  C   UNL A   1      43.295  23.654  25.117  1.00  0.00     0.041 A 
ATOM     82  F   UNL A   1      43.761  25.786  25.972  1.00  0.00    -0.206 F 
ATOM     83  C   UNL A   1      42.745  22.386  25.271  1.00  0.00     0.022 A 
BRANCH  80  84
ATOM     84  S   UNL A   1      41.446  20.397  26.734  1.00  0.00     0.124 S 
ATOM     85  O   UNL A   1      42.327  19.935  27.801  1.00  0.00    -0.237 OA
ATOM     86  O   UNL A   1      40.058  20.643  27.107  1.00  0.00    -0.237 OA
ATOM     87  O   UNL A   1      41.636  19.744  25.440  1.00  0.00    -0.744 OA
ENDBRANCH  80  84
ENDBRANCH  53  77
BRANCH  65  88
ATOM     88  C   UNL A   1      46.751  25.741  32.660  1.00  0.00     0.023 A 
ATOM     89  C   UNL A   1      46.757  24.758  33.666  1.00  0.00     0.031 A 
ATOM     90  C   UNL A   1      47.984  26.128  32.106  1.00  0.00     0.131 A 
ATOM     91  C   UNL A   1      47.975  24.238  34.128  1.00  0.00     0.055 A 
ATOM     92  C   UNL A   1      49.188  25.562  32.526  1.00  0.00     0.041 A 
ATOM     93  F   UNL A   1      48.038  27.063  31.144  1.00  0.00    -0.206 F 
ATOM     94  C   UNL A   1      49.190  24.622  33.553  1.00  0.00     0.022 A 
BRANCH  91  95
ATOM     95  S   UNL A   1      47.960  23.121  35.556  1.00  0.00     0.124 S 
ATOM     96  O   UNL A   1      48.719  23.880  36.544  1.00  0.00    -0.237 OA
ATOM     97  O   UNL A   1      46.533  22.975  35.823  1.00  0.00    -0.237 OA
ATOM     98  O   UNL A   1      48.621  21.916  35.056  1.00  0.00    -0.744 OA
ENDBRANCH  91  95
ENDBRANCH  65  88
ENDBRANCH  39  40
ENDBRANCH  31  34
ENDBRANCH  29  30
ENDBRANCH  28  29
ENDBRANCH   1  28
TORSDOF 17
ENDMDL
MODEL 3
REMARK VINA RESULT:     -12.1      4.922      8.461
REMARK SMILES CC(C)c1ccc(NC(=O)C[C@H]2SC[C@@H](C(=O)NCCCNC(=O)c3ccc(-c4c5nc(c(-c6cc(S(=O)(=O)[O-])ccc6F)c6ccc([nH]6)c(-c6cc(S(=O)(=O)[O-])ccc6F)c6nc(c(-c7cc(S(=O)(=O)[O-])ccc7F)c7ccc4[nH]7)C=C6)C=C5)cc3)NC2=O)cc1
REMARK SMILES IDX 19 1 18 2 16 3 17 4 15 6 12 7 13 8 89 9 14 10 88 11 90 12
REMARK SMILES IDX 11 14 9 15 8 16 10 18 7 19 4 20 5 21 92 22 6 23 91 24 2 25
REMARK SMILES IDX 1 26 3 27 20 28 21 29 22 30 23 31 24 33 25 34 26 35 87 36
REMARK SMILES IDX 27 37 86 38 28 39 29 40 30 41 80 42 31 43 85 44 79 45 81 46
REMARK SMILES IDX 32 47 84 48 78 49 77 50 33 52 65 53 45 54 64 55 46 56 49 57
REMARK SMILES IDX 63 58 82 59 47 60 48 61 62 63 83 64 50 65 34 66 35 67 43 68
REMARK SMILES IDX 36 69 42 70 44 71 41 72 37 73 38 74 39 75 40 76 66 77 67 78
REMARK SMILES IDX 75 79 68 80 74 81 76 82 73 83 69 84 70 85 71 86 72 87 51 88
REMARK SMILES IDX 52 89 60 90 53 91 59 92 61 93 58 94 54 95 55 96 56 97 57 98
REMARK H PARENT 18 5 88 13 8 17 22 32 81 51 49 62
REMARK Flexibility Score: inf
ROOT
ATOM      1  C   UNL A   1      32.613  28.443  24.220  1.00  0.00     0.117 C 
ENDROOT
BRANCH   1   2
ATOM      2  N   UNL A   1      33.491  27.613  23.420  1.00  0.00    -0.354 N 
ATOM      3  C   UNL A   1      33.218  26.408  22.833  1.00  0.00     0.243 C 
ATOM      4  O   UNL A   1      34.171  25.672  22.584  1.00  0.00    -0.273 OA
ATOM      5  H   UNL A   1      34.401  27.961  23.283  1.00  0.00     0.163 HD
BRANCH   3   6
ATOM      6  C   UNL A   1      31.797  26.173  22.279  1.00  0.00     0.181 C 
ATOM      7  C   UNL A   1      30.638  23.909  23.989  1.00  0.00     0.145 C 
ATOM      8  S   UNL A   1      30.447  25.600  24.702  1.00  0.00    -0.145 SA
ATOM      9  C   UNL A   1      31.772  23.812  22.960  1.00  0.00     0.234 C 
ATOM     10  C   UNL A   1      30.675  26.610  23.210  1.00  0.00     0.105 C 
ATOM     11  N   UNL A   1      31.800  24.752  21.958  1.00  0.00    -0.343 N 
ATOM     12  O   UNL A   1      32.577  22.890  22.865  1.00  0.00    -0.274 OA
ATOM     13  H   UNL A   1      31.823  24.464  21.016  1.00  0.00     0.164 HD
BRANCH   7  14
ATOM     14  C   UNL A   1      30.634  22.912  25.158  1.00  0.00     0.124 C 
BRANCH  14  15
ATOM     15  C   UNL A   1      30.899  23.387  26.573  1.00  0.00     0.226 C 
ATOM     16  N   UNL A   1      32.140  23.605  27.081  1.00  0.00    -0.326 N 
ATOM     17  H   UNL A   1      32.134  23.934  28.009  1.00  0.00     0.169 HD
ATOM     18  O   UNL A   1      29.944  23.572  27.338  1.00  0.00    -0.275 OA
BRANCH  16  19
ATOM     19  C   UNL A   1      33.423  23.453  26.547  1.00  0.00     0.041 A 
ATOM     20  C   UNL A   1      36.072  22.996  25.704  1.00  0.00    -0.045 A 
ATOM     21  C   UNL A   1      35.464  24.248  25.528  1.00  0.00     0.006 A 
ATOM     22  C   UNL A   1      35.313  21.960  26.257  1.00  0.00     0.006 A 
ATOM     23  C   UNL A   1      34.147  24.471  25.939  1.00  0.00     0.026 A 
ATOM     24  C   UNL A   1      33.998  22.184  26.663  1.00  0.00     0.026 A 
BRANCH  20  25
ATOM     25  C   UNL A   1      37.506  22.784  25.261  1.00  0.00     0.013 C 
ATOM     26  C   UNL A   1      38.518  23.393  26.238  1.00  0.00     0.012 C 
ATOM     27  C   UNL A   1      37.781  21.295  25.047  1.00  0.00     0.012 C 
ENDBRANCH  20  25
ENDBRANCH  16  19
ENDBRANCH  14  15
ENDBRANCH   7  14
ENDBRANCH   3   6
ENDBRANCH   1   2
BRANCH   1  28
ATOM     28  C   UNL A   1      32.922  28.256  25.701  1.00  0.00     0.042 C 
BRANCH  28  29
ATOM     29  C   UNL A   1      34.175  29.006  26.156  1.00  0.00     0.118 C 
BRANCH  29  30
ATOM     30  N   UNL A   1      33.875  30.358  26.606  1.00  0.00    -0.352 N 
ATOM     31  C   UNL A   1      34.466  31.096  27.598  1.00  0.00     0.251 C 
ATOM     32  H   UNL A   1      33.140  30.807  26.128  1.00  0.00     0.163 HD
ATOM     33  O   UNL A   1      33.924  32.135  27.980  1.00  0.00    -0.269 OA
BRANCH  31  34
ATOM     34  C   UNL A   1      35.724  30.636  28.218  1.00  0.00     0.039 A 
ATOM     35  C   UNL A   1      35.663  29.760  29.303  1.00  0.00     0.014 A 
ATOM     36  C   UNL A   1      36.962  31.072  27.735  1.00  0.00     0.014 A 
ATOM     37  C   UNL A   1      36.845  29.267  29.861  1.00  0.00     0.010 A 
ATOM     38  C   UNL A   1      38.137  30.525  28.246  1.00  0.00     0.010 A 
ATOM     39  C   UNL A   1      38.090  29.616  29.313  1.00  0.00    -0.014 A 
BRANCH  39  40
ATOM     40  C   UNL A   1      39.354  29.038  29.839  1.00  0.00     0.031 A 
ATOM     41  C   UNL A   1      40.062  29.698  30.991  1.00  0.00     0.074 A 
ATOM     42  C   UNL A   1      39.895  27.960  29.236  1.00  0.00     0.049 A 
ATOM     43  N   UNL A   1      41.220  29.407  31.527  1.00  0.00    -0.248 NA
ATOM     44  C   UNL A   1      39.389  30.853  31.603  1.00  0.00     0.031 C 
ATOM     45  C   UNL A   1      39.316  27.252  28.092  1.00  0.00     0.029 A 
ATOM     46  N   UNL A   1      41.058  27.277  29.492  1.00  0.00    -0.354 N 
ATOM     47  C   UNL A   1      41.421  30.349  32.530  1.00  0.00     0.074 A 
ATOM     48  C   UNL A   1      40.290  31.252  32.488  1.00  0.00     0.031 C 
ATOM     49  C   UNL A   1      40.115  26.226  27.759  1.00  0.00     0.029 A 
ATOM     50  C   UNL A   1      41.287  26.230  28.630  1.00  0.00     0.049 A 
ATOM     51  H   UNL A   1      41.671  27.515  30.226  1.00  0.00     0.167 HD
ATOM     52  C   UNL A   1      42.442  30.438  33.419  1.00  0.00     0.034 A 
ATOM     53  C   UNL A   1      42.329  25.382  28.538  1.00  0.00     0.034 A 
ATOM     54  C   UNL A   1      43.557  29.522  33.454  1.00  0.00     0.049 A 
ATOM     55  C   UNL A   1      43.471  25.525  29.515  1.00  0.00     0.074 A 
ATOM     56  C   UNL A   1      44.622  29.495  34.338  1.00  0.00     0.029 A 
ATOM     57  N   UNL A   1      43.756  28.476  32.562  1.00  0.00    -0.354 N 
ATOM     58  N   UNL A   1      43.626  26.398  30.483  1.00  0.00    -0.248 NA
ATOM     59  C   UNL A   1      44.573  24.562  29.389  1.00  0.00     0.031 C 
ATOM     60  C   UNL A   1      45.495  28.475  33.944  1.00  0.00     0.029 A 
ATOM     61  C   UNL A   1      44.940  27.817  32.858  1.00  0.00     0.049 A 
ATOM     62  H   UNL A   1      43.147  28.238  31.827  1.00  0.00     0.167 HD
ATOM     63  C   UNL A   1      44.830  26.068  31.101  1.00  0.00     0.074 A 
ATOM     64  C   UNL A   1      45.348  24.907  30.406  1.00  0.00     0.031 C 
ATOM     65  C   UNL A   1      45.449  26.666  32.149  1.00  0.00     0.034 A 
BRANCH  52  66
ATOM     66  C   UNL A   1      42.405  31.578  34.408  1.00  0.00     0.023 A 
ATOM     67  C   UNL A   1      41.563  31.552  35.533  1.00  0.00     0.031 A 
ATOM     68  C   UNL A   1      43.207  32.716  34.214  1.00  0.00     0.131 A 
ATOM     69  C   UNL A   1      41.489  32.668  36.381  1.00  0.00     0.055 A 
ATOM     70  C   UNL A   1      43.188  33.791  35.105  1.00  0.00     0.041 A 
ATOM     71  F   UNL A   1      44.017  32.809  33.147  1.00  0.00    -0.206 F 
ATOM     72  C   UNL A   1      42.315  33.777  36.189  1.00  0.00     0.022 A 
BRANCH  69  73
ATOM     73  S   UNL A   1      40.202  32.701  37.658  1.00  0.00     0.124 S 
ATOM     74  O   UNL A   1      39.705  34.069  37.540  1.00  0.00    -0.237 OA
ATOM     75  O   UNL A   1      39.293  31.650  37.216  1.00  0.00    -0.237 OA
ATOM     76  O   UNL A   1      40.935  32.414  38.889  1.00  0.00    -0.744 OA
ENDBRANCH  69  73
ENDBRANCH  52  66
BRANCH  53  77
ATOM     77  C   UNL A   1      42.365  24.332  27.480  1.00  0.00     0.023 A 
ATOM     78  C   UNL A   1      41.840  23.051  27.716  1.00  0.00     0.031 A 
ATOM     79  C   UNL A   1      42.972  24.576  26.235  1.00  0.00     0.131 A 
ATOM     80  C   UNL A   1      41.980  22.048  26.746  1.00  0.00     0.055 A 
ATOM     81  C   UNL A   1      43.059  23.590  25.251  1.00  0.00     0.041 A 
ATOM     82  F   UNL A   1      43.484  25.785  25.954  1.00  0.00    -0.206 F 
ATOM     83  C   UNL A   1      42.575  22.312  25.510  1.00  0.00     0.022 A 
BRANCH  80  84
ATOM     84  S   UNL A   1      41.458  20.362  27.161  1.00  0.00     0.124 S 
ATOM     85  O   UNL A   1      42.737  19.708  27.413  1.00  0.00    -0.237 OA
ATOM     86  O   UNL A   1      40.610  20.587  28.326  1.00  0.00    -0.237 OA
ATOM     87  O   UNL A   1      40.756  19.917  25.958  1.00  0.00    -0.744 OA
ENDBRANCH  80  84
ENDBRANCH  53  77
BRANCH  65  88
ATOM     88  C   UNL A   1      46.735  26.040  32.631  1.00  0.00     0.023 A 
ATOM     89  C   UNL A   1      47.976  26.363  32.056  1.00  0.00     0.031 A 
ATOM     90  C   UNL A   1      46.713  25.093  33.670  1.00  0.00     0.131 A 
ATOM     91  C   UNL A   1      49.137  25.701  32.483  1.00  0.00     0.055 A 
ATOM     92  C   UNL A   1      47.880  24.484  34.134  1.00  0.00     0.041 A 
ATOM     93  F   UNL A   1      45.555  24.746  34.255  1.00  0.00    -0.206 F 
ATOM     94  C   UNL A   1      49.099  24.776  33.530  1.00  0.00     0.022 A 
BRANCH  91  95
ATOM     95  S   UNL A   1      50.687  25.997  31.588  1.00  0.00     0.124 S 
ATOM     96  O   UNL A   1      50.331  27.121  30.729  1.00  0.00    -0.237 OA
ATOM     97  O   UNL A   1      51.620  26.292  32.670  1.00  0.00    -0.237 OA
ATOM     98  O   UNL A   1      50.928  24.734  30.891  1.00  0.00    -0.744 OA
ENDBRANCH  91  95
ENDBRANCH  65  88
ENDBRANCH  39  40
ENDBRANCH  31  34
ENDBRANCH  29  30
ENDBRANCH  28  29
ENDBRANCH   1  28
TORSDOF 17
ENDMDL
