MODEL 1
REMARK VINA RESULT:     -12.9      0.000      0.000
REMARK SMILES O=C(NCCCNC(=O)c1cc(N2CCN(c3ccc(F)cc3)CC2)ccc1NC(=O)C1CCCC1)c1ccc(-c2c3nc(c(-c4cc(S(=O)(=O)[O-])ccc4F)c4ccc([nH]4)c(-c4cc(S(=O)(=O)[O-])ccc4F)c4nc(c(-c5cc(S(=O)(=O)[O-])ccc5F)c5ccc2[nH]5)C=C4)C=C3)cc1
REMARK SMILES IDX 4 1 3 2 1 3 2 4 37 6 38 7 99 8 39 9 98 10 40 11 41 12 42 13
REMARK SMILES IDX 92 14 43 15 97 16 91 17 93 18 44 19 96 20 90 21 89 22 45 24
REMARK SMILES IDX 77 25 57 26 76 27 58 28 61 29 75 30 94 31 59 32 60 33 74 35
REMARK SMILES IDX 95 36 62 37 46 38 47 39 55 40 48 41 54 42 56 43 53 44 49 45
REMARK SMILES IDX 50 46 51 47 52 48 78 49 79 50 87 51 80 52 86 53 88 54 85 55
REMARK SMILES IDX 81 56 82 57 83 58 84 59 63 60 64 61 72 62 65 63 71 64 73 65
REMARK SMILES IDX 70 66 66 67 67 68 68 69 69 70 5 71 6 72 7 73 8 74 9 76 10 77
REMARK SMILES IDX 11 78 28 79 12 80 27 81 26 82 29 83 30 84 31 86 32 87 33 88
REMARK SMILES IDX 36 89 34 90 35 91 13 92 14 93 25 94 15 95 24 96 16 97 17 98
REMARK SMILES IDX 18 99 23 100 19 101 22 102 20 103 21 104
REMARK H PARENT 3 5 93 23 61 34 7 75 29 85
REMARK Flexibility Score: inf
ROOT
ATOM      1  C   UNL A   1      38.550  20.504  25.655  1.00  0.00     0.118 C 
ENDROOT
BRANCH   1   2
ATOM      2  N   UNL A   1      39.599  19.498  25.777  1.00  0.00    -0.352 N 
ATOM      3  O   UNL A   1      41.686  18.676  26.001  1.00  0.00    -0.269 OA
ATOM      4  C   UNL A   1      40.934  19.647  26.070  1.00  0.00     0.251 C 
ATOM      5  H   UNL A   1      39.305  18.570  25.628  1.00  0.00     0.163 HD
BRANCH   4   6
ATOM      6  C   UNL A   1      41.468  20.972  26.441  1.00  0.00     0.039 A 
ATOM      7  C   UNL A   1      41.668  21.311  27.781  1.00  0.00     0.014 A 
ATOM      8  C   UNL A   1      41.777  21.887  25.432  1.00  0.00     0.014 A 
ATOM      9  C   UNL A   1      42.014  22.614  28.120  1.00  0.00     0.010 A 
ATOM     10  C   UNL A   1      42.225  23.165  25.772  1.00  0.00     0.010 A 
ATOM     11  C   UNL A   1      42.317  23.549  27.121  1.00  0.00    -0.014 A 
BRANCH  11  12
ATOM     12  C   UNL A   1      42.781  24.909  27.492  1.00  0.00     0.031 A 
ATOM     13  C   UNL A   1      41.853  25.881  28.161  1.00  0.00     0.074 A 
ATOM     14  C   UNL A   1      44.044  25.270  27.194  1.00  0.00     0.049 A 
ATOM     15  N   UNL A   1      42.046  27.142  28.454  1.00  0.00    -0.248 NA
ATOM     16  C   UNL A   1      40.528  25.372  28.537  1.00  0.00     0.031 C 
ATOM     17  C   UNL A   1      45.036  24.403  26.554  1.00  0.00     0.029 A 
ATOM     18  N   UNL A   1      44.707  26.458  27.373  1.00  0.00    -0.354 N 
ATOM     19  C   UNL A   1      40.859  27.588  29.024  1.00  0.00     0.074 A 
ATOM     20  C   UNL A   1      39.942  26.465  29.000  1.00  0.00     0.031 C 
ATOM     21  C   UNL A   1      46.180  25.082  26.403  1.00  0.00     0.029 A 
ATOM     22  C   UNL A   1      45.978  26.454  26.850  1.00  0.00     0.049 A 
ATOM     23  H   UNL A   1      44.312  27.234  27.831  1.00  0.00     0.167 HD
ATOM     24  C   UNL A   1      40.568  28.817  29.520  1.00  0.00     0.034 A 
ATOM     25  C   UNL A   1      46.867  27.453  26.692  1.00  0.00     0.034 A 
ATOM     26  C   UNL A   1      41.502  29.920  29.514  1.00  0.00     0.049 A 
ATOM     27  C   UNL A   1      46.503  28.829  27.175  1.00  0.00     0.074 A 
ATOM     28  C   UNL A   1      41.333  31.198  30.020  1.00  0.00     0.029 A 
ATOM     29  N   UNL A   1      42.775  29.885  28.952  1.00  0.00    -0.354 N 
ATOM     30  N   UNL A   1      45.383  29.237  27.727  1.00  0.00    -0.248 NA
ATOM     31  C   UNL A   1      47.517  29.878  27.021  1.00  0.00     0.031 C 
ATOM     32  C   UNL A   1      42.459  31.956  29.683  1.00  0.00     0.029 A 
ATOM     33  C   UNL A   1      43.380  31.129  29.059  1.00  0.00     0.049 A 
ATOM     34  H   UNL A   1      43.187  29.092  28.539  1.00  0.00     0.167 HD
ATOM     35  C   UNL A   1      45.570  30.585  28.013  1.00  0.00     0.074 A 
ATOM     36  C   UNL A   1      46.908  30.921  27.570  1.00  0.00     0.031 C 
ATOM     37  C   UNL A   1      44.714  31.457  28.604  1.00  0.00     0.034 A 
BRANCH  24  38
ATOM     38  C   UNL A   1      39.165  29.043  30.042  1.00  0.00     0.023 A 
ATOM     39  C   UNL A   1      38.160  29.621  29.248  1.00  0.00     0.031 A 
ATOM     40  C   UNL A   1      38.845  28.729  31.376  1.00  0.00     0.131 A 
ATOM     41  C   UNL A   1      36.926  29.968  29.820  1.00  0.00     0.055 A 
ATOM     42  C   UNL A   1      37.579  28.984  31.911  1.00  0.00     0.041 A 
ATOM     43  F   UNL A   1      39.764  28.193  32.194  1.00  0.00    -0.206 F 
ATOM     44  C   UNL A   1      36.619  29.628  31.139  1.00  0.00     0.022 A 
BRANCH  41  45
ATOM     45  S   UNL A   1      35.811  31.047  28.877  1.00  0.00     0.124 S 
ATOM     46  O   UNL A   1      36.757  31.850  28.105  1.00  0.00    -0.237 OA
ATOM     47  O   UNL A   1      35.016  30.091  28.116  1.00  0.00    -0.237 OA
ATOM     48  O   UNL A   1      35.086  31.781  29.912  1.00  0.00    -0.744 OA
ENDBRANCH  41  45
ENDBRANCH  24  38
BRANCH  25  49
ATOM     49  C   UNL A   1      48.152  27.182  25.990  1.00  0.00     0.023 A 
ATOM     50  C   UNL A   1      48.322  27.487  24.633  1.00  0.00     0.031 A 
ATOM     51  C   UNL A   1      49.248  26.643  26.692  1.00  0.00     0.131 A 
ATOM     52  C   UNL A   1      49.556  27.233  24.014  1.00  0.00     0.055 A 
ATOM     53  C   UNL A   1      50.487  26.443  26.084  1.00  0.00     0.041 A 
ATOM     54  F   UNL A   1      49.138  26.343  27.996  1.00  0.00    -0.206 F 
ATOM     55  C   UNL A   1      50.645  26.732  24.734  1.00  0.00     0.022 A 
BRANCH  52  56
ATOM     56  S   UNL A   1      49.709  27.525  22.231  1.00  0.00     0.124 S 
ATOM     57  O   UNL A   1      50.702  26.525  21.851  1.00  0.00    -0.237 OA
ATOM     58  O   UNL A   1      48.347  27.285  21.765  1.00  0.00    -0.237 OA
ATOM     59  O   UNL A   1      50.158  28.913  22.150  1.00  0.00    -0.744 OA
ENDBRANCH  52  56
ENDBRANCH  25  49
BRANCH  37  60
ATOM     60  C   UNL A   1      45.221  32.853  28.874  1.00  0.00     0.023 A 
ATOM     61  C   UNL A   1      45.003  33.917  27.981  1.00  0.00     0.031 A 
ATOM     62  C   UNL A   1      45.904  33.123  30.074  1.00  0.00     0.131 A 
ATOM     63  C   UNL A   1      45.487  35.198  28.294  1.00  0.00     0.055 A 
ATOM     64  C   UNL A   1      46.331  34.409  30.405  1.00  0.00     0.041 A 
ATOM     65  F   UNL A   1      46.146  32.141  30.958  1.00  0.00    -0.206 F 
ATOM     66  C   UNL A   1      46.129  35.454  29.509  1.00  0.00     0.022 A 
BRANCH  63  67
ATOM     67  S   UNL A   1      45.319  36.523  27.066  1.00  0.00     0.124 S 
ATOM     68  O   UNL A   1      43.906  36.429  26.712  1.00  0.00    -0.237 OA
ATOM     69  O   UNL A   1      45.710  37.706  27.826  1.00  0.00    -0.237 OA
ATOM     70  O   UNL A   1      46.250  36.132  26.010  1.00  0.00    -0.744 OA
ENDBRANCH  63  67
ENDBRANCH  37  60
ENDBRANCH  11  12
ENDBRANCH   4   6
ENDBRANCH   1   2
BRANCH   1  71
ATOM     71  C   UNL A   1      37.290  19.994  24.963  1.00  0.00     0.042 C 
BRANCH  71  72
ATOM     72  C   UNL A   1      36.150  21.000  24.899  1.00  0.00     0.118 C 
BRANCH  72  73
ATOM     73  N   UNL A   1      35.936  21.673  26.169  1.00  0.00    -0.352 N 
ATOM     74  C   UNL A   1      34.942  22.511  26.595  1.00  0.00     0.253 C 
ATOM     75  H   UNL A   1      36.631  21.496  26.844  1.00  0.00     0.163 HD
ATOM     76  O   UNL A   1      35.146  23.172  27.614  1.00  0.00    -0.269 OA
BRANCH  74  77
ATOM     77  C   UNL A   1      33.610  22.614  25.948  1.00  0.00     0.065 A 
ATOM     78  C   UNL A   1      33.245  23.902  25.492  1.00  0.00     0.042 A 
ATOM     79  C   UNL A   1      32.647  21.590  25.981  1.00  0.00     0.054 A 
ATOM     80  C   UNL A   1      31.922  24.212  25.159  1.00  0.00     0.038 A 
ATOM     81  C   UNL A   1      31.320  21.934  25.785  1.00  0.00     0.029 A 
ATOM     82  C   UNL A   1      30.972  23.206  25.347  1.00  0.00     0.028 A 
BRANCH  79  83
ATOM     83  N   UNL A   1      32.979  20.258  26.244  1.00  0.00    -0.325 N 
ATOM     84  C   UNL A   1      32.880  19.136  25.471  1.00  0.00     0.227 C 
ATOM     85  H   UNL A   1      33.348  20.101  27.143  1.00  0.00     0.169 HD
ATOM     86  O   UNL A   1      33.326  18.101  25.986  1.00  0.00    -0.274 OA
BRANCH  84  87
ATOM     87  C   UNL A   1      32.231  19.073  24.075  1.00  0.00     0.079 C 
ATOM     88  C   UNL A   1      32.434  20.176  23.034  1.00  0.00     0.013 C 
ATOM     89  C   UNL A   1      32.812  17.877  23.291  1.00  0.00     0.013 C 
ATOM     90  C   UNL A   1      31.990  19.536  21.725  1.00  0.00     0.001 C 
ATOM     91  C   UNL A   1      32.392  18.076  21.837  1.00  0.00     0.001 C 
ENDBRANCH  84  87
ENDBRANCH  79  83
BRANCH  80  92
ATOM     92  N   UNL A   1      31.538  25.477  24.775  1.00  0.00    -0.368 N 
ATOM     93  C   UNL A   1      32.093  26.180  23.598  1.00  0.00     0.138 C 
ATOM     94  C   UNL A   1      30.321  26.074  25.341  1.00  0.00     0.138 C 
ATOM     95  C   UNL A   1      30.994  26.484  22.523  1.00  0.00     0.138 C 
ATOM     96  C   UNL A   1      29.237  26.173  24.257  1.00  0.00     0.138 C 
ATOM     97  N   UNL A   1      29.731  26.968  23.128  1.00  0.00    -0.368 N 
BRANCH  97  98
ATOM     98  C   UNL A   1      29.288  28.261  22.941  1.00  0.00     0.037 A 
ATOM     99  C   UNL A   1      30.150  29.239  22.427  1.00  0.00     0.029 A 
ATOM    100  C   UNL A   1      27.957  28.634  23.192  1.00  0.00     0.029 A 
ATOM    101  C   UNL A   1      29.694  30.532  22.146  1.00  0.00     0.041 A 
ATOM    102  C   UNL A   1      27.498  29.928  22.933  1.00  0.00     0.041 A 
ATOM    103  C   UNL A   1      28.372  30.863  22.403  1.00  0.00     0.123 A 
ATOM    104  F   UNL A   1      27.929  32.097  22.129  1.00  0.00    -0.207 F 
ENDBRANCH  97  98
ENDBRANCH  80  92
ENDBRANCH  74  77
ENDBRANCH  72  73
ENDBRANCH  71  72
ENDBRANCH   1  71
TORSDOF 17
ENDMDL
MODEL 2
REMARK VINA RESULT:     -12.8      1.032      7.154
REMARK SMILES O=C(NCCCNC(=O)c1cc(N2CCN(c3ccc(F)cc3)CC2)ccc1NC(=O)C1CCCC1)c1ccc(-c2c3nc(c(-c4cc(S(=O)(=O)[O-])ccc4F)c4ccc([nH]4)c(-c4cc(S(=O)(=O)[O-])ccc4F)c4nc(c(-c5cc(S(=O)(=O)[O-])ccc5F)c5ccc2[nH]5)C=C4)C=C3)cc1
REMARK SMILES IDX 4 1 3 2 1 3 2 4 37 6 38 7 99 8 39 9 98 10 40 11 41 12 42 13
REMARK SMILES IDX 92 14 43 15 97 16 91 17 93 18 44 19 96 20 90 21 89 22 45 24
REMARK SMILES IDX 77 25 57 26 76 27 58 28 61 29 75 30 94 31 59 32 60 33 74 35
REMARK SMILES IDX 95 36 62 37 46 38 47 39 55 40 48 41 54 42 56 43 53 44 49 45
REMARK SMILES IDX 50 46 51 47 52 48 78 49 79 50 87 51 80 52 86 53 88 54 85 55
REMARK SMILES IDX 81 56 82 57 83 58 84 59 63 60 64 61 72 62 65 63 71 64 73 65
REMARK SMILES IDX 70 66 66 67 67 68 68 69 69 70 5 71 6 72 7 73 8 74 9 76 10 77
REMARK SMILES IDX 11 78 28 79 12 80 27 81 26 82 29 83 30 84 31 86 32 87 33 88
REMARK SMILES IDX 36 89 34 90 35 91 13 92 14 93 25 94 15 95 24 96 16 97 17 98
REMARK SMILES IDX 18 99 23 100 19 101 22 102 20 103 21 104
REMARK H PARENT 3 5 93 23 61 34 7 75 29 85
REMARK Flexibility Score: inf
ROOT
ATOM      1  C   UNL A   1      38.555  21.118  25.574  1.00  0.00     0.118 C 
ENDROOT
BRANCH   1   2
ATOM      2  N   UNL A   1      39.590  20.140  25.885  1.00  0.00    -0.352 N 
ATOM      3  O   UNL A   1      41.643  19.367  26.405  1.00  0.00    -0.269 OA
ATOM      4  C   UNL A   1      40.880  20.328  26.320  1.00  0.00     0.251 C 
ATOM      5  H   UNL A   1      39.323  19.199  25.766  1.00  0.00     0.163 HD
BRANCH   4   6
ATOM      6  C   UNL A   1      41.357  21.684  26.660  1.00  0.00     0.039 A 
ATOM      7  C   UNL A   1      41.278  22.161  27.970  1.00  0.00     0.014 A 
ATOM      8  C   UNL A   1      41.894  22.488  25.652  1.00  0.00     0.014 A 
ATOM      9  C   UNL A   1      41.576  23.491  28.242  1.00  0.00     0.010 A 
ATOM     10  C   UNL A   1      42.291  23.794  25.949  1.00  0.00     0.010 A 
ATOM     11  C   UNL A   1      42.106  24.316  27.240  1.00  0.00    -0.014 A 
BRANCH  11  12
ATOM     12  C   UNL A   1      42.514  25.706  27.562  1.00  0.00     0.031 A 
ATOM     13  C   UNL A   1      43.951  26.127  27.461  1.00  0.00     0.074 A 
ATOM     14  C   UNL A   1      41.577  26.581  27.974  1.00  0.00     0.049 A 
ATOM     15  N   UNL A   1      44.509  27.259  27.809  1.00  0.00    -0.248 NA
ATOM     16  C   UNL A   1      44.888  25.139  26.910  1.00  0.00     0.031 C 
ATOM     17  C   UNL A   1      40.148  26.284  28.099  1.00  0.00     0.029 A 
ATOM     18  N   UNL A   1      41.681  27.888  28.379  1.00  0.00    -0.354 N 
ATOM     19  C   UNL A   1      45.866  27.113  27.546  1.00  0.00     0.074 A 
ATOM     20  C   UNL A   1      46.047  25.766  27.041  1.00  0.00     0.031 C 
ATOM     21  C   UNL A   1      39.509  27.375  28.539  1.00  0.00     0.029 A 
ATOM     22  C   UNL A   1      40.489  28.419  28.812  1.00  0.00     0.049 A 
ATOM     23  H   UNL A   1      42.524  28.394  28.359  1.00  0.00     0.167 HD
ATOM     24  C   UNL A   1      46.862  28.021  27.709  1.00  0.00     0.034 A 
ATOM     25  C   UNL A   1      40.217  29.591  29.417  1.00  0.00     0.034 A 
ATOM     26  C   UNL A   1      46.648  29.352  28.230  1.00  0.00     0.049 A 
ATOM     27  C   UNL A   1      41.342  30.557  29.664  1.00  0.00     0.074 A 
ATOM     28  C   UNL A   1      47.571  30.369  28.406  1.00  0.00     0.029 A 
ATOM     29  N   UNL A   1      45.428  29.846  28.683  1.00  0.00    -0.354 N 
ATOM     30  N   UNL A   1      42.620  30.415  29.397  1.00  0.00    -0.248 NA
ATOM     31  C   UNL A   1      40.993  31.838  30.287  1.00  0.00     0.031 C 
ATOM     32  C   UNL A   1      46.933  31.435  29.047  1.00  0.00     0.029 A 
ATOM     33  C   UNL A   1      45.587  31.132  29.178  1.00  0.00     0.049 A 
ATOM     34  H   UNL A   1      44.576  29.354  28.655  1.00  0.00     0.167 HD
ATOM     35  C   UNL A   1      43.224  31.603  29.793  1.00  0.00     0.074 A 
ATOM     36  C   UNL A   1      42.170  32.448  30.319  1.00  0.00     0.031 C 
ATOM     37  C   UNL A   1      44.530  31.964  29.710  1.00  0.00     0.034 A 
BRANCH  24  38
ATOM     38  C   UNL A   1      48.271  27.573  27.386  1.00  0.00     0.023 A 
ATOM     39  C   UNL A   1      48.864  27.826  26.137  1.00  0.00     0.031 A 
ATOM     40  C   UNL A   1      49.011  26.828  28.322  1.00  0.00     0.131 A 
ATOM     41  C   UNL A   1      50.103  27.248  25.819  1.00  0.00     0.055 A 
ATOM     42  C   UNL A   1      50.290  26.341  28.035  1.00  0.00     0.041 A 
ATOM     43  F   UNL A   1      48.496  26.534  29.527  1.00  0.00    -0.206 F 
ATOM     44  C   UNL A   1      50.833  26.530  26.768  1.00  0.00     0.022 A 
BRANCH  41  45
ATOM     45  S   UNL A   1      50.649  27.278  24.087  1.00  0.00     0.124 S 
ATOM     46  O   UNL A   1      51.860  26.462  24.144  1.00  0.00    -0.237 OA
ATOM     47  O   UNL A   1      49.514  26.686  23.389  1.00  0.00    -0.237 OA
ATOM     48  O   UNL A   1      50.877  28.696  23.823  1.00  0.00    -0.744 OA
ENDBRANCH  41  45
ENDBRANCH  24  38
BRANCH  25  49
ATOM     49  C   UNL A   1      38.828  29.868  29.878  1.00  0.00     0.023 A 
ATOM     50  C   UNL A   1      37.917  30.569  29.075  1.00  0.00     0.031 A 
ATOM     51  C   UNL A   1      38.383  29.394  31.127  1.00  0.00     0.131 A 
ATOM     52  C   UNL A   1      36.611  30.792  29.539  1.00  0.00     0.055 A 
ATOM     53  C   UNL A   1      37.070  29.573  31.559  1.00  0.00     0.041 A 
ATOM     54  F   UNL A   1      39.215  28.709  31.928  1.00  0.00    -0.206 F 
ATOM     55  C   UNL A   1      36.176  30.282  30.766  1.00  0.00     0.022 A 
BRANCH  52  56
ATOM     56  S   UNL A   1      35.493  31.804  28.533  1.00  0.00     0.124 S 
ATOM     57  O   UNL A   1      34.499  32.215  29.518  1.00  0.00    -0.237 OA
ATOM     58  O   UNL A   1      36.386  32.851  28.045  1.00  0.00    -0.237 OA
ATOM     59  O   UNL A   1      35.015  30.872  27.514  1.00  0.00    -0.744 OA
ENDBRANCH  52  56
ENDBRANCH  25  49
BRANCH  37  60
ATOM     60  C   UNL A   1      44.891  33.366  30.139  1.00  0.00     0.023 A 
ATOM     61  C   UNL A   1      44.828  34.461  29.259  1.00  0.00     0.031 A 
ATOM     62  C   UNL A   1      45.268  33.608  31.473  1.00  0.00     0.131 A 
ATOM     63  C   UNL A   1      45.162  35.744  29.721  1.00  0.00     0.055 A 
ATOM     64  C   UNL A   1      45.543  34.893  31.939  1.00  0.00     0.041 A 
ATOM     65  F   UNL A   1      45.354  32.596  32.353  1.00  0.00    -0.206 F 
ATOM     66  C   UNL A   1      45.498  35.970  31.060  1.00  0.00     0.022 A 
BRANCH  63  67
ATOM     67  S   UNL A   1      45.210  37.118  28.537  1.00  0.00     0.124 S 
ATOM     68  O   UNL A   1      44.853  38.255  29.379  1.00  0.00    -0.237 OA
ATOM     69  O   UNL A   1      46.592  37.079  28.067  1.00  0.00    -0.237 OA
ATOM     70  O   UNL A   1      44.208  36.747  27.540  1.00  0.00    -0.744 OA
ENDBRANCH  63  67
ENDBRANCH  37  60
ENDBRANCH  11  12
ENDBRANCH   4   6
ENDBRANCH   1   2
BRANCH   1  71
ATOM     71  C   UNL A   1      37.335  20.520  24.880  1.00  0.00     0.042 C 
BRANCH  71  72
ATOM     72  C   UNL A   1      36.083  21.382  24.943  1.00  0.00     0.118 C 
BRANCH  72  73
ATOM     73  N   UNL A   1      35.748  21.771  26.303  1.00  0.00    -0.352 N 
ATOM     74  C   UNL A   1      34.677  22.451  26.814  1.00  0.00     0.253 C 
ATOM     75  H   UNL A   1      36.412  21.498  26.977  1.00  0.00     0.163 HD
ATOM     76  O   UNL A   1      34.776  22.902  27.956  1.00  0.00    -0.269 OA
BRANCH  74  77
ATOM     77  C   UNL A   1      33.383  22.613  26.106  1.00  0.00     0.065 A 
ATOM     78  C   UNL A   1      33.008  23.943  25.804  1.00  0.00     0.042 A 
ATOM     79  C   UNL A   1      32.449  21.575  25.943  1.00  0.00     0.054 A 
ATOM     80  C   UNL A   1      31.699  24.268  25.435  1.00  0.00     0.038 A 
ATOM     81  C   UNL A   1      31.126  21.914  25.714  1.00  0.00     0.029 A 
ATOM     82  C   UNL A   1      30.768  23.226  25.428  1.00  0.00     0.028 A 
BRANCH  79  83
ATOM     83  N   UNL A   1      32.803  20.226  26.047  1.00  0.00    -0.325 N 
ATOM     84  C   UNL A   1      32.727  19.204  25.145  1.00  0.00     0.227 C 
ATOM     85  H   UNL A   1      33.171  19.968  26.923  1.00  0.00     0.169 HD
ATOM     86  O   UNL A   1      33.189  18.122  25.534  1.00  0.00    -0.274 OA
BRANCH  84  87
ATOM     87  C   UNL A   1      32.084  19.298  23.747  1.00  0.00     0.079 C 
ATOM     88  C   UNL A   1      32.378  20.459  22.795  1.00  0.00     0.013 C 
ATOM     89  C   UNL A   1      32.578  18.125  22.873  1.00  0.00     0.013 C 
ATOM     90  C   UNL A   1      31.895  19.958  21.440  1.00  0.00     0.001 C 
ATOM     91  C   UNL A   1      32.185  18.467  21.439  1.00  0.00     0.001 C 
ENDBRANCH  84  87
ENDBRANCH  79  83
BRANCH  80  92
ATOM     92  N   UNL A   1      31.301  25.565  25.199  1.00  0.00    -0.368 N 
ATOM     93  C   UNL A   1      32.101  26.540  24.426  1.00  0.00     0.138 C 
ATOM     94  C   UNL A   1      29.907  25.958  25.445  1.00  0.00     0.138 C 
ATOM     95  C   UNL A   1      31.355  27.017  23.133  1.00  0.00     0.138 C 
ATOM     96  C   UNL A   1      29.202  26.238  24.109  1.00  0.00     0.138 C 
ATOM     97  N   UNL A   1      29.919  27.288  23.377  1.00  0.00    -0.368 N 
BRANCH  97  98
ATOM     98  C   UNL A   1      29.402  28.565  23.311  1.00  0.00     0.037 A 
ATOM     99  C   UNL A   1      28.108  28.783  22.817  1.00  0.00     0.029 A 
ATOM    100  C   UNL A   1      30.112  29.680  23.788  1.00  0.00     0.029 A 
ATOM    101  C   UNL A   1      27.534  30.058  22.826  1.00  0.00     0.041 A 
ATOM    102  C   UNL A   1      29.553  30.960  23.783  1.00  0.00     0.041 A 
ATOM    103  C   UNL A   1      28.264  31.135  23.309  1.00  0.00     0.123 A 
ATOM    104  F   UNL A   1      27.715  32.357  23.327  1.00  0.00    -0.207 F 
ENDBRANCH  97  98
ENDBRANCH  80  92
ENDBRANCH  74  77
ENDBRANCH  72  73
ENDBRANCH  71  72
ENDBRANCH   1  71
TORSDOF 17
ENDMDL
MODEL 3
REMARK VINA RESULT:     -12.7      8.860     15.983
REMARK SMILES O=C(NCCCNC(=O)c1cc(N2CCN(c3ccc(F)cc3)CC2)ccc1NC(=O)C1CCCC1)c1ccc(-c2c3nc(c(-c4cc(S(=O)(=O)[O-])ccc4F)c4ccc([nH]4)c(-c4cc(S(=O)(=O)[O-])ccc4F)c4nc(c(-c5cc(S(=O)(=O)[O-])ccc5F)c5ccc2[nH]5)C=C4)C=C3)cc1
REMARK SMILES IDX 4 1 3 2 1 3 2 4 37 6 38 7 99 8 39 9 98 10 40 11 41 12 42 13
REMARK SMILES IDX 92 14 43 15 97 16 91 17 93 18 44 19 96 20 90 21 89 22 45 24
REMARK SMILES IDX 77 25 57 26 76 27 58 28 61 29 75 30 94 31 59 32 60 33 74 35
REMARK SMILES IDX 95 36 62 37 46 38 47 39 55 40 48 41 54 42 56 43 53 44 49 45
REMARK SMILES IDX 50 46 51 47 52 48 78 49 79 50 87 51 80 52 86 53 88 54 85 55
REMARK SMILES IDX 81 56 82 57 83 58 84 59 63 60 64 61 72 62 65 63 71 64 73 65
REMARK SMILES IDX 70 66 66 67 67 68 68 69 69 70 5 71 6 72 7 73 8 74 9 76 10 77
REMARK SMILES IDX 11 78 28 79 12 80 27 81 26 82 29 83 30 84 31 86 32 87 33 88
REMARK SMILES IDX 36 89 34 90 35 91 13 92 14 93 25 94 15 95 24 96 16 97 17 98
REMARK SMILES IDX 18 99 23 100 19 101 22 102 20 103 21 104
REMARK H PARENT 3 5 93 23 61 34 7 75 29 85
REMARK Flexibility Score: inf
ROOT
ATOM      1  C   UNL A   1      46.053  25.400  38.654  1.00  0.00     0.118 C 
ENDROOT
BRANCH   1   2
ATOM      2  N   UNL A   1      47.316  25.554  37.941  1.00  0.00    -0.352 N 
ATOM      3  O   UNL A   1      48.698  25.891  36.192  1.00  0.00    -0.269 OA
ATOM      4  C   UNL A   1      47.556  25.946  36.646  1.00  0.00     0.251 C 
ATOM      5  H   UNL A   1      48.121  25.346  38.470  1.00  0.00     0.163 HD
BRANCH   4   6
ATOM      6  C   UNL A   1      46.442  26.408  35.793  1.00  0.00     0.039 A 
ATOM      7  C   UNL A   1      46.414  27.715  35.302  1.00  0.00     0.014 A 
ATOM      8  C   UNL A   1      45.413  25.519  35.479  1.00  0.00     0.014 A 
ATOM      9  C   UNL A   1      45.285  28.183  34.642  1.00  0.00     0.010 A 
ATOM     10  C   UNL A   1      44.324  25.962  34.725  1.00  0.00     0.010 A 
ATOM     11  C   UNL A   1      44.236  27.307  34.327  1.00  0.00    -0.014 A 
BRANCH  11  12
ATOM     12  C   UNL A   1      43.077  27.790  33.535  1.00  0.00     0.031 A 
ATOM     13  C   UNL A   1      42.961  27.472  32.073  1.00  0.00     0.074 A 
ATOM     14  C   UNL A   1      42.142  28.544  34.144  1.00  0.00     0.049 A 
ATOM     15  N   UNL A   1      42.084  27.901  31.200  1.00  0.00    -0.248 NA
ATOM     16  C   UNL A   1      43.971  26.564  31.515  1.00  0.00     0.031 C 
ATOM     17  C   UNL A   1      42.149  28.906  35.563  1.00  0.00     0.029 A 
ATOM     18  N   UNL A   1      41.017  29.154  33.651  1.00  0.00    -0.354 N 
ATOM     19  C   UNL A   1      42.452  27.338  29.982  1.00  0.00     0.074 A 
ATOM     20  C   UNL A   1      43.653  26.566  30.230  1.00  0.00     0.031 C 
ATOM     21  C   UNL A   1      41.078  29.665  35.828  1.00  0.00     0.029 A 
ATOM     22  C   UNL A   1      40.358  29.917  34.586  1.00  0.00     0.049 A 
ATOM     23  H   UNL A   1      40.711  29.054  32.721  1.00  0.00     0.167 HD
ATOM     24  C   UNL A   1      41.839  27.458  28.777  1.00  0.00     0.034 A 
ATOM     25  C   UNL A   1      39.327  30.772  34.454  1.00  0.00     0.034 A 
ATOM     26  C   UNL A   1      40.650  28.250  28.562  1.00  0.00     0.049 A 
ATOM     27  C   UNL A   1      38.706  30.956  33.098  1.00  0.00     0.074 A 
ATOM     28  C   UNL A   1      39.922  28.416  27.397  1.00  0.00     0.029 A 
ATOM     29  N   UNL A   1      40.025  29.030  29.531  1.00  0.00    -0.354 N 
ATOM     30  N   UNL A   1      39.052  30.407  31.955  1.00  0.00    -0.248 NA
ATOM     31  C   UNL A   1      37.558  31.865  33.008  1.00  0.00     0.031 C 
ATOM     32  C   UNL A   1      38.921  29.363  27.635  1.00  0.00     0.029 A 
ATOM     33  C   UNL A   1      38.952  29.712  28.976  1.00  0.00     0.049 A 
ATOM     34  H   UNL A   1      40.305  29.089  30.473  1.00  0.00     0.167 HD
ATOM     35  C   UNL A   1      38.143  30.883  31.016  1.00  0.00     0.074 A 
ATOM     36  C   UNL A   1      37.238  31.764  31.725  1.00  0.00     0.031 C 
ATOM     37  C   UNL A   1      38.060  30.599  29.691  1.00  0.00     0.034 A 
BRANCH  24  38
ATOM     38  C   UNL A   1      42.490  26.770  27.596  1.00  0.00     0.023 A 
ATOM     39  C   UNL A   1      42.319  25.398  27.346  1.00  0.00     0.031 A 
ATOM     40  C   UNL A   1      43.346  27.488  26.740  1.00  0.00     0.131 A 
ATOM     41  C   UNL A   1      43.073  24.767  26.344  1.00  0.00     0.055 A 
ATOM     42  C   UNL A   1      44.016  26.873  25.679  1.00  0.00     0.041 A 
ATOM     43  F   UNL A   1      43.569  28.798  26.934  1.00  0.00    -0.206 F 
ATOM     44  C   UNL A   1      43.900  25.500  25.491  1.00  0.00     0.022 A 
BRANCH  41  45
ATOM     45  S   UNL A   1      43.111  22.952  26.307  1.00  0.00     0.124 S 
ATOM     46  O   UNL A   1      44.499  22.677  26.674  1.00  0.00    -0.237 OA
ATOM     47  O   UNL A   1      42.106  22.596  27.301  1.00  0.00    -0.237 OA
ATOM     48  O   UNL A   1      42.767  22.629  24.924  1.00  0.00    -0.744 OA
ENDBRANCH  41  45
ENDBRANCH  24  38
BRANCH  25  49
ATOM     49  C   UNL A   1      38.874  31.556  35.637  1.00  0.00     0.023 A 
ATOM     50  C   UNL A   1      38.120  30.965  36.661  1.00  0.00     0.031 A 
ATOM     51  C   UNL A   1      39.230  32.912  35.773  1.00  0.00     0.131 A 
ATOM     52  C   UNL A   1      37.731  31.734  37.769  1.00  0.00     0.055 A 
ATOM     53  C   UNL A   1      38.884  33.656  36.901  1.00  0.00     0.041 A 
ATOM     54  F   UNL A   1      39.958  33.521  34.824  1.00  0.00    -0.206 F 
ATOM     55  C   UNL A   1      38.123  33.068  37.905  1.00  0.00     0.022 A 
BRANCH  52  56
ATOM     56  S   UNL A   1      36.656  30.976  39.017  1.00  0.00     0.124 S 
ATOM     57  O   UNL A   1      36.367  29.680  38.411  1.00  0.00    -0.237 OA
ATOM     58  O   UNL A   1      37.520  30.957  40.192  1.00  0.00    -0.237 OA
ATOM     59  O   UNL A   1      35.523  31.895  39.094  1.00  0.00    -0.744 OA
ENDBRANCH  52  56
ENDBRANCH  25  49
BRANCH  37  60
ATOM     60  C   UNL A   1      36.904  31.196  28.925  1.00  0.00     0.023 A 
ATOM     61  C   UNL A   1      35.816  30.424  28.482  1.00  0.00     0.031 A 
ATOM     62  C   UNL A   1      36.882  32.580  28.671  1.00  0.00     0.131 A 
ATOM     63  C   UNL A   1      34.763  31.040  27.787  1.00  0.00     0.055 A 
ATOM     64  C   UNL A   1      35.807  33.194  28.030  1.00  0.00     0.041 A 
ATOM     65  F   UNL A   1      37.901  33.363  29.064  1.00  0.00    -0.206 F 
ATOM     66  C   UNL A   1      34.741  32.422  27.578  1.00  0.00     0.022 A 
BRANCH  63  67
ATOM     67  S   UNL A   1      33.440  30.004  27.102  1.00  0.00     0.124 S 
ATOM     68  O   UNL A   1      33.949  29.709  25.766  1.00  0.00    -0.237 OA
ATOM     69  O   UNL A   1      33.405  28.882  28.034  1.00  0.00    -0.237 OA
ATOM     70  O   UNL A   1      32.267  30.876  27.140  1.00  0.00    -0.744 OA
ENDBRANCH  63  67
ENDBRANCH  37  60
ENDBRANCH  11  12
ENDBRANCH   4   6
ENDBRANCH   1   2
BRANCH   1  71
ATOM     71  C   UNL A   1      45.484  23.986  38.593  1.00  0.00     0.042 C 
BRANCH  71  72
ATOM     72  C   UNL A   1      45.830  23.110  39.787  1.00  0.00     0.118 C 
BRANCH  72  73
ATOM     73  N   UNL A   1      47.116  22.448  39.633  1.00  0.00    -0.352 N 
ATOM     74  C   UNL A   1      47.441  21.177  39.250  1.00  0.00     0.253 C 
ATOM     75  H   UNL A   1      47.892  23.018  39.842  1.00  0.00     0.163 HD
ATOM     76  O   UNL A   1      48.586  20.783  39.479  1.00  0.00    -0.269 OA
BRANCH  74  77
ATOM     77  C   UNL A   1      46.525  20.272  38.512  1.00  0.00     0.065 A 
ATOM     78  C   UNL A   1      46.030  19.166  39.242  1.00  0.00     0.042 A 
ATOM     79  C   UNL A   1      46.325  20.331  37.122  1.00  0.00     0.054 A 
ATOM     80  C   UNL A   1      45.427  18.078  38.603  1.00  0.00     0.038 A 
ATOM     81  C   UNL A   1      45.855  19.198  36.479  1.00  0.00     0.029 A 
ATOM     82  C   UNL A   1      45.381  18.113  37.207  1.00  0.00     0.028 A 
BRANCH  79  83
ATOM     83  N   UNL A   1      46.623  21.472  36.370  1.00  0.00    -0.325 N 
ATOM     84  C   UNL A   1      47.617  21.720  35.467  1.00  0.00     0.227 C 
ATOM     85  H   UNL A   1      46.009  22.228  36.517  1.00  0.00     0.169 HD
ATOM     86  O   UNL A   1      47.565  22.830  34.918  1.00  0.00    -0.274 OA
BRANCH  84  87
ATOM     87  C   UNL A   1      48.778  20.762  35.137  1.00  0.00     0.079 C 
ATOM     88  C   UNL A   1      49.645  20.937  33.887  1.00  0.00     0.013 C 
ATOM     89  C   UNL A   1      49.870  20.885  36.220  1.00  0.00     0.013 C 
ATOM     90  C   UNL A   1      50.871  20.076  34.165  1.00  0.00     0.001 C 
ATOM     91  C   UNL A   1      51.106  20.185  35.661  1.00  0.00     0.001 C 
ENDBRANCH  84  87
ENDBRANCH  79  83
BRANCH  80  92
ATOM     92  N   UNL A   1      44.998  16.966  39.291  1.00  0.00    -0.368 N 
ATOM     93  C   UNL A   1      45.458  16.617  40.652  1.00  0.00     0.138 C 
ATOM     94  C   UNL A   1      43.816  16.229  38.824  1.00  0.00     0.138 C 
ATOM     95  C   UNL A   1      44.281  16.614  41.687  1.00  0.00     0.138 C 
ATOM     96  C   UNL A   1      42.656  16.425  39.811  1.00  0.00     0.138 C 
ATOM     97  N   UNL A   1      43.057  15.975  41.149  1.00  0.00    -0.368 N 
BRANCH  97  98
ATOM     98  C   UNL A   1      42.584  14.781  41.651  1.00  0.00     0.037 A 
ATOM     99  C   UNL A   1      41.868  13.899  40.828  1.00  0.00     0.029 A 
ATOM    100  C   UNL A   1      42.847  14.371  42.968  1.00  0.00     0.029 A 
ATOM    101  C   UNL A   1      41.458  12.645  41.294  1.00  0.00     0.041 A 
ATOM    102  C   UNL A   1      42.426  13.129  43.448  1.00  0.00     0.041 A 
ATOM    103  C   UNL A   1      41.741  12.273  42.600  1.00  0.00     0.123 A 
ATOM    104  F   UNL A   1      41.357  11.070  43.048  1.00  0.00    -0.207 F 
ENDBRANCH  97  98
ENDBRANCH  80  92
ENDBRANCH  74  77
ENDBRANCH  72  73
ENDBRANCH  71  72
ENDBRANCH   1  71
TORSDOF 17
ENDMDL
