MODEL 1
REMARK VINA RESULT:     -13.9      0.000      0.000
REMARK SMILES COC(=O)c1ccc([C@H]2CC(=O)Nc3c(C(=O)NCCCNC(=O)c4ccc(-c5c6nc(c(-c7cc(S(=O)(=O)[O-])ccc7F)c7ccc([nH]7)c(-c7cc(S(=O)(=O)[O-])ccc7F)c7nc(c(-c8cc(S(=O)(=O)[O-])ccc8F)c8ccc5[nH]8)C=C7)C=C6)cc4)cn(-c4cc(OC)ccc4OC)c32)cc1
REMARK SMILES IDX 20 1 19 2 18 3 16 4 17 5 15 7 9 8 10 9 100 10 11 11 14 12
REMARK SMILES IDX 89 13 12 14 13 15 88 16 8 18 5 19 6 20 102 21 7 22 101 23
REMARK SMILES IDX 3 24 4 25 2 26 1 27 90 28 91 29 97 30 92 31 96 32 95 33
REMARK SMILES IDX 98 34 99 35 93 36 94 37 21 38 22 39 23 40 24 42 25 43 26 44
REMARK SMILES IDX 87 45 27 46 86 47 28 48 29 49 30 50 80 51 31 52 85 53 79 54
REMARK SMILES IDX 81 55 32 56 84 57 78 58 77 59 33 61 65 62 45 63 64 64 46 65
REMARK SMILES IDX 49 66 63 67 82 68 47 69 48 70 62 72 83 73 50 74 34 75 35 76
REMARK SMILES IDX 43 77 36 78 42 79 44 80 41 81 37 82 38 83 39 84 40 85 66 86
REMARK SMILES IDX 67 87 75 88 68 89 74 90 76 91 73 92 69 93 70 94 71 95 72 96
REMARK SMILES IDX 51 97 52 98 60 99 53 100 59 101 61 102 58 103 54 104 55 105
REMARK SMILES IDX 56 106 57 107
REMARK H PARENT 18 6 13 17 22 41 81 60 49 71
REMARK Flexibility Score: inf
ROOT
ATOM      1  C   UNL A   1      32.249  29.885  26.646  1.00  0.00     0.042 C 
ENDROOT
BRANCH   1   2
ATOM      2  C   UNL A   1      32.254  29.938  25.112  1.00  0.00     0.118 C 
BRANCH   2   3
ATOM      3  N   UNL A   1      31.085  29.333  24.519  1.00  0.00    -0.352 N 
ATOM      4  C   UNL A   1      30.769  28.059  24.141  1.00  0.00     0.254 C 
ATOM      5  O   UNL A   1      29.581  27.887  23.849  1.00  0.00    -0.269 OA
ATOM      6  H   UNL A   1      30.360  29.978  24.349  1.00  0.00     0.163 HD
BRANCH   4   7
ATOM      7  C   UNL A   1      31.718  26.946  23.992  1.00  0.00     0.081 A 
ATOM      8  C   UNL A   1      33.506  23.911  22.699  1.00  0.00     0.078 C 
ATOM      9  C   UNL A   1      33.033  23.984  21.236  1.00  0.00     0.115 C 
ATOM     10  C   UNL A   1      32.890  25.036  23.504  1.00  0.00     0.055 A 
ATOM     11  C   UNL A   1      32.804  25.376  20.718  1.00  0.00     0.225 C 
ATOM     12  C   UNL A   1      32.282  26.149  22.953  1.00  0.00     0.076 A 
ATOM     13  N   UNL A   1      32.896  25.205  24.877  1.00  0.00    -0.314 N 
ATOM     14  O   UNL A   1      32.914  25.649  19.524  1.00  0.00    -0.275 OA
ATOM     15  N   UNL A   1      32.341  26.311  21.594  1.00  0.00    -0.324 N 
ATOM     16  C   UNL A   1      32.274  26.397  25.147  1.00  0.00     0.107 A 
ATOM     17  H   UNL A   1      32.029  27.167  21.223  1.00  0.00     0.170 HD
BRANCH   8  18
ATOM     18  C   UNL A   1      33.246  22.471  23.147  1.00  0.00    -0.038 A 
ATOM     19  C   UNL A   1      32.936  19.770  23.916  1.00  0.00     0.060 A 
ATOM     20  C   UNL A   1      34.072  20.485  24.305  1.00  0.00     0.016 A 
ATOM     21  C   UNL A   1      31.964  20.399  23.136  1.00  0.00     0.016 A 
ATOM     22  C   UNL A   1      34.216  21.825  23.937  1.00  0.00     0.005 A 
ATOM     23  C   UNL A   1      32.142  21.722  22.724  1.00  0.00     0.005 A 
BRANCH  19  24
ATOM     24  C   UNL A   1      32.816  18.348  24.337  1.00  0.00     0.337 C 
ATOM     25  O   UNL A   1      31.888  17.909  24.980  1.00  0.00    -0.246 OA
BRANCH  24  26
ATOM     26  O   UNL A   1      33.909  17.654  23.923  1.00  0.00    -0.465 OA
ATOM     27  C   UNL A   1      33.858  16.258  24.212  1.00  0.00     0.282 C 
ENDBRANCH  24  26
ENDBRANCH  19  24
ENDBRANCH   8  18
BRANCH  13  28
ATOM     28  C   UNL A   1      33.500  24.381  25.848  1.00  0.00     0.091 A 
ATOM     29  C   UNL A   1      34.910  24.324  25.803  1.00  0.00     0.077 A 
ATOM     30  C   UNL A   1      32.788  23.591  26.762  1.00  0.00     0.143 A 
ATOM     31  C   UNL A   1      35.626  23.440  26.607  1.00  0.00     0.121 A 
ATOM     32  C   UNL A   1      33.539  22.726  27.579  1.00  0.00     0.052 A 
ATOM     33  C   UNL A   1      34.933  22.636  27.500  1.00  0.00     0.050 A 
BRANCH  30  34
ATOM     34  O   UNL A   1      31.459  23.394  26.984  1.00  0.00    -0.495 OA
ATOM     35  C   UNL A   1      30.602  22.663  26.128  1.00  0.00     0.278 C 
ENDBRANCH  30  34
BRANCH  31  36
ATOM     36  O   UNL A   1      36.980  23.461  26.428  1.00  0.00    -0.497 OA
ATOM     37  C   UNL A   1      37.497  22.545  25.471  1.00  0.00     0.278 C 
ENDBRANCH  31  36
ENDBRANCH  13  28
ENDBRANCH   4   7
ENDBRANCH   2   3
ENDBRANCH   1   2
BRANCH   1  38
ATOM     38  C   UNL A   1      33.632  30.049  27.250  1.00  0.00     0.118 C 
BRANCH  38  39
ATOM     39  N   UNL A   1      33.716  31.277  28.050  1.00  0.00    -0.352 N 
ATOM     40  C   UNL A   1      34.719  31.699  28.898  1.00  0.00     0.251 C 
ATOM     41  H   UNL A   1      32.946  31.887  27.969  1.00  0.00     0.163 HD
ATOM     42  O   UNL A   1      34.496  32.556  29.745  1.00  0.00    -0.269 OA
BRANCH  40  43
ATOM     43  C   UNL A   1      36.044  31.074  28.776  1.00  0.00     0.039 A 
ATOM     44  C   UNL A   1      37.214  31.817  28.937  1.00  0.00     0.014 A 
ATOM     45  C   UNL A   1      36.088  29.694  28.614  1.00  0.00     0.014 A 
ATOM     46  C   UNL A   1      38.423  31.135  29.047  1.00  0.00     0.010 A 
ATOM     47  C   UNL A   1      37.243  29.024  28.919  1.00  0.00     0.010 A 
ATOM     48  C   UNL A   1      38.429  29.729  29.080  1.00  0.00    -0.014 A 
BRANCH  48  49
ATOM     49  C   UNL A   1      39.654  28.991  29.378  1.00  0.00     0.031 A 
ATOM     50  C   UNL A   1      39.965  28.827  30.824  1.00  0.00     0.074 A 
ATOM     51  C   UNL A   1      40.388  28.341  28.447  1.00  0.00     0.049 A 
ATOM     52  N   UNL A   1      40.918  29.390  31.488  1.00  0.00    -0.248 NA
ATOM     53  C   UNL A   1      39.033  28.062  31.666  1.00  0.00     0.031 C 
ATOM     54  C   UNL A   1      40.108  28.144  27.019  1.00  0.00     0.029 A 
ATOM     55  N   UNL A   1      41.531  27.625  28.623  1.00  0.00    -0.354 N 
ATOM     56  C   UNL A   1      40.847  28.890  32.784  1.00  0.00     0.074 A 
ATOM     57  C   UNL A   1      39.574  28.226  32.876  1.00  0.00     0.031 C 
ATOM     58  C   UNL A   1      40.915  27.182  26.521  1.00  0.00     0.029 A 
ATOM     59  C   UNL A   1      41.900  26.847  27.532  1.00  0.00     0.049 A 
ATOM     60  H   UNL A   1      42.055  27.655  29.456  1.00  0.00     0.167 HD
ATOM     61  C   UNL A   1      41.934  28.904  33.608  1.00  0.00     0.034 A 
ATOM     62  C   UNL A   1      42.953  25.995  27.443  1.00  0.00     0.034 A 
ATOM     63  C   UNL A   1      42.950  29.803  33.106  1.00  0.00     0.049 A 
ATOM     64  C   UNL A   1      43.941  26.446  28.451  1.00  0.00     0.074 A 
ATOM     65  C   UNL A   1      42.980  31.157  32.828  1.00  0.00     0.029 A 
ATOM     66  N   UNL A   1      44.009  29.267  32.404  1.00  0.00    -0.354 N 
ATOM     67  N   UNL A   1      44.546  27.601  28.388  1.00  0.00    -0.248 NA
ATOM     68  C   UNL A   1      43.891  25.850  29.777  1.00  0.00     0.031 C 
ATOM     69  C   UNL A   1      43.687  31.260  31.592  1.00  0.00     0.029 A 
ATOM     70  C   UNL A   1      44.131  29.984  31.236  1.00  0.00     0.049 A 
ATOM     71  H   UNL A   1      44.573  28.512  32.687  1.00  0.00     0.167 HD
ATOM     72  C   UNL A   1      44.554  28.077  29.689  1.00  0.00     0.074 A 
ATOM     73  C   UNL A   1      44.234  26.911  30.514  1.00  0.00     0.031 C 
ATOM     74  C   UNL A   1      44.545  29.417  29.962  1.00  0.00     0.034 A 
BRANCH  61  75
ATOM     75  C   UNL A   1      42.216  27.895  34.700  1.00  0.00     0.023 A 
ATOM     76  C   UNL A   1      42.940  26.736  34.359  1.00  0.00     0.031 A 
ATOM     77  C   UNL A   1      41.604  27.881  35.974  1.00  0.00     0.131 A 
ATOM     78  C   UNL A   1      42.974  25.621  35.220  1.00  0.00     0.055 A 
ATOM     79  C   UNL A   1      41.698  26.797  36.854  1.00  0.00     0.041 A 
ATOM     80  F   UNL A   1      40.805  28.864  36.404  1.00  0.00    -0.206 F 
ATOM     81  C   UNL A   1      42.362  25.648  36.469  1.00  0.00     0.022 A 
BRANCH  78  82
ATOM     82  S   UNL A   1      43.689  24.073  34.607  1.00  0.00     0.124 S 
ATOM     83  O   UNL A   1      44.744  23.823  35.582  1.00  0.00    -0.237 OA
ATOM     84  O   UNL A   1      42.540  23.173  34.653  1.00  0.00    -0.237 OA
ATOM     85  O   UNL A   1      44.152  24.422  33.264  1.00  0.00    -0.744 OA
ENDBRANCH  78  82
ENDBRANCH  61  75
BRANCH  62  86
ATOM     86  C   UNL A   1      42.974  24.668  26.776  1.00  0.00     0.023 A 
ATOM     87  C   UNL A   1      43.992  24.275  25.885  1.00  0.00     0.031 A 
ATOM     88  C   UNL A   1      42.087  23.658  27.215  1.00  0.00     0.131 A 
ATOM     89  C   UNL A   1      44.097  22.924  25.476  1.00  0.00     0.055 A 
ATOM     90  C   UNL A   1      42.194  22.327  26.808  1.00  0.00     0.041 A 
ATOM     91  F   UNL A   1      41.134  23.917  28.125  1.00  0.00    -0.206 F 
ATOM     92  C   UNL A   1      43.209  21.952  25.942  1.00  0.00     0.022 A 
BRANCH  89  93
ATOM     93  S   UNL A   1      45.464  22.391  24.396  1.00  0.00     0.124 S 
ATOM     94  O   UNL A   1      44.787  21.506  23.454  1.00  0.00    -0.237 OA
ATOM     95  O   UNL A   1      45.953  23.656  23.861  1.00  0.00    -0.237 OA
ATOM     96  O   UNL A   1      46.384  21.720  25.316  1.00  0.00    -0.744 OA
ENDBRANCH  89  93
ENDBRANCH  62  86
BRANCH  74  97
ATOM     97  C   UNL A   1      44.780  30.391  28.815  1.00  0.00     0.023 A 
ATOM     98  C   UNL A   1      46.034  30.947  28.462  1.00  0.00     0.031 A 
ATOM     99  C   UNL A   1      43.691  30.673  27.969  1.00  0.00     0.131 A 
ATOM    100  C   UNL A   1      46.156  31.754  27.311  1.00  0.00     0.055 A 
ATOM    101  C   UNL A   1      43.820  31.451  26.818  1.00  0.00     0.041 A 
ATOM    102  F   UNL A   1      42.477  30.160  28.230  1.00  0.00    -0.206 F 
ATOM    103  C   UNL A   1      45.052  32.000  26.488  1.00  0.00     0.022 A 
BRANCH 100 104
ATOM    104  S   UNL A   1      47.751  32.520  26.869  1.00  0.00     0.124 S 
ATOM    105  O   UNL A   1      48.567  31.391  26.439  1.00  0.00    -0.237 OA
ATOM    106  O   UNL A   1      47.372  33.468  25.824  1.00  0.00    -0.237 OA
ATOM    107  O   UNL A   1      48.188  33.143  28.120  1.00  0.00    -0.744 OA
ENDBRANCH 100 104
ENDBRANCH  74  97
ENDBRANCH  48  49
ENDBRANCH  40  43
ENDBRANCH  38  39
ENDBRANCH   1  38
TORSDOF 19
ENDMDL
MODEL 2
REMARK VINA RESULT:     -13.1      2.473      6.926
REMARK SMILES COC(=O)c1ccc([C@H]2CC(=O)Nc3c(C(=O)NCCCNC(=O)c4ccc(-c5c6nc(c(-c7cc(S(=O)(=O)[O-])ccc7F)c7ccc([nH]7)c(-c7cc(S(=O)(=O)[O-])ccc7F)c7nc(c(-c8cc(S(=O)(=O)[O-])ccc8F)c8ccc5[nH]8)C=C7)C=C6)cc4)cn(-c4cc(OC)ccc4OC)c32)cc1
REMARK SMILES IDX 20 1 19 2 18 3 16 4 17 5 15 7 9 8 10 9 100 10 11 11 14 12
REMARK SMILES IDX 89 13 12 14 13 15 88 16 8 18 5 19 6 20 102 21 7 22 101 23
REMARK SMILES IDX 3 24 4 25 2 26 1 27 90 28 91 29 97 30 92 31 96 32 95 33
REMARK SMILES IDX 98 34 99 35 93 36 94 37 21 38 22 39 23 40 24 42 25 43 26 44
REMARK SMILES IDX 87 45 27 46 86 47 28 48 29 49 30 50 80 51 31 52 85 53 79 54
REMARK SMILES IDX 81 55 32 56 84 57 78 58 77 59 33 61 65 62 45 63 64 64 46 65
REMARK SMILES IDX 49 66 63 67 82 68 47 69 48 70 62 72 83 73 50 74 34 75 35 76
REMARK SMILES IDX 43 77 36 78 42 79 44 80 41 81 37 82 38 83 39 84 40 85 66 86
REMARK SMILES IDX 67 87 75 88 68 89 74 90 76 91 73 92 69 93 70 94 71 95 72 96
REMARK SMILES IDX 51 97 52 98 60 99 53 100 59 101 61 102 58 103 54 104 55 105
REMARK SMILES IDX 56 106 57 107
REMARK H PARENT 18 6 13 17 22 41 81 60 49 71
REMARK Flexibility Score: inf
ROOT
ATOM      1  C   UNL A   1      34.590  31.017  27.505  1.00  0.00     0.042 C 
ENDROOT
BRANCH   1   2
ATOM      2  C   UNL A   1      34.058  29.722  26.877  1.00  0.00     0.118 C 
BRANCH   2   3
ATOM      3  N   UNL A   1      32.886  29.207  27.543  1.00  0.00    -0.352 N 
ATOM      4  C   UNL A   1      32.155  28.059  27.419  1.00  0.00     0.254 C 
ATOM      5  O   UNL A   1      31.322  27.878  28.313  1.00  0.00    -0.269 OA
ATOM      6  H   UNL A   1      32.537  29.814  28.236  1.00  0.00     0.163 HD
BRANCH   4   7
ATOM      7  C   UNL A   1      32.236  27.105  26.304  1.00  0.00     0.081 A 
ATOM      8  C   UNL A   1      31.397  24.432  23.807  1.00  0.00     0.078 C 
ATOM      9  C   UNL A   1      29.863  24.510  23.909  1.00  0.00     0.115 C 
ATOM     10  C   UNL A   1      32.035  25.413  24.768  1.00  0.00     0.055 A 
ATOM     11  C   UNL A   1      29.322  25.878  24.214  1.00  0.00     0.225 C 
ATOM     12  C   UNL A   1      31.363  26.453  25.385  1.00  0.00     0.076 A 
ATOM     13  N   UNL A   1      33.367  25.511  25.128  1.00  0.00    -0.314 N 
ATOM     14  O   UNL A   1      28.197  26.226  23.855  1.00  0.00    -0.275 OA
ATOM     15  N   UNL A   1      30.065  26.690  25.016  1.00  0.00    -0.324 N 
ATOM     16  C   UNL A   1      33.487  26.585  25.973  1.00  0.00     0.107 A 
ATOM     17  H   UNL A   1      29.637  27.510  25.355  1.00  0.00     0.170 HD
BRANCH   8  18
ATOM     18  C   UNL A   1      31.746  22.949  23.945  1.00  0.00    -0.038 A 
ATOM     19  C   UNL A   1      32.528  20.259  24.313  1.00  0.00     0.060 A 
ATOM     20  C   UNL A   1      32.342  21.094  25.419  1.00  0.00     0.016 A 
ATOM     21  C   UNL A   1      32.334  20.769  23.028  1.00  0.00     0.016 A 
ATOM     22  C   UNL A   1      31.940  22.420  25.235  1.00  0.00     0.005 A 
ATOM     23  C   UNL A   1      31.988  22.110  22.850  1.00  0.00     0.005 A 
BRANCH  19  24
ATOM     24  C   UNL A   1      32.947  18.851  24.553  1.00  0.00     0.337 C 
ATOM     25  O   UNL A   1      34.025  18.402  24.228  1.00  0.00    -0.246 OA
BRANCH  24  26
ATOM     26  O   UNL A   1      31.933  18.166  25.145  1.00  0.00    -0.465 OA
ATOM     27  C   UNL A   1      32.304  16.873  25.622  1.00  0.00     0.282 C 
ENDBRANCH  24  26
ENDBRANCH  19  24
ENDBRANCH   8  18
BRANCH  13  28
ATOM     28  C   UNL A   1      34.448  24.735  24.663  1.00  0.00     0.091 A 
ATOM     29  C   UNL A   1      35.318  24.246  25.662  1.00  0.00     0.077 A 
ATOM     30  C   UNL A   1      34.726  24.507  23.308  1.00  0.00     0.143 A 
ATOM     31  C   UNL A   1      36.501  23.589  25.334  1.00  0.00     0.121 A 
ATOM     32  C   UNL A   1      35.916  23.819  23.007  1.00  0.00     0.052 A 
ATOM     33  C   UNL A   1      36.801  23.376  23.997  1.00  0.00     0.050 A 
BRANCH  30  34
ATOM     34  O   UNL A   1      34.120  24.903  22.155  1.00  0.00    -0.495 OA
ATOM     35  C   UNL A   1      33.645  26.212  21.906  1.00  0.00     0.278 C 
ENDBRANCH  30  34
BRANCH  31  36
ATOM     36  O   UNL A   1      37.267  23.209  26.399  1.00  0.00    -0.497 OA
ATOM     37  C   UNL A   1      38.328  24.088  26.751  1.00  0.00     0.278 C 
ENDBRANCH  31  36
ENDBRANCH  13  28
ENDBRANCH   4   7
ENDBRANCH   2   3
ENDBRANCH   1   2
BRANCH   1  38
ATOM     38  C   UNL A   1      35.991  30.870  28.071  1.00  0.00     0.118 C 
BRANCH  38  39
ATOM     39  N   UNL A   1      35.951  30.605  29.515  1.00  0.00    -0.352 N 
ATOM     40  C   UNL A   1      36.633  29.654  30.247  1.00  0.00     0.251 C 
ATOM     41  H   UNL A   1      35.354  31.191  30.035  1.00  0.00     0.163 HD
ATOM     42  O   UNL A   1      36.242  29.333  31.362  1.00  0.00    -0.269 OA
BRANCH  40  43
ATOM     43  C   UNL A   1      37.814  29.022  29.641  1.00  0.00     0.039 A 
ATOM     44  C   UNL A   1      38.381  29.521  28.468  1.00  0.00     0.014 A 
ATOM     45  C   UNL A   1      38.415  27.985  30.343  1.00  0.00     0.014 A 
ATOM     46  C   UNL A   1      39.626  29.036  28.075  1.00  0.00     0.010 A 
ATOM     47  C   UNL A   1      39.715  27.657  30.063  1.00  0.00     0.010 A 
ATOM     48  C   UNL A   1      40.313  28.129  28.902  1.00  0.00    -0.014 A 
BRANCH  48  49
ATOM     49  C   UNL A   1      41.692  27.744  28.610  1.00  0.00     0.031 A 
ATOM     50  C   UNL A   1      41.852  26.497  27.814  1.00  0.00     0.074 A 
ATOM     51  C   UNL A   1      42.764  28.522  28.877  1.00  0.00     0.049 A 
ATOM     52  N   UNL A   1      42.309  25.361  28.223  1.00  0.00    -0.248 NA
ATOM     53  C   UNL A   1      41.315  26.458  26.445  1.00  0.00     0.031 C 
ATOM     54  C   UNL A   1      42.806  29.895  29.398  1.00  0.00     0.029 A 
ATOM     55  N   UNL A   1      44.078  28.260  28.640  1.00  0.00    -0.354 N 
ATOM     56  C   UNL A   1      42.325  24.519  27.115  1.00  0.00     0.074 A 
ATOM     57  C   UNL A   1      41.543  25.185  26.108  1.00  0.00     0.031 C 
ATOM     58  C   UNL A   1      44.039  30.417  29.219  1.00  0.00     0.029 A 
ATOM     59  C   UNL A   1      44.919  29.358  28.766  1.00  0.00     0.049 A 
ATOM     60  H   UNL A   1      44.405  27.363  28.399  1.00  0.00     0.167 HD
ATOM     61  C   UNL A   1      43.147  23.432  27.066  1.00  0.00     0.034 A 
ATOM     62  C   UNL A   1      46.256  29.404  28.536  1.00  0.00     0.034 A 
ATOM     63  C   UNL A   1      43.646  23.102  28.383  1.00  0.00     0.049 A 
ATOM     64  C   UNL A   1      46.755  28.017  28.686  1.00  0.00     0.074 A 
ATOM     65  C   UNL A   1      43.042  22.754  29.578  1.00  0.00     0.029 A 
ATOM     66  N   UNL A   1      44.911  23.523  28.728  1.00  0.00    -0.354 N 
ATOM     67  N   UNL A   1      46.716  27.365  29.816  1.00  0.00    -0.248 NA
ATOM     68  C   UNL A   1      46.832  27.183  27.497  1.00  0.00     0.031 C 
ATOM     69  C   UNL A   1      43.761  23.481  30.575  1.00  0.00     0.029 A 
ATOM     70  C   UNL A   1      44.817  24.150  29.949  1.00  0.00     0.049 A 
ATOM     71  H   UNL A   1      45.732  23.399  28.198  1.00  0.00     0.167 HD
ATOM     72  C   UNL A   1      46.319  26.080  29.479  1.00  0.00     0.074 A 
ATOM     73  C   UNL A   1      46.510  26.000  28.030  1.00  0.00     0.031 C 
ATOM     74  C   UNL A   1      45.618  25.295  30.351  1.00  0.00     0.034 A 
BRANCH  61  75
ATOM     75  C   UNL A   1      43.743  22.844  25.806  1.00  0.00     0.023 A 
ATOM     76  C   UNL A   1      43.723  21.443  25.656  1.00  0.00     0.031 A 
ATOM     77  C   UNL A   1      44.547  23.546  24.879  1.00  0.00     0.131 A 
ATOM     78  C   UNL A   1      44.519  20.805  24.685  1.00  0.00     0.055 A 
ATOM     79  C   UNL A   1      45.283  22.912  23.873  1.00  0.00     0.041 A 
ATOM     80  F   UNL A   1      44.746  24.868  24.949  1.00  0.00    -0.206 F 
ATOM     81  C   UNL A   1      45.295  21.533  23.787  1.00  0.00     0.022 A 
BRANCH  78  82
ATOM     82  S   UNL A   1      44.657  18.998  24.725  1.00  0.00     0.124 S 
ATOM     83  O   UNL A   1      44.922  18.687  23.325  1.00  0.00    -0.237 OA
ATOM     84  O   UNL A   1      45.767  18.802  25.652  1.00  0.00    -0.237 OA
ATOM     85  O   UNL A   1      43.349  18.571  25.220  1.00  0.00    -0.744 OA
ENDBRANCH  78  82
ENDBRANCH  61  75
BRANCH  62  86
ATOM     86  C   UNL A   1      47.013  30.508  27.891  1.00  0.00     0.023 A 
ATOM     87  C   UNL A   1      46.389  31.548  27.174  1.00  0.00     0.031 A 
ATOM     88  C   UNL A   1      48.385  30.677  28.194  1.00  0.00     0.131 A 
ATOM     89  C   UNL A   1      47.127  32.695  26.798  1.00  0.00     0.055 A 
ATOM     90  C   UNL A   1      49.108  31.811  27.819  1.00  0.00     0.041 A 
ATOM     91  F   UNL A   1      49.047  29.780  28.941  1.00  0.00    -0.206 F 
ATOM     92  C   UNL A   1      48.478  32.832  27.126  1.00  0.00     0.022 A 
BRANCH  89  93
ATOM     93  S   UNL A   1      46.306  34.082  25.950  1.00  0.00     0.124 S 
ATOM     94  O   UNL A   1      45.195  33.420  25.275  1.00  0.00    -0.237 OA
ATOM     95  O   UNL A   1      45.959  34.966  27.056  1.00  0.00    -0.237 OA
ATOM     96  O   UNL A   1      47.344  34.601  25.057  1.00  0.00    -0.744 OA
ENDBRANCH  89  93
ENDBRANCH  62  86
BRANCH  74  97
ATOM     97  C   UNL A   1      45.491  25.755  31.798  1.00  0.00     0.023 A 
ATOM     98  C   UNL A   1      46.484  25.594  32.794  1.00  0.00     0.031 A 
ATOM     99  C   UNL A   1      44.348  26.499  32.145  1.00  0.00     0.131 A 
ATOM    100  C   UNL A   1      46.305  26.157  34.076  1.00  0.00     0.055 A 
ATOM    101  C   UNL A   1      44.184  27.075  33.405  1.00  0.00     0.041 A 
ATOM    102  F   UNL A   1      43.376  26.712  31.242  1.00  0.00    -0.206 F 
ATOM    103  C   UNL A   1      45.161  26.901  34.378  1.00  0.00     0.022 A 
BRANCH 100 104
ATOM    104  S   UNL A   1      47.550  25.917  35.387  1.00  0.00     0.124 S 
ATOM    105  O   UNL A   1      48.553  26.935  35.100  1.00  0.00    -0.237 OA
ATOM    106  O   UNL A   1      46.771  26.113  36.608  1.00  0.00    -0.237 OA
ATOM    107  O   UNL A   1      48.005  24.541  35.176  1.00  0.00    -0.744 OA
ENDBRANCH 100 104
ENDBRANCH  74  97
ENDBRANCH  48  49
ENDBRANCH  40  43
ENDBRANCH  38  39
ENDBRANCH   1  38
TORSDOF 19
ENDMDL
MODEL 3
REMARK VINA RESULT:     -12.2      2.538      7.107
REMARK SMILES COC(=O)c1ccc([C@H]2CC(=O)Nc3c(C(=O)NCCCNC(=O)c4ccc(-c5c6nc(c(-c7cc(S(=O)(=O)[O-])ccc7F)c7ccc([nH]7)c(-c7cc(S(=O)(=O)[O-])ccc7F)c7nc(c(-c8cc(S(=O)(=O)[O-])ccc8F)c8ccc5[nH]8)C=C7)C=C6)cc4)cn(-c4cc(OC)ccc4OC)c32)cc1
REMARK SMILES IDX 20 1 19 2 18 3 16 4 17 5 15 7 9 8 10 9 100 10 11 11 14 12
REMARK SMILES IDX 89 13 12 14 13 15 88 16 8 18 5 19 6 20 102 21 7 22 101 23
REMARK SMILES IDX 3 24 4 25 2 26 1 27 90 28 91 29 97 30 92 31 96 32 95 33
REMARK SMILES IDX 98 34 99 35 93 36 94 37 21 38 22 39 23 40 24 42 25 43 26 44
REMARK SMILES IDX 87 45 27 46 86 47 28 48 29 49 30 50 80 51 31 52 85 53 79 54
REMARK SMILES IDX 81 55 32 56 84 57 78 58 77 59 33 61 65 62 45 63 64 64 46 65
REMARK SMILES IDX 49 66 63 67 82 68 47 69 48 70 62 72 83 73 50 74 34 75 35 76
REMARK SMILES IDX 43 77 36 78 42 79 44 80 41 81 37 82 38 83 39 84 40 85 66 86
REMARK SMILES IDX 67 87 75 88 68 89 74 90 76 91 73 92 69 93 70 94 71 95 72 96
REMARK SMILES IDX 51 97 52 98 60 99 53 100 59 101 61 102 58 103 54 104 55 105
REMARK SMILES IDX 56 106 57 107
REMARK H PARENT 18 6 13 17 22 41 81 60 49 71
REMARK Flexibility Score: inf
ROOT
ATOM      1  C   UNL A   1      34.662  30.742  27.333  1.00  0.00     0.042 C 
ENDROOT
BRANCH   1   2
ATOM      2  C   UNL A   1      33.469  30.163  26.560  1.00  0.00     0.118 C 
BRANCH   2   3
ATOM      3  N   UNL A   1      32.522  29.479  27.408  1.00  0.00    -0.352 N 
ATOM      4  C   UNL A   1      32.009  28.213  27.423  1.00  0.00     0.254 C 
ATOM      5  O   UNL A   1      31.361  27.931  28.437  1.00  0.00    -0.269 OA
ATOM      6  H   UNL A   1      32.168  30.048  28.129  1.00  0.00     0.163 HD
BRANCH   4   7
ATOM      7  C   UNL A   1      32.106  27.232  26.332  1.00  0.00     0.081 A 
ATOM      8  C   UNL A   1      31.307  24.497  23.890  1.00  0.00     0.078 C 
ATOM      9  C   UNL A   1      29.771  24.571  23.972  1.00  0.00     0.115 C 
ATOM     10  C   UNL A   1      31.929  25.503  24.835  1.00  0.00     0.055 A 
ATOM     11  C   UNL A   1      29.222  25.944  24.238  1.00  0.00     0.225 C 
ATOM     12  C   UNL A   1      31.246  26.555  25.419  1.00  0.00     0.076 A 
ATOM     13  N   UNL A   1      33.257  25.616  25.209  1.00  0.00    -0.314 N 
ATOM     14  O   UNL A   1      28.100  26.279  23.858  1.00  0.00    -0.275 OA
ATOM     15  N   UNL A   1      29.952  26.778  25.029  1.00  0.00    -0.324 N 
ATOM     16  C   UNL A   1      33.363  26.710  26.028  1.00  0.00     0.107 A 
ATOM     17  H   UNL A   1      29.518  27.604  25.343  1.00  0.00     0.170 HD
BRANCH   8  18
ATOM     18  C   UNL A   1      31.660  23.019  24.069  1.00  0.00    -0.038 A 
ATOM     19  C   UNL A   1      32.185  20.250  24.270  1.00  0.00     0.060 A 
ATOM     20  C   UNL A   1      32.146  20.868  23.017  1.00  0.00     0.016 A 
ATOM     21  C   UNL A   1      31.951  21.011  25.418  1.00  0.00     0.016 A 
ATOM     22  C   UNL A   1      31.902  22.241  22.921  1.00  0.00     0.005 A 
ATOM     23  C   UNL A   1      31.651  22.370  25.309  1.00  0.00     0.005 A 
BRANCH  19  24
ATOM     24  C   UNL A   1      32.457  18.788  24.330  1.00  0.00     0.337 C 
ATOM     25  O   UNL A   1      32.404  18.131  25.348  1.00  0.00    -0.246 OA
BRANCH  24  26
ATOM     26  O   UNL A   1      32.802  18.335  23.096  1.00  0.00    -0.465 OA
ATOM     27  C   UNL A   1      33.673  17.206  23.111  1.00  0.00     0.282 C 
ENDBRANCH  24  26
ENDBRANCH  19  24
ENDBRANCH   8  18
BRANCH  13  28
ATOM     28  C   UNL A   1      34.347  24.833  24.776  1.00  0.00     0.091 A 
ATOM     29  C   UNL A   1      35.121  24.250  25.802  1.00  0.00     0.077 A 
ATOM     30  C   UNL A   1      34.721  24.682  23.433  1.00  0.00     0.143 A 
ATOM     31  C   UNL A   1      36.306  23.574  25.520  1.00  0.00     0.121 A 
ATOM     32  C   UNL A   1      35.909  23.973  23.177  1.00  0.00     0.052 A 
ATOM     33  C   UNL A   1      36.701  23.436  24.198  1.00  0.00     0.050 A 
BRANCH  30  34
ATOM     34  O   UNL A   1      34.218  25.172  22.266  1.00  0.00    -0.495 OA
ATOM     35  C   UNL A   1      33.300  24.486  21.436  1.00  0.00     0.278 C 
ENDBRANCH  30  34
BRANCH  31  36
ATOM     36  O   UNL A   1      36.975  23.099  26.612  1.00  0.00    -0.497 OA
ATOM     37  C   UNL A   1      38.245  23.684  26.870  1.00  0.00     0.278 C 
ENDBRANCH  31  36
ENDBRANCH  13  28
ENDBRANCH   4   7
ENDBRANCH   2   3
ENDBRANCH   1   2
BRANCH   1  38
ATOM     38  C   UNL A   1      35.527  29.673  27.977  1.00  0.00     0.118 C 
BRANCH  38  39
ATOM     39  N   UNL A   1      35.667  29.907  29.419  1.00  0.00    -0.352 N 
ATOM     40  C   UNL A   1      36.660  29.484  30.280  1.00  0.00     0.251 C 
ATOM     41  H   UNL A   1      34.951  30.443  29.832  1.00  0.00     0.163 HD
ATOM     42  O   UNL A   1      36.464  29.460  31.488  1.00  0.00    -0.269 OA
BRANCH  40  43
ATOM     43  C   UNL A   1      37.938  29.040  29.705  1.00  0.00     0.039 A 
ATOM     44  C   UNL A   1      38.716  29.893  28.922  1.00  0.00     0.014 A 
ATOM     45  C   UNL A   1      38.399  27.780  30.069  1.00  0.00     0.014 A 
ATOM     46  C   UNL A   1      40.016  29.503  28.606  1.00  0.00     0.010 A 
ATOM     47  C   UNL A   1      39.731  27.492  29.925  1.00  0.00     0.010 A 
ATOM     48  C   UNL A   1      40.536  28.314  29.147  1.00  0.00    -0.014 A 
BRANCH  48  49
ATOM     49  C   UNL A   1      41.948  27.971  28.986  1.00  0.00     0.031 A 
ATOM     50  C   UNL A   1      42.223  26.795  28.117  1.00  0.00     0.074 A 
ATOM     51  C   UNL A   1      42.966  28.738  29.435  1.00  0.00     0.049 A 
ATOM     52  N   UNL A   1      42.656  25.635  28.484  1.00  0.00    -0.248 NA
ATOM     53  C   UNL A   1      41.846  26.861  26.697  1.00  0.00     0.031 C 
ATOM     54  C   UNL A   1      42.919  30.064  30.065  1.00  0.00     0.029 A 
ATOM     55  N   UNL A   1      44.303  28.512  29.329  1.00  0.00    -0.354 N 
ATOM     56  C   UNL A   1      42.815  24.887  27.322  1.00  0.00     0.074 A 
ATOM     57  C   UNL A   1      42.138  25.623  26.288  1.00  0.00     0.031 C 
ATOM     58  C   UNL A   1      44.152  30.614  30.070  1.00  0.00     0.029 A 
ATOM     59  C   UNL A   1      45.101  29.607  29.638  1.00  0.00     0.049 A 
ATOM     60  H   UNL A   1      44.675  27.642  29.057  1.00  0.00     0.167 HD
ATOM     61  C   UNL A   1      43.661  23.818  27.280  1.00  0.00     0.034 A 
ATOM     62  C   UNL A   1      46.454  29.688  29.567  1.00  0.00     0.034 A 
ATOM     63  C   UNL A   1      44.014  23.388  28.615  1.00  0.00     0.049 A 
ATOM     64  C   UNL A   1      46.962  28.300  29.662  1.00  0.00     0.074 A 
ATOM     65  C   UNL A   1      43.287  22.936  29.701  1.00  0.00     0.029 A 
ATOM     66  N   UNL A   1      45.224  23.795  29.135  1.00  0.00    -0.354 N 
ATOM     67  N   UNL A   1      46.810  27.557  30.725  1.00  0.00    -0.248 NA
ATOM     68  C   UNL A   1      47.192  27.566  28.427  1.00  0.00     0.031 C 
ATOM     69  C   UNL A   1      43.873  23.588  30.829  1.00  0.00     0.029 A 
ATOM     70  C   UNL A   1      44.978  24.319  30.384  1.00  0.00     0.049 A 
ATOM     71  H   UNL A   1      46.101  23.724  28.695  1.00  0.00     0.167 HD
ATOM     72  C   UNL A   1      46.482  26.300  30.243  1.00  0.00     0.074 A 
ATOM     73  C   UNL A   1      46.837  26.340  28.824  1.00  0.00     0.031 C 
ATOM     74  C   UNL A   1      45.704  25.437  30.965  1.00  0.00     0.034 A 
BRANCH  61  75
ATOM     75  C   UNL A   1      44.408  23.342  26.054  1.00  0.00     0.023 A 
ATOM     76  C   UNL A   1      44.236  22.002  25.653  1.00  0.00     0.031 A 
ATOM     77  C   UNL A   1      45.460  24.039  25.418  1.00  0.00     0.131 A 
ATOM     78  C   UNL A   1      45.116  21.401  24.731  1.00  0.00     0.055 A 
ATOM     79  C   UNL A   1      46.289  23.458  24.453  1.00  0.00     0.041 A 
ATOM     80  F   UNL A   1      45.811  25.285  25.757  1.00  0.00    -0.206 F 
ATOM     81  C   UNL A   1      46.137  22.124  24.124  1.00  0.00     0.022 A 
BRANCH  78  82
ATOM     82  S   UNL A   1      45.007  19.611  24.469  1.00  0.00     0.124 S 
ATOM     83  O   UNL A   1      46.386  19.192  24.695  1.00  0.00    -0.237 OA
ATOM     84  O   UNL A   1      44.038  19.216  25.485  1.00  0.00    -0.237 OA
ATOM     85  O   UNL A   1      44.542  19.499  23.087  1.00  0.00    -0.744 OA
ENDBRANCH  78  82
ENDBRANCH  61  75
BRANCH  62  86
ATOM     86  C   UNL A   1      47.255  30.850  29.102  1.00  0.00     0.023 A 
ATOM     87  C   UNL A   1      48.228  31.480  29.905  1.00  0.00     0.031 A 
ATOM     88  C   UNL A   1      47.233  31.204  27.733  1.00  0.00     0.131 A 
ATOM     89  C   UNL A   1      49.127  32.410  29.333  1.00  0.00     0.055 A 
ATOM     90  C   UNL A   1      48.122  32.123  27.174  1.00  0.00     0.041 A 
ATOM     91  F   UNL A   1      46.397  30.600  26.873  1.00  0.00    -0.206 F 
ATOM     92  C   UNL A   1      49.082  32.725  27.972  1.00  0.00     0.022 A 
BRANCH  89  93
ATOM     93  S   UNL A   1      50.443  33.161  30.344  1.00  0.00     0.124 S 
ATOM     94  O   UNL A   1      49.688  34.020  31.248  1.00  0.00    -0.237 OA
ATOM     95  O   UNL A   1      51.085  31.996  30.940  1.00  0.00    -0.237 OA
ATOM     96  O   UNL A   1      51.264  33.874  29.362  1.00  0.00    -0.744 OA
ENDBRANCH  89  93
ENDBRANCH  62  86
BRANCH  74  97
ATOM     97  C   UNL A   1      45.404  25.777  32.419  1.00  0.00     0.023 A 
ATOM     98  C   UNL A   1      44.237  26.435  32.878  1.00  0.00     0.031 A 
ATOM     99  C   UNL A   1      46.298  25.300  33.394  1.00  0.00     0.131 A 
ATOM    100  C   UNL A   1      44.011  26.601  34.262  1.00  0.00     0.055 A 
ATOM    101  C   UNL A   1      46.061  25.444  34.762  1.00  0.00     0.041 A 
ATOM    102  F   UNL A   1      47.415  24.645  33.032  1.00  0.00    -0.206 F 
ATOM    103  C   UNL A   1      44.918  26.101  35.201  1.00  0.00     0.022 A 
BRANCH 100 104
ATOM    104  S   UNL A   1      42.540  27.491  34.870  1.00  0.00     0.124 S 
ATOM    105  O   UNL A   1      42.930  27.927  36.205  1.00  0.00    -0.237 OA
ATOM    106  O   UNL A   1      42.372  28.548  33.876  1.00  0.00    -0.237 OA
ATOM    107  O   UNL A   1      41.491  26.469  34.849  1.00  0.00    -0.744 OA
ENDBRANCH 100 104
ENDBRANCH  74  97
ENDBRANCH  48  49
ENDBRANCH  40  43
ENDBRANCH  38  39
ENDBRANCH   1  38
TORSDOF 19
ENDMDL
