MODEL 1
REMARK VINA RESULT:     -12.1      0.000      0.000
REMARK SMILES Cc1cc(C)cc(CSc2cc(C(=O)NCCCNC(=O)c3ccc(-c4c5nc(c(-c6cc(S(=O)(=O)[O-])ccc6F)c6ccc([nH]6)c(-c6cc(S(=O)(=O)[O-])ccc6F)c6nc(c(-c7cc(S(=O)(=O)[O-])ccc7F)c7ccc4[nH]7)C=C6)C=C5)cc3)cc(Cl)n2)c1
REMARK SMILES IDX 17 1 16 2 15 3 13 4 14 5 12 7 10 8 11 9 88 10 86 11 85 12
REMARK SMILES IDX 87 13 9 14 8 15 7 16 1 17 2 18 3 19 89 20 4 21 5 22 6 23
REMARK SMILES IDX 18 24 19 25 20 26 21 28 22 29 23 30 84 31 24 32 83 33 25 34
REMARK SMILES IDX 26 35 27 36 77 37 28 38 82 39 76 40 78 41 29 42 81 43 75 44
REMARK SMILES IDX 74 45 30 47 62 48 42 49 61 50 43 51 46 52 60 53 79 54 44 55
REMARK SMILES IDX 45 56 59 58 80 59 47 60 31 61 32 62 40 63 33 64 39 65 41 66
REMARK SMILES IDX 38 67 34 68 35 69 36 70 37 71 63 72 64 73 72 74 65 75 71 76
REMARK SMILES IDX 73 77 70 78 66 79 67 80 68 81 69 82 48 83 49 84 57 85 50 86
REMARK SMILES IDX 56 87 58 88 55 89 51 90 52 91 53 92 54 93
REMARK H PARENT 15 6 19 27 78 46 46 57
REMARK Flexibility Score: inf
ROOT
ATOM      1  C   UNL A   1      33.200  28.253  27.129  1.00  0.00     0.042 C 
ENDROOT
BRANCH   1   2
ATOM      2  C   UNL A   1      31.702  28.369  27.411  1.00  0.00     0.118 C 
BRANCH   2   3
ATOM      3  N   UNL A   1      31.031  27.091  27.250  1.00  0.00    -0.352 N 
ATOM      4  C   UNL A   1      30.632  26.357  26.167  1.00  0.00     0.251 C 
ATOM      5  O   UNL A   1      30.136  25.252  26.397  1.00  0.00    -0.269 OA
ATOM      6  H   UNL A   1      30.815  26.659  28.109  1.00  0.00     0.163 HD
BRANCH   4   7
ATOM      7  C   UNL A   1      30.787  26.779  24.748  1.00  0.00     0.045 A 
ATOM      8  C   UNL A   1      31.889  26.374  22.644  1.00  0.00     0.099 A 
ATOM      9  C   UNL A   1      31.710  26.052  23.979  1.00  0.00     0.049 A 
ATOM     10  N   UNL A   1      31.209  27.366  22.047  1.00  0.00    -0.230 NA
ATOM     11  C   UNL A   1      30.330  28.047  22.797  1.00  0.00     0.131 A 
ATOM     12  C   UNL A   1      30.055  27.782  24.125  1.00  0.00     0.055 A 
ATOM     13  Cl  UNL A   1      29.534  29.323  21.973  1.00  0.00    -0.062 Cl
BRANCH   8  14
ATOM     14  S   UNL A   1      32.942  25.379  21.612  1.00  0.00    -0.102 SA
BRANCH  14  15
ATOM     15  C   UNL A   1      32.428  23.705  22.107  1.00  0.00     0.112 C 
BRANCH  15  16
ATOM     16  C   UNL A   1      33.383  22.946  22.995  1.00  0.00    -0.037 A 
ATOM     17  C   UNL A   1      33.283  19.947  25.354  1.00  0.00     0.044 C 
ATOM     18  C   UNL A   1      33.781  21.121  24.566  1.00  0.00    -0.051 A 
ATOM     19  C   UNL A   1      35.110  21.539  24.699  1.00  0.00     0.006 A 
ATOM     20  C   UNL A   1      32.926  21.829  23.713  1.00  0.00     0.008 A 
ATOM     21  C   UNL A   1      35.592  22.642  23.984  1.00  0.00    -0.051 A 
ATOM     22  C   UNL A   1      37.007  23.097  24.176  1.00  0.00     0.044 C 
ATOM     23  C   UNL A   1      34.728  23.327  23.121  1.00  0.00     0.008 A 
ENDBRANCH  15  16
ENDBRANCH  14  15
ENDBRANCH   8  14
ENDBRANCH   4   7
ENDBRANCH   2   3
ENDBRANCH   1   2
BRANCH   1  24
ATOM     24  C   UNL A   1      33.707  29.274  26.109  1.00  0.00     0.118 C 
BRANCH  24  25
ATOM     25  N   UNL A   1      33.638  30.635  26.625  1.00  0.00    -0.352 N 
ATOM     26  C   UNL A   1      34.352  31.242  27.629  1.00  0.00     0.251 C 
ATOM     27  H   UNL A   1      32.976  31.212  26.182  1.00  0.00     0.163 HD
ATOM     28  O   UNL A   1      33.954  32.316  28.071  1.00  0.00    -0.269 OA
BRANCH  26  29
ATOM     29  C   UNL A   1      35.575  30.616  28.180  1.00  0.00     0.039 A 
ATOM     30  C   UNL A   1      36.793  30.827  27.527  1.00  0.00     0.014 A 
ATOM     31  C   UNL A   1      35.521  29.780  29.299  1.00  0.00     0.014 A 
ATOM     32  C   UNL A   1      37.962  30.244  28.026  1.00  0.00     0.010 A 
ATOM     33  C   UNL A   1      36.697  29.257  29.835  1.00  0.00     0.010 A 
ATOM     34  C   UNL A   1      37.928  29.478  29.201  1.00  0.00    -0.014 A 
BRANCH  34  35
ATOM     35  C   UNL A   1      39.168  28.892  29.778  1.00  0.00     0.031 A 
ATOM     36  C   UNL A   1      39.769  29.472  31.029  1.00  0.00     0.074 A 
ATOM     37  C   UNL A   1      39.783  27.877  29.142  1.00  0.00     0.049 A 
ATOM     38  N   UNL A   1      40.881  29.156  31.641  1.00  0.00    -0.248 NA
ATOM     39  C   UNL A   1      39.031  30.578  31.657  1.00  0.00     0.031 C 
ATOM     40  C   UNL A   1      39.312  27.246  27.908  1.00  0.00     0.029 A 
ATOM     41  N   UNL A   1      40.937  27.199  29.440  1.00  0.00    -0.354 N 
ATOM     42  C   UNL A   1      40.982  30.029  32.720  1.00  0.00     0.074 A 
ATOM     43  C   UNL A   1      39.854  30.932  32.630  1.00  0.00     0.031 C 
ATOM     44  C   UNL A   1      40.151  26.252  27.574  1.00  0.00     0.029 A 
ATOM     45  C   UNL A   1      41.245  26.206  28.539  1.00  0.00     0.049 A 
ATOM     46  H   UNL A   1      41.495  27.405  30.226  1.00  0.00     0.167 HD
ATOM     47  C   UNL A   1      41.913  30.055  33.709  1.00  0.00     0.034 A 
ATOM     48  C   UNL A   1      42.293  25.361  28.492  1.00  0.00     0.034 A 
ATOM     49  C   UNL A   1      43.034  29.148  33.780  1.00  0.00     0.049 A 
ATOM     50  C   UNL A   1      43.346  25.446  29.565  1.00  0.00     0.074 A 
ATOM     51  C   UNL A   1      44.018  29.060  34.749  1.00  0.00     0.029 A 
ATOM     52  N   UNL A   1      43.327  28.172  32.833  1.00  0.00    -0.354 N 
ATOM     53  N   UNL A   1      43.411  26.254  30.599  1.00  0.00    -0.248 NA
ATOM     54  C   UNL A   1      44.464  24.500  29.467  1.00  0.00     0.031 C 
ATOM     55  C   UNL A   1      44.939  28.082  34.356  1.00  0.00     0.029 A 
ATOM     56  C   UNL A   1      44.491  27.502  33.180  1.00  0.00     0.049 A 
ATOM     57  H   UNL A   1      42.787  27.984  32.032  1.00  0.00     0.167 HD
ATOM     58  C   UNL A   1      44.561  25.887  31.294  1.00  0.00     0.074 A 
ATOM     59  C   UNL A   1      45.150  24.782  30.565  1.00  0.00     0.031 C 
ATOM     60  C   UNL A   1      45.078  26.411  32.435  1.00  0.00     0.034 A 
BRANCH  47  61
ATOM     61  C   UNL A   1      41.759  31.125  34.768  1.00  0.00     0.023 A 
ATOM     62  C   UNL A   1      40.676  31.121  35.665  1.00  0.00     0.031 A 
ATOM     63  C   UNL A   1      42.665  32.198  34.844  1.00  0.00     0.131 A 
ATOM     64  C   UNL A   1      40.466  32.214  36.519  1.00  0.00     0.055 A 
ATOM     65  C   UNL A   1      42.504  33.236  35.766  1.00  0.00     0.041 A 
ATOM     66  F   UNL A   1      43.710  32.274  34.005  1.00  0.00    -0.206 F 
ATOM     67  C   UNL A   1      41.386  33.259  36.595  1.00  0.00     0.022 A 
BRANCH  64  68
ATOM     68  S   UNL A   1      38.875  32.335  37.386  1.00  0.00     0.124 S 
ATOM     69  O   UNL A   1      38.274  31.039  37.080  1.00  0.00    -0.237 OA
ATOM     70  O   UNL A   1      39.285  32.540  38.770  1.00  0.00    -0.237 OA
ATOM     71  O   UNL A   1      38.226  33.480  36.750  1.00  0.00    -0.744 OA
ENDBRANCH  64  68
ENDBRANCH  47  61
BRANCH  48  72
ATOM     72  C   UNL A   1      42.397  24.354  27.399  1.00  0.00     0.023 A 
ATOM     73  C   UNL A   1      41.607  23.194  27.419  1.00  0.00     0.031 A 
ATOM     74  C   UNL A   1      43.303  24.518  26.338  1.00  0.00     0.131 A 
ATOM     75  C   UNL A   1      41.763  22.225  26.417  1.00  0.00     0.055 A 
ATOM     76  C   UNL A   1      43.421  23.574  25.317  1.00  0.00     0.041 A 
ATOM     77  F   UNL A   1      44.078  25.613  26.269  1.00  0.00    -0.206 F 
ATOM     78  C   UNL A   1      42.655  22.413  25.359  1.00  0.00     0.022 A 
BRANCH  75  79
ATOM     79  S   UNL A   1      40.827  20.677  26.555  1.00  0.00     0.124 S 
ATOM     80  O   UNL A   1      41.673  19.751  25.811  1.00  0.00    -0.237 OA
ATOM     81  O   UNL A   1      40.776  20.481  27.999  1.00  0.00    -0.237 OA
ATOM     82  O   UNL A   1      39.547  20.998  25.926  1.00  0.00    -0.744 OA
ENDBRANCH  75  79
ENDBRANCH  48  72
BRANCH  60  83
ATOM     83  C   UNL A   1      46.322  25.755  32.984  1.00  0.00     0.023 A 
ATOM     84  C   UNL A   1      46.258  24.669  33.875  1.00  0.00     0.031 A 
ATOM     85  C   UNL A   1      47.593  26.240  32.623  1.00  0.00     0.131 A 
ATOM     86  C   UNL A   1      47.438  24.141  34.420  1.00  0.00     0.055 A 
ATOM     87  C   UNL A   1      48.765  25.671  33.121  1.00  0.00     0.041 A 
ATOM     88  F   UNL A   1      47.714  27.276  31.779  1.00  0.00    -0.206 F 
ATOM     89  C   UNL A   1      48.691  24.624  34.035  1.00  0.00     0.022 A 
BRANCH  86  90
ATOM     90  S   UNL A   1      47.310  22.875  35.713  1.00  0.00     0.124 S 
ATOM     91  O   UNL A   1      47.280  23.684  36.928  1.00  0.00    -0.237 OA
ATOM     92  O   UNL A   1      46.066  22.198  35.366  1.00  0.00    -0.237 OA
ATOM     93  O   UNL A   1      48.521  22.076  35.531  1.00  0.00    -0.744 OA
ENDBRANCH  86  90
ENDBRANCH  60  83
ENDBRANCH  34  35
ENDBRANCH  26  29
ENDBRANCH  24  25
ENDBRANCH   1  24
TORSDOF 16
ENDMDL
MODEL 2
REMARK VINA RESULT:     -12.1      5.127      7.889
REMARK SMILES Cc1cc(C)cc(CSc2cc(C(=O)NCCCNC(=O)c3ccc(-c4c5nc(c(-c6cc(S(=O)(=O)[O-])ccc6F)c6ccc([nH]6)c(-c6cc(S(=O)(=O)[O-])ccc6F)c6nc(c(-c7cc(S(=O)(=O)[O-])ccc7F)c7ccc4[nH]7)C=C6)C=C5)cc3)cc(Cl)n2)c1
REMARK SMILES IDX 17 1 16 2 15 3 13 4 14 5 12 7 10 8 11 9 88 10 86 11 85 12
REMARK SMILES IDX 87 13 9 14 8 15 7 16 1 17 2 18 3 19 89 20 4 21 5 22 6 23
REMARK SMILES IDX 18 24 19 25 20 26 21 28 22 29 23 30 84 31 24 32 83 33 25 34
REMARK SMILES IDX 26 35 27 36 77 37 28 38 82 39 76 40 78 41 29 42 81 43 75 44
REMARK SMILES IDX 74 45 30 47 62 48 42 49 61 50 43 51 46 52 60 53 79 54 44 55
REMARK SMILES IDX 45 56 59 58 80 59 47 60 31 61 32 62 40 63 33 64 39 65 41 66
REMARK SMILES IDX 38 67 34 68 35 69 36 70 37 71 63 72 64 73 72 74 65 75 71 76
REMARK SMILES IDX 73 77 70 78 66 79 67 80 68 81 69 82 48 83 49 84 57 85 50 86
REMARK SMILES IDX 56 87 58 88 55 89 51 90 52 91 53 92 54 93
REMARK H PARENT 15 6 19 27 78 46 46 57
REMARK Flexibility Score: inf
ROOT
ATOM      1  C   UNL A   1      34.235  21.549  26.820  1.00  0.00     0.042 C 
ENDROOT
BRANCH   1   2
ATOM      2  C   UNL A   1      33.036  21.652  25.877  1.00  0.00     0.118 C 
BRANCH   2   3
ATOM      3  N   UNL A   1      31.865  22.170  26.562  1.00  0.00    -0.352 N 
ATOM      4  C   UNL A   1      31.275  23.402  26.637  1.00  0.00     0.251 C 
ATOM      5  O   UNL A   1      30.222  23.476  27.273  1.00  0.00    -0.269 OA
ATOM      6  H   UNL A   1      31.392  21.484  27.087  1.00  0.00     0.163 HD
BRANCH   4   7
ATOM      7  C   UNL A   1      31.793  24.636  25.984  1.00  0.00     0.045 A 
ATOM      8  C   UNL A   1      31.849  25.969  23.978  1.00  0.00     0.099 A 
ATOM      9  C   UNL A   1      31.424  24.831  24.642  1.00  0.00     0.049 A 
ATOM     10  N   UNL A   1      32.610  26.904  24.568  1.00  0.00    -0.230 NA
ATOM     11  C   UNL A   1      32.949  26.701  25.850  1.00  0.00     0.131 A 
ATOM     12  C   UNL A   1      32.549  25.618  26.609  1.00  0.00     0.055 A 
ATOM     13  Cl  UNL A   1      33.956  27.919  26.518  1.00  0.00    -0.062 Cl
BRANCH   8  14
ATOM     14  S   UNL A   1      31.280  26.313  22.328  1.00  0.00    -0.102 SA
BRANCH  14  15
ATOM     15  C   UNL A   1      31.301  28.134  22.329  1.00  0.00     0.112 C 
BRANCH  15  16
ATOM     16  C   UNL A   1      29.968  28.820  22.497  1.00  0.00    -0.037 A 
ATOM     17  C   UNL A   1      28.510  32.322  22.078  1.00  0.00     0.044 C 
ATOM     18  C   UNL A   1      28.630  30.856  22.370  1.00  0.00    -0.051 A 
ATOM     19  C   UNL A   1      27.522  30.146  22.847  1.00  0.00     0.006 A 
ATOM     20  C   UNL A   1      29.847  30.186  22.198  1.00  0.00     0.008 A 
ATOM     21  C   UNL A   1      27.616  28.780  23.142  1.00  0.00    -0.051 A 
ATOM     22  C   UNL A   1      26.427  28.052  23.692  1.00  0.00     0.044 C 
ATOM     23  C   UNL A   1      28.836  28.122  22.945  1.00  0.00     0.008 A 
ENDBRANCH  15  16
ENDBRANCH  14  15
ENDBRANCH   8  14
ENDBRANCH   4   7
ENDBRANCH   2   3
ENDBRANCH   1   2
BRANCH   1  24
ATOM     24  C   UNL A   1      35.520  22.139  26.236  1.00  0.00     0.118 C 
BRANCH  24  25
ATOM     25  N   UNL A   1      36.487  21.104  25.896  1.00  0.00    -0.352 N 
ATOM     26  C   UNL A   1      37.845  21.185  25.705  1.00  0.00     0.251 C 
ATOM     27  H   UNL A   1      36.107  20.203  25.788  1.00  0.00     0.163 HD
ATOM     28  O   UNL A   1      38.424  20.242  25.173  1.00  0.00    -0.269 OA
BRANCH  26  29
ATOM     29  C   UNL A   1      38.603  22.386  26.123  1.00  0.00     0.039 A 
ATOM     30  C   UNL A   1      39.761  22.219  26.888  1.00  0.00     0.014 A 
ATOM     31  C   UNL A   1      38.151  23.672  25.816  1.00  0.00     0.014 A 
ATOM     32  C   UNL A   1      40.494  23.338  27.297  1.00  0.00     0.010 A 
ATOM     33  C   UNL A   1      38.918  24.782  26.165  1.00  0.00     0.010 A 
ATOM     34  C   UNL A   1      40.094  24.627  26.914  1.00  0.00    -0.014 A 
BRANCH  34  35
ATOM     35  C   UNL A   1      40.887  25.827  27.295  1.00  0.00     0.031 A 
ATOM     36  C   UNL A   1      40.286  26.880  28.184  1.00  0.00     0.074 A 
ATOM     37  C   UNL A   1      42.125  25.994  26.791  1.00  0.00     0.049 A 
ATOM     38  N   UNL A   1      40.782  28.030  28.564  1.00  0.00    -0.248 NA
ATOM     39  C   UNL A   1      38.930  26.615  28.688  1.00  0.00     0.031 C 
ATOM     40  C   UNL A   1      42.807  25.056  25.898  1.00  0.00     0.029 A 
ATOM     41  N   UNL A   1      43.028  27.013  26.954  1.00  0.00    -0.354 N 
ATOM     42  C   UNL A   1      39.797  28.630  29.344  1.00  0.00     0.074 A 
ATOM     43  C   UNL A   1      38.651  27.745  29.316  1.00  0.00     0.031 C 
ATOM     44  C   UNL A   1      44.033  25.527  25.620  1.00  0.00     0.029 A 
ATOM     45  C   UNL A   1      44.207  26.821  26.271  1.00  0.00     0.049 A 
ATOM     46  H   UNL A   1      42.850  27.809  27.507  1.00  0.00     0.167 HD
ATOM     47  C   UNL A   1      39.855  29.795  30.039  1.00  0.00     0.034 A 
ATOM     48  C   UNL A   1      45.301  27.602  26.175  1.00  0.00     0.034 A 
ATOM     49  C   UNL A   1      41.006  30.665  30.052  1.00  0.00     0.049 A 
ATOM     50  C   UNL A   1      45.321  28.919  26.907  1.00  0.00     0.074 A 
ATOM     51  C   UNL A   1      41.190  31.850  30.744  1.00  0.00     0.029 A 
ATOM     52  N   UNL A   1      42.172  30.450  29.325  1.00  0.00    -0.354 N 
ATOM     53  N   UNL A   1      44.397  29.458  27.668  1.00  0.00    -0.248 NA
ATOM     54  C   UNL A   1      46.538  29.729  26.769  1.00  0.00     0.031 C 
ATOM     55  C   UNL A   1      42.434  32.382  30.386  1.00  0.00     0.029 A 
ATOM     56  C   UNL A   1      43.064  31.494  29.529  1.00  0.00     0.049 A 
ATOM     57  H   UNL A   1      42.342  29.670  28.749  1.00  0.00     0.167 HD
ATOM     58  C   UNL A   1      44.937  30.655  28.128  1.00  0.00     0.074 A 
ATOM     59  C   UNL A   1      46.269  30.753  27.566  1.00  0.00     0.031 C 
ATOM     60  C   UNL A   1      44.384  31.587  28.949  1.00  0.00     0.034 A 
BRANCH  47  61
ATOM     61  C   UNL A   1      38.617  30.193  30.814  1.00  0.00     0.023 A 
ATOM     62  C   UNL A   1      37.565  30.901  30.205  1.00  0.00     0.031 A 
ATOM     63  C   UNL A   1      38.511  29.922  32.190  1.00  0.00     0.131 A 
ATOM     64  C   UNL A   1      36.513  31.405  30.985  1.00  0.00     0.055 A 
ATOM     65  C   UNL A   1      37.411  30.342  32.942  1.00  0.00     0.041 A 
ATOM     66  F   UNL A   1      39.488  29.266  32.836  1.00  0.00    -0.206 F 
ATOM     67  C   UNL A   1      36.415  31.108  32.344  1.00  0.00     0.022 A 
BRANCH  64  68
ATOM     68  S   UNL A   1      35.384  32.611  30.231  1.00  0.00     0.124 S 
ATOM     69  O   UNL A   1      36.268  33.759  30.036  1.00  0.00    -0.237 OA
ATOM     70  O   UNL A   1      34.951  31.923  29.021  1.00  0.00    -0.237 OA
ATOM     71  O   UNL A   1      34.353  32.796  31.250  1.00  0.00    -0.744 OA
ENDBRANCH  64  68
ENDBRANCH  47  61
BRANCH  48  72
ATOM     72  C   UNL A   1      46.471  27.161  25.366  1.00  0.00     0.023 A 
ATOM     73  C   UNL A   1      46.801  27.818  24.170  1.00  0.00     0.031 A 
ATOM     74  C   UNL A   1      47.258  26.064  25.756  1.00  0.00     0.131 A 
ATOM     75  C   UNL A   1      47.867  27.350  23.387  1.00  0.00     0.055 A 
ATOM     76  C   UNL A   1      48.347  25.632  24.999  1.00  0.00     0.041 A 
ATOM     77  F   UNL A   1      46.988  25.405  26.895  1.00  0.00    -0.206 F 
ATOM     78  C   UNL A   1      48.650  26.270  23.799  1.00  0.00     0.022 A 
BRANCH  75  79
ATOM     79  S   UNL A   1      48.173  28.136  21.781  1.00  0.00     0.124 S 
ATOM     80  O   UNL A   1      49.555  28.577  21.925  1.00  0.00    -0.237 OA
ATOM     81  O   UNL A   1      47.943  27.033  20.855  1.00  0.00    -0.237 OA
ATOM     82  O   UNL A   1      47.177  29.205  21.732  1.00  0.00    -0.744 OA
ENDBRANCH  75  79
ENDBRANCH  48  72
BRANCH  60  83
ATOM     83  C   UNL A   1      45.249  32.767  29.319  1.00  0.00     0.023 A 
ATOM     84  C   UNL A   1      45.214  33.971  28.592  1.00  0.00     0.031 A 
ATOM     85  C   UNL A   1      46.138  32.678  30.406  1.00  0.00     0.131 A 
ATOM     86  C   UNL A   1      46.092  35.014  28.924  1.00  0.00     0.055 A 
ATOM     87  C   UNL A   1      46.964  33.741  30.770  1.00  0.00     0.041 A 
ATOM     88  F   UNL A   1      46.215  31.552  31.133  1.00  0.00    -0.206 F 
ATOM     89  C   UNL A   1      46.954  34.913  30.019  1.00  0.00     0.022 A 
BRANCH  86  90
ATOM     90  S   UNL A   1      46.159  36.472  27.848  1.00  0.00     0.124 S 
ATOM     91  O   UNL A   1      46.282  35.867  26.525  1.00  0.00    -0.237 OA
ATOM     92  O   UNL A   1      44.888  37.130  28.132  1.00  0.00    -0.237 OA
ATOM     93  O   UNL A   1      47.345  37.189  28.314  1.00  0.00    -0.744 OA
ENDBRANCH  86  90
ENDBRANCH  60  83
ENDBRANCH  34  35
ENDBRANCH  26  29
ENDBRANCH  24  25
ENDBRANCH   1  24
TORSDOF 16
ENDMDL
MODEL 3
REMARK VINA RESULT:     -12.1      3.160      8.506
REMARK SMILES Cc1cc(C)cc(CSc2cc(C(=O)NCCCNC(=O)c3ccc(-c4c5nc(c(-c6cc(S(=O)(=O)[O-])ccc6F)c6ccc([nH]6)c(-c6cc(S(=O)(=O)[O-])ccc6F)c6nc(c(-c7cc(S(=O)(=O)[O-])ccc7F)c7ccc4[nH]7)C=C6)C=C5)cc3)cc(Cl)n2)c1
REMARK SMILES IDX 17 1 16 2 15 3 13 4 14 5 12 7 10 8 11 9 88 10 86 11 85 12
REMARK SMILES IDX 87 13 9 14 8 15 7 16 1 17 2 18 3 19 89 20 4 21 5 22 6 23
REMARK SMILES IDX 18 24 19 25 20 26 21 28 22 29 23 30 84 31 24 32 83 33 25 34
REMARK SMILES IDX 26 35 27 36 77 37 28 38 82 39 76 40 78 41 29 42 81 43 75 44
REMARK SMILES IDX 74 45 30 47 62 48 42 49 61 50 43 51 46 52 60 53 79 54 44 55
REMARK SMILES IDX 45 56 59 58 80 59 47 60 31 61 32 62 40 63 33 64 39 65 41 66
REMARK SMILES IDX 38 67 34 68 35 69 36 70 37 71 63 72 64 73 72 74 65 75 71 76
REMARK SMILES IDX 73 77 70 78 66 79 67 80 68 81 69 82 48 83 49 84 57 85 50 86
REMARK SMILES IDX 56 87 58 88 55 89 51 90 52 91 53 92 54 93
REMARK H PARENT 15 6 19 27 78 46 46 57
REMARK Flexibility Score: inf
ROOT
ATOM      1  C   UNL A   1      31.434  31.908  26.535  1.00  0.00     0.042 C 
ENDROOT
BRANCH   1   2
ATOM      2  C   UNL A   1      31.650  30.568  25.832  1.00  0.00     0.118 C 
BRANCH   2   3
ATOM      3  N   UNL A   1      32.899  29.949  26.241  1.00  0.00    -0.352 N 
ATOM      4  C   UNL A   1      33.380  28.668  26.207  1.00  0.00     0.251 C 
ATOM      5  O   UNL A   1      34.542  28.502  26.585  1.00  0.00    -0.269 OA
ATOM      6  H   UNL A   1      33.538  30.590  26.627  1.00  0.00     0.163 HD
BRANCH   4   7
ATOM      7  C   UNL A   1      32.621  27.485  25.719  1.00  0.00     0.045 A 
ATOM      8  C   UNL A   1      32.512  25.699  24.105  1.00  0.00     0.099 A 
ATOM      9  C   UNL A   1      33.153  26.822  24.600  1.00  0.00     0.049 A 
ATOM     10  N   UNL A   1      31.388  25.212  24.655  1.00  0.00    -0.230 NA
ATOM     11  C   UNL A   1      30.897  25.857  25.724  1.00  0.00     0.131 A 
ATOM     12  C   UNL A   1      31.479  26.963  26.313  1.00  0.00     0.055 A 
ATOM     13  Cl  UNL A   1      29.439  25.198  26.341  1.00  0.00    -0.062 Cl
BRANCH   8  14
ATOM     14  S   UNL A   1      33.239  24.757  22.783  1.00  0.00    -0.102 SA
BRANCH  14  15
ATOM     15  C   UNL A   1      32.306  23.199  22.916  1.00  0.00     0.112 C 
BRANCH  15  16
ATOM     16  C   UNL A   1      33.023  22.042  23.566  1.00  0.00    -0.037 A 
ATOM     17  C   UNL A   1      32.400  18.336  24.232  1.00  0.00     0.044 C 
ATOM     18  C   UNL A   1      33.053  19.685  24.196  1.00  0.00    -0.051 A 
ATOM     19  C   UNL A   1      34.297  19.875  24.810  1.00  0.00     0.006 A 
ATOM     20  C   UNL A   1      32.425  20.772  23.577  1.00  0.00     0.008 A 
ATOM     21  C   UNL A   1      34.917  21.130  24.802  1.00  0.00    -0.051 A 
ATOM     22  C   UNL A   1      36.228  21.319  25.504  1.00  0.00     0.044 C 
ATOM     23  C   UNL A   1      34.284  22.202  24.162  1.00  0.00     0.008 A 
ENDBRANCH  15  16
ENDBRANCH  14  15
ENDBRANCH   8  14
ENDBRANCH   4   7
ENDBRANCH   2   3
ENDBRANCH   1   2
BRANCH   1  24
ATOM     24  C   UNL A   1      32.680  32.422  27.258  1.00  0.00     0.118 C 
BRANCH  24  25
ATOM     25  N   UNL A   1      32.567  33.834  27.598  1.00  0.00    -0.352 N 
ATOM     26  C   UNL A   1      33.186  34.564  28.583  1.00  0.00     0.251 C 
ATOM     27  H   UNL A   1      31.948  34.347  27.031  1.00  0.00     0.163 HD
ATOM     28  O   UNL A   1      32.751  35.679  28.856  1.00  0.00    -0.269 OA
BRANCH  26  29
ATOM     29  C   UNL A   1      34.354  34.020  29.314  1.00  0.00     0.039 A 
ATOM     30  C   UNL A   1      34.132  33.167  30.399  1.00  0.00     0.014 A 
ATOM     31  C   UNL A   1      35.658  34.390  28.974  1.00  0.00     0.014 A 
ATOM     32  C   UNL A   1      35.218  32.643  31.107  1.00  0.00     0.010 A 
ATOM     33  C   UNL A   1      36.741  33.813  29.636  1.00  0.00     0.010 A 
ATOM     34  C   UNL A   1      36.533  32.938  30.712  1.00  0.00    -0.014 A 
BRANCH  34  35
ATOM     35  C   UNL A   1      37.702  32.351  31.419  1.00  0.00     0.031 A 
ATOM     36  C   UNL A   1      38.465  31.210  30.803  1.00  0.00     0.074 A 
ATOM     37  C   UNL A   1      38.039  32.806  32.640  1.00  0.00     0.049 A 
ATOM     38  N   UNL A   1      39.458  30.513  31.293  1.00  0.00    -0.248 NA
ATOM     39  C   UNL A   1      38.028  30.777  29.468  1.00  0.00     0.031 C 
ATOM     40  C   UNL A   1      37.361  33.890  33.354  1.00  0.00     0.029 A 
ATOM     41  N   UNL A   1      39.032  32.414  33.501  1.00  0.00    -0.354 N 
ATOM     42  C   UNL A   1      39.760  29.554  30.330  1.00  0.00     0.074 A 
ATOM     43  C   UNL A   1      38.792  29.717  29.265  1.00  0.00     0.031 C 
ATOM     44  C   UNL A   1      37.979  34.098  34.527  1.00  0.00     0.029 A 
ATOM     45  C   UNL A   1      39.063  33.133  34.674  1.00  0.00     0.049 A 
ATOM     46  H   UNL A   1      39.664  31.686  33.300  1.00  0.00     0.167 HD
ATOM     47  C   UNL A   1      40.766  28.642  30.324  1.00  0.00     0.034 A 
ATOM     48  C   UNL A   1      39.870  33.021  35.748  1.00  0.00     0.034 A 
ATOM     49  C   UNL A   1      41.719  28.492  31.398  1.00  0.00     0.049 A 
ATOM     50  C   UNL A   1      40.942  31.963  35.747  1.00  0.00     0.074 A 
ATOM     51  C   UNL A   1      42.797  27.628  31.486  1.00  0.00     0.029 A 
ATOM     52  N   UNL A   1      41.702  29.220  32.583  1.00  0.00    -0.354 N 
ATOM     53  N   UNL A   1      41.238  31.086  34.815  1.00  0.00    -0.248 NA
ATOM     54  C   UNL A   1      41.793  31.887  36.940  1.00  0.00     0.031 C 
ATOM     55  C   UNL A   1      43.388  27.786  32.745  1.00  0.00     0.029 A 
ATOM     56  C   UNL A   1      42.729  28.804  33.417  1.00  0.00     0.049 A 
ATOM     57  H   UNL A   1      41.054  29.930  32.799  1.00  0.00     0.167 HD
ATOM     58  C   UNL A   1      42.334  30.376  35.299  1.00  0.00     0.074 A 
ATOM     59  C   UNL A   1      42.649  30.936  36.598  1.00  0.00     0.031 C 
ATOM     60  C   UNL A   1      43.023  29.359  34.718  1.00  0.00     0.034 A 
BRANCH  47  61
ATOM     61  C   UNL A   1      40.853  27.724  29.124  1.00  0.00     0.023 A 
ATOM     62  C   UNL A   1      41.796  27.938  28.102  1.00  0.00     0.031 A 
ATOM     63  C   UNL A   1      39.945  26.663  28.962  1.00  0.00     0.131 A 
ATOM     64  C   UNL A   1      41.741  27.179  26.924  1.00  0.00     0.055 A 
ATOM     65  C   UNL A   1      39.960  25.845  27.829  1.00  0.00     0.041 A 
ATOM     66  F   UNL A   1      39.008  26.415  29.891  1.00  0.00    -0.206 F 
ATOM     67  C   UNL A   1      40.847  26.116  26.791  1.00  0.00     0.022 A 
BRANCH  64  68
ATOM     68  S   UNL A   1      42.725  27.725  25.500  1.00  0.00     0.124 S 
ATOM     69  O   UNL A   1      42.883  26.477  24.756  1.00  0.00    -0.237 OA
ATOM     70  O   UNL A   1      41.863  28.730  24.888  1.00  0.00    -0.237 OA
ATOM     71  O   UNL A   1      43.951  28.238  26.108  1.00  0.00    -0.744 OA
ENDBRANCH  64  68
ENDBRANCH  47  61
BRANCH  48  72
ATOM     72  C   UNL A   1      39.704  33.938  36.910  1.00  0.00     0.023 A 
ATOM     73  C   UNL A   1      39.143  33.476  38.111  1.00  0.00     0.031 A 
ATOM     74  C   UNL A   1      40.077  35.291  36.832  1.00  0.00     0.131 A 
ATOM     75  C   UNL A   1      38.935  34.368  39.174  1.00  0.00     0.055 A 
ATOM     76  C   UNL A   1      39.913  36.163  37.909  1.00  0.00     0.041 A 
ATOM     77  F   UNL A   1      40.625  35.781  35.709  1.00  0.00    -0.206 F 
ATOM     78  C   UNL A   1      39.328  35.705  39.086  1.00  0.00     0.022 A 
BRANCH  75  79
ATOM     79  S   UNL A   1      38.078  33.765  40.655  1.00  0.00     0.124 S 
ATOM     80  O   UNL A   1      37.843  35.005  41.386  1.00  0.00    -0.237 OA
ATOM     81  O   UNL A   1      36.899  33.124  40.083  1.00  0.00    -0.237 OA
ATOM     82  O   UNL A   1      39.047  32.855  41.261  1.00  0.00    -0.744 OA
ENDBRANCH  75  79
ENDBRANCH  48  72
BRANCH  60  83
ATOM     83  C   UNL A   1      44.215  28.825  35.474  1.00  0.00     0.023 A 
ATOM     84  C   UNL A   1      44.099  27.763  36.389  1.00  0.00     0.031 A 
ATOM     85  C   UNL A   1      45.485  29.402  35.289  1.00  0.00     0.131 A 
ATOM     86  C   UNL A   1      45.219  27.351  37.127  1.00  0.00     0.055 A 
ATOM     87  C   UNL A   1      46.607  28.947  35.981  1.00  0.00     0.041 A 
ATOM     88  F   UNL A   1      45.653  30.420  34.431  1.00  0.00    -0.206 F 
ATOM     89  C   UNL A   1      46.476  27.925  36.916  1.00  0.00     0.022 A 
BRANCH  86  90
ATOM     90  S   UNL A   1      44.994  26.117  38.437  1.00  0.00     0.124 S 
ATOM     91  O   UNL A   1      43.774  26.584  39.088  1.00  0.00    -0.237 OA
ATOM     92  O   UNL A   1      44.877  24.875  37.680  1.00  0.00    -0.237 OA
ATOM     93  O   UNL A   1      46.210  26.241  39.239  1.00  0.00    -0.744 OA
ENDBRANCH  86  90
ENDBRANCH  60  83
ENDBRANCH  34  35
ENDBRANCH  26  29
ENDBRANCH  24  25
ENDBRANCH   1  24
TORSDOF 16
ENDMDL
