MODEL 1
REMARK VINA RESULT:     -12.2      0.000      0.000
REMARK SMILES O=C(NCCCNC(=O)[C@H]1C=C[C@H](NS(=O)(=O)c2ccc(F)c(F)c2F)C1)c1ccc(-c2c3nc(c(-c4cc(S(=O)(=O)[O-])ccc4F)c4ccc([nH]4)c(-c4cc(S(=O)(=O)[O-])ccc4F)c4nc(c(-c5cc(S(=O)(=O)[O-])ccc5F)c5ccc2[nH]5)C=C4)C=C3)cc1
REMARK SMILES IDX 5 1 4 2 3 3 1 4 2 5 28 7 29 8 90 9 30 10 89 11 31 12 32 13
REMARK SMILES IDX 33 14 83 15 34 16 88 17 82 18 84 19 35 20 87 21 81 22 80 23
REMARK SMILES IDX 36 25 68 26 48 27 67 28 49 29 52 30 66 31 85 32 50 33 51 34
REMARK SMILES IDX 65 36 86 37 53 38 37 39 38 40 46 41 39 42 45 43 47 44 44 45
REMARK SMILES IDX 40 46 41 47 42 48 43 49 69 50 70 51 78 52 71 53 77 54 79 55
REMARK SMILES IDX 76 56 72 57 73 58 74 59 75 60 54 61 55 62 63 63 56 64 62 65
REMARK SMILES IDX 64 66 61 67 57 68 58 69 59 70 60 71 6 72 7 73 8 74 9 76
REMARK SMILES IDX 10 77 11 78 27 79 12 80 13 81 14 82 15 84 16 85 17 86 18 87
REMARK SMILES IDX 19 88 25 89 20 90 23 91 26 92 21 93 24 94 22 95
REMARK H PARENT 3 6 84 24 52 35 7 75 14 83
REMARK Flexibility Score: inf
ROOT
ATOM      1  C   UNL A   1      31.420  32.017  26.441  1.00  0.00     0.042 C 
ENDROOT
BRANCH   1   2
ATOM      2  C   UNL A   1      32.677  32.513  27.146  1.00  0.00     0.118 C 
BRANCH   2   3
ATOM      3  N   UNL A   1      32.559  33.889  27.609  1.00  0.00    -0.352 N 
ATOM      4  O   UNL A   1      32.849  35.654  28.971  1.00  0.00    -0.269 OA
ATOM      5  C   UNL A   1      33.221  34.535  28.626  1.00  0.00     0.251 C 
ATOM      6  H   UNL A   1      31.908  34.440  27.119  1.00  0.00     0.163 HD
BRANCH   5   7
ATOM      7  C   UNL A   1      34.363  33.886  29.309  1.00  0.00     0.039 A 
ATOM      8  C   UNL A   1      34.153  32.859  30.231  1.00  0.00     0.014 A 
ATOM      9  C   UNL A   1      35.665  34.286  28.995  1.00  0.00     0.014 A 
ATOM     10  C   UNL A   1      35.228  32.334  30.939  1.00  0.00     0.010 A 
ATOM     11  C   UNL A   1      36.753  33.693  29.643  1.00  0.00     0.010 A 
ATOM     12  C   UNL A   1      36.542  32.728  30.639  1.00  0.00    -0.014 A 
BRANCH  12  13
ATOM     13  C   UNL A   1      37.670  32.057  31.335  1.00  0.00     0.031 A 
ATOM     14  C   UNL A   1      38.461  30.965  30.669  1.00  0.00     0.074 A 
ATOM     15  C   UNL A   1      38.005  32.482  32.570  1.00  0.00     0.049 A 
ATOM     16  N   UNL A   1      39.500  30.310  31.120  1.00  0.00    -0.248 NA
ATOM     17  C   UNL A   1      38.025  30.550  29.328  1.00  0.00     0.031 C 
ATOM     18  C   UNL A   1      37.297  33.527  33.317  1.00  0.00     0.029 A 
ATOM     19  N   UNL A   1      39.029  32.119  33.405  1.00  0.00    -0.354 N 
ATOM     20  C   UNL A   1      39.841  29.399  30.126  1.00  0.00     0.074 A 
ATOM     21  C   UNL A   1      38.874  29.565  29.060  1.00  0.00     0.031 C 
ATOM     22  C   UNL A   1      37.939  33.755  34.472  1.00  0.00     0.029 A 
ATOM     23  C   UNL A   1      39.061  32.831  34.581  1.00  0.00     0.049 A 
ATOM     24  H   UNL A   1      39.681  31.414  33.183  1.00  0.00     0.167 HD
ATOM     25  C   UNL A   1      40.871  28.516  30.103  1.00  0.00     0.034 A 
ATOM     26  C   UNL A   1      39.889  32.742  35.639  1.00  0.00     0.034 A 
ATOM     27  C   UNL A   1      41.826  28.363  31.176  1.00  0.00     0.049 A 
ATOM     28  C   UNL A   1      41.005  31.734  35.595  1.00  0.00     0.074 A 
ATOM     29  C   UNL A   1      42.917  27.513  31.246  1.00  0.00     0.029 A 
ATOM     30  N   UNL A   1      41.804  29.074  32.370  1.00  0.00    -0.354 N 
ATOM     31  N   UNL A   1      41.320  30.894  34.637  1.00  0.00    -0.248 NA
ATOM     32  C   UNL A   1      41.879  31.668  36.771  1.00  0.00     0.031 C 
ATOM     33  C   UNL A   1      43.516  27.667  32.502  1.00  0.00     0.029 A 
ATOM     34  C   UNL A   1      42.842  28.661  33.191  1.00  0.00     0.049 A 
ATOM     35  H   UNL A   1      41.145  29.769  32.600  1.00  0.00     0.167 HD
ATOM     36  C   UNL A   1      42.438  30.204  35.095  1.00  0.00     0.074 A 
ATOM     37  C   UNL A   1      42.759  30.753  36.397  1.00  0.00     0.031 C 
ATOM     38  C   UNL A   1      43.133  29.202  34.498  1.00  0.00     0.034 A 
BRANCH  25  39
ATOM     39  C   UNL A   1      40.995  27.620  28.894  1.00  0.00     0.023 A 
ATOM     40  C   UNL A   1      41.968  27.843  27.906  1.00  0.00     0.031 A 
ATOM     41  C   UNL A   1      40.127  26.526  28.728  1.00  0.00     0.131 A 
ATOM     42  C   UNL A   1      42.017  27.019  26.770  1.00  0.00     0.055 A 
ATOM     43  C   UNL A   1      40.224  25.668  27.631  1.00  0.00     0.041 A 
ATOM     44  F   UNL A   1      39.165  26.275  29.630  1.00  0.00    -0.206 F 
ATOM     45  C   UNL A   1      41.167  25.918  26.638  1.00  0.00     0.022 A 
BRANCH  42  46
ATOM     46  S   UNL A   1      43.133  27.471  25.415  1.00  0.00     0.124 S 
ATOM     47  O   UNL A   1      43.534  26.159  24.911  1.00  0.00    -0.237 OA
ATOM     48  O   UNL A   1      42.268  28.253  24.540  1.00  0.00    -0.237 OA
ATOM     49  O   UNL A   1      44.194  28.224  26.081  1.00  0.00    -0.744 OA
ENDBRANCH  42  46
ENDBRANCH  25  39
BRANCH  26  50
ATOM     50  C   UNL A   1      39.676  33.600  36.838  1.00  0.00     0.023 A 
ATOM     51  C   UNL A   1      39.091  33.087  38.005  1.00  0.00     0.031 A 
ATOM     52  C   UNL A   1      40.023  34.964  36.818  1.00  0.00     0.131 A 
ATOM     53  C   UNL A   1      38.828  33.941  39.087  1.00  0.00     0.055 A 
ATOM     54  C   UNL A   1      39.811  35.796  37.916  1.00  0.00     0.041 A 
ATOM     55  F   UNL A   1      40.590  35.505  35.727  1.00  0.00    -0.206 F 
ATOM     56  C   UNL A   1      39.196  35.288  39.056  1.00  0.00     0.022 A 
BRANCH  53  57
ATOM     57  S   UNL A   1      37.910  33.284  40.506  1.00  0.00     0.124 S 
ATOM     58  O   UNL A   1      37.959  34.405  41.439  1.00  0.00    -0.237 OA
ATOM     59  O   UNL A   1      36.607  32.999  39.916  1.00  0.00    -0.237 OA
ATOM     60  O   UNL A   1      38.684  32.110  40.899  1.00  0.00    -0.744 OA
ENDBRANCH  53  57
ENDBRANCH  26  50
BRANCH  38  61
ATOM     61  C   UNL A   1      44.319  28.663  35.259  1.00  0.00     0.023 A 
ATOM     62  C   UNL A   1      44.161  27.712  36.281  1.00  0.00     0.031 A 
ATOM     63  C   UNL A   1      45.612  29.143  34.990  1.00  0.00     0.131 A 
ATOM     64  C   UNL A   1      45.269  27.320  37.046  1.00  0.00     0.055 A 
ATOM     65  C   UNL A   1      46.720  28.703  35.715  1.00  0.00     0.041 A 
ATOM     66  F   UNL A   1      45.817  30.053  34.025  1.00  0.00    -0.206 F 
ATOM     67  C   UNL A   1      46.550  27.800  36.761  1.00  0.00     0.022 A 
BRANCH  64  68
ATOM     68  S   UNL A   1      44.996  26.257  38.491  1.00  0.00     0.124 S 
ATOM     69  O   UNL A   1      43.556  26.387  38.694  1.00  0.00    -0.237 OA
ATOM     70  O   UNL A   1      45.458  24.959  38.013  1.00  0.00    -0.237 OA
ATOM     71  O   UNL A   1      45.826  26.868  39.527  1.00  0.00    -0.744 OA
ENDBRANCH  64  68
ENDBRANCH  38  61
ENDBRANCH  12  13
ENDBRANCH   5   7
ENDBRANCH   2   3
ENDBRANCH   1   2
BRANCH   1  72
ATOM     72  C   UNL A   1      31.430  30.527  26.128  1.00  0.00     0.117 C 
BRANCH  72  73
ATOM     73  N   UNL A   1      31.081  30.260  24.745  1.00  0.00    -0.356 N 
ATOM     74  C   UNL A   1      31.075  29.078  24.064  1.00  0.00     0.226 C 
ATOM     75  H   UNL A   1      30.808  31.047  24.221  1.00  0.00     0.163 HD
ATOM     76  O   UNL A   1      30.783  29.102  22.869  1.00  0.00    -0.274 OA
BRANCH  74  77
ATOM     77  C   UNL A   1      31.422  27.792  24.817  1.00  0.00     0.103 C 
ATOM     78  C   UNL A   1      30.432  26.712  24.525  1.00  0.00    -0.016 C 
ATOM     79  C   UNL A   1      32.761  27.195  24.351  1.00  0.00     0.042 C 
ATOM     80  C   UNL A   1      31.011  25.620  24.025  1.00  0.00    -0.011 C 
ATOM     81  C   UNL A   1      32.486  25.748  23.894  1.00  0.00     0.093 C 
BRANCH  81  82
ATOM     82  N   UNL A   1      33.167  24.798  24.760  1.00  0.00    -0.204 NA
ATOM     83  H   UNL A   1      32.690  24.853  25.659  1.00  0.00     0.142 HD
BRANCH  82  84
ATOM     84  S   UNL A   1      33.316  23.165  24.425  1.00  0.00     0.244 S 
ATOM     85  O   UNL A   1      32.401  22.513  25.334  1.00  0.00    -0.207 OA
ATOM     86  O   UNL A   1      33.209  22.950  23.000  1.00  0.00    -0.207 OA
BRANCH  84  87
ATOM     87  C   UNL A   1      34.977  22.778  24.873  1.00  0.00     0.121 A 
ATOM     88  C   UNL A   1      35.857  23.833  25.169  1.00  0.00     0.028 A 
ATOM     89  C   UNL A   1      35.451  21.472  24.819  1.00  0.00     0.181 A 
ATOM     90  C   UNL A   1      37.194  23.566  25.464  1.00  0.00     0.044 A 
ATOM     91  C   UNL A   1      36.792  21.215  25.088  1.00  0.00     0.195 A 
ATOM     92  F   UNL A   1      34.659  20.446  24.482  1.00  0.00    -0.202 F 
ATOM     93  C   UNL A   1      37.654  22.255  25.418  1.00  0.00     0.161 A 
ATOM     94  F   UNL A   1      37.262  19.963  25.002  1.00  0.00    -0.200 F 
ATOM     95  F   UNL A   1      38.946  22.009  25.667  1.00  0.00    -0.204 F 
ENDBRANCH  84  87
ENDBRANCH  82  84
ENDBRANCH  81  82
ENDBRANCH  74  77
ENDBRANCH  72  73
ENDBRANCH   1  72
TORSDOF 16
ENDMDL
MODEL 2
REMARK VINA RESULT:     -12.1      1.167      7.839
REMARK SMILES O=C(NCCCNC(=O)[C@H]1C=C[C@H](NS(=O)(=O)c2ccc(F)c(F)c2F)C1)c1ccc(-c2c3nc(c(-c4cc(S(=O)(=O)[O-])ccc4F)c4ccc([nH]4)c(-c4cc(S(=O)(=O)[O-])ccc4F)c4nc(c(-c5cc(S(=O)(=O)[O-])ccc5F)c5ccc2[nH]5)C=C4)C=C3)cc1
REMARK SMILES IDX 5 1 4 2 3 3 1 4 2 5 28 7 29 8 90 9 30 10 89 11 31 12 32 13
REMARK SMILES IDX 33 14 83 15 34 16 88 17 82 18 84 19 35 20 87 21 81 22 80 23
REMARK SMILES IDX 36 25 68 26 48 27 67 28 49 29 52 30 66 31 85 32 50 33 51 34
REMARK SMILES IDX 65 36 86 37 53 38 37 39 38 40 46 41 39 42 45 43 47 44 44 45
REMARK SMILES IDX 40 46 41 47 42 48 43 49 69 50 70 51 78 52 71 53 77 54 79 55
REMARK SMILES IDX 76 56 72 57 73 58 74 59 75 60 54 61 55 62 63 63 56 64 62 65
REMARK SMILES IDX 64 66 61 67 57 68 58 69 59 70 60 71 6 72 7 73 8 74 9 76
REMARK SMILES IDX 10 77 11 78 27 79 12 80 13 81 14 82 15 84 16 85 17 86 18 87
REMARK SMILES IDX 19 88 25 89 20 90 23 91 26 92 21 93 24 94 22 95
REMARK H PARENT 3 6 84 24 52 35 7 75 14 83
REMARK Flexibility Score: inf
ROOT
ATOM      1  C   UNL A   1      31.550  32.004  26.435  1.00  0.00     0.042 C 
ENDROOT
BRANCH   1   2
ATOM      2  C   UNL A   1      32.777  32.542  27.164  1.00  0.00     0.118 C 
BRANCH   2   3
ATOM      3  N   UNL A   1      32.580  33.889  27.682  1.00  0.00    -0.352 N 
ATOM      4  O   UNL A   1      32.767  35.610  29.115  1.00  0.00    -0.269 OA
ATOM      5  C   UNL A   1      33.203  34.529  28.727  1.00  0.00     0.251 C 
ATOM      6  H   UNL A   1      31.898  34.421  27.212  1.00  0.00     0.163 HD
BRANCH   5   7
ATOM      7  C   UNL A   1      34.379  33.920  29.386  1.00  0.00     0.039 A 
ATOM      8  C   UNL A   1      35.674  34.314  29.043  1.00  0.00     0.014 A 
ATOM      9  C   UNL A   1      34.184  32.964  30.387  1.00  0.00     0.014 A 
ATOM     10  C   UNL A   1      36.768  33.658  29.596  1.00  0.00     0.010 A 
ATOM     11  C   UNL A   1      35.286  32.367  31.007  1.00  0.00     0.010 A 
ATOM     12  C   UNL A   1      36.589  32.692  30.600  1.00  0.00    -0.014 A 
BRANCH  12  13
ATOM     13  C   UNL A   1      37.787  32.100  31.248  1.00  0.00     0.031 A 
ATOM     14  C   UNL A   1      38.234  32.540  32.614  1.00  0.00     0.074 A 
ATOM     15  C   UNL A   1      38.444  31.116  30.602  1.00  0.00     0.049 A 
ATOM     16  N   UNL A   1      39.229  32.094  33.338  1.00  0.00    -0.248 NA
ATOM     17  C   UNL A   1      37.472  33.626  33.247  1.00  0.00     0.031 C 
ATOM     18  C   UNL A   1      38.104  30.618  29.265  1.00  0.00     0.029 A 
ATOM     19  N   UNL A   1      39.509  30.340  30.980  1.00  0.00    -0.354 N 
ATOM     20  C   UNL A   1      39.222  32.846  34.508  1.00  0.00     0.074 A 
ATOM     21  C   UNL A   1      38.141  33.802  34.381  1.00  0.00     0.031 C 
ATOM     22  C   UNL A   1      38.908  29.590  28.960  1.00  0.00     0.029 A 
ATOM     23  C   UNL A   1      39.863  29.396  30.044  1.00  0.00     0.049 A 
ATOM     24  H   UNL A   1      39.976  30.449  31.841  1.00  0.00     0.167 HD
ATOM     25  C   UNL A   1      40.035  32.740  35.589  1.00  0.00     0.034 A 
ATOM     26  C   UNL A   1      40.855  28.486  30.048  1.00  0.00     0.034 A 
ATOM     27  C   UNL A   1      41.109  31.781  35.698  1.00  0.00     0.049 A 
ATOM     28  C   UNL A   1      41.757  28.410  31.249  1.00  0.00     0.074 A 
ATOM     29  C   UNL A   1      41.979  31.576  36.756  1.00  0.00     0.029 A 
ATOM     30  N   UNL A   1      41.464  30.866  34.714  1.00  0.00    -0.354 N 
ATOM     31  N   UNL A   1      41.721  29.121  32.353  1.00  0.00    -0.248 NA
ATOM     32  C   UNL A   1      42.827  27.408  31.207  1.00  0.00     0.031 C 
ATOM     33  C   UNL A   1      42.895  30.583  36.388  1.00  0.00     0.029 A 
ATOM     34  C   UNL A   1      42.556  30.118  35.128  1.00  0.00     0.049 A 
ATOM     35  H   UNL A   1      41.008  30.765  33.847  1.00  0.00     0.167 HD
ATOM     36  C   UNL A   1      42.763  28.642  33.142  1.00  0.00     0.074 A 
ATOM     37  C   UNL A   1      43.381  27.561  32.400  1.00  0.00     0.031 C 
ATOM     38  C   UNL A   1      43.176  29.061  34.365  1.00  0.00     0.034 A 
BRANCH  25  39
ATOM     39  C   UNL A   1      39.817  33.711  36.724  1.00  0.00     0.023 A 
ATOM     40  C   UNL A   1      39.265  33.304  37.950  1.00  0.00     0.031 A 
ATOM     41  C   UNL A   1      40.168  35.065  36.577  1.00  0.00     0.131 A 
ATOM     42  C   UNL A   1      39.029  34.248  38.961  1.00  0.00     0.055 A 
ATOM     43  C   UNL A   1      39.995  35.987  37.612  1.00  0.00     0.041 A 
ATOM     44  F   UNL A   1      40.682  35.517  35.422  1.00  0.00    -0.206 F 
ATOM     45  C   UNL A   1      39.413  35.582  38.809  1.00  0.00     0.022 A 
BRANCH  42  46
ATOM     46  S   UNL A   1      38.112  33.730  40.437  1.00  0.00     0.124 S 
ATOM     47  O   UNL A   1      37.913  35.004  41.126  1.00  0.00    -0.237 OA
ATOM     48  O   UNL A   1      36.917  33.119  39.868  1.00  0.00    -0.237 OA
ATOM     49  O   UNL A   1      39.028  32.806  41.104  1.00  0.00    -0.744 OA
ENDBRANCH  42  46
ENDBRANCH  25  39
BRANCH  26  50
ATOM     50  C   UNL A   1      41.071  27.601  28.869  1.00  0.00     0.023 A 
ATOM     51  C   UNL A   1      42.071  27.878  27.925  1.00  0.00     0.031 A 
ATOM     52  C   UNL A   1      40.249  26.480  28.650  1.00  0.00     0.131 A 
ATOM     53  C   UNL A   1      42.195  27.073  26.782  1.00  0.00     0.055 A 
ATOM     54  C   UNL A   1      40.412  25.650  27.541  1.00  0.00     0.041 A 
ATOM     55  F   UNL A   1      39.279  26.167  29.525  1.00  0.00    -0.206 F 
ATOM     56  C   UNL A   1      41.381  25.953  26.591  1.00  0.00     0.022 A 
BRANCH  53  57
ATOM     57  S   UNL A   1      43.376  27.565  25.498  1.00  0.00     0.124 S 
ATOM     58  O   UNL A   1      44.098  26.319  25.263  1.00  0.00    -0.237 OA
ATOM     59  O   UNL A   1      42.490  28.005  24.427  1.00  0.00    -0.237 OA
ATOM     60  O   UNL A   1      44.152  28.625  26.138  1.00  0.00    -0.744 OA
ENDBRANCH  53  57
ENDBRANCH  26  50
BRANCH  38  61
ATOM     61  C   UNL A   1      44.344  28.320  34.967  1.00  0.00     0.023 A 
ATOM     62  C   UNL A   1      44.153  27.181  35.769  1.00  0.00     0.031 A 
ATOM     63  C   UNL A   1      45.655  28.787  34.777  1.00  0.00     0.131 A 
ATOM     64  C   UNL A   1      45.250  26.587  36.409  1.00  0.00     0.055 A 
ATOM     65  C   UNL A   1      46.749  28.154  35.367  1.00  0.00     0.041 A 
ATOM     66  F   UNL A   1      45.892  29.871  34.022  1.00  0.00    -0.206 F 
ATOM     67  C   UNL A   1      46.549  27.058  36.203  1.00  0.00     0.022 A 
BRANCH  64  68
ATOM     68  S   UNL A   1      44.943  25.255  37.602  1.00  0.00     0.124 S 
ATOM     69  O   UNL A   1      43.486  25.186  37.610  1.00  0.00    -0.237 OA
ATOM     70  O   UNL A   1      45.632  24.125  36.990  1.00  0.00    -0.237 OA
ATOM     71  O   UNL A   1      45.547  25.755  38.836  1.00  0.00    -0.744 OA
ENDBRANCH  64  68
ENDBRANCH  38  61
ENDBRANCH  12  13
ENDBRANCH   5   7
ENDBRANCH   2   3
ENDBRANCH   1   2
BRANCH   1  72
ATOM     72  C   UNL A   1      31.656  30.537  26.040  1.00  0.00     0.117 C 
BRANCH  72  73
ATOM     73  N   UNL A   1      31.631  29.660  27.197  1.00  0.00    -0.356 N 
ATOM     74  C   UNL A   1      31.738  28.302  27.257  1.00  0.00     0.226 C 
ATOM     75  H   UNL A   1      31.521  30.111  28.064  1.00  0.00     0.163 HD
ATOM     76  O   UNL A   1      31.641  27.764  28.360  1.00  0.00    -0.274 OA
BRANCH  74  77
ATOM     77  C   UNL A   1      31.979  27.522  25.963  1.00  0.00     0.103 C 
ATOM     78  C   UNL A   1      33.425  27.190  25.794  1.00  0.00    -0.016 C 
ATOM     79  C   UNL A   1      31.288  26.147  25.982  1.00  0.00     0.042 C 
ATOM     80  C   UNL A   1      33.630  25.878  25.672  1.00  0.00    -0.011 C 
ATOM     81  C   UNL A   1      32.376  25.083  25.727  1.00  0.00     0.093 C 
BRANCH  81  82
ATOM     82  N   UNL A   1      32.140  24.402  24.463  1.00  0.00    -0.204 NA
ATOM     83  H   UNL A   1      32.851  24.754  23.823  1.00  0.00     0.142 HD
BRANCH  82  84
ATOM     84  S   UNL A   1      32.149  22.738  24.280  1.00  0.00     0.244 S 
ATOM     85  O   UNL A   1      31.484  22.229  25.458  1.00  0.00    -0.207 OA
ATOM     86  O   UNL A   1      31.668  22.392  22.961  1.00  0.00    -0.207 OA
BRANCH  84  87
ATOM     87  C   UNL A   1      33.857  22.304  24.326  1.00  0.00     0.121 A 
ATOM     88  C   UNL A   1      34.293  21.388  25.299  1.00  0.00     0.028 A 
ATOM     89  C   UNL A   1      34.783  22.939  23.505  1.00  0.00     0.181 A 
ATOM     90  C   UNL A   1      35.648  21.072  25.405  1.00  0.00     0.044 A 
ATOM     91  C   UNL A   1      36.136  22.639  23.634  1.00  0.00     0.195 A 
ATOM     92  F   UNL A   1      34.416  23.861  22.607  1.00  0.00    -0.202 F 
ATOM     93  C   UNL A   1      36.562  21.705  24.571  1.00  0.00     0.161 A 
ATOM     94  F   UNL A   1      37.035  23.274  22.870  1.00  0.00    -0.200 F 
ATOM     95  F   UNL A   1      37.865  21.424  24.701  1.00  0.00    -0.204 F 
ENDBRANCH  84  87
ENDBRANCH  82  84
ENDBRANCH  81  82
ENDBRANCH  74  77
ENDBRANCH  72  73
ENDBRANCH   1  72
TORSDOF 16
ENDMDL
MODEL 3
REMARK VINA RESULT:     -12.0      2.362      8.024
REMARK SMILES O=C(NCCCNC(=O)[C@H]1C=C[C@H](NS(=O)(=O)c2ccc(F)c(F)c2F)C1)c1ccc(-c2c3nc(c(-c4cc(S(=O)(=O)[O-])ccc4F)c4ccc([nH]4)c(-c4cc(S(=O)(=O)[O-])ccc4F)c4nc(c(-c5cc(S(=O)(=O)[O-])ccc5F)c5ccc2[nH]5)C=C4)C=C3)cc1
REMARK SMILES IDX 5 1 4 2 3 3 1 4 2 5 28 7 29 8 90 9 30 10 89 11 31 12 32 13
REMARK SMILES IDX 33 14 83 15 34 16 88 17 82 18 84 19 35 20 87 21 81 22 80 23
REMARK SMILES IDX 36 25 68 26 48 27 67 28 49 29 52 30 66 31 85 32 50 33 51 34
REMARK SMILES IDX 65 36 86 37 53 38 37 39 38 40 46 41 39 42 45 43 47 44 44 45
REMARK SMILES IDX 40 46 41 47 42 48 43 49 69 50 70 51 78 52 71 53 77 54 79 55
REMARK SMILES IDX 76 56 72 57 73 58 74 59 75 60 54 61 55 62 63 63 56 64 62 65
REMARK SMILES IDX 64 66 61 67 57 68 58 69 59 70 60 71 6 72 7 73 8 74 9 76
REMARK SMILES IDX 10 77 11 78 27 79 12 80 13 81 14 82 15 84 16 85 17 86 18 87
REMARK SMILES IDX 19 88 25 89 20 90 23 91 26 92 21 93 24 94 22 95
REMARK H PARENT 3 6 84 24 52 35 7 75 14 83
REMARK Flexibility Score: inf
ROOT
ATOM      1  C   UNL A   1      33.505  28.989  23.943  1.00  0.00     0.042 C 
ENDROOT
BRANCH   1   2
ATOM      2  C   UNL A   1      33.266  29.042  25.448  1.00  0.00     0.118 C 
BRANCH   2   3
ATOM      3  N   UNL A   1      32.772  30.337  25.895  1.00  0.00    -0.352 N 
ATOM      4  O   UNL A   1      32.555  32.125  27.241  1.00  0.00    -0.269 OA
ATOM      5  C   UNL A   1      33.221  31.146  26.912  1.00  0.00     0.251 C 
ATOM      6  H   UNL A   1      32.001  30.686  25.393  1.00  0.00     0.163 HD
BRANCH   5   7
ATOM      7  C   UNL A   1      34.488  30.838  27.612  1.00  0.00     0.039 A 
ATOM      8  C   UNL A   1      34.719  29.568  28.143  1.00  0.00     0.014 A 
ATOM      9  C   UNL A   1      35.475  31.824  27.707  1.00  0.00     0.014 A 
ATOM     10  C   UNL A   1      35.869  29.327  28.887  1.00  0.00     0.010 A 
ATOM     11  C   UNL A   1      36.671  31.552  28.380  1.00  0.00     0.010 A 
ATOM     12  C   UNL A   1      36.868  30.308  28.996  1.00  0.00    -0.014 A 
BRANCH  12  13
ATOM     13  C   UNL A   1      38.132  29.970  29.700  1.00  0.00     0.031 A 
ATOM     14  C   UNL A   1      38.427  30.501  31.075  1.00  0.00     0.074 A 
ATOM     15  C   UNL A   1      38.997  29.130  29.094  1.00  0.00     0.049 A 
ATOM     16  N   UNL A   1      39.461  30.267  31.843  1.00  0.00    -0.248 NA
ATOM     17  C   UNL A   1      37.441  31.420  31.661  1.00  0.00     0.031 C 
ATOM     18  C   UNL A   1      38.816  28.565  27.753  1.00  0.00     0.029 A 
ATOM     19  N   UNL A   1      40.178  28.585  29.526  1.00  0.00    -0.354 N 
ATOM     20  C   UNL A   1      39.258  31.012  33.000  1.00  0.00     0.074 A 
ATOM     21  C   UNL A   1      38.015  31.734  32.816  1.00  0.00     0.031 C 
ATOM     22  C   UNL A   1      39.820  27.714  27.496  1.00  0.00     0.029 A 
ATOM     23  C   UNL A   1      40.749  27.722  28.619  1.00  0.00     0.049 A 
ATOM     24  H   UNL A   1      40.579  28.791  30.401  1.00  0.00     0.167 HD
ATOM     25  C   UNL A   1      40.031  31.078  34.112  1.00  0.00     0.034 A 
ATOM     26  C   UNL A   1      41.901  27.027  28.675  1.00  0.00     0.034 A 
ATOM     27  C   UNL A   1      41.269  30.352  34.278  1.00  0.00     0.049 A 
ATOM     28  C   UNL A   1      42.751  27.141  29.911  1.00  0.00     0.074 A 
ATOM     29  C   UNL A   1      42.119  30.332  35.371  1.00  0.00     0.029 A 
ATOM     30  N   UNL A   1      41.838  29.518  33.322  1.00  0.00    -0.354 N 
ATOM     31  N   UNL A   1      42.531  27.839  31.001  1.00  0.00    -0.248 NA
ATOM     32  C   UNL A   1      43.999  26.371  29.926  1.00  0.00     0.031 C 
ATOM     33  C   UNL A   1      43.227  29.537  35.054  1.00  0.00     0.029 A 
ATOM     34  C   UNL A   1      43.038  29.005  33.790  1.00  0.00     0.049 A 
ATOM     35  H   UNL A   1      41.446  29.322  32.440  1.00  0.00     0.167 HD
ATOM     36  C   UNL A   1      43.613  27.583  31.836  1.00  0.00     0.074 A 
ATOM     37  C   UNL A   1      44.463  26.641  31.136  1.00  0.00     0.031 C 
ATOM     38  C   UNL A   1      43.886  28.085  33.067  1.00  0.00     0.034 A 
BRANCH  25  39
ATOM     39  C   UNL A   1      39.580  31.996  35.222  1.00  0.00     0.023 A 
ATOM     40  C   UNL A   1      38.850  31.519  36.324  1.00  0.00     0.031 A 
ATOM     41  C   UNL A   1      39.885  33.368  35.178  1.00  0.00     0.131 A 
ATOM     42  C   UNL A   1      38.403  32.414  37.309  1.00  0.00     0.055 A 
ATOM     43  C   UNL A   1      39.497  34.242  36.196  1.00  0.00     0.041 A 
ATOM     44  F   UNL A   1      40.563  33.884  34.141  1.00  0.00    -0.206 F 
ATOM     45  C   UNL A   1      38.742  33.768  37.264  1.00  0.00     0.022 A 
BRANCH  42  46
ATOM     46  S   UNL A   1      37.278  31.802  38.593  1.00  0.00     0.124 S 
ATOM     47  O   UNL A   1      37.031  30.434  38.143  1.00  0.00    -0.237 OA
ATOM     48  O   UNL A   1      38.076  31.940  39.805  1.00  0.00    -0.237 OA
ATOM     49  O   UNL A   1      36.127  32.698  38.497  1.00  0.00    -0.744 OA
ENDBRANCH  42  46
ENDBRANCH  25  39
BRANCH  26  50
ATOM     50  C   UNL A   1      42.335  26.193  27.519  1.00  0.00     0.023 A 
ATOM     51  C   UNL A   1      41.981  24.839  27.425  1.00  0.00     0.031 A 
ATOM     52  C   UNL A   1      43.147  26.735  26.505  1.00  0.00     0.131 A 
ATOM     53  C   UNL A   1      42.475  24.060  26.367  1.00  0.00     0.055 A 
ATOM     54  C   UNL A   1      43.589  25.971  25.426  1.00  0.00     0.041 A 
ATOM     55  F   UNL A   1      43.510  28.027  26.544  1.00  0.00    -0.206 F 
ATOM     56  C   UNL A   1      43.265  24.620  25.359  1.00  0.00     0.022 A 
BRANCH  53  57
ATOM     57  S   UNL A   1      42.147  22.277  26.376  1.00  0.00     0.124 S 
ATOM     58  O   UNL A   1      40.696  22.240  26.226  1.00  0.00    -0.237 OA
ATOM     59  O   UNL A   1      42.921  21.823  25.226  1.00  0.00    -0.237 OA
ATOM     60  O   UNL A   1      42.652  21.845  27.676  1.00  0.00    -0.744 OA
ENDBRANCH  53  57
ENDBRANCH  26  50
BRANCH  38  61
ATOM     61  C   UNL A   1      45.151  27.596  33.726  1.00  0.00     0.023 A 
ATOM     62  C   UNL A   1      45.157  26.450  34.540  1.00  0.00     0.031 A 
ATOM     63  C   UNL A   1      46.352  28.311  33.576  1.00  0.00     0.131 A 
ATOM     64  C   UNL A   1      46.323  26.091  35.230  1.00  0.00     0.055 A 
ATOM     65  C   UNL A   1      47.525  27.913  34.218  1.00  0.00     0.041 A 
ATOM     66  F   UNL A   1      46.400  29.413  32.811  1.00  0.00    -0.206 F 
ATOM     67  C   UNL A   1      47.511  26.807  35.064  1.00  0.00     0.022 A 
BRANCH  64  68
ATOM     68  S   UNL A   1      46.237  24.736  36.435  1.00  0.00     0.124 S 
ATOM     69  O   UNL A   1      46.158  23.565  35.568  1.00  0.00    -0.237 OA
ATOM     70  O   UNL A   1      47.483  24.900  37.175  1.00  0.00    -0.237 OA
ATOM     71  O   UNL A   1      45.022  25.029  37.193  1.00  0.00    -0.744 OA
ENDBRANCH  64  68
ENDBRANCH  38  61
ENDBRANCH  12  13
ENDBRANCH   5   7
ENDBRANCH   2   3
ENDBRANCH   1   2
BRANCH   1  72
ATOM     72  C   UNL A   1      32.309  28.492  23.142  1.00  0.00     0.117 C 
BRANCH  72  73
ATOM     73  N   UNL A   1      32.715  27.701  21.995  1.00  0.00    -0.356 N 
ATOM     74  C   UNL A   1      32.865  26.350  21.882  1.00  0.00     0.226 C 
ATOM     75  H   UNL A   1      32.911  28.214  21.178  1.00  0.00     0.163 HD
ATOM     76  O   UNL A   1      33.270  25.902  20.810  1.00  0.00    -0.274 OA
BRANCH  74  77
ATOM     77  C   UNL A   1      32.519  25.467  23.084  1.00  0.00     0.103 C 
ATOM     78  C   UNL A   1      31.053  25.186  23.142  1.00  0.00    -0.016 C 
ATOM     79  C   UNL A   1      33.155  24.070  22.973  1.00  0.00     0.042 C 
ATOM     80  C   UNL A   1      30.790  23.879  23.129  1.00  0.00    -0.011 C 
ATOM     81  C   UNL A   1      32.014  23.037  23.069  1.00  0.00     0.093 C 
BRANCH  81  82
ATOM     82  N   UNL A   1      32.148  22.233  24.274  1.00  0.00    -0.204 NA
ATOM     83  H   UNL A   1      31.254  22.310  24.758  1.00  0.00     0.142 HD
BRANCH  82  84
ATOM     84  S   UNL A   1      32.528  20.603  24.276  1.00  0.00     0.244 S 
ATOM     85  O   UNL A   1      31.783  20.048  25.383  1.00  0.00    -0.207 OA
ATOM     86  O   UNL A   1      32.367  20.066  22.943  1.00  0.00    -0.207 OA
BRANCH  84  87
ATOM     87  C   UNL A   1      34.253  20.557  24.636  1.00  0.00     0.121 A 
ATOM     88  C   UNL A   1      34.960  21.770  24.693  1.00  0.00     0.028 A 
ATOM     89  C   UNL A   1      34.934  19.350  24.741  1.00  0.00     0.181 A 
ATOM     90  C   UNL A   1      36.338  21.766  24.913  1.00  0.00     0.044 A 
ATOM     91  C   UNL A   1      36.312  19.352  24.933  1.00  0.00     0.195 A 
ATOM     92  F   UNL A   1      34.306  18.172  24.632  1.00  0.00    -0.202 F 
ATOM     93  C   UNL A   1      37.006  20.552  25.028  1.00  0.00     0.161 A 
ATOM     94  F   UNL A   1      36.978  18.190  25.000  1.00  0.00    -0.200 F 
ATOM     95  F   UNL A   1      38.334  20.554  25.203  1.00  0.00    -0.204 F 
ENDBRANCH  84  87
ENDBRANCH  82  84
ENDBRANCH  81  82
ENDBRANCH  74  77
ENDBRANCH  72  73
ENDBRANCH   1  72
TORSDOF 16
ENDMDL
