MODEL 1
REMARK VINA RESULT:     -12.8      0.000      0.000
REMARK SMILES O=C(NCCCNC(=O)[C@@]1([NH2+]C2CC2)CC[C@@H]([N@@H+]2CC[N@@H+]3CCC[C@@H]3C2)C1)c1ccc(-c2c3nc(c(-c4cc(S(=O)(=O)[O-])ccc4F)c4ccc([nH]4)c(-c4cc(S(=O)(=O)[O-])ccc4F)c4nc(c(-c5cc(S(=O)(=O)[O-])ccc5F)c5ccc2[nH]5)C=C4)C=C3)cc1
REMARK SMILES IDX 4 1 3 2 1 3 2 4 28 6 29 7 90 8 30 9 89 10 31 11 32 12 33 13
REMARK SMILES IDX 83 14 34 15 88 16 82 17 84 18 35 19 87 20 81 21 80 22 36 24
REMARK SMILES IDX 68 25 48 26 67 27 49 28 52 29 66 30 85 31 50 32 51 33 65 35
REMARK SMILES IDX 86 36 53 37 37 38 38 39 46 40 39 41 45 42 47 43 44 44 40 45
REMARK SMILES IDX 41 46 42 47 43 48 69 49 70 50 78 51 71 52 77 53 79 54 76 55
REMARK SMILES IDX 72 56 73 57 74 58 75 59 54 60 55 61 63 62 56 63 62 64 64 65
REMARK SMILES IDX 61 66 57 67 58 68 59 69 60 70 5 71 6 72 7 73 8 74 9 76 10 77
REMARK SMILES IDX 15 78 27 79 16 80 17 81 11 82 12 85 13 86 14 87 18 88 19 89
REMARK SMILES IDX 26 90 20 92 25 93 21 94 24 95 22 96 23 98
REMARK H PARENT 3 5 84 23 52 34 7 75 11 83 11 84 18 91 21 97
REMARK Flexibility Score: inf
ROOT
ATOM      1  C   UNL A   1      32.756  29.750  25.640  1.00  0.00     0.118 C 
ENDROOT
BRANCH   1   2
ATOM      2  N   UNL A   1      32.475  31.025  26.283  1.00  0.00    -0.352 N 
ATOM      3  O   UNL A   1      32.645  32.843  27.581  1.00  0.00    -0.269 OA
ATOM      4  C   UNL A   1      33.170  31.808  27.184  1.00  0.00     0.251 C 
ATOM      5  H   UNL A   1      31.606  31.410  26.022  1.00  0.00     0.163 HD
BRANCH   4   6
ATOM      6  C   UNL A   1      34.494  31.407  27.725  1.00  0.00     0.039 A 
ATOM      7  C   UNL A   1      34.794  30.096  28.066  1.00  0.00     0.014 A 
ATOM      8  C   UNL A   1      35.487  32.384  27.879  1.00  0.00     0.014 A 
ATOM      9  C   UNL A   1      35.953  29.804  28.776  1.00  0.00     0.010 A 
ATOM     10  C   UNL A   1      36.722  32.058  28.461  1.00  0.00     0.010 A 
ATOM     11  C   UNL A   1      36.944  30.776  28.979  1.00  0.00    -0.014 A 
BRANCH  11  12
ATOM     12  C   UNL A   1      38.176  30.395  29.731  1.00  0.00     0.031 A 
ATOM     13  C   UNL A   1      38.360  30.793  31.176  1.00  0.00     0.074 A 
ATOM     14  C   UNL A   1      39.090  29.601  29.135  1.00  0.00     0.049 A 
ATOM     15  N   UNL A   1      39.332  30.485  31.999  1.00  0.00    -0.248 NA
ATOM     16  C   UNL A   1      37.336  31.664  31.767  1.00  0.00     0.031 C 
ATOM     17  C   UNL A   1      39.036  29.158  27.738  1.00  0.00     0.029 A 
ATOM     18  N   UNL A   1      40.208  28.976  29.630  1.00  0.00    -0.354 N 
ATOM     19  C   UNL A   1      39.058  31.156  33.188  1.00  0.00     0.074 A 
ATOM     20  C   UNL A   1      37.843  31.910  32.967  1.00  0.00     0.031 C 
ATOM     21  C   UNL A   1      40.002  28.257  27.521  1.00  0.00     0.029 A 
ATOM     22  C   UNL A   1      40.808  28.124  28.729  1.00  0.00     0.049 A 
ATOM     23  H   UNL A   1      40.549  29.124  30.542  1.00  0.00     0.167 HD
ATOM     24  C   UNL A   1      39.751  31.140  34.355  1.00  0.00     0.034 A 
ATOM     25  C   UNL A   1      41.887  27.327  28.852  1.00  0.00     0.034 A 
ATOM     26  C   UNL A   1      40.942  30.352  34.573  1.00  0.00     0.049 A 
ATOM     27  C   UNL A   1      42.626  27.313  30.161  1.00  0.00     0.074 A 
ATOM     28  C   UNL A   1      41.704  30.240  35.724  1.00  0.00     0.029 A 
ATOM     29  N   UNL A   1      41.544  29.538  33.622  1.00  0.00    -0.354 N 
ATOM     30  N   UNL A   1      42.353  27.963  31.269  1.00  0.00    -0.248 NA
ATOM     31  C   UNL A   1      43.819  26.462  30.236  1.00  0.00     0.031 C 
ATOM     32  C   UNL A   1      42.795  29.406  35.452  1.00  0.00     0.029 A 
ATOM     33  C   UNL A   1      42.677  28.939  34.153  1.00  0.00     0.049 A 
ATOM     34  H   UNL A   1      41.214  29.404  32.705  1.00  0.00     0.167 HD
ATOM     35  C   UNL A   1      43.340  27.591  32.176  1.00  0.00     0.074 A 
ATOM     36  C   UNL A   1      44.192  26.637  31.494  1.00  0.00     0.031 C 
ATOM     37  C   UNL A   1      43.528  28.005  33.455  1.00  0.00     0.034 A 
BRANCH  24  38
ATOM     38  C   UNL A   1      39.266  32.044  35.466  1.00  0.00     0.023 A 
ATOM     39  C   UNL A   1      39.667  33.388  35.567  1.00  0.00     0.031 A 
ATOM     40  C   UNL A   1      38.409  31.538  36.461  1.00  0.00     0.131 A 
ATOM     41  C   UNL A   1      39.272  34.156  36.675  1.00  0.00     0.055 A 
ATOM     42  C   UNL A   1      37.955  32.330  37.518  1.00  0.00     0.041 A 
ATOM     43  F   UNL A   1      38.007  30.258  36.431  1.00  0.00    -0.206 F 
ATOM     44  C   UNL A   1      38.399  33.644  37.638  1.00  0.00     0.022 A 
BRANCH  41  45
ATOM     45  S   UNL A   1      40.031  35.787  36.917  1.00  0.00     0.124 S 
ATOM     46  O   UNL A   1      41.450  35.446  36.982  1.00  0.00    -0.237 OA
ATOM     47  O   UNL A   1      39.602  36.513  35.728  1.00  0.00    -0.237 OA
ATOM     48  O   UNL A   1      39.451  36.253  38.176  1.00  0.00    -0.744 OA
ENDBRANCH  41  45
ENDBRANCH  24  38
BRANCH  25  49
ATOM     49  C   UNL A   1      42.352  26.504  27.698  1.00  0.00     0.023 A 
ATOM     50  C   UNL A   1      41.945  25.169  27.545  1.00  0.00     0.031 A 
ATOM     51  C   UNL A   1      43.232  27.039  26.740  1.00  0.00     0.131 A 
ATOM     52  C   UNL A   1      42.443  24.405  26.478  1.00  0.00     0.055 A 
ATOM     53  C   UNL A   1      43.681  26.292  25.649  1.00  0.00     0.041 A 
ATOM     54  F   UNL A   1      43.651  28.311  26.836  1.00  0.00    -0.206 F 
ATOM     55  C   UNL A   1      43.294  24.962  25.521  1.00  0.00     0.022 A 
BRANCH  52  56
ATOM     56  S   UNL A   1      42.018  22.643  26.395  1.00  0.00     0.124 S 
ATOM     57  O   UNL A   1      40.563  22.682  26.472  1.00  0.00    -0.237 OA
ATOM     58  O   UNL A   1      42.585  22.256  25.107  1.00  0.00    -0.237 OA
ATOM     59  O   UNL A   1      42.690  22.077  27.563  1.00  0.00    -0.744 OA
ENDBRANCH  52  56
ENDBRANCH  25  49
BRANCH  37  60
ATOM     60  C   UNL A   1      44.688  27.390  34.198  1.00  0.00     0.023 A 
ATOM     61  C   UNL A   1      44.534  26.224  34.969  1.00  0.00     0.031 A 
ATOM     62  C   UNL A   1      45.952  28.004  34.169  1.00  0.00     0.131 A 
ATOM     63  C   UNL A   1      45.608  25.747  35.735  1.00  0.00     0.055 A 
ATOM     64  C   UNL A   1      47.033  27.490  34.885  1.00  0.00     0.041 A 
ATOM     65  F   UNL A   1      46.152  29.120  33.450  1.00  0.00    -0.206 F 
ATOM     66  C   UNL A   1      46.860  26.365  35.687  1.00  0.00     0.022 A 
BRANCH  63  67
ATOM     67  S   UNL A   1      45.316  24.373  36.882  1.00  0.00     0.124 S 
ATOM     68  O   UNL A   1      46.629  24.204  37.495  1.00  0.00    -0.237 OA
ATOM     69  O   UNL A   1      44.271  24.907  37.750  1.00  0.00    -0.237 OA
ATOM     70  O   UNL A   1      44.896  23.279  36.007  1.00  0.00    -0.744 OA
ENDBRANCH  63  67
ENDBRANCH  37  60
ENDBRANCH  11  12
ENDBRANCH   4   6
ENDBRANCH   1   2
BRANCH   1  71
ATOM     71  C   UNL A   1      31.710  28.662  25.873  1.00  0.00     0.042 C 
BRANCH  71  72
ATOM     72  C   UNL A   1      32.106  27.635  26.930  1.00  0.00     0.118 C 
BRANCH  72  73
ATOM     73  N   UNL A   1      31.181  26.520  27.052  1.00  0.00    -0.351 N 
ATOM     74  C   UNL A   1      31.210  25.292  26.461  1.00  0.00     0.281 C 
ATOM     75  H   UNL A   1      30.418  26.675  27.655  1.00  0.00     0.163 HD
ATOM     76  O   UNL A   1      30.519  24.425  27.019  1.00  0.00    -0.268 OA
BRANCH  74  77
ATOM     77  C   UNL A   1      31.896  24.993  25.100  1.00  0.00     0.181 C 
ATOM     78  C   UNL A   1      33.400  24.698  25.255  1.00  0.00     0.085 C 
ATOM     79  C   UNL A   1      31.398  23.580  24.651  1.00  0.00     0.144 C 
ATOM     80  C   UNL A   1      33.743  23.885  24.015  1.00  0.00     0.072 C 
ATOM     81  C   UNL A   1      32.563  22.909  23.876  1.00  0.00     0.191 C 
BRANCH  77  82
ATOM     82  N   UNL A   1      31.626  25.969  24.025  1.00  0.00    -0.331 N 
ATOM     83  H   UNL A   1      32.290  25.759  23.281  1.00  0.00     0.347 HD
ATOM     84  H   UNL A   1      31.692  26.853  24.529  1.00  0.00     0.347 HD
BRANCH  82  85
ATOM     85  C   UNL A   1      30.319  26.095  23.378  1.00  0.00     0.183 C 
ATOM     86  C   UNL A   1      29.044  26.486  24.065  1.00  0.00     0.071 C 
ATOM     87  C   UNL A   1      29.700  27.431  23.098  1.00  0.00     0.071 C 
ENDBRANCH  82  85
ENDBRANCH  77  82
BRANCH  81  88
ATOM     88  N   UNL A   1      32.936  21.550  24.283  1.00  0.00    -0.323 N 
ATOM     89  C   UNL A   1      34.230  21.431  24.976  1.00  0.00     0.324 C 
ATOM     90  C   UNL A   1      32.724  20.461  23.328  1.00  0.00     0.328 C 
ATOM     91  H   UNL A   1      32.207  21.397  24.980  1.00  0.00     0.348 HD
ATOM     92  C   UNL A   1      34.936  20.045  24.837  1.00  0.00     0.324 C 
ATOM     93  C   UNL A   1      32.804  19.112  24.074  1.00  0.00     0.240 C 
ATOM     94  N   UNL A   1      34.032  18.884  24.865  1.00  0.00    -0.323 N 
ATOM     95  C   UNL A   1      32.663  17.914  23.140  1.00  0.00     0.077 C 
ATOM     96  C   UNL A   1      34.659  17.653  24.378  1.00  0.00     0.263 C 
ATOM     97  H   UNL A   1      33.795  18.771  25.851  1.00  0.00     0.348 HD
ATOM     98  C   UNL A   1      33.499  16.848  23.818  1.00  0.00     0.068 C 
ENDBRANCH  81  88
ENDBRANCH  74  77
ENDBRANCH  72  73
ENDBRANCH  71  72
ENDBRANCH   1  71
TORSDOF 16
ENDMDL
MODEL 2
REMARK VINA RESULT:     -12.7      1.340      1.577
REMARK SMILES O=C(NCCCNC(=O)[C@@]1([NH2+]C2CC2)CC[C@@H]([N@@H+]2CC[N@@H+]3CCC[C@@H]3C2)C1)c1ccc(-c2c3nc(c(-c4cc(S(=O)(=O)[O-])ccc4F)c4ccc([nH]4)c(-c4cc(S(=O)(=O)[O-])ccc4F)c4nc(c(-c5cc(S(=O)(=O)[O-])ccc5F)c5ccc2[nH]5)C=C4)C=C3)cc1
REMARK SMILES IDX 4 1 3 2 1 3 2 4 28 6 29 7 90 8 30 9 89 10 31 11 32 12 33 13
REMARK SMILES IDX 83 14 34 15 88 16 82 17 84 18 35 19 87 20 81 21 80 22 36 24
REMARK SMILES IDX 68 25 48 26 67 27 49 28 52 29 66 30 85 31 50 32 51 33 65 35
REMARK SMILES IDX 86 36 53 37 37 38 38 39 46 40 39 41 45 42 47 43 44 44 40 45
REMARK SMILES IDX 41 46 42 47 43 48 69 49 70 50 78 51 71 52 77 53 79 54 76 55
REMARK SMILES IDX 72 56 73 57 74 58 75 59 54 60 55 61 63 62 56 63 62 64 64 65
REMARK SMILES IDX 61 66 57 67 58 68 59 69 60 70 5 71 6 72 7 73 8 74 9 76 10 77
REMARK SMILES IDX 15 78 27 79 16 80 17 81 11 82 12 85 13 86 14 87 18 88 19 89
REMARK SMILES IDX 26 90 20 92 25 93 21 94 24 95 22 96 23 98
REMARK H PARENT 3 5 84 23 52 34 7 75 11 83 11 84 18 91 21 97
REMARK Flexibility Score: inf
ROOT
ATOM      1  C   UNL A   1      32.868  29.959  26.026  1.00  0.00     0.118 C 
ENDROOT
BRANCH   1   2
ATOM      2  N   UNL A   1      32.726  31.265  26.652  1.00  0.00    -0.352 N 
ATOM      3  O   UNL A   1      33.115  33.093  27.887  1.00  0.00    -0.269 OA
ATOM      4  C   UNL A   1      33.536  32.013  27.484  1.00  0.00     0.251 C 
ATOM      5  H   UNL A   1      31.872  31.709  26.438  1.00  0.00     0.163 HD
BRANCH   4   6
ATOM      6  C   UNL A   1      34.859  31.525  27.948  1.00  0.00     0.039 A 
ATOM      7  C   UNL A   1      35.079  30.207  28.320  1.00  0.00     0.014 A 
ATOM      8  C   UNL A   1      35.934  32.424  27.994  1.00  0.00     0.014 A 
ATOM      9  C   UNL A   1      36.260  29.846  28.960  1.00  0.00     0.010 A 
ATOM     10  C   UNL A   1      37.179  32.019  28.502  1.00  0.00     0.010 A 
ATOM     11  C   UNL A   1      37.336  30.741  29.055  1.00  0.00    -0.014 A 
BRANCH  11  12
ATOM     12  C   UNL A   1      38.585  30.289  29.734  1.00  0.00     0.031 A 
ATOM     13  C   UNL A   1      38.872  30.665  31.168  1.00  0.00     0.074 A 
ATOM     14  C   UNL A   1      39.420  29.449  29.085  1.00  0.00     0.049 A 
ATOM     15  N   UNL A   1      39.870  30.299  31.934  1.00  0.00    -0.248 NA
ATOM     16  C   UNL A   1      37.932  31.587  31.820  1.00  0.00     0.031 C 
ATOM     17  C   UNL A   1      39.263  29.020  27.691  1.00  0.00     0.029 A 
ATOM     18  N   UNL A   1      40.527  28.761  29.513  1.00  0.00    -0.354 N 
ATOM     19  C   UNL A   1      39.701  30.975  33.139  1.00  0.00     0.074 A 
ATOM     20  C   UNL A   1      38.519  31.796  32.990  1.00  0.00     0.031 C 
ATOM     21  C   UNL A   1      40.165  28.069  27.416  1.00  0.00     0.029 A 
ATOM     22  C   UNL A   1      41.028  27.884  28.576  1.00  0.00     0.049 A 
ATOM     23  H   UNL A   1      40.927  28.884  30.405  1.00  0.00     0.167 HD
ATOM     24  C   UNL A   1      40.456  30.913  34.265  1.00  0.00     0.034 A 
ATOM     25  C   UNL A   1      42.067  27.028  28.635  1.00  0.00     0.034 A 
ATOM     26  C   UNL A   1      41.612  30.060  34.413  1.00  0.00     0.049 A 
ATOM     27  C   UNL A   1      42.876  26.965  29.900  1.00  0.00     0.074 A 
ATOM     28  C   UNL A   1      42.431  29.898  35.518  1.00  0.00     0.029 A 
ATOM     29  N   UNL A   1      42.114  29.220  33.426  1.00  0.00    -0.354 N 
ATOM     30  N   UNL A   1      42.703  27.621  31.024  1.00  0.00    -0.248 NA
ATOM     31  C   UNL A   1      44.023  26.049  29.904  1.00  0.00     0.031 C 
ATOM     32  C   UNL A   1      43.457  29.007  35.182  1.00  0.00     0.029 A 
ATOM     33  C   UNL A   1      43.241  28.557  33.890  1.00  0.00     0.049 A 
ATOM     34  H   UNL A   1      41.727  29.111  32.528  1.00  0.00     0.167 HD
ATOM     35  C   UNL A   1      43.717  27.188  31.872  1.00  0.00     0.074 A 
ATOM     36  C   UNL A   1      44.475  26.194  31.140  1.00  0.00     0.031 C 
ATOM     37  C   UNL A   1      43.999  27.582  33.141  1.00  0.00     0.034 A 
BRANCH  24  38
ATOM     38  C   UNL A   1      40.085  31.834  35.405  1.00  0.00     0.023 A 
ATOM     39  C   UNL A   1      39.181  31.452  36.413  1.00  0.00     0.031 A 
ATOM     40  C   UNL A   1      40.623  33.133  35.465  1.00  0.00     0.131 A 
ATOM     41  C   UNL A   1      38.789  32.380  37.392  1.00  0.00     0.055 A 
ATOM     42  C   UNL A   1      40.290  34.025  36.487  1.00  0.00     0.041 A 
ATOM     43  F   UNL A   1      41.475  33.564  34.522  1.00  0.00    -0.206 F 
ATOM     44  C   UNL A   1      39.355  33.655  37.450  1.00  0.00     0.022 A 
BRANCH  41  45
ATOM     45  S   UNL A   1      37.420  31.946  38.501  1.00  0.00     0.124 S 
ATOM     46  O   UNL A   1      38.042  32.101  39.814  1.00  0.00    -0.237 OA
ATOM     47  O   UNL A   1      36.408  32.937  38.154  1.00  0.00    -0.237 OA
ATOM     48  O   UNL A   1      37.099  30.569  38.130  1.00  0.00    -0.744 OA
ENDBRANCH  41  45
ENDBRANCH  24  38
BRANCH  25  49
ATOM     49  C   UNL A   1      42.421  26.189  27.453  1.00  0.00     0.023 A 
ATOM     50  C   UNL A   1      42.032  24.842  27.374  1.00  0.00     0.031 A 
ATOM     51  C   UNL A   1      43.176  26.721  26.392  1.00  0.00     0.131 A 
ATOM     52  C   UNL A   1      42.425  24.065  26.273  1.00  0.00     0.055 A 
ATOM     53  C   UNL A   1      43.518  25.959  25.274  1.00  0.00     0.041 A 
ATOM     54  F   UNL A   1      43.572  28.004  26.415  1.00  0.00    -0.206 F 
ATOM     55  C   UNL A   1      43.152  24.619  25.216  1.00  0.00     0.022 A 
BRANCH  52  56
ATOM     56  S   UNL A   1      42.037  22.293  26.275  1.00  0.00     0.124 S 
ATOM     57  O   UNL A   1      42.746  21.830  25.088  1.00  0.00    -0.237 OA
ATOM     58  O   UNL A   1      42.584  21.865  27.559  1.00  0.00    -0.237 OA
ATOM     59  O   UNL A   1      40.579  22.265  26.182  1.00  0.00    -0.744 OA
ENDBRANCH  52  56
ENDBRANCH  25  49
BRANCH  37  60
ATOM     60  C   UNL A   1      45.162  26.899  33.814  1.00  0.00     0.023 A 
ATOM     61  C   UNL A   1      44.988  25.736  34.586  1.00  0.00     0.031 A 
ATOM     62  C   UNL A   1      46.454  27.445  33.720  1.00  0.00     0.131 A 
ATOM     63  C   UNL A   1      46.076  25.196  35.288  1.00  0.00     0.055 A 
ATOM     64  C   UNL A   1      47.544  26.868  34.372  1.00  0.00     0.041 A 
ATOM     65  F   UNL A   1      46.675  28.556  32.999  1.00  0.00    -0.206 F 
ATOM     66  C   UNL A   1      47.355  25.746  35.175  1.00  0.00     0.022 A 
BRANCH  63  67
ATOM     67  S   UNL A   1      45.774  23.828  36.440  1.00  0.00     0.124 S 
ATOM     68  O   UNL A   1      47.118  23.294  36.638  1.00  0.00    -0.237 OA
ATOM     69  O   UNL A   1      45.184  24.510  37.587  1.00  0.00    -0.237 OA
ATOM     70  O   UNL A   1      44.862  22.953  35.703  1.00  0.00    -0.744 OA
ENDBRANCH  63  67
ENDBRANCH  37  60
ENDBRANCH  11  12
ENDBRANCH   4   6
ENDBRANCH   1   2
BRANCH   1  71
ATOM     71  C   UNL A   1      31.699  29.002  26.248  1.00  0.00     0.042 C 
BRANCH  71  72
ATOM     72  C   UNL A   1      32.043  27.791  27.110  1.00  0.00     0.118 C 
BRANCH  72  73
ATOM     73  N   UNL A   1      31.080  26.705  27.020  1.00  0.00    -0.351 N 
ATOM     74  C   UNL A   1      31.175  25.504  26.381  1.00  0.00     0.281 C 
ATOM     75  H   UNL A   1      30.230  26.860  27.493  1.00  0.00     0.163 HD
ATOM     76  O   UNL A   1      30.376  24.638  26.772  1.00  0.00    -0.268 OA
BRANCH  74  77
ATOM     77  C   UNL A   1      32.072  25.242  25.141  1.00  0.00     0.181 C 
ATOM     78  C   UNL A   1      33.521  24.891  25.531  1.00  0.00     0.085 C 
ATOM     79  C   UNL A   1      31.621  23.867  24.547  1.00  0.00     0.144 C 
ATOM     80  C   UNL A   1      34.047  24.122  24.328  1.00  0.00     0.072 C 
ATOM     81  C   UNL A   1      32.882  23.192  23.946  1.00  0.00     0.191 C 
BRANCH  77  82
ATOM     82  N   UNL A   1      32.013  26.273  24.085  1.00  0.00    -0.331 N 
ATOM     83  H   UNL A   1      32.789  26.075  23.454  1.00  0.00     0.347 HD
ATOM     84  H   UNL A   1      32.012  27.131  24.635  1.00  0.00     0.347 HD
BRANCH  82  85
ATOM     85  C   UNL A   1      30.838  26.467  23.233  1.00  0.00     0.183 C 
ATOM     86  C   UNL A   1      29.750  27.473  23.470  1.00  0.00     0.071 C 
ATOM     87  C   UNL A   1      30.707  27.653  22.325  1.00  0.00     0.071 C 
ENDBRANCH  82  85
ENDBRANCH  77  82
BRANCH  81  88
ATOM     88  N   UNL A   1      33.147  21.806  24.343  1.00  0.00    -0.323 N 
ATOM     89  C   UNL A   1      34.451  21.569  24.984  1.00  0.00     0.324 C 
ATOM     90  C   UNL A   1      32.800  20.740  23.401  1.00  0.00     0.328 C 
ATOM     91  H   UNL A   1      32.435  21.718  25.069  1.00  0.00     0.348 HD
ATOM     92  C   UNL A   1      35.023  20.125  24.824  1.00  0.00     0.324 C 
ATOM     93  C   UNL A   1      32.786  19.390  24.148  1.00  0.00     0.240 C 
ATOM     94  N   UNL A   1      34.019  19.051  24.891  1.00  0.00    -0.323 N 
ATOM     95  C   UNL A   1      32.501  18.209  23.225  1.00  0.00     0.077 C 
ATOM     96  C   UNL A   1      34.513  17.768  24.385  1.00  0.00     0.263 C 
ATOM     97  H   UNL A   1      33.812  18.960  25.886  1.00  0.00     0.348 HD
ATOM     98  C   UNL A   1      33.263  17.071  23.874  1.00  0.00     0.068 C 
ENDBRANCH  81  88
ENDBRANCH  74  77
ENDBRANCH  72  73
ENDBRANCH  71  72
ENDBRANCH   1  71
TORSDOF 16
ENDMDL
MODEL 3
REMARK VINA RESULT:     -12.6      4.903     10.387
REMARK SMILES O=C(NCCCNC(=O)[C@@]1([NH2+]C2CC2)CC[C@@H]([N@@H+]2CC[N@@H+]3CCC[C@@H]3C2)C1)c1ccc(-c2c3nc(c(-c4cc(S(=O)(=O)[O-])ccc4F)c4ccc([nH]4)c(-c4cc(S(=O)(=O)[O-])ccc4F)c4nc(c(-c5cc(S(=O)(=O)[O-])ccc5F)c5ccc2[nH]5)C=C4)C=C3)cc1
REMARK SMILES IDX 4 1 3 2 1 3 2 4 28 6 29 7 90 8 30 9 89 10 31 11 32 12 33 13
REMARK SMILES IDX 83 14 34 15 88 16 82 17 84 18 35 19 87 20 81 21 80 22 36 24
REMARK SMILES IDX 68 25 48 26 67 27 49 28 52 29 66 30 85 31 50 32 51 33 65 35
REMARK SMILES IDX 86 36 53 37 37 38 38 39 46 40 39 41 45 42 47 43 44 44 40 45
REMARK SMILES IDX 41 46 42 47 43 48 69 49 70 50 78 51 71 52 77 53 79 54 76 55
REMARK SMILES IDX 72 56 73 57 74 58 75 59 54 60 55 61 63 62 56 63 62 64 64 65
REMARK SMILES IDX 61 66 57 67 58 68 59 69 60 70 5 71 6 72 7 73 8 74 9 76 10 77
REMARK SMILES IDX 15 78 27 79 16 80 17 81 11 82 12 85 13 86 14 87 18 88 19 89
REMARK SMILES IDX 26 90 20 92 25 93 21 94 24 95 22 96 23 98
REMARK H PARENT 3 5 84 23 52 34 7 75 11 83 11 84 18 91 21 97
REMARK Flexibility Score: inf
ROOT
ATOM      1  C   UNL A   1      36.548  21.821  25.410  1.00  0.00     0.118 C 
ENDROOT
BRANCH   1   2
ATOM      2  N   UNL A   1      37.673  20.900  25.470  1.00  0.00    -0.352 N 
ATOM      3  O   UNL A   1      39.718  20.050  25.811  1.00  0.00    -0.269 OA
ATOM      4  C   UNL A   1      38.971  21.016  25.930  1.00  0.00     0.251 C 
ATOM      5  H   UNL A   1      37.468  20.008  25.106  1.00  0.00     0.163 HD
BRANCH   4   6
ATOM      6  C   UNL A   1      39.499  22.281  26.501  1.00  0.00     0.039 A 
ATOM      7  C   UNL A   1      39.015  23.526  26.128  1.00  0.00     0.014 A 
ATOM      8  C   UNL A   1      40.510  22.216  27.470  1.00  0.00     0.014 A 
ATOM      9  C   UNL A   1      39.685  24.683  26.511  1.00  0.00     0.010 A 
ATOM     10  C   UNL A   1      41.088  23.392  27.974  1.00  0.00     0.010 A 
ATOM     11  C   UNL A   1      40.728  24.640  27.449  1.00  0.00    -0.014 A 
BRANCH  11  12
ATOM     12  C   UNL A   1      41.395  25.918  27.836  1.00  0.00     0.031 A 
ATOM     13  C   UNL A   1      42.741  26.297  27.269  1.00  0.00     0.074 A 
ATOM     14  C   UNL A   1      40.735  26.789  28.630  1.00  0.00     0.049 A 
ATOM     15  N   UNL A   1      43.429  27.399  27.440  1.00  0.00    -0.248 NA
ATOM     16  C   UNL A   1      43.414  25.305  26.419  1.00  0.00     0.031 C 
ATOM     17  C   UNL A   1      39.433  26.536  29.255  1.00  0.00     0.029 A 
ATOM     18  N   UNL A   1      41.029  28.076  29.003  1.00  0.00    -0.354 N 
ATOM     19  C   UNL A   1      44.627  27.217  26.756  1.00  0.00     0.074 A 
ATOM     20  C   UNL A   1      44.583  25.886  26.191  1.00  0.00     0.031 C 
ATOM     21  C   UNL A   1      38.995  27.660  29.837  1.00  0.00     0.029 A 
ATOM     22  C   UNL A   1      40.021  28.688  29.715  1.00  0.00     0.049 A 
ATOM     23  H   UNL A   1      41.881  28.520  28.784  1.00  0.00     0.167 HD
ATOM     24  C   UNL A   1      45.664  28.081  26.607  1.00  0.00     0.034 A 
ATOM     25  C   UNL A   1      39.928  29.933  30.220  1.00  0.00     0.034 A 
ATOM     26  C   UNL A   1      45.678  29.421  27.145  1.00  0.00     0.049 A 
ATOM     27  C   UNL A   1      41.082  30.877  30.025  1.00  0.00     0.074 A 
ATOM     28  C   UNL A   1      46.663  30.388  27.029  1.00  0.00     0.029 A 
ATOM     29  N   UNL A   1      44.658  29.988  27.898  1.00  0.00    -0.354 N 
ATOM     30  N   UNL A   1      42.210  30.680  29.382  1.00  0.00    -0.248 NA
ATOM     31  C   UNL A   1      40.954  32.209  30.629  1.00  0.00     0.031 C 
ATOM     32  C   UNL A   1      46.265  31.515  27.758  1.00  0.00     0.029 A 
ATOM     33  C   UNL A   1      44.999  31.281  28.271  1.00  0.00     0.049 A 
ATOM     34  H   UNL A   1      43.814  29.540  28.134  1.00  0.00     0.167 HD
ATOM     35  C   UNL A   1      42.921  31.869  29.497  1.00  0.00     0.074 A 
ATOM     36  C   UNL A   1      42.081  32.786  30.243  1.00  0.00     0.031 C 
ATOM     37  C   UNL A   1      44.160  32.176  29.032  1.00  0.00     0.034 A 
BRANCH  24  38
ATOM     38  C   UNL A   1      46.890  27.579  25.878  1.00  0.00     0.023 A 
ATOM     39  C   UNL A   1      47.153  27.913  24.537  1.00  0.00     0.031 A 
ATOM     40  C   UNL A   1      47.797  26.724  26.531  1.00  0.00     0.131 A 
ATOM     41  C   UNL A   1      48.249  27.338  23.873  1.00  0.00     0.055 A 
ATOM     42  C   UNL A   1      48.930  26.219  25.889  1.00  0.00     0.041 A 
ATOM     43  F   UNL A   1      47.590  26.353  27.804  1.00  0.00    -0.206 F 
ATOM     44  C   UNL A   1      49.153  26.513  24.547  1.00  0.00     0.022 A 
BRANCH  41  45
ATOM     45  S   UNL A   1      48.397  27.568  22.079  1.00  0.00     0.124 S 
ATOM     46  O   UNL A   1      49.555  28.453  21.988  1.00  0.00    -0.237 OA
ATOM     47  O   UNL A   1      48.596  26.204  21.603  1.00  0.00    -0.237 OA
ATOM     48  O   UNL A   1      47.123  28.179  21.705  1.00  0.00    -0.744 OA
ENDBRANCH  41  45
ENDBRANCH  24  38
BRANCH  25  49
ATOM     49  C   UNL A   1      38.716  30.349  30.983  1.00  0.00     0.023 A 
ATOM     50  C   UNL A   1      37.666  31.044  30.361  1.00  0.00     0.031 A 
ATOM     51  C   UNL A   1      38.601  30.074  32.358  1.00  0.00     0.131 A 
ATOM     52  C   UNL A   1      36.563  31.468  31.119  1.00  0.00     0.055 A 
ATOM     53  C   UNL A   1      37.477  30.449  33.096  1.00  0.00     0.041 A 
ATOM     54  F   UNL A   1      39.574  29.411  33.003  1.00  0.00    -0.206 F 
ATOM     55  C   UNL A   1      36.454  31.161  32.477  1.00  0.00     0.022 A 
BRANCH  52  56
ATOM     56  S   UNL A   1      35.299  32.493  30.318  1.00  0.00     0.124 S 
ATOM     57  O   UNL A   1      34.933  31.675  29.168  1.00  0.00    -0.237 OA
ATOM     58  O   UNL A   1      34.293  32.609  31.370  1.00  0.00    -0.237 OA
ATOM     59  O   UNL A   1      36.012  33.729  30.005  1.00  0.00    -0.744 OA
ENDBRANCH  52  56
ENDBRANCH  25  49
BRANCH  37  60
ATOM     60  C   UNL A   1      44.652  33.576  29.298  1.00  0.00     0.023 A 
ATOM     61  C   UNL A   1      44.474  34.610  28.362  1.00  0.00     0.031 A 
ATOM     62  C   UNL A   1      45.347  33.868  30.485  1.00  0.00     0.131 A 
ATOM     63  C   UNL A   1      45.044  35.869  28.597  1.00  0.00     0.055 A 
ATOM     64  C   UNL A   1      45.860  35.140  30.740  1.00  0.00     0.041 A 
ATOM     65  F   UNL A   1      45.546  32.917  31.411  1.00  0.00    -0.206 F 
ATOM     66  C   UNL A   1      45.724  36.145  29.785  1.00  0.00     0.022 A 
BRANCH  63  67
ATOM     67  S   UNL A   1      44.981  37.112  27.277  1.00  0.00     0.124 S 
ATOM     68  O   UNL A   1      45.926  36.573  26.305  1.00  0.00    -0.237 OA
ATOM     69  O   UNL A   1      43.575  37.081  26.886  1.00  0.00    -0.237 OA
ATOM     70  O   UNL A   1      45.411  38.341  27.943  1.00  0.00    -0.744 OA
ENDBRANCH  63  67
ENDBRANCH  37  60
ENDBRANCH  11  12
ENDBRANCH   4   6
ENDBRANCH   1   2
BRANCH   1  71
ATOM     71  C   UNL A   1      36.127  22.239  24.003  1.00  0.00     0.042 C 
BRANCH  71  72
ATOM     72  C   UNL A   1      35.833  23.730  23.860  1.00  0.00     0.118 C 
BRANCH  72  73
ATOM     73  N   UNL A   1      35.093  24.299  24.975  1.00  0.00    -0.351 N 
ATOM     74  C   UNL A   1      33.757  24.268  25.244  1.00  0.00     0.281 C 
ATOM     75  H   UNL A   1      35.641  24.780  25.637  1.00  0.00     0.163 HD
ATOM     76  O   UNL A   1      33.455  24.505  26.424  1.00  0.00    -0.268 OA
BRANCH  74  77
ATOM     77  C   UNL A   1      32.651  24.128  24.163  1.00  0.00     0.181 C 
ATOM     78  C   UNL A   1      31.251  24.468  24.712  1.00  0.00     0.085 C 
ATOM     79  C   UNL A   1      32.840  25.325  23.173  1.00  0.00     0.144 C 
ATOM     80  C   UNL A   1      30.456  24.852  23.472  1.00  0.00     0.072 C 
ATOM     81  C   UNL A   1      31.430  25.726  22.665  1.00  0.00     0.191 C 
BRANCH  77  82
ATOM     82  N   UNL A   1      32.660  22.862  23.405  1.00  0.00    -0.331 N 
ATOM     83  H   UNL A   1      33.636  22.684  23.166  1.00  0.00     0.347 HD
ATOM     84  H   UNL A   1      31.986  23.059  22.666  1.00  0.00     0.347 HD
BRANCH  82  85
ATOM     85  C   UNL A   1      32.142  21.607  23.951  1.00  0.00     0.183 C 
ATOM     86  C   UNL A   1      32.926  20.337  24.109  1.00  0.00     0.071 C 
ATOM     87  C   UNL A   1      32.516  21.126  25.322  1.00  0.00     0.071 C 
ENDBRANCH  82  85
ENDBRANCH  77  82
BRANCH  81  88
ATOM     88  N   UNL A   1      31.074  27.146  22.745  1.00  0.00    -0.323 N 
ATOM     89  C   UNL A   1      31.954  27.971  23.591  1.00  0.00     0.324 C 
ATOM     90  C   UNL A   1      29.664  27.496  22.920  1.00  0.00     0.328 C 
ATOM     91  H   UNL A   1      31.262  27.404  21.776  1.00  0.00     0.348 HD
ATOM     92  C   UNL A   1      31.287  29.240  24.209  1.00  0.00     0.324 C 
ATOM     93  C   UNL A   1      29.468  28.990  22.588  1.00  0.00     0.240 C 
ATOM     94  N   UNL A   1      30.336  29.933  23.325  1.00  0.00    -0.323 N 
ATOM     95  C   UNL A   1      28.033  29.460  22.810  1.00  0.00     0.077 C 
ATOM     96  C   UNL A   1      29.472  30.879  24.036  1.00  0.00     0.263 C 
ATOM     97  H   UNL A   1      30.927  30.447  22.671  1.00  0.00     0.348 HD
ATOM     98  C   UNL A   1      28.203  30.914  23.201  1.00  0.00     0.068 C 
ENDBRANCH  81  88
ENDBRANCH  74  77
ENDBRANCH  72  73
ENDBRANCH  71  72
ENDBRANCH   1  71
TORSDOF 16
ENDMDL
