MODEL 1
REMARK VINA RESULT:     -12.1      0.000      0.000
REMARK SMILES CC1=C[C@@H]([C@@H]2N=N[C@H](S)N2/N=C/c2ccc(C(=O)NCCCNC(=O)c3ccc(-c4c5nc(c(-c6cc(S(=O)(=O)[O-])ccc6F)c6ccc([nH]6)c(-c6cc(S(=O)(=O)[O-])ccc6F)c6nc(c(-c7cc(S(=O)(=O)[O-])ccc7F)c7ccc4[nH]7)C=C6)C=C5)cc3)cc2)N=N1
REMARK SMILES IDX 21 1 20 2 19 3 17 4 18 5 16 7 13 8 14 9 90 10 15 11 89 12
REMARK SMILES IDX 12 13 11 14 10 15 5 16 6 17 7 18 8 19 4 20 1 21 2 22 3 23
REMARK SMILES IDX 92 24 91 25 9 26 22 28 23 29 24 30 25 32 26 33 27 34 88 35
REMARK SMILES IDX 28 36 87 37 29 38 30 39 31 40 81 41 32 42 86 43 80 44 82 45
REMARK SMILES IDX 33 46 85 47 79 48 78 49 34 51 66 52 46 53 65 54 47 55 50 56
REMARK SMILES IDX 64 57 83 58 48 59 49 60 63 62 84 63 51 64 35 65 36 66 44 67
REMARK SMILES IDX 37 68 43 69 45 70 42 71 38 72 39 73 40 74 41 75 67 76 68 77
REMARK SMILES IDX 76 78 69 79 75 80 77 81 74 82 70 83 71 84 72 85 73 86 52 87
REMARK SMILES IDX 53 88 61 89 54 90 60 91 62 92 59 93 55 94 56 95 57 96 58 97
REMARK H PARENT 19 6 9 27 23 31 82 50 50 61
REMARK Flexibility Score: inf
ROOT
ATOM      1  C   UNL A   1      34.399  30.471  27.075  1.00  0.00     0.042 C 
ENDROOT
BRANCH   1   2
ATOM      2  C   UNL A   1      33.646  31.479  27.951  1.00  0.00     0.118 C 
BRANCH   2   3
ATOM      3  N   UNL A   1      33.904  32.846  27.539  1.00  0.00    -0.352 N 
ATOM      4  C   UNL A   1      34.794  33.786  27.993  1.00  0.00     0.251 C 
ATOM      5  O   UNL A   1      34.864  34.855  27.389  1.00  0.00    -0.269 OA
ATOM      6  H   UNL A   1      33.337  33.157  26.796  1.00  0.00     0.163 HD
BRANCH   4   7
ATOM      7  C   UNL A   1      35.703  33.561  29.152  1.00  0.00     0.039 A 
ATOM      8  C   UNL A   1      37.260  33.136  31.436  1.00  0.00    -0.005 A 
ATOM      9  C   UNL A   1      35.908  33.454  31.573  1.00  0.00     0.010 A 
ATOM     10  C   UNL A   1      37.841  33.012  30.182  1.00  0.00     0.010 A 
ATOM     11  C   UNL A   1      35.138  33.679  30.432  1.00  0.00     0.014 A 
ATOM     12  C   UNL A   1      37.049  33.189  29.047  1.00  0.00     0.014 A 
BRANCH   8  13
ATOM     13  C   UNL A   1      38.035  32.841  32.642  1.00  0.00     0.141 C 
ATOM     14  N   UNL A   1      37.957  31.712  33.272  1.00  0.00    -0.180 NA
BRANCH  14  15
ATOM     15  N   UNL A   1      38.730  31.568  34.391  1.00  0.00    -0.233 NA
ATOM     16  C   UNL A   1      38.061  31.392  35.697  1.00  0.00     0.274 C 
ATOM     17  N   UNL A   1      38.725  30.254  36.396  1.00  0.00    -0.161 NA
ATOM     18  N   UNL A   1      39.775  29.925  35.800  1.00  0.00    -0.153 NA
ATOM     19  C   UNL A   1      39.869  30.642  34.517  1.00  0.00     0.298 C 
BRANCH  16  20
ATOM     20  C   UNL A   1      38.129  32.669  36.605  1.00  0.00     0.201 C 
ATOM     21  C   UNL A   1      36.729  31.897  39.908  1.00  0.00     0.068 C 
ATOM     22  C   UNL A   1      37.147  32.481  38.609  1.00  0.00     0.058 C 
ATOM     23  C   UNL A   1      38.345  32.346  38.046  1.00  0.00     0.031 C 
ATOM     24  N   UNL A   1      36.246  33.102  37.780  1.00  0.00    -0.160 NA
ATOM     25  N   UNL A   1      36.780  33.320  36.651  1.00  0.00    -0.177 NA
ENDBRANCH  16  20
BRANCH  19  26
ATOM     26  S   UNL A   1      41.424  31.556  34.214  1.00  0.00    -0.128 SA
ATOM     27  H   UNL A   1      41.607  32.476  35.199  1.00  0.00     0.106 HD
ENDBRANCH  19  26
ENDBRANCH  14  15
ENDBRANCH   8  13
ENDBRANCH   4   7
ENDBRANCH   2   3
ENDBRANCH   1   2
BRANCH   1  28
ATOM     28  C   UNL A   1      35.263  29.528  27.891  1.00  0.00     0.118 C 
BRANCH  28  29
ATOM     29  N   UNL A   1      35.429  30.008  29.261  1.00  0.00    -0.352 N 
ATOM     30  C   UNL A   1      36.390  29.658  30.190  1.00  0.00     0.251 C 
ATOM     31  H   UNL A   1      34.767  30.671  29.563  1.00  0.00     0.163 HD
ATOM     32  O   UNL A   1      36.200  29.862  31.375  1.00  0.00    -0.269 OA
BRANCH  30  33
ATOM     33  C   UNL A   1      37.632  29.019  29.717  1.00  0.00     0.039 A 
ATOM     34  C   UNL A   1      38.320  29.531  28.614  1.00  0.00     0.014 A 
ATOM     35  C   UNL A   1      38.122  27.922  30.419  1.00  0.00     0.014 A 
ATOM     36  C   UNL A   1      39.559  28.988  28.279  1.00  0.00     0.010 A 
ATOM     37  C   UNL A   1      39.398  27.480  30.173  1.00  0.00     0.010 A 
ATOM     38  C   UNL A   1      40.110  27.978  29.080  1.00  0.00    -0.014 A 
BRANCH  38  39
ATOM     39  C   UNL A   1      41.498  27.542  28.903  1.00  0.00     0.031 A 
ATOM     40  C   UNL A   1      41.663  26.257  28.160  1.00  0.00     0.074 A 
ATOM     41  C   UNL A   1      42.538  28.377  29.128  1.00  0.00     0.049 A 
ATOM     42  N   UNL A   1      42.272  25.186  28.547  1.00  0.00    -0.248 NA
ATOM     43  C   UNL A   1      40.956  26.094  26.876  1.00  0.00     0.031 C 
ATOM     44  C   UNL A   1      42.474  29.767  29.594  1.00  0.00     0.029 A 
ATOM     45  N   UNL A   1      43.858  28.229  28.822  1.00  0.00    -0.354 N 
ATOM     46  C   UNL A   1      42.233  24.302  27.469  1.00  0.00     0.074 A 
ATOM     47  C   UNL A   1      41.246  24.829  26.568  1.00  0.00     0.031 C 
ATOM     48  C   UNL A   1      43.623  30.402  29.280  1.00  0.00     0.029 A 
ATOM     49  C   UNL A   1      44.559  29.433  28.736  1.00  0.00     0.049 A 
ATOM     50  H   UNL A   1      44.280  27.351  28.674  1.00  0.00     0.167 HD
ATOM     51  C   UNL A   1      43.188  23.344  27.301  1.00  0.00     0.034 A 
ATOM     52  C   UNL A   1      45.797  29.646  28.213  1.00  0.00     0.034 A 
ATOM     53  C   UNL A   1      43.932  23.141  28.525  1.00  0.00     0.049 A 
ATOM     54  C   UNL A   1      46.489  28.333  28.214  1.00  0.00     0.074 A 
ATOM     55  C   UNL A   1      43.582  22.797  29.818  1.00  0.00     0.029 A 
ATOM     56  N   UNL A   1      45.197  23.679  28.618  1.00  0.00    -0.354 N 
ATOM     57  N   UNL A   1      46.801  27.694  29.308  1.00  0.00    -0.248 NA
ATOM     58  C   UNL A   1      46.387  27.501  27.024  1.00  0.00     0.031 C 
ATOM     59  C   UNL A   1      44.401  23.619  30.646  1.00  0.00     0.029 A 
ATOM     60  C   UNL A   1      45.271  24.337  29.822  1.00  0.00     0.049 A 
ATOM     61  H   UNL A   1      45.913  23.607  27.948  1.00  0.00     0.167 HD
ATOM     62  C   UNL A   1      46.478  26.372  29.050  1.00  0.00     0.074 A 
ATOM     63  C   UNL A   1      46.344  26.293  27.595  1.00  0.00     0.031 C 
ATOM     64  C   UNL A   1      46.055  25.538  30.049  1.00  0.00     0.034 A 
BRANCH  51  65
ATOM     65  C   UNL A   1      43.709  22.851  25.965  1.00  0.00     0.023 A 
ATOM     66  C   UNL A   1      43.741  21.455  25.764  1.00  0.00     0.031 A 
ATOM     67  C   UNL A   1      44.434  23.616  25.024  1.00  0.00     0.131 A 
ATOM     68  C   UNL A   1      44.556  20.883  24.773  1.00  0.00     0.055 A 
ATOM     69  C   UNL A   1      45.185  23.043  23.993  1.00  0.00     0.041 A 
ATOM     70  F   UNL A   1      44.538  24.947  25.094  1.00  0.00    -0.206 F 
ATOM     71  C   UNL A   1      45.282  21.668  23.885  1.00  0.00     0.022 A 
BRANCH  68  72
ATOM     72  S   UNL A   1      44.807  19.089  24.802  1.00  0.00     0.124 S 
ATOM     73  O   UNL A   1      44.968  18.794  23.382  1.00  0.00    -0.237 OA
ATOM     74  O   UNL A   1      46.005  18.968  25.626  1.00  0.00    -0.237 OA
ATOM     75  O   UNL A   1      43.578  18.585  25.409  1.00  0.00    -0.744 OA
ENDBRANCH  68  72
ENDBRANCH  51  65
BRANCH  52  76
ATOM     76  C   UNL A   1      46.295  30.858  27.499  1.00  0.00     0.023 A 
ATOM     77  C   UNL A   1      45.463  31.699  26.728  1.00  0.00     0.031 A 
ATOM     78  C   UNL A   1      47.604  31.335  27.755  1.00  0.00     0.131 A 
ATOM     79  C   UNL A   1      45.948  32.941  26.247  1.00  0.00     0.055 A 
ATOM     80  C   UNL A   1      48.079  32.556  27.270  1.00  0.00     0.041 A 
ATOM     81  F   UNL A   1      48.442  30.667  28.562  1.00  0.00    -0.206 F 
ATOM     82  C   UNL A   1      47.249  33.370  26.519  1.00  0.00     0.022 A 
BRANCH  79  83
ATOM     83  S   UNL A   1      44.851  34.080  25.336  1.00  0.00     0.124 S 
ATOM     84  O   UNL A   1      44.553  33.323  24.126  1.00  0.00    -0.237 OA
ATOM     85  O   UNL A   1      43.748  34.271  26.271  1.00  0.00    -0.237 OA
ATOM     86  O   UNL A   1      45.685  35.265  25.129  1.00  0.00    -0.744 OA
ENDBRANCH  79  83
ENDBRANCH  52  76
BRANCH  64  87
ATOM     87  C   UNL A   1      46.201  25.993  31.489  1.00  0.00     0.023 A 
ATOM     88  C   UNL A   1      45.162  26.548  32.271  1.00  0.00     0.031 A 
ATOM     89  C   UNL A   1      47.421  25.718  32.133  1.00  0.00     0.131 A 
ATOM     90  C   UNL A   1      45.371  26.817  33.639  1.00  0.00     0.055 A 
ATOM     91  C   UNL A   1      47.617  25.962  33.492  1.00  0.00     0.041 A 
ATOM     92  F   UNL A   1      48.439  25.162  31.455  1.00  0.00    -0.206 F 
ATOM     93  C   UNL A   1      46.593  26.518  34.249  1.00  0.00     0.022 A 
BRANCH  90  94
ATOM     94  S   UNL A   1      44.058  27.576  34.651  1.00  0.00     0.124 S 
ATOM     95  O   UNL A   1      44.188  26.904  35.939  1.00  0.00    -0.237 OA
ATOM     96  O   UNL A   1      44.418  28.991  34.627  1.00  0.00    -0.237 OA
ATOM     97  O   UNL A   1      42.834  27.250  33.918  1.00  0.00    -0.744 OA
ENDBRANCH  90  94
ENDBRANCH  64  87
ENDBRANCH  38  39
ENDBRANCH  30  33
ENDBRANCH  28  29
ENDBRANCH   1  28
TORSDOF 17
ENDMDL
MODEL 2
REMARK VINA RESULT:     -11.8      1.079      2.101
REMARK SMILES CC1=C[C@@H]([C@@H]2N=N[C@H](S)N2/N=C/c2ccc(C(=O)NCCCNC(=O)c3ccc(-c4c5nc(c(-c6cc(S(=O)(=O)[O-])ccc6F)c6ccc([nH]6)c(-c6cc(S(=O)(=O)[O-])ccc6F)c6nc(c(-c7cc(S(=O)(=O)[O-])ccc7F)c7ccc4[nH]7)C=C6)C=C5)cc3)cc2)N=N1
REMARK SMILES IDX 21 1 20 2 19 3 17 4 18 5 16 7 13 8 14 9 90 10 15 11 89 12
REMARK SMILES IDX 12 13 11 14 10 15 5 16 6 17 7 18 8 19 4 20 1 21 2 22 3 23
REMARK SMILES IDX 92 24 91 25 9 26 22 28 23 29 24 30 25 32 26 33 27 34 88 35
REMARK SMILES IDX 28 36 87 37 29 38 30 39 31 40 81 41 32 42 86 43 80 44 82 45
REMARK SMILES IDX 33 46 85 47 79 48 78 49 34 51 66 52 46 53 65 54 47 55 50 56
REMARK SMILES IDX 64 57 83 58 48 59 49 60 63 62 84 63 51 64 35 65 36 66 44 67
REMARK SMILES IDX 37 68 43 69 45 70 42 71 38 72 39 73 40 74 41 75 67 76 68 77
REMARK SMILES IDX 76 78 69 79 75 80 77 81 74 82 70 83 71 84 72 85 73 86 52 87
REMARK SMILES IDX 53 88 61 89 54 90 60 91 62 92 59 93 55 94 56 95 57 96 58 97
REMARK H PARENT 19 6 9 27 23 31 82 50 50 61
REMARK Flexibility Score: inf
ROOT
ATOM      1  C   UNL A   1      34.793  31.010  27.512  1.00  0.00     0.042 C 
ENDROOT
BRANCH   1   2
ATOM      2  C   UNL A   1      35.357  32.351  27.998  1.00  0.00     0.118 C 
BRANCH   2   3
ATOM      3  N   UNL A   1      34.304  33.245  28.444  1.00  0.00    -0.352 N 
ATOM      4  C   UNL A   1      34.052  33.827  29.660  1.00  0.00     0.251 C 
ATOM      5  O   UNL A   1      33.124  34.630  29.736  1.00  0.00    -0.269 OA
ATOM      6  H   UNL A   1      33.650  33.477  27.745  1.00  0.00     0.163 HD
BRANCH   4   7
ATOM      7  C   UNL A   1      34.869  33.565  30.879  1.00  0.00     0.039 A 
ATOM      8  C   UNL A   1      36.542  33.160  33.082  1.00  0.00    -0.005 A 
ATOM      9  C   UNL A   1      37.082  33.631  31.885  1.00  0.00     0.010 A 
ATOM     10  C   UNL A   1      35.183  32.903  33.202  1.00  0.00     0.010 A 
ATOM     11  C   UNL A   1      36.247  33.818  30.784  1.00  0.00     0.014 A 
ATOM     12  C   UNL A   1      34.351  33.143  32.109  1.00  0.00     0.014 A 
BRANCH   8  13
ATOM     13  C   UNL A   1      37.423  33.031  34.244  1.00  0.00     0.141 C 
ATOM     14  N   UNL A   1      37.035  32.520  35.370  1.00  0.00    -0.180 NA
BRANCH  14  15
ATOM     15  N   UNL A   1      37.957  32.465  36.379  1.00  0.00    -0.233 NA
ATOM     16  C   UNL A   1      39.375  32.732  36.060  1.00  0.00     0.274 C 
ATOM     17  N   UNL A   1      39.898  33.685  37.080  1.00  0.00    -0.161 NA
ATOM     18  N   UNL A   1      39.083  33.811  38.022  1.00  0.00    -0.153 NA
ATOM     19  C   UNL A   1      37.820  33.133  37.686  1.00  0.00     0.298 C 
BRANCH  16  20
ATOM     20  C   UNL A   1      40.263  31.438  36.055  1.00  0.00     0.201 C 
ATOM     21  C   UNL A   1      40.433  30.084  32.649  1.00  0.00     0.068 C 
ATOM     22  C   UNL A   1      40.345  30.332  34.110  1.00  0.00     0.058 C 
ATOM     23  C   UNL A   1      41.022  31.260  34.783  1.00  0.00     0.031 C 
ATOM     24  N   UNL A   1      39.406  29.702  34.888  1.00  0.00    -0.160 NA
ATOM     25  N   UNL A   1      39.379  30.228  36.041  1.00  0.00    -0.177 NA
ENDBRANCH  16  20
BRANCH  19  26
ATOM     26  S   UNL A   1      37.197  31.929  38.914  1.00  0.00    -0.128 SA
ATOM     27  H   UNL A   1      35.879  32.167  39.153  1.00  0.00     0.106 HD
ENDBRANCH  19  26
ENDBRANCH  14  15
ENDBRANCH   8  13
ENDBRANCH   4   7
ENDBRANCH   2   3
ENDBRANCH   1   2
BRANCH   1  28
ATOM     28  C   UNL A   1      35.318  29.837  28.319  1.00  0.00     0.118 C 
BRANCH  28  29
ATOM     29  N   UNL A   1      35.520  30.201  29.719  1.00  0.00    -0.352 N 
ATOM     30  C   UNL A   1      36.493  29.760  30.596  1.00  0.00     0.251 C 
ATOM     31  H   UNL A   1      34.876  30.847  30.089  1.00  0.00     0.163 HD
ATOM     32  O   UNL A   1      36.329  29.869  31.798  1.00  0.00    -0.269 OA
BRANCH  30  33
ATOM     33  C   UNL A   1      37.713  29.141  30.046  1.00  0.00     0.039 A 
ATOM     34  C   UNL A   1      38.432  29.770  29.026  1.00  0.00     0.014 A 
ATOM     35  C   UNL A   1      38.151  27.940  30.594  1.00  0.00     0.014 A 
ATOM     36  C   UNL A   1      39.652  29.228  28.626  1.00  0.00     0.010 A 
ATOM     37  C   UNL A   1      39.412  27.484  30.296  1.00  0.00     0.010 A 
ATOM     38  C   UNL A   1      40.154  28.097  29.284  1.00  0.00    -0.014 A 
BRANCH  38  39
ATOM     39  C   UNL A   1      41.525  27.633  29.056  1.00  0.00     0.031 A 
ATOM     40  C   UNL A   1      41.637  26.350  28.300  1.00  0.00     0.074 A 
ATOM     41  C   UNL A   1      42.590  28.444  29.249  1.00  0.00     0.049 A 
ATOM     42  N   UNL A   1      42.236  25.263  28.659  1.00  0.00    -0.248 NA
ATOM     43  C   UNL A   1      40.882  26.210  27.041  1.00  0.00     0.031 C 
ATOM     44  C   UNL A   1      42.572  29.832  29.726  1.00  0.00     0.029 A 
ATOM     45  N   UNL A   1      43.895  28.271  28.895  1.00  0.00    -0.354 N 
ATOM     46  C   UNL A   1      42.140  24.388  27.578  1.00  0.00     0.074 A 
ATOM     47  C   UNL A   1      41.134  24.941  26.715  1.00  0.00     0.031 C 
ATOM     48  C   UNL A   1      43.723  30.445  29.374  1.00  0.00     0.029 A 
ATOM     49  C   UNL A   1      44.618  29.461  28.793  1.00  0.00     0.049 A 
ATOM     50  H   UNL A   1      44.293  27.386  28.728  1.00  0.00     0.167 HD
ATOM     51  C   UNL A   1      43.069  23.412  27.370  1.00  0.00     0.034 A 
ATOM     52  C   UNL A   1      45.842  29.651  28.228  1.00  0.00     0.034 A 
ATOM     53  C   UNL A   1      43.850  23.185  28.566  1.00  0.00     0.049 A 
ATOM     54  C   UNL A   1      46.505  28.324  28.196  1.00  0.00     0.074 A 
ATOM     55  C   UNL A   1      43.539  22.839  29.868  1.00  0.00     0.029 A 
ATOM     56  N   UNL A   1      45.129  23.695  28.618  1.00  0.00    -0.354 N 
ATOM     57  N   UNL A   1      46.841  27.671  29.275  1.00  0.00    -0.248 NA
ATOM     58  C   UNL A   1      46.344  27.502  27.005  1.00  0.00     0.031 C 
ATOM     59  C   UNL A   1      44.404  23.638  30.672  1.00  0.00     0.029 A 
ATOM     60  C   UNL A   1      45.260  24.343  29.822  1.00  0.00     0.049 A 
ATOM     61  H   UNL A   1      45.820  23.613  27.922  1.00  0.00     0.167 HD
ATOM     62  C   UNL A   1      46.481  26.357  29.021  1.00  0.00     0.074 A 
ATOM     63  C   UNL A   1      46.295  26.292  27.571  1.00  0.00     0.031 C 
ATOM     64  C   UNL A   1      46.076  25.526  30.028  1.00  0.00     0.034 A 
BRANCH  51  65
ATOM     65  C   UNL A   1      43.531  22.917  26.014  1.00  0.00     0.023 A 
ATOM     66  C   UNL A   1      43.544  21.521  25.809  1.00  0.00     0.031 A 
ATOM     67  C   UNL A   1      44.226  23.677  25.045  1.00  0.00     0.131 A 
ATOM     68  C   UNL A   1      44.314  20.943  24.785  1.00  0.00     0.055 A 
ATOM     69  C   UNL A   1      44.930  23.100  23.984  1.00  0.00     0.041 A 
ATOM     70  F   UNL A   1      44.344  25.007  25.114  1.00  0.00    -0.206 F 
ATOM     71  C   UNL A   1      45.011  21.724  23.871  1.00  0.00     0.022 A 
BRANCH  68  72
ATOM     72  S   UNL A   1      44.551  19.147  24.802  1.00  0.00     0.124 S 
ATOM     73  O   UNL A   1      45.723  19.016  25.660  1.00  0.00    -0.237 OA
ATOM     74  O   UNL A   1      43.286  18.683  25.361  1.00  0.00    -0.237 OA
ATOM     75  O   UNL A   1      44.768  18.822  23.395  1.00  0.00    -0.744 OA
ENDBRANCH  68  72
ENDBRANCH  51  65
BRANCH  52  76
ATOM     76  C   UNL A   1      46.340  30.857  27.504  1.00  0.00     0.023 A 
ATOM     77  C   UNL A   1      45.506  31.698  26.734  1.00  0.00     0.031 A 
ATOM     78  C   UNL A   1      47.652  31.330  27.748  1.00  0.00     0.131 A 
ATOM     79  C   UNL A   1      45.993  32.935  26.243  1.00  0.00     0.055 A 
ATOM     80  C   UNL A   1      48.129  32.546  27.253  1.00  0.00     0.041 A 
ATOM     81  F   UNL A   1      48.493  30.662  28.553  1.00  0.00    -0.206 F 
ATOM     82  C   UNL A   1      47.297  33.359  26.504  1.00  0.00     0.022 A 
BRANCH  79  83
ATOM     83  S   UNL A   1      44.894  34.074  25.334  1.00  0.00     0.124 S 
ATOM     84  O   UNL A   1      45.804  35.148  24.955  1.00  0.00    -0.237 OA
ATOM     85  O   UNL A   1      44.395  33.234  24.252  1.00  0.00    -0.237 OA
ATOM     86  O   UNL A   1      43.888  34.445  26.330  1.00  0.00    -0.744 OA
ENDBRANCH  79  83
ENDBRANCH  52  76
BRANCH  64  87
ATOM     87  C   UNL A   1      46.282  25.969  31.465  1.00  0.00     0.023 A 
ATOM     88  C   UNL A   1      45.269  26.484  32.306  1.00  0.00     0.031 A 
ATOM     89  C   UNL A   1      47.541  25.721  32.043  1.00  0.00     0.131 A 
ATOM     90  C   UNL A   1      45.540  26.743  33.665  1.00  0.00     0.055 A 
ATOM     91  C   UNL A   1      47.798  25.954  33.394  1.00  0.00     0.041 A 
ATOM     92  F   UNL A   1      48.538  25.202  31.308  1.00  0.00    -0.206 F 
ATOM     93  C   UNL A   1      46.799  26.472  34.209  1.00  0.00     0.022 A 
BRANCH  90  94
ATOM     94  S   UNL A   1      44.260  27.453  34.751  1.00  0.00     0.124 S 
ATOM     95  O   UNL A   1      44.566  28.879  34.755  1.00  0.00    -0.237 OA
ATOM     96  O   UNL A   1      43.022  27.064  34.080  1.00  0.00    -0.237 OA
ATOM     97  O   UNL A   1      44.490  26.779  36.031  1.00  0.00    -0.744 OA
ENDBRANCH  90  94
ENDBRANCH  64  87
ENDBRANCH  38  39
ENDBRANCH  30  33
ENDBRANCH  28  29
ENDBRANCH   1  28
TORSDOF 17
ENDMDL
MODEL 3
REMARK VINA RESULT:     -11.7      4.733     11.821
REMARK SMILES CC1=C[C@@H]([C@@H]2N=N[C@H](S)N2/N=C/c2ccc(C(=O)NCCCNC(=O)c3ccc(-c4c5nc(c(-c6cc(S(=O)(=O)[O-])ccc6F)c6ccc([nH]6)c(-c6cc(S(=O)(=O)[O-])ccc6F)c6nc(c(-c7cc(S(=O)(=O)[O-])ccc7F)c7ccc4[nH]7)C=C6)C=C5)cc3)cc2)N=N1
REMARK SMILES IDX 21 1 20 2 19 3 17 4 18 5 16 7 13 8 14 9 90 10 15 11 89 12
REMARK SMILES IDX 12 13 11 14 10 15 5 16 6 17 7 18 8 19 4 20 1 21 2 22 3 23
REMARK SMILES IDX 92 24 91 25 9 26 22 28 23 29 24 30 25 32 26 33 27 34 88 35
REMARK SMILES IDX 28 36 87 37 29 38 30 39 31 40 81 41 32 42 86 43 80 44 82 45
REMARK SMILES IDX 33 46 85 47 79 48 78 49 34 51 66 52 46 53 65 54 47 55 50 56
REMARK SMILES IDX 64 57 83 58 48 59 49 60 63 62 84 63 51 64 35 65 36 66 44 67
REMARK SMILES IDX 37 68 43 69 45 70 42 71 38 72 39 73 40 74 41 75 67 76 68 77
REMARK SMILES IDX 76 78 69 79 75 80 77 81 74 82 70 83 71 84 72 85 73 86 52 87
REMARK SMILES IDX 53 88 61 89 54 90 60 91 62 92 59 93 55 94 56 95 57 96 58 97
REMARK H PARENT 19 6 9 27 23 31 82 50 50 61
REMARK Flexibility Score: inf
ROOT
ATOM      1  C   UNL A   1      39.996  22.225  26.721  1.00  0.00     0.042 C 
ENDROOT
BRANCH   1   2
ATOM      2  C   UNL A   1      38.818  22.589  25.808  1.00  0.00     0.118 C 
BRANCH   2   3
ATOM      3  N   UNL A   1      37.946  21.452  25.579  1.00  0.00    -0.352 N 
ATOM      4  C   UNL A   1      36.626  21.371  25.216  1.00  0.00     0.251 C 
ATOM      5  O   UNL A   1      36.154  20.256  24.999  1.00  0.00    -0.269 OA
ATOM      6  H   UNL A   1      38.382  20.578  25.707  1.00  0.00     0.163 HD
BRANCH   4   7
ATOM      7  C   UNL A   1      35.751  22.563  25.035  1.00  0.00     0.039 A 
ATOM      8  C   UNL A   1      34.102  24.761  24.514  1.00  0.00    -0.005 A 
ATOM      9  C   UNL A   1      34.671  24.059  23.450  1.00  0.00     0.010 A 
ATOM     10  C   UNL A   1      34.330  24.376  25.828  1.00  0.00     0.010 A 
ATOM     11  C   UNL A   1      35.504  22.972  23.714  1.00  0.00     0.014 A 
ATOM     12  C   UNL A   1      35.124  23.256  26.077  1.00  0.00     0.014 A 
BRANCH   8  13
ATOM     13  C   UNL A   1      33.180  25.858  24.215  1.00  0.00     0.141 C 
ATOM     14  N   UNL A   1      31.932  25.845  24.561  1.00  0.00    -0.180 NA
BRANCH  14  15
ATOM     15  N   UNL A   1      31.177  26.931  24.213  1.00  0.00    -0.233 NA
ATOM     16  C   UNL A   1      31.856  28.226  23.999  1.00  0.00     0.274 C 
ATOM     17  N   UNL A   1      31.340  28.802  22.724  1.00  0.00    -0.161 NA
ATOM     18  N   UNL A   1      30.343  28.159  22.323  1.00  0.00    -0.153 NA
ATOM     19  C   UNL A   1      30.165  26.948  23.142  1.00  0.00     0.298 C 
BRANCH  16  20
ATOM     20  C   UNL A   1      31.620  29.250  25.163  1.00  0.00     0.201 C 
ATOM     21  C   UNL A   1      34.626  29.431  27.259  1.00  0.00     0.068 C 
ATOM     22  C   UNL A   1      33.260  29.375  26.683  1.00  0.00     0.058 C 
ATOM     23  C   UNL A   1      32.863  29.972  25.562  1.00  0.00     0.031 C 
ATOM     24  N   UNL A   1      32.298  28.543  27.201  1.00  0.00    -0.160 NA
ATOM     25  N   UNL A   1      31.298  28.504  26.423  1.00  0.00    -0.177 NA
ENDBRANCH  16  20
BRANCH  19  26
ATOM     26  S   UNL A   1      28.508  26.706  23.877  1.00  0.00    -0.128 SA
ATOM     27  H   UNL A   1      28.161  25.394  23.787  1.00  0.00     0.106 HD
ENDBRANCH  19  26
ENDBRANCH  14  15
ENDBRANCH   8  13
ENDBRANCH   4   7
ENDBRANCH   2   3
ENDBRANCH   1   2
BRANCH   1  28
ATOM     28  C   UNL A   1      40.726  23.451  27.239  1.00  0.00     0.118 C 
BRANCH  28  29
ATOM     29  N   UNL A   1      41.509  24.089  26.184  1.00  0.00    -0.352 N 
ATOM     30  C   UNL A   1      41.582  25.428  25.849  1.00  0.00     0.251 C 
ATOM     31  H   UNL A   1      42.060  23.484  25.637  1.00  0.00     0.163 HD
ATOM     32  O   UNL A   1      41.985  25.764  24.751  1.00  0.00    -0.269 OA
BRANCH  30  33
ATOM     33  C   UNL A   1      41.144  26.429  26.840  1.00  0.00     0.039 A 
ATOM     34  C   UNL A   1      41.040  26.094  28.192  1.00  0.00     0.014 A 
ATOM     35  C   UNL A   1      40.879  27.723  26.401  1.00  0.00     0.014 A 
ATOM     36  C   UNL A   1      40.758  27.097  29.117  1.00  0.00     0.010 A 
ATOM     37  C   UNL A   1      40.736  28.731  27.323  1.00  0.00     0.010 A 
ATOM     38  C   UNL A   1      40.633  28.423  28.681  1.00  0.00    -0.014 A 
BRANCH  38  39
ATOM     39  C   UNL A   1      40.566  29.533  29.636  1.00  0.00     0.031 A 
ATOM     40  C   UNL A   1      39.230  30.191  29.742  1.00  0.00     0.074 A 
ATOM     41  C   UNL A   1      41.540  29.741  30.551  1.00  0.00     0.049 A 
ATOM     42  N   UNL A   1      38.941  31.439  29.575  1.00  0.00    -0.248 NA
ATOM     43  C   UNL A   1      38.042  29.339  29.934  1.00  0.00     0.031 C 
ATOM     44  C   UNL A   1      42.778  28.970  30.720  1.00  0.00     0.029 A 
ATOM     45  N   UNL A   1      41.558  30.566  31.636  1.00  0.00    -0.354 N 
ATOM     46  C   UNL A   1      37.586  31.570  29.873  1.00  0.00     0.074 A 
ATOM     47  C   UNL A   1      37.056  30.236  29.879  1.00  0.00     0.031 C 
ATOM     48  C   UNL A   1      43.267  29.167  31.963  1.00  0.00     0.029 A 
ATOM     49  C   UNL A   1      42.475  30.192  32.620  1.00  0.00     0.049 A 
ATOM     50  H   UNL A   1      40.976  31.356  31.719  1.00  0.00     0.167 HD
ATOM     51  C   UNL A   1      37.069  32.748  30.326  1.00  0.00     0.034 A 
ATOM     52  C   UNL A   1      42.559  30.642  33.901  1.00  0.00     0.034 A 
ATOM     53  C   UNL A   1      37.981  33.841  30.067  1.00  0.00     0.049 A 
ATOM     54  C   UNL A   1      41.859  31.950  33.938  1.00  0.00     0.074 A 
ATOM     55  C   UNL A   1      38.573  34.351  28.927  1.00  0.00     0.029 A 
ATOM     56  N   UNL A   1      38.721  34.338  31.118  1.00  0.00    -0.354 N 
ATOM     57  N   UNL A   1      42.281  33.001  33.289  1.00  0.00    -0.248 NA
ATOM     58  C   UNL A   1      40.443  31.963  34.275  1.00  0.00     0.031 C 
ATOM     59  C   UNL A   1      39.907  34.663  29.319  1.00  0.00     0.029 A 
ATOM     60  C   UNL A   1      40.024  34.427  30.691  1.00  0.00     0.049 A 
ATOM     61  H   UNL A   1      38.381  34.582  32.009  1.00  0.00     0.167 HD
ATOM     62  C   UNL A   1      41.138  33.561  32.740  1.00  0.00     0.074 A 
ATOM     63  C   UNL A   1      40.030  32.954  33.478  1.00  0.00     0.031 C 
ATOM     64  C   UNL A   1      41.179  34.230  31.548  1.00  0.00     0.034 A 
BRANCH  51  65
ATOM     65  C   UNL A   1      35.932  32.881  31.321  1.00  0.00     0.023 A 
ATOM     66  C   UNL A   1      34.856  33.718  30.958  1.00  0.00     0.031 A 
ATOM     67  C   UNL A   1      35.970  32.499  32.681  1.00  0.00     0.131 A 
ATOM     68  C   UNL A   1      33.976  34.232  31.925  1.00  0.00     0.055 A 
ATOM     69  C   UNL A   1      35.047  32.955  33.627  1.00  0.00     0.041 A 
ATOM     70  F   UNL A   1      36.945  31.742  33.196  1.00  0.00    -0.206 F 
ATOM     71  C   UNL A   1      34.066  33.858  33.261  1.00  0.00     0.022 A 
BRANCH  68  72
ATOM     72  S   UNL A   1      32.844  35.559  31.435  1.00  0.00     0.124 S 
ATOM     73  O   UNL A   1      33.684  36.739  31.614  1.00  0.00    -0.237 OA
ATOM     74  O   UNL A   1      32.531  35.191  30.059  1.00  0.00    -0.237 OA
ATOM     75  O   UNL A   1      31.740  35.429  32.382  1.00  0.00    -0.744 OA
ENDBRANCH  68  72
ENDBRANCH  51  65
BRANCH  52  76
ATOM     76  C   UNL A   1      42.989  29.885  35.113  1.00  0.00     0.023 A 
ATOM     77  C   UNL A   1      42.353  28.703  35.553  1.00  0.00     0.031 A 
ATOM     78  C   UNL A   1      44.209  30.214  35.750  1.00  0.00     0.131 A 
ATOM     79  C   UNL A   1      42.931  27.920  36.584  1.00  0.00     0.055 A 
ATOM     80  C   UNL A   1      44.769  29.444  36.772  1.00  0.00     0.041 A 
ATOM     81  F   UNL A   1      44.949  31.256  35.340  1.00  0.00    -0.206 F 
ATOM     82  C   UNL A   1      44.135  28.286  37.189  1.00  0.00     0.022 A 
BRANCH  79  83
ATOM     83  S   UNL A   1      42.172  26.340  37.090  1.00  0.00     0.124 S 
ATOM     84  O   UNL A   1      42.357  25.511  35.904  1.00  0.00    -0.237 OA
ATOM     85  O   UNL A   1      42.954  25.975  38.265  1.00  0.00    -0.237 OA
ATOM     86  O   UNL A   1      40.782  26.703  37.373  1.00  0.00    -0.744 OA
ENDBRANCH  79  83
ENDBRANCH  52  76
BRANCH  64  87
ATOM     87  C   UNL A   1      42.531  34.591  30.962  1.00  0.00     0.023 A 
ATOM     88  C   UNL A   1      43.109  33.979  29.825  1.00  0.00     0.031 A 
ATOM     89  C   UNL A   1      43.195  35.705  31.506  1.00  0.00     0.131 A 
ATOM     90  C   UNL A   1      44.311  34.480  29.286  1.00  0.00     0.055 A 
ATOM     91  C   UNL A   1      44.371  36.213  30.956  1.00  0.00     0.041 A 
ATOM     92  F   UNL A   1      42.683  36.352  32.567  1.00  0.00    -0.206 F 
ATOM     93  C   UNL A   1      44.937  35.598  29.846  1.00  0.00     0.022 A 
BRANCH  90  94
ATOM     94  S   UNL A   1      45.095  33.675  27.851  1.00  0.00     0.124 S 
ATOM     95  O   UNL A   1      45.256  32.290  28.280  1.00  0.00    -0.237 OA
ATOM     96  O   UNL A   1      44.123  33.907  26.786  1.00  0.00    -0.237 OA
ATOM     97  O   UNL A   1      46.351  34.411  27.693  1.00  0.00    -0.744 OA
ENDBRANCH  90  94
ENDBRANCH  64  87
ENDBRANCH  38  39
ENDBRANCH  30  33
ENDBRANCH  28  29
ENDBRANCH   1  28
TORSDOF 17
ENDMDL
