MODEL 1
REMARK VINA RESULT:     -12.5      0.000      0.000
REMARK SMILES COc1ccc(/C=C(/Sc2nc(C)n[nH]2)C(=O)NCCCNC(=O)c2ccc(-c3c4nc(c(-c5cc(S(=O)(=O)[O-])ccc5F)c5ccc([nH]5)c(-c5cc(S(=O)(=O)[O-])ccc5F)c5nc(c(-c6cc(S(=O)(=O)[O-])ccc6F)c6ccc3[nH]6)C=C5)C=C4)cc2)cc1OC
REMARK SMILES IDX 20 1 19 2 18 3 16 4 17 5 8 7 7 8 6 9 3 10 4 11 89 12 5 13
REMARK SMILES IDX 88 14 2 15 1 16 90 17 91 18 9 19 10 20 11 21 15 22 12 23
REMARK SMILES IDX 14 24 13 26 21 27 22 28 23 29 24 31 25 32 26 33 87 34 27 35
REMARK SMILES IDX 86 36 28 37 29 38 30 39 80 40 31 41 85 42 79 43 81 44 32 45
REMARK SMILES IDX 84 46 78 47 77 48 33 50 65 51 45 52 64 53 46 54 49 55 63 56
REMARK SMILES IDX 82 57 47 58 48 59 62 61 83 62 50 63 34 64 35 65 43 66 36 67
REMARK SMILES IDX 42 68 44 69 41 70 37 71 38 72 39 73 40 74 66 75 67 76 75 77
REMARK SMILES IDX 68 78 74 79 76 80 73 81 69 82 70 83 71 84 72 85 51 86 52 87
REMARK SMILES IDX 60 88 53 89 59 90 61 91 58 92 54 93 55 94 56 95 57 96
REMARK H PARENT 18 6 15 25 22 30 81 49 49 60
REMARK Flexibility Score: inf
ROOT
ATOM      1  C   UNL A   1      33.780  29.241  27.140  1.00  0.00     0.042 C 
ENDROOT
BRANCH   1   2
ATOM      2  C   UNL A   1      33.192  27.827  27.064  1.00  0.00     0.118 C 
BRANCH   2   3
ATOM      3  N   UNL A   1      31.934  27.718  26.330  1.00  0.00    -0.352 N 
ATOM      4  C   UNL A   1      31.633  27.136  25.125  1.00  0.00     0.258 C 
ATOM      5  O   UNL A   1      30.578  26.499  25.094  1.00  0.00    -0.269 OA
ATOM      6  H   UNL A   1      31.165  28.136  26.780  1.00  0.00     0.163 HD
BRANCH   4   7
ATOM      7  C   UNL A   1      32.483  27.289  23.873  1.00  0.00     0.081 C 
ATOM      8  C   UNL A   1      33.099  26.228  23.296  1.00  0.00     0.029 C 
BRANCH   8   9
ATOM      9  C   UNL A   1      33.154  24.772  23.608  1.00  0.00    -0.020 A 
ATOM     10  C   UNL A   1      33.537  22.010  24.169  1.00  0.00     0.160 A 
ATOM     11  C   UNL A   1      32.489  22.439  23.347  1.00  0.00     0.051 A 
ATOM     12  C   UNL A   1      34.435  22.947  24.684  1.00  0.00     0.161 A 
ATOM     13  C   UNL A   1      32.316  23.802  23.053  1.00  0.00     0.012 A 
ATOM     14  C   UNL A   1      34.217  24.313  24.411  1.00  0.00     0.058 A 
BRANCH  10  15
ATOM     15  O   UNL A   1      33.708  20.661  24.318  1.00  0.00    -0.493 OA
ATOM     16  C   UNL A   1      33.093  20.167  25.508  1.00  0.00     0.278 C 
ENDBRANCH  10  15
BRANCH  12  17
ATOM     17  O   UNL A   1      35.565  22.734  25.429  1.00  0.00    -0.493 OA
ATOM     18  C   UNL A   1      36.616  23.686  25.380  1.00  0.00     0.278 C 
ENDBRANCH  12  17
ENDBRANCH   8   9
BRANCH   7  19
ATOM     19  S   UNL A   1      32.546  28.885  23.179  1.00  0.00    -0.045 SA
BRANCH  19  20
ATOM     20  C   UNL A   1      30.947  29.295  22.732  1.00  0.00     0.188 A 
ATOM     21  N   UNL A   1      29.989  29.581  23.576  1.00  0.00    -0.206 NA
ATOM     22  N   UNL A   1      30.613  29.735  21.488  1.00  0.00    -0.254 N 
ATOM     23  C   UNL A   1      29.087  30.257  22.804  1.00  0.00     0.148 A 
ATOM     24  N   UNL A   1      29.415  30.359  21.507  1.00  0.00    -0.158 NA
ATOM     25  H   UNL A   1      31.167  29.615  20.683  1.00  0.00     0.192 HD
ATOM     26  C   UNL A   1      27.918  30.922  23.412  1.00  0.00     0.092 C 
ENDBRANCH  19  20
ENDBRANCH   7  19
ENDBRANCH   4   7
ENDBRANCH   2   3
ENDBRANCH   1   2
BRANCH   1  27
ATOM     27  C   UNL A   1      35.235  29.224  27.582  1.00  0.00     0.118 C 
BRANCH  27  28
ATOM     28  N   UNL A   1      35.437  29.872  28.886  1.00  0.00    -0.352 N 
ATOM     29  C   UNL A   1      36.491  29.741  29.777  1.00  0.00     0.251 C 
ATOM     30  H   UNL A   1      34.721  30.487  29.166  1.00  0.00     0.163 HD
ATOM     31  O   UNL A   1      36.376  30.112  30.929  1.00  0.00    -0.269 OA
BRANCH  29  32
ATOM     32  C   UNL A   1      37.745  29.136  29.289  1.00  0.00     0.039 A 
ATOM     33  C   UNL A   1      38.383  29.593  28.134  1.00  0.00     0.014 A 
ATOM     34  C   UNL A   1      38.305  28.126  30.061  1.00  0.00     0.014 A 
ATOM     35  C   UNL A   1      39.642  29.081  27.823  1.00  0.00     0.010 A 
ATOM     36  C   UNL A   1      39.612  27.778  29.870  1.00  0.00     0.010 A 
ATOM     37  C   UNL A   1      40.261  28.191  28.716  1.00  0.00    -0.014 A 
BRANCH  37  38
ATOM     38  C   UNL A   1      41.649  27.778  28.549  1.00  0.00     0.031 A 
ATOM     39  C   UNL A   1      41.805  26.488  27.825  1.00  0.00     0.074 A 
ATOM     40  C   UNL A   1      42.692  28.604  28.795  1.00  0.00     0.049 A 
ATOM     41  N   UNL A   1      42.213  25.363  28.305  1.00  0.00    -0.248 NA
ATOM     42  C   UNL A   1      41.272  26.384  26.455  1.00  0.00     0.031 C 
ATOM     43  C   UNL A   1      42.661  30.009  29.219  1.00  0.00     0.029 A 
ATOM     44  N   UNL A   1      44.022  28.394  28.600  1.00  0.00    -0.354 N 
ATOM     45  C   UNL A   1      42.247  24.482  27.230  1.00  0.00     0.074 A 
ATOM     46  C   UNL A   1      41.441  25.084  26.203  1.00  0.00     0.031 C 
ATOM     47  C   UNL A   1      43.869  30.579  29.012  1.00  0.00     0.029 A 
ATOM     48  C   UNL A   1      44.807  29.547  28.610  1.00  0.00     0.049 A 
ATOM     49  H   UNL A   1      44.402  27.496  28.463  1.00  0.00     0.167 HD
ATOM     50  C   UNL A   1      43.159  23.470  27.184  1.00  0.00     0.034 A 
ATOM     51  C   UNL A   1      46.129  29.652  28.295  1.00  0.00     0.034 A 
ATOM     52  C   UNL A   1      43.732  23.235  28.494  1.00  0.00     0.049 A 
ATOM     53  C   UNL A   1      46.699  28.288  28.450  1.00  0.00     0.074 A 
ATOM     54  C   UNL A   1      43.194  22.937  29.732  1.00  0.00     0.029 A 
ATOM     55  N   UNL A   1      44.987  23.741  28.755  1.00  0.00    -0.354 N 
ATOM     56  N   UNL A   1      46.755  27.667  29.597  1.00  0.00    -0.248 NA
ATOM     57  C   UNL A   1      46.708  27.422  27.280  1.00  0.00     0.031 C 
ATOM     58  C   UNL A   1      43.909  23.767  30.647  1.00  0.00     0.029 A 
ATOM     59  C   UNL A   1      44.917  24.431  29.943  1.00  0.00     0.049 A 
ATOM     60  H   UNL A   1      45.789  23.628  28.192  1.00  0.00     0.167 HD
ATOM     61  C   UNL A   1      46.353  26.368  29.323  1.00  0.00     0.074 A 
ATOM     62  C   UNL A   1      46.427  26.253  27.865  1.00  0.00     0.031 C 
ATOM     63  C   UNL A   1      45.718  25.603  30.261  1.00  0.00     0.034 A 
BRANCH  50  64
ATOM     64  C   UNL A   1      43.793  22.944  25.914  1.00  0.00     0.023 A 
ATOM     65  C   UNL A   1      43.734  21.557  25.680  1.00  0.00     0.031 A 
ATOM     66  C   UNL A   1      44.668  23.669  25.070  1.00  0.00     0.131 A 
ATOM     67  C   UNL A   1      44.561  20.950  24.717  1.00  0.00     0.055 A 
ATOM     68  C   UNL A   1      45.436  23.070  24.069  1.00  0.00     0.041 A 
ATOM     69  F   UNL A   1      44.909  24.976  25.223  1.00  0.00    -0.206 F 
ATOM     70  C   UNL A   1      45.407  21.698  23.904  1.00  0.00     0.022 A 
BRANCH  67  71
ATOM     71  S   UNL A   1      44.638  19.141  24.663  1.00  0.00     0.124 S 
ATOM     72  O   UNL A   1      44.935  18.901  23.255  1.00  0.00    -0.237 OA
ATOM     73  O   UNL A   1      45.714  18.859  25.607  1.00  0.00    -0.237 OA
ATOM     74  O   UNL A   1      43.303  18.733  25.098  1.00  0.00    -0.744 OA
ENDBRANCH  67  71
ENDBRANCH  50  64
BRANCH  51  75
ATOM     75  C   UNL A   1      46.810  30.759  27.559  1.00  0.00     0.023 A 
ATOM     76  C   UNL A   1      46.123  31.866  27.007  1.00  0.00     0.031 A 
ATOM     77  C   UNL A   1      48.220  30.858  27.607  1.00  0.00     0.131 A 
ATOM     78  C   UNL A   1      46.843  32.996  26.539  1.00  0.00     0.055 A 
ATOM     79  C   UNL A   1      48.922  31.976  27.148  1.00  0.00     0.041 A 
ATOM     80  F   UNL A   1      48.963  29.901  28.185  1.00  0.00    -0.206 F 
ATOM     81  C   UNL A   1      48.235  33.056  26.620  1.00  0.00     0.022 A 
BRANCH  78  82
ATOM     82  S   UNL A   1      45.970  34.463  25.887  1.00  0.00     0.124 S 
ATOM     83  O   UNL A   1      47.072  35.327  25.480  1.00  0.00    -0.237 OA
ATOM     84  O   UNL A   1      45.160  33.896  24.815  1.00  0.00    -0.237 OA
ATOM     85  O   UNL A   1      45.205  34.948  27.037  1.00  0.00    -0.744 OA
ENDBRANCH  78  82
ENDBRANCH  51  75
BRANCH  63  86
ATOM     86  C   UNL A   1      45.675  26.098  31.701  1.00  0.00     0.023 A 
ATOM     87  C   UNL A   1      44.564  26.716  32.326  1.00  0.00     0.031 A 
ATOM     88  C   UNL A   1      46.790  25.812  32.508  1.00  0.00     0.131 A 
ATOM     89  C   UNL A   1      44.607  27.027  33.703  1.00  0.00     0.055 A 
ATOM     90  C   UNL A   1      46.819  26.096  33.873  1.00  0.00     0.041 A 
ATOM     91  F   UNL A   1      47.871  25.208  31.986  1.00  0.00    -0.206 F 
ATOM     92  C   UNL A   1      45.729  26.712  34.475  1.00  0.00     0.022 A 
BRANCH  89  93
ATOM     93  S   UNL A   1      43.212  27.874  34.523  1.00  0.00     0.124 S 
ATOM     94  O   UNL A   1      42.354  26.778  34.958  1.00  0.00    -0.237 OA
ATOM     95  O   UNL A   1      43.875  28.627  35.583  1.00  0.00    -0.237 OA
ATOM     96  O   UNL A   1      42.644  28.702  33.456  1.00  0.00    -0.744 OA
ENDBRANCH  89  93
ENDBRANCH  63  86
ENDBRANCH  37  38
ENDBRANCH  29  32
ENDBRANCH  27  28
ENDBRANCH   1  27
TORSDOF 18
ENDMDL
MODEL 2
REMARK VINA RESULT:     -12.1      2.703      7.280
REMARK SMILES COc1ccc(/C=C(/Sc2nc(C)n[nH]2)C(=O)NCCCNC(=O)c2ccc(-c3c4nc(c(-c5cc(S(=O)(=O)[O-])ccc5F)c5ccc([nH]5)c(-c5cc(S(=O)(=O)[O-])ccc5F)c5nc(c(-c6cc(S(=O)(=O)[O-])ccc6F)c6ccc3[nH]6)C=C5)C=C4)cc2)cc1OC
REMARK SMILES IDX 20 1 19 2 18 3 16 4 17 5 8 7 7 8 6 9 3 10 4 11 89 12 5 13
REMARK SMILES IDX 88 14 2 15 1 16 90 17 91 18 9 19 10 20 11 21 15 22 12 23
REMARK SMILES IDX 14 24 13 26 21 27 22 28 23 29 24 31 25 32 26 33 87 34 27 35
REMARK SMILES IDX 86 36 28 37 29 38 30 39 80 40 31 41 85 42 79 43 81 44 32 45
REMARK SMILES IDX 84 46 78 47 77 48 33 50 65 51 45 52 64 53 46 54 49 55 63 56
REMARK SMILES IDX 82 57 47 58 48 59 62 61 83 62 50 63 34 64 35 65 43 66 36 67
REMARK SMILES IDX 42 68 44 69 41 70 37 71 38 72 39 73 40 74 66 75 67 76 75 77
REMARK SMILES IDX 68 78 74 79 76 80 73 81 69 82 70 83 71 84 72 85 51 86 52 87
REMARK SMILES IDX 60 88 53 89 59 90 61 91 58 92 54 93 55 94 56 95 57 96
REMARK H PARENT 18 6 15 25 22 30 81 49 49 60
REMARK Flexibility Score: inf
ROOT
ATOM      1  C   UNL A   1      32.209  29.584  27.160  1.00  0.00     0.042 C 
ENDROOT
BRANCH   1   2
ATOM      2  C   UNL A   1      31.566  30.087  25.863  1.00  0.00     0.118 C 
BRANCH   2   3
ATOM      3  N   UNL A   1      32.132  29.533  24.635  1.00  0.00    -0.352 N 
ATOM      4  C   UNL A   1      31.539  28.963  23.537  1.00  0.00     0.258 C 
ATOM      5  O   UNL A   1      32.013  29.296  22.448  1.00  0.00    -0.269 OA
ATOM      6  H   UNL A   1      33.114  29.576  24.587  1.00  0.00     0.163 HD
BRANCH   4   7
ATOM      7  C   UNL A   1      30.413  27.944  23.614  1.00  0.00     0.081 C 
ATOM      8  C   UNL A   1      30.634  26.667  24.014  1.00  0.00     0.029 C 
BRANCH   8   9
ATOM      9  C   UNL A   1      31.845  25.920  24.459  1.00  0.00    -0.020 A 
ATOM     10  C   UNL A   1      34.012  24.259  25.253  1.00  0.00     0.160 A 
ATOM     11  C   UNL A   1      33.651  25.381  26.007  1.00  0.00     0.051 A 
ATOM     12  C   UNL A   1      33.269  23.923  24.120  1.00  0.00     0.161 A 
ATOM     13  C   UNL A   1      32.565  26.187  25.625  1.00  0.00     0.012 A 
ATOM     14  C   UNL A   1      32.211  24.770  23.731  1.00  0.00     0.058 A 
BRANCH  10  15
ATOM     15  O   UNL A   1      35.007  23.461  25.748  1.00  0.00    -0.493 OA
ATOM     16  C   UNL A   1      34.588  22.728  26.900  1.00  0.00     0.278 C 
ENDBRANCH  10  15
BRANCH  12  17
ATOM     17  O   UNL A   1      33.397  22.833  23.301  1.00  0.00    -0.493 OA
ATOM     18  C   UNL A   1      33.312  23.009  21.896  1.00  0.00     0.278 C 
ENDBRANCH  12  17
ENDBRANCH   8   9
BRANCH   7  19
ATOM     19  S   UNL A   1      28.817  28.535  23.246  1.00  0.00    -0.045 SA
BRANCH  19  20
ATOM     20  C   UNL A   1      29.016  30.017  22.416  1.00  0.00     0.188 A 
ATOM     21  N   UNL A   1      28.479  30.297  21.257  1.00  0.00    -0.206 NA
ATOM     22  N   UNL A   1      29.415  31.165  23.029  1.00  0.00    -0.254 N 
ATOM     23  C   UNL A   1      28.522  31.662  21.216  1.00  0.00     0.148 A 
ATOM     24  N   UNL A   1      29.109  32.242  22.274  1.00  0.00    -0.158 NA
ATOM     25  H   UNL A   1      29.866  31.206  23.904  1.00  0.00     0.192 HD
ATOM     26  C   UNL A   1      27.847  32.410  20.137  1.00  0.00     0.092 C 
ENDBRANCH  19  20
ENDBRANCH   7  19
ENDBRANCH   4   7
ENDBRANCH   2   3
ENDBRANCH   1   2
BRANCH   1  27
ATOM     27  C   UNL A   1      33.718  29.764  27.148  1.00  0.00     0.118 C 
BRANCH  27  28
ATOM     28  N   UNL A   1      34.119  31.174  27.039  1.00  0.00    -0.352 N 
ATOM     29  C   UNL A   1      35.191  31.830  27.624  1.00  0.00     0.251 C 
ATOM     30  H   UNL A   1      33.543  31.733  26.468  1.00  0.00     0.163 HD
ATOM     31  O   UNL A   1      35.221  33.045  27.673  1.00  0.00    -0.269 OA
BRANCH  29  32
ATOM     32  C   UNL A   1      36.283  31.014  28.188  1.00  0.00     0.039 A 
ATOM     33  C   UNL A   1      36.430  29.661  27.873  1.00  0.00     0.014 A 
ATOM     34  C   UNL A   1      37.204  31.660  29.003  1.00  0.00     0.014 A 
ATOM     35  C   UNL A   1      37.573  28.996  28.316  1.00  0.00     0.010 A 
ATOM     36  C   UNL A   1      38.408  31.069  29.261  1.00  0.00     0.010 A 
ATOM     37  C   UNL A   1      38.572  29.719  28.988  1.00  0.00    -0.014 A 
BRANCH  37  38
ATOM     38  C   UNL A   1      39.869  29.130  29.298  1.00  0.00     0.031 A 
ATOM     39  C   UNL A   1      40.133  29.002  30.756  1.00  0.00     0.074 A 
ATOM     40  C   UNL A   1      40.639  28.525  28.364  1.00  0.00     0.049 A 
ATOM     41  N   UNL A   1      40.995  29.656  31.458  1.00  0.00    -0.248 NA
ATOM     42  C   UNL A   1      39.209  28.191  31.569  1.00  0.00     0.031 C 
ATOM     43  C   UNL A   1      40.346  28.311  26.942  1.00  0.00     0.029 A 
ATOM     44  N   UNL A   1      41.814  27.857  28.518  1.00  0.00    -0.354 N 
ATOM     45  C   UNL A   1      40.907  29.139  32.745  1.00  0.00     0.074 A 
ATOM     46  C   UNL A   1      39.653  28.438  32.802  1.00  0.00     0.031 C 
ATOM     47  C   UNL A   1      41.180  27.373  26.437  1.00  0.00     0.029 A 
ATOM     48  C   UNL A   1      42.176  27.048  27.441  1.00  0.00     0.049 A 
ATOM     49  H   UNL A   1      42.368  27.940  29.328  1.00  0.00     0.167 HD
ATOM     50  C   UNL A   1      41.999  29.101  33.559  1.00  0.00     0.034 A 
ATOM     51  C   UNL A   1      43.210  26.162  27.382  1.00  0.00     0.034 A 
ATOM     52  C   UNL A   1      43.037  29.984  33.067  1.00  0.00     0.049 A 
ATOM     53  C   UNL A   1      44.173  26.579  28.434  1.00  0.00     0.074 A 
ATOM     54  C   UNL A   1      43.082  31.333  32.768  1.00  0.00     0.029 A 
ATOM     55  N   UNL A   1      44.096  29.424  32.384  1.00  0.00    -0.354 N 
ATOM     56  N   UNL A   1      44.808  27.720  28.404  1.00  0.00    -0.248 NA
ATOM     57  C   UNL A   1      44.024  25.992  29.758  1.00  0.00     0.031 C 
ATOM     58  C   UNL A   1      43.794  31.407  31.533  1.00  0.00     0.029 A 
ATOM     59  C   UNL A   1      44.248  30.126  31.210  1.00  0.00     0.049 A 
ATOM     60  H   UNL A   1      44.644  28.662  32.683  1.00  0.00     0.167 HD
ATOM     61  C   UNL A   1      44.736  28.205  29.702  1.00  0.00     0.074 A 
ATOM     62  C   UNL A   1      44.324  27.056  30.509  1.00  0.00     0.031 C 
ATOM     63  C   UNL A   1      44.726  29.548  29.964  1.00  0.00     0.034 A 
BRANCH  50  64
ATOM     64  C   UNL A   1      42.272  28.016  34.579  1.00  0.00     0.023 A 
ATOM     65  C   UNL A   1      43.019  26.899  34.162  1.00  0.00     0.031 A 
ATOM     66  C   UNL A   1      41.628  27.887  35.834  1.00  0.00     0.131 A 
ATOM     67  C   UNL A   1      43.042  25.717  34.926  1.00  0.00     0.055 A 
ATOM     68  C   UNL A   1      41.711  26.735  36.621  1.00  0.00     0.041 A 
ATOM     69  F   UNL A   1      40.806  28.818  36.329  1.00  0.00    -0.206 F 
ATOM     70  C   UNL A   1      42.398  25.630  36.156  1.00  0.00     0.022 A 
BRANCH  67  71
ATOM     71  S   UNL A   1      43.787  24.235  34.200  1.00  0.00     0.124 S 
ATOM     72  O   UNL A   1      42.796  23.216  34.528  1.00  0.00    -0.237 OA
ATOM     73  O   UNL A   1      43.887  24.608  32.793  1.00  0.00    -0.237 OA
ATOM     74  O   UNL A   1      45.062  24.117  34.906  1.00  0.00    -0.744 OA
ENDBRANCH  67  71
ENDBRANCH  50  64
BRANCH  51  75
ATOM     75  C   UNL A   1      43.231  24.823  26.720  1.00  0.00     0.023 A 
ATOM     76  C   UNL A   1      42.366  23.762  27.080  1.00  0.00     0.031 A 
ATOM     77  C   UNL A   1      43.964  24.654  25.523  1.00  0.00     0.131 A 
ATOM     78  C   UNL A   1      42.266  22.608  26.259  1.00  0.00     0.055 A 
ATOM     79  C   UNL A   1      43.858  23.517  24.717  1.00  0.00     0.041 A 
ATOM     80  F   UNL A   1      44.750  25.632  25.047  1.00  0.00    -0.206 F 
ATOM     81  C   UNL A   1      43.000  22.491  25.077  1.00  0.00     0.022 A 
BRANCH  78  82
ATOM     82  S   UNL A   1      41.106  21.259  26.672  1.00  0.00     0.124 S 
ATOM     83  O   UNL A   1      40.914  21.440  28.107  1.00  0.00    -0.237 OA
ATOM     84  O   UNL A   1      39.960  21.558  25.821  1.00  0.00    -0.237 OA
ATOM     85  O   UNL A   1      41.841  20.048  26.302  1.00  0.00    -0.744 OA
ENDBRANCH  78  82
ENDBRANCH  51  75
BRANCH  63  86
ATOM     86  C   UNL A   1      45.048  30.515  28.833  1.00  0.00     0.023 A 
ATOM     87  C   UNL A   1      46.343  30.973  28.485  1.00  0.00     0.031 A 
ATOM     88  C   UNL A   1      43.986  30.891  27.992  1.00  0.00     0.131 A 
ATOM     89  C   UNL A   1      46.526  31.780  27.340  1.00  0.00     0.055 A 
ATOM     90  C   UNL A   1      44.174  31.665  26.848  1.00  0.00     0.041 A 
ATOM     91  F   UNL A   1      42.734  30.475  28.250  1.00  0.00    -0.206 F 
ATOM     92  C   UNL A   1      45.445  32.119  26.520  1.00  0.00     0.022 A 
BRANCH  89  93
ATOM     93  S   UNL A   1      48.174  32.431  26.899  1.00  0.00     0.124 S 
ATOM     94  O   UNL A   1      48.605  33.121  28.110  1.00  0.00    -0.237 OA
ATOM     95  O   UNL A   1      48.914  31.220  26.556  1.00  0.00    -0.237 OA
ATOM     96  O   UNL A   1      47.898  33.315  25.764  1.00  0.00    -0.744 OA
ENDBRANCH  89  93
ENDBRANCH  63  86
ENDBRANCH  37  38
ENDBRANCH  29  32
ENDBRANCH  27  28
ENDBRANCH   1  27
TORSDOF 18
ENDMDL
MODEL 3
REMARK VINA RESULT:     -12.0      2.350      6.888
REMARK SMILES COc1ccc(/C=C(/Sc2nc(C)n[nH]2)C(=O)NCCCNC(=O)c2ccc(-c3c4nc(c(-c5cc(S(=O)(=O)[O-])ccc5F)c5ccc([nH]5)c(-c5cc(S(=O)(=O)[O-])ccc5F)c5nc(c(-c6cc(S(=O)(=O)[O-])ccc6F)c6ccc3[nH]6)C=C5)C=C4)cc2)cc1OC
REMARK SMILES IDX 20 1 19 2 18 3 16 4 17 5 8 7 7 8 6 9 3 10 4 11 89 12 5 13
REMARK SMILES IDX 88 14 2 15 1 16 90 17 91 18 9 19 10 20 11 21 15 22 12 23
REMARK SMILES IDX 14 24 13 26 21 27 22 28 23 29 24 31 25 32 26 33 87 34 27 35
REMARK SMILES IDX 86 36 28 37 29 38 30 39 80 40 31 41 85 42 79 43 81 44 32 45
REMARK SMILES IDX 84 46 78 47 77 48 33 50 65 51 45 52 64 53 46 54 49 55 63 56
REMARK SMILES IDX 82 57 47 58 48 59 62 61 83 62 50 63 34 64 35 65 43 66 36 67
REMARK SMILES IDX 42 68 44 69 41 70 37 71 38 72 39 73 40 74 66 75 67 76 75 77
REMARK SMILES IDX 68 78 74 79 76 80 73 81 69 82 70 83 71 84 72 85 51 86 52 87
REMARK SMILES IDX 60 88 53 89 59 90 61 91 58 92 54 93 55 94 56 95 57 96
REMARK H PARENT 18 6 15 25 22 30 81 49 49 60
REMARK Flexibility Score: inf
ROOT
ATOM      1  C   UNL A   1      33.399  30.230  27.155  1.00  0.00     0.042 C 
ENDROOT
BRANCH   1   2
ATOM      2  C   UNL A   1      33.130  28.746  27.429  1.00  0.00     0.118 C 
BRANCH   2   3
ATOM      3  N   UNL A   1      31.913  28.214  26.823  1.00  0.00    -0.352 N 
ATOM      4  C   UNL A   1      31.722  27.332  25.790  1.00  0.00     0.258 C 
ATOM      5  O   UNL A   1      30.834  26.494  25.965  1.00  0.00    -0.269 OA
ATOM      6  H   UNL A   1      31.079  28.548  27.227  1.00  0.00     0.163 HD
BRANCH   4   7
ATOM      7  C   UNL A   1      32.491  27.383  24.478  1.00  0.00     0.081 C 
ATOM      8  C   UNL A   1      33.094  26.283  23.962  1.00  0.00     0.029 C 
BRANCH   8   9
ATOM      9  C   UNL A   1      33.200  24.863  24.402  1.00  0.00    -0.020 A 
ATOM     10  C   UNL A   1      33.656  22.148  25.116  1.00  0.00     0.160 A 
ATOM     11  C   UNL A   1      32.411  22.566  24.631  1.00  0.00     0.051 A 
ATOM     12  C   UNL A   1      34.703  23.068  25.208  1.00  0.00     0.161 A 
ATOM     13  C   UNL A   1      32.197  23.903  24.257  1.00  0.00     0.012 A 
ATOM     14  C   UNL A   1      34.452  24.413  24.868  1.00  0.00     0.058 A 
BRANCH  10  15
ATOM     15  O   UNL A   1      33.822  20.811  25.353  1.00  0.00    -0.493 OA
ATOM     16  C   UNL A   1      33.208  20.004  24.348  1.00  0.00     0.278 C 
ENDBRANCH  10  15
BRANCH  12  17
ATOM     17  O   UNL A   1      36.005  22.851  25.570  1.00  0.00    -0.493 OA
ATOM     18  C   UNL A   1      37.043  23.453  24.812  1.00  0.00     0.278 C 
ENDBRANCH  12  17
ENDBRANCH   8   9
BRANCH   7  19
ATOM     19  S   UNL A   1      32.476  28.909  23.639  1.00  0.00    -0.045 SA
BRANCH  19  20
ATOM     20  C   UNL A   1      31.007  28.979  22.765  1.00  0.00     0.188 A 
ATOM     21  N   UNL A   1      29.850  28.574  23.223  1.00  0.00    -0.206 NA
ATOM     22  N   UNL A   1      30.819  29.795  21.692  1.00  0.00    -0.254 N 
ATOM     23  C   UNL A   1      28.955  29.218  22.415  1.00  0.00     0.148 A 
ATOM     24  N   UNL A   1      29.502  29.964  21.444  1.00  0.00    -0.158 NA
ATOM     25  H   UNL A   1      31.544  30.206  21.167  1.00  0.00     0.192 HD
ATOM     26  C   UNL A   1      27.508  29.176  22.704  1.00  0.00     0.092 C 
ENDBRANCH  19  20
ENDBRANCH   7  19
ENDBRANCH   4   7
ENDBRANCH   2   3
ENDBRANCH   1   2
BRANCH   1  27
ATOM     27  C   UNL A   1      34.811  30.630  27.551  1.00  0.00     0.118 C 
BRANCH  27  28
ATOM     28  N   UNL A   1      34.834  31.725  28.532  1.00  0.00    -0.352 N 
ATOM     29  C   UNL A   1      35.769  32.001  29.517  1.00  0.00     0.251 C 
ATOM     30  H   UNL A   1      34.077  32.352  28.481  1.00  0.00     0.163 HD
ATOM     31  O   UNL A   1      35.502  32.762  30.427  1.00  0.00    -0.269 OA
BRANCH  29  32
ATOM     32  C   UNL A   1      37.086  31.341  29.432  1.00  0.00     0.039 A 
ATOM     33  C   UNL A   1      38.265  32.003  29.784  1.00  0.00     0.014 A 
ATOM     34  C   UNL A   1      37.106  30.008  29.045  1.00  0.00     0.014 A 
ATOM     35  C   UNL A   1      39.450  31.270  29.831  1.00  0.00     0.010 A 
ATOM     36  C   UNL A   1      38.218  29.252  29.285  1.00  0.00     0.010 A 
ATOM     37  C   UNL A   1      39.410  29.884  29.605  1.00  0.00    -0.014 A 
BRANCH  37  38
ATOM     38  C   UNL A   1      40.573  29.035  29.834  1.00  0.00     0.031 A 
ATOM     39  C   UNL A   1      40.866  28.799  31.273  1.00  0.00     0.074 A 
ATOM     40  C   UNL A   1      41.165  28.325  28.846  1.00  0.00     0.049 A 
ATOM     41  N   UNL A   1      41.871  29.239  31.951  1.00  0.00    -0.248 NA
ATOM     42  C   UNL A   1      39.831  28.158  32.104  1.00  0.00     0.031 C 
ATOM     43  C   UNL A   1      40.777  28.231  27.433  1.00  0.00     0.029 A 
ATOM     44  N   UNL A   1      42.187  27.430  28.922  1.00  0.00    -0.354 N 
ATOM     45  C   UNL A   1      41.734  28.698  33.225  1.00  0.00     0.074 A 
ATOM     46  C   UNL A   1      40.367  28.262  33.321  1.00  0.00     0.031 C 
ATOM     47  C   UNL A   1      41.382  27.166  26.860  1.00  0.00     0.029 A 
ATOM     48  C   UNL A   1      42.333  26.608  27.804  1.00  0.00     0.049 A 
ATOM     49  H   UNL A   1      42.779  27.368  29.706  1.00  0.00     0.167 HD
ATOM     50  C   UNL A   1      42.828  28.410  33.983  1.00  0.00     0.034 A 
ATOM     51  C   UNL A   1      43.163  25.536  27.667  1.00  0.00     0.034 A 
ATOM     52  C   UNL A   1      44.002  29.085  33.469  1.00  0.00     0.049 A 
ATOM     53  C   UNL A   1      44.232  25.709  28.684  1.00  0.00     0.074 A 
ATOM     54  C   UNL A   1      44.306  30.408  33.209  1.00  0.00     0.029 A 
ATOM     55  N   UNL A   1      44.897  28.352  32.719  1.00  0.00    -0.354 N 
ATOM     56  N   UNL A   1      45.083  26.699  28.658  1.00  0.00    -0.248 NA
ATOM     57  C   UNL A   1      44.023  25.111  29.994  1.00  0.00     0.031 C 
ATOM     58  C   UNL A   1      44.967  30.387  31.944  1.00  0.00     0.029 A 
ATOM     59  C   UNL A   1      45.139  29.055  31.560  1.00  0.00     0.049 A 
ATOM     60  H   UNL A   1      45.291  27.484  32.967  1.00  0.00     0.167 HD
ATOM     61  C   UNL A   1      45.166  27.137  29.972  1.00  0.00     0.074 A 
ATOM     62  C   UNL A   1      44.563  26.063  30.763  1.00  0.00     0.031 C 
ATOM     63  C   UNL A   1      45.438  28.443  30.275  1.00  0.00     0.034 A 
BRANCH  50  64
ATOM     64  C   UNL A   1      42.917  27.253  34.955  1.00  0.00     0.023 A 
ATOM     65  C   UNL A   1      43.644  26.116  34.554  1.00  0.00     0.031 A 
ATOM     66  C   UNL A   1      42.126  27.092  36.118  1.00  0.00     0.131 A 
ATOM     67  C   UNL A   1      43.510  24.893  35.237  1.00  0.00     0.055 A 
ATOM     68  C   UNL A   1      42.050  25.894  36.833  1.00  0.00     0.041 A 
ATOM     69  F   UNL A   1      41.305  28.044  36.576  1.00  0.00    -0.206 F 
ATOM     70  C   UNL A   1      42.723  24.776  36.378  1.00  0.00     0.022 A 
BRANCH  67  71
ATOM     71  S   UNL A   1      44.250  23.411  34.505  1.00  0.00     0.124 S 
ATOM     72  O   UNL A   1      45.397  23.971  33.800  1.00  0.00    -0.237 OA
ATOM     73  O   UNL A   1      44.548  22.610  35.688  1.00  0.00    -0.237 OA
ATOM     74  O   UNL A   1      43.185  22.888  33.650  1.00  0.00    -0.744 OA
ENDBRANCH  67  71
ENDBRANCH  50  64
BRANCH  51  75
ATOM     75  C   UNL A   1      42.884  24.247  26.965  1.00  0.00     0.023 A 
ATOM     76  C   UNL A   1      43.788  23.640  26.061  1.00  0.00     0.031 A 
ATOM     77  C   UNL A   1      41.789  23.455  27.380  1.00  0.00     0.131 A 
ATOM     78  C   UNL A   1      43.576  22.309  25.619  1.00  0.00     0.055 A 
ATOM     79  C   UNL A   1      41.588  22.142  26.944  1.00  0.00     0.041 A 
ATOM     80  F   UNL A   1      40.918  23.903  28.298  1.00  0.00    -0.206 F 
ATOM     81  C   UNL A   1      42.487  21.559  26.068  1.00  0.00     0.022 A 
BRANCH  78  82
ATOM     82  S   UNL A   1      44.768  21.486  24.506  1.00  0.00     0.124 S 
ATOM     83  O   UNL A   1      44.631  22.258  23.276  1.00  0.00    -0.237 OA
ATOM     84  O   UNL A   1      46.027  21.634  25.227  1.00  0.00    -0.237 OA
ATOM     85  O   UNL A   1      44.270  20.112  24.424  1.00  0.00    -0.744 OA
ENDBRANCH  78  82
ENDBRANCH  51  75
BRANCH  63  86
ATOM     86  C   UNL A   1      45.902  29.370  29.160  1.00  0.00     0.023 A 
ATOM     87  C   UNL A   1      45.074  30.261  28.433  1.00  0.00     0.031 A 
ATOM     88  C   UNL A   1      47.285  29.431  28.913  1.00  0.00     0.131 A 
ATOM     89  C   UNL A   1      45.643  31.156  27.499  1.00  0.00     0.055 A 
ATOM     90  C   UNL A   1      47.845  30.334  28.011  1.00  0.00     0.041 A 
ATOM     91  F   UNL A   1      48.131  28.630  29.583  1.00  0.00    -0.206 F 
ATOM     92  C   UNL A   1      47.025  31.196  27.294  1.00  0.00     0.022 A 
BRANCH  89  93
ATOM     93  S   UNL A   1      44.595  32.275  26.507  1.00  0.00     0.124 S 
ATOM     94  O   UNL A   1      45.534  32.886  25.574  1.00  0.00    -0.237 OA
ATOM     95  O   UNL A   1      43.616  31.362  25.925  1.00  0.00    -0.237 OA
ATOM     96  O   UNL A   1      44.045  33.197  27.504  1.00  0.00    -0.744 OA
ENDBRANCH  89  93
ENDBRANCH  63  86
ENDBRANCH  37  38
ENDBRANCH  29  32
ENDBRANCH  27  28
ENDBRANCH   1  27
TORSDOF 18
ENDMDL
