MODEL 1
REMARK VINA RESULT:     -13.4      0.000      0.000
REMARK SMILES CC1=C(CC(=O)NCCCNC(=O)c2ccc(-c3c4nc(c(-c5cc(S(=O)(=O)[O-])ccc5F)c5ccc([nH]5)c(-c5cc(S(=O)(=O)[O-])ccc5F)c5nc(c(-c6cc(S(=O)(=O)[O-])ccc6F)c6ccc3[nH]6)C=C5)C=C4)cc2)c2cc(F)ccc2/C1=C\c1cccc(OCc2ccccc2)c1
REMARK SMILES IDX 8 1 7 2 5 3 6 4 4 6 3 7 1 8 2 9 84 10 77 11 83 12 85 13
REMARK SMILES IDX 78 14 82 15 79 16 81 17 80 18 86 19 87 20 99 21 88 22 90 23
REMARK SMILES IDX 89 24 91 25 92 26 93 27 94 28 98 29 95 30 97 31 96 32 9 33
REMARK SMILES IDX 10 34 11 35 12 36 13 38 14 39 15 40 76 41 16 42 75 43 17 44
REMARK SMILES IDX 18 45 19 46 69 47 20 48 74 49 68 50 70 51 21 52 73 53 67 54
REMARK SMILES IDX 66 55 22 57 54 58 34 59 53 60 35 61 38 62 52 63 71 64 36 65
REMARK SMILES IDX 37 66 51 68 72 69 39 70 23 71 24 72 32 73 25 74 31 75 33 76
REMARK SMILES IDX 30 77 26 78 27 79 28 80 29 81 55 82 56 83 64 84 57 85 63 86
REMARK SMILES IDX 65 87 62 88 58 89 59 90 60 91 61 92 40 93 41 94 49 95 42 96
REMARK SMILES IDX 48 97 50 98 47 99 43 100 44 101 45 102 46 103
REMARK H PARENT 7 5 11 37 70 56 38 67
REMARK Flexibility Score: inf
ROOT
ATOM      1  C   UNL A   1      36.674  20.845  24.699  1.00  0.00     0.117 C 
ENDROOT
BRANCH   1   2
ATOM      2  N   UNL A   1      35.332  20.294  24.711  1.00  0.00    -0.356 N 
ATOM      3  C   UNL A   1      34.314  20.515  25.591  1.00  0.00     0.224 C 
ATOM      4  O   UNL A   1      33.248  19.921  25.411  1.00  0.00    -0.275 OA
ATOM      5  H   UNL A   1      35.126  19.670  23.978  1.00  0.00     0.163 HD
BRANCH   3   6
ATOM      6  C   UNL A   1      34.482  21.505  26.740  1.00  0.00     0.136 C 
BRANCH   6   7
ATOM      7  C   UNL A   1      33.954  22.866  26.428  1.00  0.00    -0.027 C 
ATOM      8  C   UNL A   1      36.073  24.100  25.679  1.00  0.00     0.045 C 
ATOM      9  C   UNL A   1      34.620  23.965  26.003  1.00  0.00    -0.039 C 
ATOM     10  C   UNL A   1      33.682  25.090  25.879  1.00  0.00    -0.014 C 
ATOM     11  C   UNL A   1      32.523  23.217  26.522  1.00  0.00    -0.011 A 
ATOM     12  C   UNL A   1      32.337  24.568  26.176  1.00  0.00    -0.010 A 
ATOM     13  C   UNL A   1      34.044  26.347  25.578  1.00  0.00     0.017 C 
ATOM     14  C   UNL A   1      31.438  22.424  26.869  1.00  0.00     0.048 A 
ATOM     15  C   UNL A   1      31.068  25.134  26.167  1.00  0.00     0.012 A 
ATOM     16  C   UNL A   1      30.171  23.003  26.872  1.00  0.00     0.123 A 
ATOM     17  C   UNL A   1      29.977  24.341  26.526  1.00  0.00     0.040 A 
ATOM     18  F   UNL A   1      29.110  22.257  27.206  1.00  0.00    -0.207 F 
BRANCH  13  19
ATOM     19  C   UNL A   1      33.134  27.475  25.397  1.00  0.00    -0.021 A 
ATOM     20  C   UNL A   1      32.925  28.421  26.405  1.00  0.00     0.008 A 
ATOM     21  C   UNL A   1      32.455  27.586  24.178  1.00  0.00     0.054 A 
ATOM     22  C   UNL A   1      32.010  29.454  26.204  1.00  0.00     0.004 A 
ATOM     23  C   UNL A   1      31.592  28.656  23.953  1.00  0.00     0.120 A 
ATOM     24  C   UNL A   1      31.339  29.562  24.985  1.00  0.00     0.046 A 
BRANCH  23  25
ATOM     25  O   UNL A   1      31.009  28.963  22.755  1.00  0.00    -0.489 OA
BRANCH  25  26
ATOM     26  C   UNL A   1      29.583  29.068  22.700  1.00  0.00     0.265 C 
BRANCH  26  27
ATOM     27  C   UNL A   1      29.009  30.439  22.371  1.00  0.00    -0.011 A 
ATOM     28  C   UNL A   1      29.076  31.538  23.240  1.00  0.00     0.007 A 
ATOM     29  C   UNL A   1      28.434  30.642  21.105  1.00  0.00     0.007 A 
ATOM     30  C   UNL A   1      28.597  32.794  22.862  1.00  0.00     0.000 A 
ATOM     31  C   UNL A   1      27.939  31.896  20.730  1.00  0.00     0.000 A 
ATOM     32  C   UNL A   1      28.026  32.973  21.608  1.00  0.00     0.000 A 
ENDBRANCH  26  27
ENDBRANCH  25  26
ENDBRANCH  23  25
ENDBRANCH  13  19
ENDBRANCH   6   7
ENDBRANCH   3   6
ENDBRANCH   1   2
BRANCH   1  33
ATOM     33  C   UNL A   1      37.738  19.800  25.012  1.00  0.00     0.042 C 
BRANCH  33  34
ATOM     34  C   UNL A   1      38.883  20.322  25.874  1.00  0.00     0.118 C 
BRANCH  34  35
ATOM     35  N   UNL A   1      39.975  19.367  25.994  1.00  0.00    -0.352 N 
ATOM     36  C   UNL A   1      41.325  19.577  26.158  1.00  0.00     0.251 C 
ATOM     37  H   UNL A   1      39.705  18.421  25.952  1.00  0.00     0.163 HD
ATOM     38  O   UNL A   1      42.097  18.635  26.041  1.00  0.00    -0.269 OA
BRANCH  36  39
ATOM     39  C   UNL A   1      41.839  20.937  26.441  1.00  0.00     0.039 A 
ATOM     40  C   UNL A   1      42.118  21.342  27.748  1.00  0.00     0.014 A 
ATOM     41  C   UNL A   1      42.054  21.816  25.376  1.00  0.00     0.014 A 
ATOM     42  C   UNL A   1      42.450  22.669  28.005  1.00  0.00     0.010 A 
ATOM     43  C   UNL A   1      42.470  23.127  25.630  1.00  0.00     0.010 A 
ATOM     44  C   UNL A   1      42.627  23.577  26.949  1.00  0.00    -0.014 A 
BRANCH  44  45
ATOM     45  C   UNL A   1      42.997  24.987  27.240  1.00  0.00     0.031 A 
ATOM     46  C   UNL A   1      44.358  25.512  26.878  1.00  0.00     0.074 A 
ATOM     47  C   UNL A   1      42.087  25.799  27.811  1.00  0.00     0.049 A 
ATOM     48  N   UNL A   1      44.857  26.705  27.074  1.00  0.00    -0.248 NA
ATOM     49  C   UNL A   1      45.280  24.581  26.207  1.00  0.00     0.031 C 
ATOM     50  C   UNL A   1      40.730  25.398  28.186  1.00  0.00     0.029 A 
ATOM     51  N   UNL A   1      42.152  27.125  28.165  1.00  0.00    -0.354 N 
ATOM     52  C   UNL A   1      46.152  26.666  26.569  1.00  0.00     0.074 A 
ATOM     53  C   UNL A   1      46.373  25.322  26.083  1.00  0.00     0.031 C 
ATOM     54  C   UNL A   1      40.079  26.461  28.678  1.00  0.00     0.029 A 
ATOM     55  C   UNL A   1      40.991  27.600  28.731  1.00  0.00     0.049 A 
ATOM     56  H   UNL A   1      42.952  27.680  28.026  1.00  0.00     0.167 HD
ATOM     57  C   UNL A   1      47.062  27.666  26.507  1.00  0.00     0.034 A 
ATOM     58  C   UNL A   1      40.698  28.806  29.259  1.00  0.00     0.034 A 
ATOM     59  C   UNL A   1      46.815  29.004  26.981  1.00  0.00     0.049 A 
ATOM     60  C   UNL A   1      41.750  29.883  29.236  1.00  0.00     0.074 A 
ATOM     61  C   UNL A   1      47.660  30.099  26.921  1.00  0.00     0.029 A 
ATOM     62  N   UNL A   1      45.650  29.434  27.599  1.00  0.00    -0.354 N 
ATOM     63  N   UNL A   1      42.954  29.843  28.715  1.00  0.00    -0.248 NA
ATOM     64  C   UNL A   1      41.417  31.163  29.875  1.00  0.00     0.031 C 
ATOM     65  C   UNL A   1      47.034  31.169  27.559  1.00  0.00     0.029 A 
ATOM     66  C   UNL A   1      45.768  30.766  27.960  1.00  0.00     0.049 A 
ATOM     67  H   UNL A   1      44.856  28.873  27.758  1.00  0.00     0.167 HD
ATOM     68  C   UNL A   1      43.519  31.091  28.958  1.00  0.00     0.074 A 
ATOM     69  C   UNL A   1      42.514  31.875  29.645  1.00  0.00     0.031 C 
ATOM     70  C   UNL A   1      44.761  31.541  28.645  1.00  0.00     0.034 A 
BRANCH  57  71
ATOM     71  C   UNL A   1      48.413  27.381  25.901  1.00  0.00     0.023 A 
ATOM     72  C   UNL A   1      48.642  27.650  24.538  1.00  0.00     0.031 A 
ATOM     73  C   UNL A   1      49.421  26.724  26.629  1.00  0.00     0.131 A 
ATOM     74  C   UNL A   1      49.836  27.233  23.936  1.00  0.00     0.055 A 
ATOM     75  C   UNL A   1      50.626  26.342  26.034  1.00  0.00     0.041 A 
ATOM     76  F   UNL A   1      49.250  26.447  27.932  1.00  0.00    -0.206 F 
ATOM     77  C   UNL A   1      50.831  26.584  24.678  1.00  0.00     0.022 A 
BRANCH  74  78
ATOM     78  S   UNL A   1      50.122  27.459  22.159  1.00  0.00     0.124 S 
ATOM     79  O   UNL A   1      49.824  28.880  21.988  1.00  0.00    -0.237 OA
ATOM     80  O   UNL A   1      51.531  27.097  22.028  1.00  0.00    -0.237 OA
ATOM     81  O   UNL A   1      49.173  26.546  21.532  1.00  0.00    -0.744 OA
ENDBRANCH  74  78
ENDBRANCH  57  71
BRANCH  58  82
ATOM     82  C   UNL A   1      39.336  29.036  29.824  1.00  0.00     0.023 A 
ATOM     83  C   UNL A   1      38.369  29.764  29.104  1.00  0.00     0.031 A 
ATOM     84  C   UNL A   1      39.027  28.649  31.138  1.00  0.00     0.131 A 
ATOM     85  C   UNL A   1      37.181  30.157  29.732  1.00  0.00     0.055 A 
ATOM     86  C   UNL A   1      37.808  28.977  31.734  1.00  0.00     0.041 A 
ATOM     87  F   UNL A   1      39.918  27.960  31.867  1.00  0.00    -0.206 F 
ATOM     88  C   UNL A   1      36.887  29.754  31.037  1.00  0.00     0.022 A 
BRANCH  85  89
ATOM     89  S   UNL A   1      36.054  31.332  28.930  1.00  0.00     0.124 S 
ATOM     90  O   UNL A   1      35.374  30.486  27.956  1.00  0.00    -0.237 OA
ATOM     91  O   UNL A   1      35.238  31.779  30.057  1.00  0.00    -0.237 OA
ATOM     92  O   UNL A   1      36.948  32.344  28.375  1.00  0.00    -0.744 OA
ENDBRANCH  85  89
ENDBRANCH  58  82
BRANCH  70  93
ATOM     93  C   UNL A   1      45.143  32.942  29.051  1.00  0.00     0.023 A 
ATOM     94  C   UNL A   1      44.772  34.036  28.245  1.00  0.00     0.031 A 
ATOM     95  C   UNL A   1      46.010  33.173  30.132  1.00  0.00     0.131 A 
ATOM     96  C   UNL A   1      45.313  35.302  28.500  1.00  0.00     0.055 A 
ATOM     97  C   UNL A   1      46.508  34.447  30.411  1.00  0.00     0.041 A 
ATOM     98  F   UNL A   1      46.396  32.161  30.924  1.00  0.00    -0.206 F 
ATOM     99  C   UNL A   1      46.173  35.515  29.583  1.00  0.00     0.022 A 
BRANCH  96 100
ATOM    100  S   UNL A   1      44.994  36.698  27.386  1.00  0.00     0.124 S 
ATOM    101  O   UNL A   1      43.651  36.394  26.896  1.00  0.00    -0.237 OA
ATOM    102  O   UNL A   1      45.083  37.840  28.291  1.00  0.00    -0.237 OA
ATOM    103  O   UNL A   1      46.054  36.602  26.388  1.00  0.00    -0.744 OA
ENDBRANCH  96 100
ENDBRANCH  70  93
ENDBRANCH  44  45
ENDBRANCH  36  39
ENDBRANCH  34  35
ENDBRANCH  33  34
ENDBRANCH   1  33
TORSDOF 18
ENDMDL
MODEL 2
REMARK VINA RESULT:     -13.3      5.550     11.506
REMARK SMILES CC1=C(CC(=O)NCCCNC(=O)c2ccc(-c3c4nc(c(-c5cc(S(=O)(=O)[O-])ccc5F)c5ccc([nH]5)c(-c5cc(S(=O)(=O)[O-])ccc5F)c5nc(c(-c6cc(S(=O)(=O)[O-])ccc6F)c6ccc3[nH]6)C=C5)C=C4)cc2)c2cc(F)ccc2/C1=C\c1cccc(OCc2ccccc2)c1
REMARK SMILES IDX 8 1 7 2 5 3 6 4 4 6 3 7 1 8 2 9 84 10 77 11 83 12 85 13
REMARK SMILES IDX 78 14 82 15 79 16 81 17 80 18 86 19 87 20 99 21 88 22 90 23
REMARK SMILES IDX 89 24 91 25 92 26 93 27 94 28 98 29 95 30 97 31 96 32 9 33
REMARK SMILES IDX 10 34 11 35 12 36 13 38 14 39 15 40 76 41 16 42 75 43 17 44
REMARK SMILES IDX 18 45 19 46 69 47 20 48 74 49 68 50 70 51 21 52 73 53 67 54
REMARK SMILES IDX 66 55 22 57 54 58 34 59 53 60 35 61 38 62 52 63 71 64 36 65
REMARK SMILES IDX 37 66 51 68 72 69 39 70 23 71 24 72 32 73 25 74 31 75 33 76
REMARK SMILES IDX 30 77 26 78 27 79 28 80 29 81 55 82 56 83 64 84 57 85 63 86
REMARK SMILES IDX 65 87 62 88 58 89 59 90 60 91 61 92 40 93 41 94 49 95 42 96
REMARK SMILES IDX 48 97 50 98 47 99 43 100 44 101 45 102 46 103
REMARK H PARENT 7 5 11 37 70 56 38 67
REMARK Flexibility Score: inf
ROOT
ATOM      1  C   UNL A   1      31.554  30.010  25.460  1.00  0.00     0.117 C 
ENDROOT
BRANCH   1   2
ATOM      2  N   UNL A   1      31.119  30.023  24.076  1.00  0.00    -0.356 N 
ATOM      3  C   UNL A   1      30.472  29.058  23.363  1.00  0.00     0.224 C 
ATOM      4  O   UNL A   1      30.209  29.284  22.180  1.00  0.00    -0.275 OA
ATOM      5  H   UNL A   1      31.321  30.849  23.579  1.00  0.00     0.163 HD
BRANCH   3   6
ATOM      6  C   UNL A   1      30.049  27.752  24.030  1.00  0.00     0.136 C 
BRANCH   6   7
ATOM      7  C   UNL A   1      31.152  26.751  24.122  1.00  0.00    -0.027 C 
ATOM      8  C   UNL A   1      31.451  26.517  26.657  1.00  0.00     0.045 C 
ATOM      9  C   UNL A   1      31.760  26.245  25.221  1.00  0.00    -0.039 C 
ATOM     10  C   UNL A   1      32.828  25.324  24.810  1.00  0.00    -0.014 C 
ATOM     11  C   UNL A   1      31.759  26.109  22.938  1.00  0.00    -0.011 A 
ATOM     12  C   UNL A   1      32.775  25.223  23.342  1.00  0.00    -0.010 A 
ATOM     13  C   UNL A   1      33.686  24.734  25.659  1.00  0.00     0.017 C 
ATOM     14  C   UNL A   1      31.452  26.261  21.593  1.00  0.00     0.048 A 
ATOM     15  C   UNL A   1      33.484  24.479  22.407  1.00  0.00     0.012 A 
ATOM     16  C   UNL A   1      32.177  25.521  20.663  1.00  0.00     0.123 A 
ATOM     17  C   UNL A   1      33.183  24.638  21.054  1.00  0.00     0.040 A 
ATOM     18  F   UNL A   1      31.899  25.654  19.359  1.00  0.00    -0.207 F 
BRANCH  13  19
ATOM     19  C   UNL A   1      34.725  23.776  25.290  1.00  0.00    -0.021 A 
ATOM     20  C   UNL A   1      36.023  24.185  24.972  1.00  0.00     0.008 A 
ATOM     21  C   UNL A   1      34.387  22.419  25.251  1.00  0.00     0.054 A 
ATOM     22  C   UNL A   1      36.969  23.238  24.579  1.00  0.00     0.004 A 
ATOM     23  C   UNL A   1      35.349  21.467  24.923  1.00  0.00     0.120 A 
ATOM     24  C   UNL A   1      36.627  21.885  24.545  1.00  0.00     0.046 A 
BRANCH  23  25
ATOM     25  O   UNL A   1      35.186  20.113  25.017  1.00  0.00    -0.489 OA
BRANCH  25  26
ATOM     26  C   UNL A   1      33.922  19.553  24.645  1.00  0.00     0.265 C 
BRANCH  26  27
ATOM     27  C   UNL A   1      33.719  18.072  24.929  1.00  0.00    -0.011 A 
ATOM     28  C   UNL A   1      32.523  17.534  25.428  1.00  0.00     0.007 A 
ATOM     29  C   UNL A   1      34.757  17.177  24.618  1.00  0.00     0.007 A 
ATOM     30  C   UNL A   1      32.363  16.158  25.605  1.00  0.00     0.000 A 
ATOM     31  C   UNL A   1      34.604  15.800  24.809  1.00  0.00     0.000 A 
ATOM     32  C   UNL A   1      33.404  15.291  25.297  1.00  0.00     0.000 A 
ENDBRANCH  26  27
ENDBRANCH  25  26
ENDBRANCH  23  25
ENDBRANCH  13  19
ENDBRANCH   6   7
ENDBRANCH   3   6
ENDBRANCH   1   2
BRANCH   1  33
ATOM     33  C   UNL A   1      31.305  31.339  26.164  1.00  0.00     0.042 C 
BRANCH  33  34
ATOM     34  C   UNL A   1      32.507  31.861  26.944  1.00  0.00     0.118 C 
BRANCH  34  35
ATOM     35  N   UNL A   1      32.418  33.287  27.222  1.00  0.00    -0.352 N 
ATOM     36  C   UNL A   1      33.126  34.064  28.111  1.00  0.00     0.251 C 
ATOM     37  H   UNL A   1      31.746  33.772  26.691  1.00  0.00     0.163 HD
ATOM     38  O   UNL A   1      32.759  35.211  28.328  1.00  0.00    -0.269 OA
BRANCH  36  39
ATOM     39  C   UNL A   1      34.299  33.505  28.820  1.00  0.00     0.039 A 
ATOM     40  C   UNL A   1      35.599  33.805  28.407  1.00  0.00     0.014 A 
ATOM     41  C   UNL A   1      34.091  32.675  29.926  1.00  0.00     0.014 A 
ATOM     42  C   UNL A   1      36.679  33.147  28.988  1.00  0.00     0.010 A 
ATOM     43  C   UNL A   1      35.184  32.080  30.563  1.00  0.00     0.010 A 
ATOM     44  C   UNL A   1      36.484  32.275  30.071  1.00  0.00    -0.014 A 
BRANCH  44  45
ATOM     45  C   UNL A   1      37.650  31.593  30.690  1.00  0.00     0.031 A 
ATOM     46  C   UNL A   1      38.062  31.910  32.101  1.00  0.00     0.074 A 
ATOM     47  C   UNL A   1      38.320  30.665  29.981  1.00  0.00     0.049 A 
ATOM     48  N   UNL A   1      39.061  31.427  32.793  1.00  0.00    -0.248 NA
ATOM     49  C   UNL A   1      37.248  32.895  32.833  1.00  0.00     0.031 C 
ATOM     50  C   UNL A   1      37.994  30.266  28.611  1.00  0.00     0.029 A 
ATOM     51  N   UNL A   1      39.400  29.882  30.307  1.00  0.00    -0.354 N 
ATOM     52  C   UNL A   1      39.009  32.057  34.031  1.00  0.00     0.074 A 
ATOM     53  C   UNL A   1      37.897  32.980  33.987  1.00  0.00     0.031 C 
ATOM     54  C   UNL A   1      38.825  29.288  28.229  1.00  0.00     0.029 A 
ATOM     55  C   UNL A   1      39.796  29.042  29.292  1.00  0.00     0.049 A 
ATOM     56  H   UNL A   1      39.846  29.918  31.183  1.00  0.00     0.167 HD
ATOM     57  C   UNL A   1      39.810  31.868  35.107  1.00  0.00     0.034 A 
ATOM     58  C   UNL A   1      40.838  28.189  29.209  1.00  0.00     0.034 A 
ATOM     59  C   UNL A   1      40.903  30.930  35.136  1.00  0.00     0.049 A 
ATOM     60  C   UNL A   1      41.753  28.045  30.396  1.00  0.00     0.074 A 
ATOM     61  C   UNL A   1      41.745  30.635  36.194  1.00  0.00     0.029 A 
ATOM     62  N   UNL A   1      41.310  30.139  34.071  1.00  0.00    -0.354 N 
ATOM     63  N   UNL A   1      41.664  28.616  31.575  1.00  0.00    -0.248 NA
ATOM     64  C   UNL A   1      42.912  27.155  30.248  1.00  0.00     0.031 C 
ATOM     65  C   UNL A   1      42.698  29.718  35.752  1.00  0.00     0.029 A 
ATOM     66  C   UNL A   1      42.413  29.385  34.436  1.00  0.00     0.049 A 
ATOM     67  H   UNL A   1      40.878  30.117  33.187  1.00  0.00     0.167 HD
ATOM     68  C   UNL A   1      42.749  28.150  32.310  1.00  0.00     0.074 A 
ATOM     69  C   UNL A   1      43.464  27.226  31.454  1.00  0.00     0.031 C 
ATOM     70  C   UNL A   1      43.121  28.466  33.576  1.00  0.00     0.034 A 
BRANCH  57  71
ATOM     71  C   UNL A   1      39.550  32.673  36.355  1.00  0.00     0.023 A 
ATOM     72  C   UNL A   1      38.663  32.183  37.333  1.00  0.00     0.031 A 
ATOM     73  C   UNL A   1      40.067  33.971  36.514  1.00  0.00     0.131 A 
ATOM     74  C   UNL A   1      38.292  33.000  38.409  1.00  0.00     0.055 A 
ATOM     75  C   UNL A   1      39.723  34.768  37.608  1.00  0.00     0.041 A 
ATOM     76  F   UNL A   1      40.917  34.481  35.609  1.00  0.00    -0.206 F 
ATOM     77  C   UNL A   1      38.821  34.288  38.554  1.00  0.00     0.022 A 
BRANCH  74  78
ATOM     78  S   UNL A   1      37.067  32.450  39.628  1.00  0.00     0.124 S 
ATOM     79  O   UNL A   1      35.813  32.665  38.908  1.00  0.00    -0.237 OA
ATOM     80  O   UNL A   1      37.440  31.052  39.828  1.00  0.00    -0.237 OA
ATOM     81  O   UNL A   1      37.286  33.332  40.769  1.00  0.00    -0.744 OA
ENDBRANCH  74  78
ENDBRANCH  57  71
BRANCH  58  82
ATOM     82  C   UNL A   1      41.032  27.404  27.955  1.00  0.00     0.023 A 
ATOM     83  C   UNL A   1      40.799  26.015  27.930  1.00  0.00     0.031 A 
ATOM     84  C   UNL A   1      41.576  28.002  26.807  1.00  0.00     0.131 A 
ATOM     85  C   UNL A   1      41.192  25.261  26.817  1.00  0.00     0.055 A 
ATOM     86  C   UNL A   1      41.895  27.257  25.670  1.00  0.00     0.041 A 
ATOM     87  F   UNL A   1      41.823  29.320  26.785  1.00  0.00    -0.206 F 
ATOM     88  C   UNL A   1      41.724  25.876  25.681  1.00  0.00     0.022 A 
BRANCH  85  89
ATOM     89  S   UNL A   1      41.171  23.447  26.873  1.00  0.00     0.124 S 
ATOM     90  O   UNL A   1      39.786  23.147  26.526  1.00  0.00    -0.237 OA
ATOM     91  O   UNL A   1      42.164  23.107  25.856  1.00  0.00    -0.237 OA
ATOM     92  O   UNL A   1      41.561  23.139  28.245  1.00  0.00    -0.744 OA
ENDBRANCH  85  89
ENDBRANCH  58  82
BRANCH  70  93
ATOM     93  C   UNL A   1      44.372  27.837  34.138  1.00  0.00     0.023 A 
ATOM     94  C   UNL A   1      44.292  26.629  34.857  1.00  0.00     0.031 A 
ATOM     95  C   UNL A   1      45.601  28.517  34.108  1.00  0.00     0.131 A 
ATOM     96  C   UNL A   1      45.410  26.167  35.564  1.00  0.00     0.055 A 
ATOM     97  C   UNL A   1      46.725  28.026  34.775  1.00  0.00     0.041 A 
ATOM     98  F   UNL A   1      45.724  29.675  33.441  1.00  0.00    -0.206 F 
ATOM     99  C   UNL A   1      46.627  26.854  35.520  1.00  0.00     0.022 A 
BRANCH  96 100
ATOM    100  S   UNL A   1      45.299  24.707  36.636  1.00  0.00     0.124 S 
ATOM    101  O   UNL A   1      44.813  23.687  35.710  1.00  0.00    -0.237 OA
ATOM    102  O   UNL A   1      46.683  24.543  37.074  1.00  0.00    -0.237 OA
ATOM    103  O   UNL A   1      44.354  25.103  37.674  1.00  0.00    -0.744 OA
ENDBRANCH  96 100
ENDBRANCH  70  93
ENDBRANCH  44  45
ENDBRANCH  36  39
ENDBRANCH  34  35
ENDBRANCH  33  34
ENDBRANCH   1  33
TORSDOF 18
ENDMDL
MODEL 3
REMARK VINA RESULT:     -13.0      1.472      7.334
REMARK SMILES CC1=C(CC(=O)NCCCNC(=O)c2ccc(-c3c4nc(c(-c5cc(S(=O)(=O)[O-])ccc5F)c5ccc([nH]5)c(-c5cc(S(=O)(=O)[O-])ccc5F)c5nc(c(-c6cc(S(=O)(=O)[O-])ccc6F)c6ccc3[nH]6)C=C5)C=C4)cc2)c2cc(F)ccc2/C1=C\c1cccc(OCc2ccccc2)c1
REMARK SMILES IDX 8 1 7 2 5 3 6 4 4 6 3 7 1 8 2 9 84 10 77 11 83 12 85 13
REMARK SMILES IDX 78 14 82 15 79 16 81 17 80 18 86 19 87 20 99 21 88 22 90 23
REMARK SMILES IDX 89 24 91 25 92 26 93 27 94 28 98 29 95 30 97 31 96 32 9 33
REMARK SMILES IDX 10 34 11 35 12 36 13 38 14 39 15 40 76 41 16 42 75 43 17 44
REMARK SMILES IDX 18 45 19 46 69 47 20 48 74 49 68 50 70 51 21 52 73 53 67 54
REMARK SMILES IDX 66 55 22 57 54 58 34 59 53 60 35 61 38 62 52 63 71 64 36 65
REMARK SMILES IDX 37 66 51 68 72 69 39 70 23 71 24 72 32 73 25 74 31 75 33 76
REMARK SMILES IDX 30 77 26 78 27 79 28 80 29 81 55 82 56 83 64 84 57 85 63 86
REMARK SMILES IDX 65 87 62 88 58 89 59 90 60 91 61 92 40 93 41 94 49 95 42 96
REMARK SMILES IDX 48 97 50 98 47 99 43 100 44 101 45 102 46 103
REMARK H PARENT 7 5 11 37 70 56 38 67
REMARK Flexibility Score: inf
ROOT
ATOM      1  C   UNL A   1      37.256  21.005  25.006  1.00  0.00     0.117 C 
ENDROOT
BRANCH   1   2
ATOM      2  N   UNL A   1      35.929  20.479  24.748  1.00  0.00    -0.356 N 
ATOM      3  C   UNL A   1      34.769  20.682  25.436  1.00  0.00     0.224 C 
ATOM      4  O   UNL A   1      33.748  20.117  25.037  1.00  0.00    -0.275 OA
ATOM      5  H   UNL A   1      35.855  19.890  23.962  1.00  0.00     0.163 HD
BRANCH   3   6
ATOM      6  C   UNL A   1      34.733  21.620  26.639  1.00  0.00     0.136 C 
BRANCH   6   7
ATOM      7  C   UNL A   1      34.167  22.964  26.322  1.00  0.00    -0.027 C 
ATOM      8  C   UNL A   1      36.250  24.259  25.578  1.00  0.00     0.045 C 
ATOM      9  C   UNL A   1      34.802  24.082  25.898  1.00  0.00    -0.039 C 
ATOM     10  C   UNL A   1      33.831  25.178  25.769  1.00  0.00    -0.014 C 
ATOM     11  C   UNL A   1      32.725  23.273  26.411  1.00  0.00    -0.011 A 
ATOM     12  C   UNL A   1      32.501  24.618  26.062  1.00  0.00    -0.010 A 
ATOM     13  C   UNL A   1      34.157  26.446  25.467  1.00  0.00     0.017 C 
ATOM     14  C   UNL A   1      31.663  22.449  26.756  1.00  0.00     0.048 A 
ATOM     15  C   UNL A   1      31.216  25.146  26.048  1.00  0.00     0.012 A 
ATOM     16  C   UNL A   1      30.379  22.991  26.753  1.00  0.00     0.123 A 
ATOM     17  C   UNL A   1      30.148  24.321  26.405  1.00  0.00     0.040 A 
ATOM     18  F   UNL A   1      29.339  22.214  27.085  1.00  0.00    -0.207 F 
BRANCH  13  19
ATOM     19  C   UNL A   1      33.214  27.545  25.281  1.00  0.00    -0.021 A 
ATOM     20  C   UNL A   1      33.074  28.562  26.230  1.00  0.00     0.008 A 
ATOM     21  C   UNL A   1      32.433  27.556  24.119  1.00  0.00     0.054 A 
ATOM     22  C   UNL A   1      32.127  29.566  26.031  1.00  0.00     0.004 A 
ATOM     23  C   UNL A   1      31.535  28.595  23.890  1.00  0.00     0.120 A 
ATOM     24  C   UNL A   1      31.354  29.574  24.870  1.00  0.00     0.046 A 
BRANCH  23  25
ATOM     25  O   UNL A   1      30.848  28.805  22.727  1.00  0.00    -0.489 OA
BRANCH  25  26
ATOM     26  C   UNL A   1      29.442  29.060  22.804  1.00  0.00     0.265 C 
BRANCH  26  27
ATOM     27  C   UNL A   1      28.969  30.435  22.354  1.00  0.00    -0.011 A 
ATOM     28  C   UNL A   1      28.541  30.720  21.049  1.00  0.00     0.007 A 
ATOM     29  C   UNL A   1      28.893  31.466  23.306  1.00  0.00     0.007 A 
ATOM     30  C   UNL A   1      28.050  31.982  20.705  1.00  0.00     0.000 A 
ATOM     31  C   UNL A   1      28.416  32.734  22.960  1.00  0.00     0.000 A 
ATOM     32  C   UNL A   1      27.989  32.989  21.660  1.00  0.00     0.000 A 
ENDBRANCH  26  27
ENDBRANCH  25  26
ENDBRANCH  23  25
ENDBRANCH  13  19
ENDBRANCH   6   7
ENDBRANCH   3   6
ENDBRANCH   1   2
BRANCH   1  33
ATOM     33  C   UNL A   1      38.298  19.905  25.172  1.00  0.00     0.042 C 
BRANCH  33  34
ATOM     34  C   UNL A   1      39.515  20.324  25.991  1.00  0.00     0.118 C 
BRANCH  34  35
ATOM     35  N   UNL A   1      40.576  19.328  25.968  1.00  0.00    -0.352 N 
ATOM     36  C   UNL A   1      41.943  19.485  26.010  1.00  0.00     0.251 C 
ATOM     37  H   UNL A   1      40.268  18.394  25.914  1.00  0.00     0.163 HD
ATOM     38  O   UNL A   1      42.664  18.523  25.782  1.00  0.00    -0.269 OA
BRANCH  36  39
ATOM     39  C   UNL A   1      42.532  20.813  26.297  1.00  0.00     0.039 A 
ATOM     40  C   UNL A   1      42.826  21.201  27.606  1.00  0.00     0.014 A 
ATOM     41  C   UNL A   1      42.805  21.678  25.234  1.00  0.00     0.014 A 
ATOM     42  C   UNL A   1      43.231  22.506  27.866  1.00  0.00     0.010 A 
ATOM     43  C   UNL A   1      43.294  22.962  25.491  1.00  0.00     0.010 A 
ATOM     44  C   UNL A   1      43.467  23.403  26.812  1.00  0.00    -0.014 A 
BRANCH  44  45
ATOM     45  C   UNL A   1      43.916  24.789  27.106  1.00  0.00     0.031 A 
ATOM     46  C   UNL A   1      42.959  25.800  27.673  1.00  0.00     0.074 A 
ATOM     47  C   UNL A   1      45.201  25.123  26.883  1.00  0.00     0.049 A 
ATOM     48  N   UNL A   1      43.172  27.055  27.973  1.00  0.00    -0.248 NA
ATOM     49  C   UNL A   1      41.584  25.346  27.942  1.00  0.00     0.031 C 
ATOM     50  C   UNL A   1      46.219  24.215  26.354  1.00  0.00     0.029 A 
ATOM     51  N   UNL A   1      45.878  26.302  27.081  1.00  0.00    -0.354 N 
ATOM     52  C   UNL A   1      41.961  27.546  28.447  1.00  0.00     0.074 A 
ATOM     53  C   UNL A   1      41.008  26.462  28.369  1.00  0.00     0.031 C 
ATOM     54  C   UNL A   1      47.396  24.855  26.306  1.00  0.00     0.029 A 
ATOM     55  C   UNL A   1      47.205  26.241  26.725  1.00  0.00     0.049 A 
ATOM     56  H   UNL A   1      45.453  27.113  27.443  1.00  0.00     0.167 HD
ATOM     57  C   UNL A   1      41.680  28.785  28.916  1.00  0.00     0.034 A 
ATOM     58  C   UNL A   1      48.159  27.195  26.708  1.00  0.00     0.034 A 
ATOM     59  C   UNL A   1      42.649  29.848  29.001  1.00  0.00     0.049 A 
ATOM     60  C   UNL A   1      47.804  28.582  27.173  1.00  0.00     0.074 A 
ATOM     61  C   UNL A   1      42.472  31.125  29.504  1.00  0.00     0.029 A 
ATOM     62  N   UNL A   1      43.968  29.766  28.579  1.00  0.00    -0.354 N 
ATOM     63  N   UNL A   1      46.666  29.019  27.660  1.00  0.00    -0.248 NA
ATOM     64  C   UNL A   1      48.849  29.610  27.082  1.00  0.00     0.031 C 
ATOM     65  C   UNL A   1      43.659  31.834  29.326  1.00  0.00     0.029 A 
ATOM     66  C   UNL A   1      44.604  30.981  28.774  1.00  0.00     0.049 A 
ATOM     67  H   UNL A   1      44.390  28.962  28.196  1.00  0.00     0.167 HD
ATOM     68  C   UNL A   1      46.860  30.368  27.939  1.00  0.00     0.074 A 
ATOM     69  C   UNL A   1      48.234  30.669  27.596  1.00  0.00     0.031 C 
ATOM     70  C   UNL A   1      45.975  31.273  28.428  1.00  0.00     0.034 A 
BRANCH  57  71
ATOM     71  C   UNL A   1      40.279  29.082  29.387  1.00  0.00     0.023 A 
ATOM     72  C   UNL A   1      40.007  29.177  30.766  1.00  0.00     0.031 A 
ATOM     73  C   UNL A   1      39.197  29.136  28.490  1.00  0.00     0.131 A 
ATOM     74  C   UNL A   1      38.683  29.286  31.210  1.00  0.00     0.055 A 
ATOM     75  C   UNL A   1      37.882  29.281  28.936  1.00  0.00     0.041 A 
ATOM     76  F   UNL A   1      39.406  29.051  27.166  1.00  0.00    -0.206 F 
ATOM     77  C   UNL A   1      37.619  29.343  30.302  1.00  0.00     0.022 A 
BRANCH  74  78
ATOM     78  S   UNL A   1      38.283  29.297  32.979  1.00  0.00     0.124 S 
ATOM     79  O   UNL A   1      37.967  30.706  33.205  1.00  0.00    -0.237 OA
ATOM     80  O   UNL A   1      37.145  28.384  33.041  1.00  0.00    -0.237 OA
ATOM     81  O   UNL A   1      39.507  28.826  33.619  1.00  0.00    -0.744 OA
ENDBRANCH  74  78
ENDBRANCH  57  71
BRANCH  58  82
ATOM     82  C   UNL A   1      49.533  26.836  26.251  1.00  0.00     0.023 A 
ATOM     83  C   UNL A   1      50.027  27.301  25.017  1.00  0.00     0.031 A 
ATOM     84  C   UNL A   1      50.316  25.921  26.973  1.00  0.00     0.131 A 
ATOM     85  C   UNL A   1      51.222  26.782  24.504  1.00  0.00     0.055 A 
ATOM     86  C   UNL A   1      51.545  25.464  26.492  1.00  0.00     0.041 A 
ATOM     87  F   UNL A   1      49.884  25.443  28.149  1.00  0.00    -0.206 F 
ATOM     88  C   UNL A   1      51.992  25.879  25.240  1.00  0.00     0.022 A 
BRANCH  85  89
ATOM     89  S   UNL A   1      51.733  27.142  22.799  1.00  0.00     0.124 S 
ATOM     90  O   UNL A   1      52.123  28.545  22.888  1.00  0.00    -0.237 OA
ATOM     91  O   UNL A   1      52.827  26.193  22.609  1.00  0.00    -0.237 OA
ATOM     92  O   UNL A   1      50.533  26.867  22.015  1.00  0.00    -0.744 OA
ENDBRANCH  85  89
ENDBRANCH  58  82
BRANCH  70  93
ATOM     93  C   UNL A   1      46.433  32.699  28.614  1.00  0.00     0.023 A 
ATOM     94  C   UNL A   1      46.242  33.641  27.584  1.00  0.00     0.031 A 
ATOM     95  C   UNL A   1      47.202  33.074  29.728  1.00  0.00     0.131 A 
ATOM     96  C   UNL A   1      46.862  34.894  27.666  1.00  0.00     0.055 A 
ATOM     97  C   UNL A   1      47.777  34.342  29.826  1.00  0.00     0.041 A 
ATOM     98  F   UNL A   1      47.416  32.208  30.731  1.00  0.00    -0.206 F 
ATOM     99  C   UNL A   1      47.621  35.253  28.784  1.00  0.00     0.022 A 
BRANCH  96 100
ATOM    100  S   UNL A   1      46.779  36.070  26.287  1.00  0.00     0.124 S 
ATOM    101  O   UNL A   1      46.292  35.226  25.198  1.00  0.00    -0.237 OA
ATOM    102  O   UNL A   1      45.826  37.059  26.783  1.00  0.00    -0.237 OA
ATOM    103  O   UNL A   1      48.153  36.539  26.141  1.00  0.00    -0.744 OA
ENDBRANCH  96 100
ENDBRANCH  70  93
ENDBRANCH  44  45
ENDBRANCH  36  39
ENDBRANCH  34  35
ENDBRANCH  33  34
ENDBRANCH   1  33
TORSDOF 18
ENDMDL
