MODEL 1
REMARK VINA RESULT:     -10.6      0.000      0.000
REMARK SMILES CC(C)c1ncc(SC[C@H](O)CO)c(C(=O)NCCCNC(=O)c2ccc(-c3c4nc(c(-c5cc(S(=O)(=O)[O-])ccc5F)c5ccc([nH]5)c(-c5cc(S(=O)(=O)[O-])ccc5F)c5nc(c(-c6cc(S(=O)(=O)[O-])ccc6F)c6ccc3[nH]6)C=C5)C=C4)cc2)n1
REMARK SMILES IDX 18 1 17 2 15 3 16 4 14 6 4 7 5 8 87 9 6 10 7 11 2 12 1 13
REMARK SMILES IDX 3 14 8 15 9 16 10 17 12 18 13 19 11 21 19 23 20 24 21 25
REMARK SMILES IDX 22 26 23 28 24 29 25 30 86 31 26 32 85 33 27 34 28 35 29 36
REMARK SMILES IDX 79 37 30 38 84 39 78 40 80 41 31 42 83 43 77 44 76 45 32 47
REMARK SMILES IDX 64 48 44 49 63 50 45 51 48 52 62 53 81 54 46 55 47 56 61 58
REMARK SMILES IDX 82 59 49 60 33 61 34 62 42 63 35 64 41 65 43 66 40 67 36 68
REMARK SMILES IDX 37 69 38 70 39 71 65 72 66 73 74 74 67 75 73 76 75 77 72 78
REMARK SMILES IDX 68 79 69 80 70 81 71 82 50 83 51 84 59 85 52 86 58 87 60 88
REMARK SMILES IDX 57 89 53 90 54 91 55 92 56 93
REMARK H PARENT 17 5 13 20 11 22 21 27 80 46 48 57
REMARK Flexibility Score: inf
ROOT
ATOM      1  C   UNL A   1      31.595  27.996  26.892  1.00  0.00     0.118 C 
ENDROOT
BRANCH   1   2
ATOM      2  N   UNL A   1      31.456  26.575  27.111  1.00  0.00    -0.351 N 
ATOM      3  C   UNL A   1      31.774  25.457  26.384  1.00  0.00     0.271 C 
ATOM      4  O   UNL A   1      31.393  24.393  26.887  1.00  0.00    -0.267 OA
ATOM      5  H   UNL A   1      31.039  26.362  27.977  1.00  0.00     0.163 HD
BRANCH   3   6
ATOM      6  C   UNL A   1      32.609  25.386  25.127  1.00  0.00     0.145 A 
ATOM      7  C   UNL A   1      34.557  24.315  24.392  1.00  0.00     0.131 A 
ATOM      8  N   UNL A   1      34.294  24.597  23.114  1.00  0.00    -0.240 NA
ATOM      9  N   UNL A   1      33.771  24.712  25.402  1.00  0.00    -0.226 NA
ATOM     10  C   UNL A   1      33.157  25.272  22.872  1.00  0.00     0.130 A 
ATOM     11  C   UNL A   1      32.259  25.736  23.827  1.00  0.00     0.057 A 
BRANCH   7  12
ATOM     12  C   UNL A   1      35.699  23.373  24.715  1.00  0.00     0.051 C 
ATOM     13  C   UNL A   1      36.372  22.801  23.462  1.00  0.00     0.016 C 
ATOM     14  C   UNL A   1      36.739  24.048  25.608  1.00  0.00     0.016 C 
ENDBRANCH   7  12
BRANCH  11  15
ATOM     15  S   UNL A   1      30.773  26.405  23.156  1.00  0.00    -0.119 SA
BRANCH  15  16
ATOM     16  C   UNL A   1      31.147  28.133  22.602  1.00  0.00     0.109 C 
BRANCH  16  17
ATOM     17  C   UNL A   1      30.150  29.276  22.341  1.00  0.00     0.150 C 
BRANCH  17  18
ATOM     18  C   UNL A   1      29.655  30.110  23.522  1.00  0.00     0.188 C 
BRANCH  18  19
ATOM     19  O   UNL A   1      30.753  30.373  24.402  1.00  0.00    -0.394 OA
ATOM     20  H   UNL A   1      31.544  29.916  24.077  1.00  0.00     0.210 HD
ENDBRANCH  18  19
ENDBRANCH  17  18
BRANCH  17  21
ATOM     21  O   UNL A   1      30.605  30.173  21.318  1.00  0.00    -0.390 OA
ATOM     22  H   UNL A   1      31.316  30.731  21.670  1.00  0.00     0.211 HD
ENDBRANCH  17  21
ENDBRANCH  16  17
ENDBRANCH  15  16
ENDBRANCH  11  15
ENDBRANCH   3   6
ENDBRANCH   1   2
BRANCH   1  23
ATOM     23  C   UNL A   1      32.942  28.482  27.432  1.00  0.00     0.042 C 
BRANCH  23  24
ATOM     24  C   UNL A   1      33.662  29.451  26.501  1.00  0.00     0.118 C 
BRANCH  24  25
ATOM     25  N   UNL A   1      33.605  30.813  27.005  1.00  0.00    -0.352 N 
ATOM     26  C   UNL A   1      34.368  31.443  27.962  1.00  0.00     0.251 C 
ATOM     27  H   UNL A   1      32.909  31.377  26.597  1.00  0.00     0.163 HD
ATOM     28  O   UNL A   1      33.951  32.494  28.443  1.00  0.00    -0.269 OA
BRANCH  26  29
ATOM     29  C   UNL A   1      35.658  30.874  28.430  1.00  0.00     0.039 A 
ATOM     30  C   UNL A   1      35.637  29.857  29.393  1.00  0.00     0.014 A 
ATOM     31  C   UNL A   1      36.887  31.375  27.997  1.00  0.00     0.014 A 
ATOM     32  C   UNL A   1      36.835  29.316  29.873  1.00  0.00     0.010 A 
ATOM     33  C   UNL A   1      38.078  30.775  28.408  1.00  0.00     0.010 A 
ATOM     34  C   UNL A   1      38.069  29.749  29.364  1.00  0.00    -0.014 A 
BRANCH  34  35
ATOM     35  C   UNL A   1      39.357  29.173  29.842  1.00  0.00     0.031 A 
ATOM     36  C   UNL A   1      40.093  29.817  30.989  1.00  0.00     0.074 A 
ATOM     37  C   UNL A   1      39.897  28.113  29.207  1.00  0.00     0.049 A 
ATOM     38  N   UNL A   1      41.272  29.535  31.483  1.00  0.00    -0.248 NA
ATOM     39  C   UNL A   1      39.427  30.953  31.644  1.00  0.00     0.031 C 
ATOM     40  C   UNL A   1      39.302  27.421  28.062  1.00  0.00     0.029 A 
ATOM     41  N   UNL A   1      41.073  27.438  29.426  1.00  0.00    -0.354 N 
ATOM     42  C   UNL A   1      41.499  30.471  32.488  1.00  0.00     0.074 A 
ATOM     43  C   UNL A   1      40.359  31.364  32.489  1.00  0.00     0.031 C 
ATOM     44  C   UNL A   1      40.105  26.410  27.693  1.00  0.00     0.029 A 
ATOM     45  C   UNL A   1      41.292  26.407  28.542  1.00  0.00     0.049 A 
ATOM     46  H   UNL A   1      41.699  27.670  30.149  1.00  0.00     0.167 HD
ATOM     47  C   UNL A   1      42.547  30.565  33.345  1.00  0.00     0.034 A 
ATOM     48  C   UNL A   1      42.338  25.565  28.416  1.00  0.00     0.034 A 
ATOM     49  C   UNL A   1      43.665  29.652  33.348  1.00  0.00     0.049 A 
ATOM     50  C   UNL A   1      43.495  25.692  29.373  1.00  0.00     0.074 A 
ATOM     51  C   UNL A   1      44.750  29.618  34.208  1.00  0.00     0.029 A 
ATOM     52  N   UNL A   1      43.845  28.612  32.445  1.00  0.00    -0.354 N 
ATOM     53  N   UNL A   1      43.674  26.557  30.345  1.00  0.00    -0.248 NA
ATOM     54  C   UNL A   1      44.587  24.720  29.223  1.00  0.00     0.031 C 
ATOM     55  C   UNL A   1      45.613  28.600  33.787  1.00  0.00     0.029 A 
ATOM     56  C   UNL A   1      45.034  27.949  32.710  1.00  0.00     0.049 A 
ATOM     57  H   UNL A   1      43.219  28.379  31.722  1.00  0.00     0.167 HD
ATOM     58  C   UNL A   1      44.884  26.215  30.940  1.00  0.00     0.074 A 
ATOM     59  C   UNL A   1      45.385  25.056  30.227  1.00  0.00     0.031 C 
ATOM     60  C   UNL A   1      45.525  26.801  31.984  1.00  0.00     0.034 A 
BRANCH  47  61
ATOM     61  C   UNL A   1      42.539  31.712  34.331  1.00  0.00     0.023 A 
ATOM     62  C   UNL A   1      41.906  31.608  35.582  1.00  0.00     0.031 A 
ATOM     63  C   UNL A   1      43.148  32.937  34.004  1.00  0.00     0.131 A 
ATOM     64  C   UNL A   1      41.822  32.728  36.422  1.00  0.00     0.055 A 
ATOM     65  C   UNL A   1      43.135  34.023  34.882  1.00  0.00     0.041 A 
ATOM     66  F   UNL A   1      43.754  33.105  32.818  1.00  0.00    -0.206 F 
ATOM     67  C   UNL A   1      42.455  33.929  36.092  1.00  0.00     0.022 A 
BRANCH  64  68
ATOM     68  S   UNL A   1      40.746  32.638  37.878  1.00  0.00     0.124 S 
ATOM     69  O   UNL A   1      40.500  34.052  38.151  1.00  0.00    -0.237 OA
ATOM     70  O   UNL A   1      39.607  31.875  37.383  1.00  0.00    -0.237 OA
ATOM     71  O   UNL A   1      41.571  31.955  38.872  1.00  0.00    -0.744 OA
ENDBRANCH  64  68
ENDBRANCH  47  61
BRANCH  48  72
ATOM     72  C   UNL A   1      42.350  24.533  27.340  1.00  0.00     0.023 A 
ATOM     73  C   UNL A   1      41.624  23.339  27.476  1.00  0.00     0.031 A 
ATOM     74  C   UNL A   1      43.118  24.710  26.175  1.00  0.00     0.131 A 
ATOM     75  C   UNL A   1      41.714  22.349  26.484  1.00  0.00     0.055 A 
ATOM     76  C   UNL A   1      43.164  23.744  25.168  1.00  0.00     0.041 A 
ATOM     77  F   UNL A   1      43.824  25.837  25.992  1.00  0.00    -0.206 F 
ATOM     78  C   UNL A   1      42.469  22.548  25.326  1.00  0.00     0.022 A 
BRANCH  75  79
ATOM     79  S   UNL A   1      40.887  20.760  26.766  1.00  0.00     0.124 S 
ATOM     80  O   UNL A   1      41.822  19.825  26.149  1.00  0.00    -0.237 OA
ATOM     81  O   UNL A   1      40.803  20.717  28.223  1.00  0.00    -0.237 OA
ATOM     82  O   UNL A   1      39.609  20.914  26.075  1.00  0.00    -0.744 OA
ENDBRANCH  75  79
ENDBRANCH  48  72
BRANCH  60  83
ATOM     83  C   UNL A   1      46.813  26.164  32.441  1.00  0.00     0.023 A 
ATOM     84  C   UNL A   1      46.830  25.115  33.376  1.00  0.00     0.031 A 
ATOM     85  C   UNL A   1      48.044  26.626  31.941  1.00  0.00     0.131 A 
ATOM     86  C   UNL A   1      48.055  24.598  33.823  1.00  0.00     0.055 A 
ATOM     87  C   UNL A   1      49.258  26.068  32.347  1.00  0.00     0.041 A 
ATOM     88  F   UNL A   1      48.087  27.628  31.049  1.00  0.00    -0.206 F 
ATOM     89  C   UNL A   1      49.268  25.057  33.303  1.00  0.00     0.022 A 
BRANCH  86  90
ATOM     90  S   UNL A   1      48.047  23.375  35.164  1.00  0.00     0.124 S 
ATOM     91  O   UNL A   1      48.290  24.210  36.337  1.00  0.00    -0.237 OA
ATOM     92  O   UNL A   1      46.711  22.801  35.056  1.00  0.00    -0.237 OA
ATOM     93  O   UNL A   1      49.140  22.472  34.810  1.00  0.00    -0.744 OA
ENDBRANCH  86  90
ENDBRANCH  60  83
ENDBRANCH  34  35
ENDBRANCH  26  29
ENDBRANCH  24  25
ENDBRANCH  23  24
ENDBRANCH   1  23
TORSDOF 20
ENDMDL
MODEL 2
REMARK VINA RESULT:     -10.5      2.351      3.525
REMARK SMILES CC(C)c1ncc(SC[C@H](O)CO)c(C(=O)NCCCNC(=O)c2ccc(-c3c4nc(c(-c5cc(S(=O)(=O)[O-])ccc5F)c5ccc([nH]5)c(-c5cc(S(=O)(=O)[O-])ccc5F)c5nc(c(-c6cc(S(=O)(=O)[O-])ccc6F)c6ccc3[nH]6)C=C5)C=C4)cc2)n1
REMARK SMILES IDX 18 1 17 2 15 3 16 4 14 6 4 7 5 8 87 9 6 10 7 11 2 12 1 13
REMARK SMILES IDX 3 14 8 15 9 16 10 17 12 18 13 19 11 21 19 23 20 24 21 25
REMARK SMILES IDX 22 26 23 28 24 29 25 30 86 31 26 32 85 33 27 34 28 35 29 36
REMARK SMILES IDX 79 37 30 38 84 39 78 40 80 41 31 42 83 43 77 44 76 45 32 47
REMARK SMILES IDX 64 48 44 49 63 50 45 51 48 52 62 53 81 54 46 55 47 56 61 58
REMARK SMILES IDX 82 59 49 60 33 61 34 62 42 63 35 64 41 65 43 66 40 67 36 68
REMARK SMILES IDX 37 69 38 70 39 71 65 72 66 73 74 74 67 75 73 76 75 77 72 78
REMARK SMILES IDX 68 79 69 80 70 81 71 82 50 83 51 84 59 85 52 86 58 87 60 88
REMARK SMILES IDX 57 89 53 90 54 91 55 92 56 93
REMARK H PARENT 17 5 13 20 11 22 21 27 80 46 48 57
REMARK Flexibility Score: inf
ROOT
ATOM      1  C   UNL A   1      31.740  28.271  27.136  1.00  0.00     0.118 C 
ENDROOT
BRANCH   1   2
ATOM      2  N   UNL A   1      31.000  27.034  27.044  1.00  0.00    -0.351 N 
ATOM      3  C   UNL A   1      30.415  26.340  26.017  1.00  0.00     0.271 C 
ATOM      4  O   UNL A   1      29.772  25.345  26.372  1.00  0.00    -0.267 OA
ATOM      5  H   UNL A   1      30.892  26.589  27.916  1.00  0.00     0.163 HD
BRANCH   3   6
ATOM      6  C   UNL A   1      30.560  26.597  24.535  1.00  0.00     0.145 A 
ATOM      7  C   UNL A   1      29.651  28.030  22.923  1.00  0.00     0.131 A 
ATOM      8  N   UNL A   1      30.611  27.735  22.042  1.00  0.00    -0.240 NA
ATOM      9  N   UNL A   1      29.580  27.469  24.137  1.00  0.00    -0.226 NA
ATOM     10  C   UNL A   1      31.552  26.866  22.452  1.00  0.00     0.130 A 
ATOM     11  C   UNL A   1      31.592  26.220  23.682  1.00  0.00     0.057 A 
BRANCH   7  12
ATOM     12  C   UNL A   1      28.691  29.160  22.610  1.00  0.00     0.051 C 
ATOM     13  C   UNL A   1      27.261  28.875  23.084  1.00  0.00     0.016 C 
ATOM     14  C   UNL A   1      29.184  30.483  23.192  1.00  0.00     0.016 C 
ENDBRANCH   7  12
BRANCH  11  15
ATOM     15  S   UNL A   1      33.069  25.302  23.968  1.00  0.00    -0.119 SA
BRANCH  15  16
ATOM     16  C   UNL A   1      32.593  23.517  24.101  1.00  0.00     0.109 C 
BRANCH  16  17
ATOM     17  C   UNL A   1      32.013  22.785  25.323  1.00  0.00     0.150 C 
BRANCH  17  18
ATOM     18  C   UNL A   1      32.576  23.097  26.709  1.00  0.00     0.188 C 
BRANCH  18  19
ATOM     19  O   UNL A   1      31.501  23.471  27.578  1.00  0.00    -0.394 OA
ATOM     20  H   UNL A   1      30.691  23.590  27.056  1.00  0.00     0.210 HD
ENDBRANCH  18  19
ENDBRANCH  17  18
BRANCH  17  21
ATOM     21  O   UNL A   1      30.583  22.881  25.388  1.00  0.00    -0.390 OA
ATOM     22  H   UNL A   1      30.189  22.343  24.684  1.00  0.00     0.211 HD
ENDBRANCH  17  21
ENDBRANCH  16  17
ENDBRANCH  15  16
ENDBRANCH  11  15
ENDBRANCH   3   6
ENDBRANCH   1   2
BRANCH   1  23
ATOM     23  C   UNL A   1      33.231  28.010  26.910  1.00  0.00     0.042 C 
BRANCH  23  24
ATOM     24  C   UNL A   1      33.906  29.044  26.016  1.00  0.00     0.118 C 
BRANCH  24  25
ATOM     25  N   UNL A   1      33.792  30.382  26.573  1.00  0.00    -0.352 N 
ATOM     26  C   UNL A   1      34.479  30.980  27.605  1.00  0.00     0.251 C 
ATOM     27  H   UNL A   1      33.116  30.954  26.143  1.00  0.00     0.163 HD
ATOM     28  O   UNL A   1      34.014  32.003  28.101  1.00  0.00    -0.269 OA
BRANCH  26  29
ATOM     29  C   UNL A   1      35.744  30.408  28.135  1.00  0.00     0.039 A 
ATOM     30  C   UNL A   1      35.715  29.726  29.357  1.00  0.00     0.014 A 
ATOM     31  C   UNL A   1      36.968  30.597  27.490  1.00  0.00     0.014 A 
ATOM     32  C   UNL A   1      36.894  29.195  29.897  1.00  0.00     0.010 A 
ATOM     33  C   UNL A   1      38.125  29.993  27.982  1.00  0.00     0.010 A 
ATOM     34  C   UNL A   1      38.107  29.298  29.200  1.00  0.00    -0.014 A 
BRANCH  34  35
ATOM     35  C   UNL A   1      39.370  28.722  29.741  1.00  0.00     0.031 A 
ATOM     36  C   UNL A   1      40.051  29.370  30.920  1.00  0.00     0.074 A 
ATOM     37  C   UNL A   1      39.938  27.659  29.137  1.00  0.00     0.049 A 
ATOM     38  N   UNL A   1      41.204  29.088  31.472  1.00  0.00    -0.248 NA
ATOM     39  C   UNL A   1      39.355  30.509  31.538  1.00  0.00     0.031 C 
ATOM     40  C   UNL A   1      39.399  26.964  27.967  1.00  0.00     0.029 A 
ATOM     41  N   UNL A   1      41.102  26.984  29.414  1.00  0.00    -0.354 N 
ATOM     42  C   UNL A   1      41.383  30.027  32.483  1.00  0.00     0.074 A 
ATOM     43  C   UNL A   1      40.245  30.921  32.426  1.00  0.00     0.031 C 
ATOM     44  C   UNL A   1      40.217  25.951  27.640  1.00  0.00     0.029 A 
ATOM     45  C   UNL A   1      41.363  25.950  28.545  1.00  0.00     0.049 A 
ATOM     46  H   UNL A   1      41.693  27.218  30.165  1.00  0.00     0.167 HD
ATOM     47  C   UNL A   1      42.389  30.124  33.389  1.00  0.00     0.034 A 
ATOM     48  C   UNL A   1      42.413  25.106  28.473  1.00  0.00     0.034 A 
ATOM     49  C   UNL A   1      43.504  29.210  33.449  1.00  0.00     0.049 A 
ATOM     50  C   UNL A   1      43.522  25.236  29.484  1.00  0.00     0.074 A 
ATOM     51  C   UNL A   1      44.546  29.177  34.360  1.00  0.00     0.029 A 
ATOM     52  N   UNL A   1      43.726  28.166  32.559  1.00  0.00    -0.354 N 
ATOM     53  N   UNL A   1      43.655  26.104  30.461  1.00  0.00    -0.248 NA
ATOM     54  C   UNL A   1      44.619  24.263  29.391  1.00  0.00     0.031 C 
ATOM     55  C   UNL A   1      45.428  28.157  33.985  1.00  0.00     0.029 A 
ATOM     56  C   UNL A   1      44.900  27.503  32.883  1.00  0.00     0.049 A 
ATOM     57  H   UNL A   1      43.136  27.931  31.808  1.00  0.00     0.167 HD
ATOM     58  C   UNL A   1      44.835  25.763  31.114  1.00  0.00     0.074 A 
ATOM     59  C   UNL A   1      45.368  24.601  30.431  1.00  0.00     0.031 C 
ATOM     60  C   UNL A   1      45.425  26.352  32.186  1.00  0.00     0.034 A 
BRANCH  47  61
ATOM     61  C   UNL A   1      42.335  31.274  34.369  1.00  0.00     0.023 A 
ATOM     62  C   UNL A   1      42.880  32.533  34.062  1.00  0.00     0.031 A 
ATOM     63  C   UNL A   1      41.757  31.102  35.640  1.00  0.00     0.131 A 
ATOM     64  C   UNL A   1      42.914  33.541  35.038  1.00  0.00     0.055 A 
ATOM     65  C   UNL A   1      41.716  32.137  36.577  1.00  0.00     0.041 A 
ATOM     66  F   UNL A   1      41.235  29.919  36.000  1.00  0.00    -0.206 F 
ATOM     67  C   UNL A   1      42.312  33.360  36.285  1.00  0.00     0.022 A 
BRANCH  64  68
ATOM     68  S   UNL A   1      43.886  35.034  34.705  1.00  0.00     0.124 S 
ATOM     69  O   UNL A   1      42.854  35.963  34.251  1.00  0.00    -0.237 OA
ATOM     70  O   UNL A   1      44.477  35.322  36.006  1.00  0.00    -0.237 OA
ATOM     71  O   UNL A   1      44.828  34.608  33.672  1.00  0.00    -0.744 OA
ENDBRANCH  64  68
ENDBRANCH  47  61
BRANCH  48  72
ATOM     72  C   UNL A   1      42.475  24.071  27.402  1.00  0.00     0.023 A 
ATOM     73  C   UNL A   1      41.887  22.809  27.582  1.00  0.00     0.031 A 
ATOM     74  C   UNL A   1      43.156  24.316  26.196  1.00  0.00     0.131 A 
ATOM     75  C   UNL A   1      42.028  21.824  26.592  1.00  0.00     0.055 A 
ATOM     76  C   UNL A   1      43.249  23.350  25.193  1.00  0.00     0.041 A 
ATOM     77  F   UNL A   1      43.729  25.509  25.971  1.00  0.00    -0.206 F 
ATOM     78  C   UNL A   1      42.694  22.090  25.393  1.00  0.00     0.022 A 
BRANCH  75  79
ATOM     79  S   UNL A   1      41.389  20.159  26.925  1.00  0.00     0.124 S 
ATOM     80  O   UNL A   1      42.602  19.353  26.835  1.00  0.00    -0.237 OA
ATOM     81  O   UNL A   1      40.820  20.316  28.260  1.00  0.00    -0.237 OA
ATOM     82  O   UNL A   1      40.416  19.948  25.856  1.00  0.00    -0.744 OA
ENDBRANCH  75  79
ENDBRANCH  48  72
BRANCH  60  83
ATOM     83  C   UNL A   1      46.689  25.716  32.707  1.00  0.00     0.023 A 
ATOM     84  C   UNL A   1      47.947  26.002  32.149  1.00  0.00     0.031 A 
ATOM     85  C   UNL A   1      46.630  24.799  33.772  1.00  0.00     0.131 A 
ATOM     86  C   UNL A   1      49.088  25.335  32.621  1.00  0.00     0.055 A 
ATOM     87  C   UNL A   1      47.776  24.183  34.276  1.00  0.00     0.041 A 
ATOM     88  F   UNL A   1      45.454  24.487  34.340  1.00  0.00    -0.206 F 
ATOM     89  C   UNL A   1      49.012  24.440  33.691  1.00  0.00     0.022 A 
BRANCH  86  90
ATOM     90  S   UNL A   1      50.663  25.588  31.758  1.00  0.00     0.124 S 
ATOM     91  O   UNL A   1      50.219  26.010  30.433  1.00  0.00    -0.237 OA
ATOM     92  O   UNL A   1      51.305  26.615  32.572  1.00  0.00    -0.237 OA
ATOM     93  O   UNL A   1      51.297  24.272  31.809  1.00  0.00    -0.744 OA
ENDBRANCH  86  90
ENDBRANCH  60  83
ENDBRANCH  34  35
ENDBRANCH  26  29
ENDBRANCH  24  25
ENDBRANCH  23  24
ENDBRANCH   1  23
TORSDOF 20
ENDMDL
MODEL 3
REMARK VINA RESULT:     -10.3      1.440      2.346
REMARK SMILES CC(C)c1ncc(SC[C@H](O)CO)c(C(=O)NCCCNC(=O)c2ccc(-c3c4nc(c(-c5cc(S(=O)(=O)[O-])ccc5F)c5ccc([nH]5)c(-c5cc(S(=O)(=O)[O-])ccc5F)c5nc(c(-c6cc(S(=O)(=O)[O-])ccc6F)c6ccc3[nH]6)C=C5)C=C4)cc2)n1
REMARK SMILES IDX 18 1 17 2 15 3 16 4 14 6 4 7 5 8 87 9 6 10 7 11 2 12 1 13
REMARK SMILES IDX 3 14 8 15 9 16 10 17 12 18 13 19 11 21 19 23 20 24 21 25
REMARK SMILES IDX 22 26 23 28 24 29 25 30 86 31 26 32 85 33 27 34 28 35 29 36
REMARK SMILES IDX 79 37 30 38 84 39 78 40 80 41 31 42 83 43 77 44 76 45 32 47
REMARK SMILES IDX 64 48 44 49 63 50 45 51 48 52 62 53 81 54 46 55 47 56 61 58
REMARK SMILES IDX 82 59 49 60 33 61 34 62 42 63 35 64 41 65 43 66 40 67 36 68
REMARK SMILES IDX 37 69 38 70 39 71 65 72 66 73 74 74 67 75 73 76 75 77 72 78
REMARK SMILES IDX 68 79 69 80 70 81 71 82 50 83 51 84 59 85 52 86 58 87 60 88
REMARK SMILES IDX 57 89 53 90 54 91 55 92 56 93
REMARK H PARENT 17 5 13 20 11 22 21 27 80 46 48 57
REMARK Flexibility Score: inf
ROOT
ATOM      1  C   UNL A   1      33.675  27.055  24.846  1.00  0.00     0.118 C 
ENDROOT
BRANCH   1   2
ATOM      2  N   UNL A   1      33.569  26.898  23.414  1.00  0.00    -0.351 N 
ATOM      3  C   UNL A   1      33.681  25.837  22.554  1.00  0.00     0.271 C 
ATOM      4  O   UNL A   1      33.620  26.138  21.356  1.00  0.00    -0.267 OA
ATOM      5  H   UNL A   1      33.371  27.745  22.952  1.00  0.00     0.163 HD
BRANCH   3   6
ATOM      6  C   UNL A   1      33.762  24.370  22.911  1.00  0.00     0.145 A 
ATOM      7  C   UNL A   1      35.378  22.849  23.653  1.00  0.00     0.131 A 
ATOM      8  N   UNL A   1      34.453  21.945  23.986  1.00  0.00    -0.240 NA
ATOM      9  N   UNL A   1      35.077  24.029  23.098  1.00  0.00    -0.226 NA
ATOM     10  C   UNL A   1      33.172  22.298  23.778  1.00  0.00     0.130 A 
ATOM     11  C   UNL A   1      32.730  23.489  23.214  1.00  0.00     0.057 A 
BRANCH   7  12
ATOM     12  C   UNL A   1      36.818  22.608  24.061  1.00  0.00     0.051 C 
ATOM     13  C   UNL A   1      37.313  23.605  25.115  1.00  0.00     0.016 C 
ATOM     14  C   UNL A   1      37.022  21.177  24.556  1.00  0.00     0.016 C 
ENDBRANCH   7  12
BRANCH  11  15
ATOM     15  S   UNL A   1      30.982  23.711  23.274  1.00  0.00    -0.119 SA
BRANCH  15  16
ATOM     16  C   UNL A   1      30.607  24.739  24.768  1.00  0.00     0.109 C 
BRANCH  16  17
ATOM     17  C   UNL A   1      30.435  24.262  26.221  1.00  0.00     0.150 C 
BRANCH  17  18
ATOM     18  C   UNL A   1      30.372  22.762  26.505  1.00  0.00     0.188 C 
BRANCH  18  19
ATOM     19  O   UNL A   1      30.984  22.499  27.773  1.00  0.00    -0.394 OA
ATOM     20  H   UNL A   1      30.295  22.414  28.452  1.00  0.00     0.210 HD
ENDBRANCH  18  19
ENDBRANCH  17  18
BRANCH  17  21
ATOM     21  O   UNL A   1      31.403  24.845  27.105  1.00  0.00    -0.390 OA
ATOM     22  H   UNL A   1      31.201  24.592  28.019  1.00  0.00     0.211 HD
ENDBRANCH  17  21
ENDBRANCH  16  17
ENDBRANCH  15  16
ENDBRANCH  11  15
ENDBRANCH   3   6
ENDBRANCH   1   2
BRANCH   1  23
ATOM     23  C   UNL A   1      33.567  28.534  25.223  1.00  0.00     0.042 C 
BRANCH  23  24
ATOM     24  C   UNL A   1      33.585  28.786  26.726  1.00  0.00     0.118 C 
BRANCH  24  25
ATOM     25  N   UNL A   1      33.585  30.209  27.025  1.00  0.00    -0.352 N 
ATOM     26  C   UNL A   1      34.416  30.950  27.833  1.00  0.00     0.251 C 
ATOM     27  H   UNL A   1      32.877  30.726  26.578  1.00  0.00     0.163 HD
ATOM     28  O   UNL A   1      34.050  32.072  28.177  1.00  0.00    -0.269 OA
BRANCH  26  29
ATOM     29  C   UNL A   1      35.721  30.419  28.307  1.00  0.00     0.039 A 
ATOM     30  C   UNL A   1      36.866  30.658  27.536  1.00  0.00     0.014 A 
ATOM     31  C   UNL A   1      35.825  29.629  29.453  1.00  0.00     0.014 A 
ATOM     32  C   UNL A   1      38.107  30.152  27.941  1.00  0.00     0.010 A 
ATOM     33  C   UNL A   1      37.075  29.201  29.903  1.00  0.00     0.010 A 
ATOM     34  C   UNL A   1      38.229  29.442  29.145  1.00  0.00    -0.014 A 
BRANCH  34  35
ATOM     35  C   UNL A   1      39.542  28.914  29.610  1.00  0.00     0.031 A 
ATOM     36  C   UNL A   1      40.282  29.604  30.727  1.00  0.00     0.074 A 
ATOM     37  C   UNL A   1      40.100  27.855  28.989  1.00  0.00     0.049 A 
ATOM     38  N   UNL A   1      41.478  29.366  31.204  1.00  0.00    -0.248 NA
ATOM     39  C   UNL A   1      39.597  30.736  31.370  1.00  0.00     0.031 C 
ATOM     40  C   UNL A   1      39.504  27.121  27.871  1.00  0.00     0.029 A 
ATOM     41  N   UNL A   1      41.299  27.218  29.199  1.00  0.00    -0.354 N 
ATOM     42  C   UNL A   1      41.698  30.331  32.183  1.00  0.00     0.074 A 
ATOM     43  C   UNL A   1      40.533  31.191  32.187  1.00  0.00     0.031 C 
ATOM     44  C   UNL A   1      40.327  26.124  27.509  1.00  0.00     0.029 A 
ATOM     45  C   UNL A   1      41.531  26.174  28.333  1.00  0.00     0.049 A 
ATOM     46  H   UNL A   1      41.932  27.484  29.903  1.00  0.00     0.167 HD
ATOM     47  C   UNL A   1      42.759  30.474  33.017  1.00  0.00     0.034 A 
ATOM     48  C   UNL A   1      42.597  25.359  28.206  1.00  0.00     0.034 A 
ATOM     49  C   UNL A   1      43.902  29.593  33.018  1.00  0.00     0.049 A 
ATOM     50  C   UNL A   1      43.769  25.540  29.136  1.00  0.00     0.074 A 
ATOM     51  C   UNL A   1      45.004  29.609  33.856  1.00  0.00     0.029 A 
ATOM     52  N   UNL A   1      44.094  28.538  32.134  1.00  0.00    -0.354 N 
ATOM     53  N   UNL A   1      43.941  26.432  30.085  1.00  0.00    -0.248 NA
ATOM     54  C   UNL A   1      44.885  24.596  28.987  1.00  0.00     0.031 C 
ATOM     55  C   UNL A   1      45.888  28.607  33.441  1.00  0.00     0.029 A 
ATOM     56  C   UNL A   1      45.306  27.915  32.390  1.00  0.00     0.049 A 
ATOM     57  H   UNL A   1      43.461  28.271  31.430  1.00  0.00     0.167 HD
ATOM     58  C   UNL A   1      45.172  26.138  30.663  1.00  0.00     0.074 A 
ATOM     59  C   UNL A   1      45.691  24.977  29.967  1.00  0.00     0.031 C 
ATOM     60  C   UNL A   1      45.816  26.765  31.681  1.00  0.00     0.034 A 
BRANCH  47  61
ATOM     61  C   UNL A   1      42.738  31.643  33.976  1.00  0.00     0.023 A 
ATOM     62  C   UNL A   1      42.227  31.519  35.280  1.00  0.00     0.031 A 
ATOM     63  C   UNL A   1      43.208  32.905  33.573  1.00  0.00     0.131 A 
ATOM     64  C   UNL A   1      42.119  32.651  36.102  1.00  0.00     0.055 A 
ATOM     65  C   UNL A   1      43.177  34.010  34.427  1.00  0.00     0.041 A 
ATOM     66  F   UNL A   1      43.691  33.092  32.335  1.00  0.00    -0.206 F 
ATOM     67  C   UNL A   1      42.615  33.892  35.694  1.00  0.00     0.022 A 
BRANCH  64  68
ATOM     68  S   UNL A   1      41.186  32.510  37.650  1.00  0.00     0.124 S 
ATOM     69  O   UNL A   1      42.061  31.650  38.444  1.00  0.00    -0.237 OA
ATOM     70  O   UNL A   1      41.087  33.897  38.087  1.00  0.00    -0.237 OA
ATOM     71  O   UNL A   1      39.927  31.894  37.238  1.00  0.00    -0.744 OA
ENDBRANCH  64  68
ENDBRANCH  47  61
BRANCH  48  72
ATOM     72  C   UNL A   1      42.618  24.303  27.153  1.00  0.00     0.023 A 
ATOM     73  C   UNL A   1      41.949  23.083  27.340  1.00  0.00     0.031 A 
ATOM     74  C   UNL A   1      43.337  24.485  25.958  1.00  0.00     0.131 A 
ATOM     75  C   UNL A   1      42.050  22.074  26.368  1.00  0.00     0.055 A 
ATOM     76  C   UNL A   1      43.390  23.499  24.972  1.00  0.00     0.041 A 
ATOM     77  F   UNL A   1      43.986  25.637  25.726  1.00  0.00    -0.206 F 
ATOM     78  C   UNL A   1      42.754  22.279  25.180  1.00  0.00     0.022 A 
BRANCH  75  79
ATOM     79  S   UNL A   1      41.303  20.458  26.715  1.00  0.00     0.124 S 
ATOM     80  O   UNL A   1      41.986  20.073  27.945  1.00  0.00    -0.237 OA
ATOM     81  O   UNL A   1      39.890  20.798  26.844  1.00  0.00    -0.237 OA
ATOM     82  O   UNL A   1      41.646  19.666  25.535  1.00  0.00    -0.744 OA
ENDBRANCH  75  79
ENDBRANCH  48  72
BRANCH  60  83
ATOM     83  C   UNL A   1      47.130  26.175  32.126  1.00  0.00     0.023 A 
ATOM     84  C   UNL A   1      47.202  25.210  33.145  1.00  0.00     0.031 A 
ATOM     85  C   UNL A   1      48.332  26.598  31.529  1.00  0.00     0.131 A 
ATOM     86  C   UNL A   1      48.452  24.739  33.574  1.00  0.00     0.055 A 
ATOM     87  C   UNL A   1      49.568  26.082  31.919  1.00  0.00     0.041 A 
ATOM     88  F   UNL A   1      48.322  27.520  30.553  1.00  0.00    -0.206 F 
ATOM     89  C   UNL A   1      49.633  25.156  32.957  1.00  0.00     0.022 A 
BRANCH  86  90
ATOM     90  S   UNL A   1      48.520  23.635  35.013  1.00  0.00     0.124 S 
ATOM     91  O   UNL A   1      48.946  24.545  36.072  1.00  0.00    -0.237 OA
ATOM     92  O   UNL A   1      47.146  23.152  35.102  1.00  0.00    -0.237 OA
ATOM     93  O   UNL A   1      49.507  22.629  34.626  1.00  0.00    -0.744 OA
ENDBRANCH  86  90
ENDBRANCH  60  83
ENDBRANCH  34  35
ENDBRANCH  26  29
ENDBRANCH  24  25
ENDBRANCH  23  24
ENDBRANCH   1  23
TORSDOF 20
ENDMDL
