MODEL 1
REMARK VINA RESULT:     -10.1      0.000      0.000
REMARK SMILES C=CC[C@H](CNC(=O)OC(C)(C)C)C(=O)NCCCNC(=O)c1ccc(-c2c3nc(c(-c4cc(S(=O)(=O)[O-])ccc4F)c4ccc([nH]4)c(-c4cc(S(=O)(=O)[O-])ccc4F)c4nc(c(-c5cc(S(=O)(=O)[O-])ccc5F)c5ccc2[nH]5)C=C4)C=C3)cc1
REMARK SMILES IDX 17 1 16 2 14 3 15 4 4 6 3 7 2 8 1 9 5 10 6 11 7 12 8 14 9 15
REMARK SMILES IDX 10 16 11 17 12 18 13 19 18 20 19 21 20 22 21 23 22 25 23 26
REMARK SMILES IDX 24 27 85 28 25 29 84 30 26 31 27 32 28 33 78 34 29 35 83 36
REMARK SMILES IDX 77 37 79 38 30 39 82 40 76 41 75 42 31 44 63 45 43 46 62 47
REMARK SMILES IDX 44 48 47 49 61 50 80 51 45 52 46 53 60 55 81 56 48 57 32 58
REMARK SMILES IDX 33 59 41 60 34 61 40 62 42 63 39 64 35 65 36 66 37 67 38 68
REMARK SMILES IDX 64 69 65 70 73 71 66 72 72 73 74 74 71 75 67 76 68 77 69 78
REMARK SMILES IDX 70 79 49 80 50 81 58 82 51 83 57 84 59 85 56 86 52 87 53 88
REMARK SMILES IDX 54 89 55 90
REMARK H PARENT 16 5 6 13 20 24 79 43 47 54
REMARK Flexibility Score: inf
ROOT
ATOM      1  C   UNL A   1      32.827  26.983  26.631  1.00  0.00     0.117 C 
ENDROOT
BRANCH   1   2
ATOM      2  N   UNL A   1      31.599  26.233  26.835  1.00  0.00    -0.356 N 
ATOM      3  C   UNL A   1      30.678  25.768  25.951  1.00  0.00     0.225 C 
ATOM      4  O   UNL A   1      29.709  25.156  26.405  1.00  0.00    -0.275 OA
ATOM      5  H   UNL A   1      31.399  26.028  27.777  1.00  0.00     0.163 HD
BRANCH   3   6
ATOM      6  C   UNL A   1      30.833  25.969  24.453  1.00  0.00     0.101 C 
BRANCH   6   7
ATOM      7  C   UNL A   1      29.940  27.122  23.949  1.00  0.00     0.042 C 
BRANCH   7   8
ATOM      8  C   UNL A   1      30.694  28.417  23.828  1.00  0.00    -0.034 C 
ATOM      9  C   UNL A   1      30.115  29.591  23.547  1.00  0.00     0.004 C 
ENDBRANCH   7   8
ENDBRANCH   6   7
BRANCH   6  10
ATOM     10  C   UNL A   1      30.645  24.645  23.698  1.00  0.00     0.133 C 
BRANCH  10  11
ATOM     11  N   UNL A   1      31.524  24.589  22.540  1.00  0.00    -0.321 N 
ATOM     12  C   UNL A   1      32.704  23.928  22.409  1.00  0.00     0.407 C 
ATOM     13  H   UNL A   1      31.226  25.096  21.751  1.00  0.00     0.167 HD
ATOM     14  O   UNL A   1      33.391  24.101  21.409  1.00  0.00    -0.225 OA
BRANCH  12  15
ATOM     15  O   UNL A   1      32.990  23.106  23.443  1.00  0.00    -0.444 OA
BRANCH  15  16
ATOM     16  C   UNL A   1      34.082  23.432  24.344  1.00  0.00     0.106 C 
ATOM     17  C   UNL A   1      35.298  22.517  24.139  1.00  0.00     0.056 C 
ATOM     18  C   UNL A   1      34.452  24.915  24.214  1.00  0.00     0.056 C 
ATOM     19  C   UNL A   1      33.536  23.185  25.759  1.00  0.00     0.056 C 
ENDBRANCH  15  16
ENDBRANCH  12  15
ENDBRANCH  10  11
ENDBRANCH   6  10
ENDBRANCH   3   6
ENDBRANCH   1   2
BRANCH   1  20
ATOM     20  C   UNL A   1      32.668  28.444  27.014  1.00  0.00     0.042 C 
BRANCH  20  21
ATOM     21  C   UNL A   1      33.694  29.355  26.357  1.00  0.00     0.118 C 
BRANCH  21  22
ATOM     22  N   UNL A   1      33.593  30.730  26.825  1.00  0.00    -0.352 N 
ATOM     23  C   UNL A   1      34.337  31.398  27.765  1.00  0.00     0.251 C 
ATOM     24  H   UNL A   1      32.882  31.261  26.402  1.00  0.00     0.163 HD
ATOM     25  O   UNL A   1      33.929  32.477  28.188  1.00  0.00    -0.269 OA
BRANCH  23  26
ATOM     26  C   UNL A   1      35.601  30.821  28.270  1.00  0.00     0.039 A 
ATOM     27  C   UNL A   1      35.548  29.860  29.281  1.00  0.00     0.014 A 
ATOM     28  C   UNL A   1      36.837  31.248  27.777  1.00  0.00     0.014 A 
ATOM     29  C   UNL A   1      36.733  29.305  29.769  1.00  0.00     0.010 A 
ATOM     30  C   UNL A   1      38.005  30.616  28.185  1.00  0.00     0.010 A 
ATOM     31  C   UNL A   1      37.971  29.661  29.208  1.00  0.00    -0.014 A 
BRANCH  31  32
ATOM     32  C   UNL A   1      39.240  29.089  29.729  1.00  0.00     0.031 A 
ATOM     33  C   UNL A   1      39.886  29.690  30.951  1.00  0.00     0.074 A 
ATOM     34  C   UNL A   1      39.821  28.054  29.092  1.00  0.00     0.049 A 
ATOM     35  N   UNL A   1      41.002  29.357  31.546  1.00  0.00    -0.248 NA
ATOM     36  C   UNL A   1      39.202  30.838  31.567  1.00  0.00     0.031 C 
ATOM     37  C   UNL A   1      39.309  27.416  27.876  1.00  0.00     0.029 A 
ATOM     38  N   UNL A   1      40.964  27.352  29.377  1.00  0.00    -0.354 N 
ATOM     39  C   UNL A   1      41.157  30.259  32.595  1.00  0.00     0.074 A 
ATOM     40  C   UNL A   1      40.063  31.200  32.503  1.00  0.00     0.031 C 
ATOM     41  C   UNL A   1      40.110  26.391  27.547  1.00  0.00     0.029 A 
ATOM     42  C   UNL A   1      41.220  26.328  28.494  1.00  0.00     0.049 A 
ATOM     43  H   UNL A   1      41.547  27.561  30.142  1.00  0.00     0.167 HD
ATOM     44  C   UNL A   1      42.102  30.279  33.566  1.00  0.00     0.034 A 
ATOM     45  C   UNL A   1      42.236  25.444  28.450  1.00  0.00     0.034 A 
ATOM     46  C   UNL A   1      43.180  29.324  33.648  1.00  0.00     0.049 A 
ATOM     47  C   UNL A   1      43.295  25.504  29.524  1.00  0.00     0.074 A 
ATOM     48  C   UNL A   1      44.172  29.222  34.607  1.00  0.00     0.029 A 
ATOM     49  N   UNL A   1      43.412  28.306  32.730  1.00  0.00    -0.354 N 
ATOM     50  N   UNL A   1      43.399  26.333  30.538  1.00  0.00    -0.248 NA
ATOM     51  C   UNL A   1      44.360  24.497  29.458  1.00  0.00     0.031 C 
ATOM     52  C   UNL A   1      45.046  28.200  34.229  1.00  0.00     0.029 A 
ATOM     53  C   UNL A   1      44.548  27.595  33.085  1.00  0.00     0.049 A 
ATOM     54  H   UNL A   1      42.852  28.118  31.942  1.00  0.00     0.167 HD
ATOM     55  C   UNL A   1      44.520  25.917  31.253  1.00  0.00     0.074 A 
ATOM     56  C   UNL A   1      45.044  24.759  30.561  1.00  0.00     0.031 C 
ATOM     57  C   UNL A   1      45.062  26.441  32.384  1.00  0.00     0.034 A 
BRANCH  44  58
ATOM     58  C   UNL A   1      42.022  31.385  34.594  1.00  0.00     0.023 A 
ATOM     59  C   UNL A   1      41.029  31.400  35.590  1.00  0.00     0.031 A 
ATOM     60  C   UNL A   1      42.931  32.457  34.561  1.00  0.00     0.131 A 
ATOM     61  C   UNL A   1      40.916  32.500  36.453  1.00  0.00     0.055 A 
ATOM     62  C   UNL A   1      42.871  33.504  35.483  1.00  0.00     0.041 A 
ATOM     63  F   UNL A   1      43.888  32.515  33.620  1.00  0.00    -0.206 F 
ATOM     64  C   UNL A   1      41.848  33.539  36.426  1.00  0.00     0.022 A 
BRANCH  61  65
ATOM     65  S   UNL A   1      39.440  32.631  37.500  1.00  0.00     0.124 S 
ATOM     66  O   UNL A   1      38.736  31.393  37.172  1.00  0.00    -0.237 OA
ATOM     67  O   UNL A   1      40.009  32.707  38.841  1.00  0.00    -0.237 OA
ATOM     68  O   UNL A   1      38.792  33.852  37.027  1.00  0.00    -0.744 OA
ENDBRANCH  61  65
ENDBRANCH  44  58
BRANCH  45  69
ATOM     69  C   UNL A   1      42.310  24.427  27.361  1.00  0.00     0.023 A 
ATOM     70  C   UNL A   1      41.524  23.265  27.398  1.00  0.00     0.031 A 
ATOM     71  C   UNL A   1      43.209  24.578  26.289  1.00  0.00     0.131 A 
ATOM     72  C   UNL A   1      41.690  22.274  26.418  1.00  0.00     0.055 A 
ATOM     73  C   UNL A   1      43.326  23.619  25.282  1.00  0.00     0.041 A 
ATOM     74  F   UNL A   1      43.983  25.671  26.201  1.00  0.00    -0.206 F 
ATOM     75  C   UNL A   1      42.576  22.450  25.352  1.00  0.00     0.022 A 
BRANCH  72  76
ATOM     76  S   UNL A   1      40.810  20.699  26.614  1.00  0.00     0.124 S 
ATOM     77  O   UNL A   1      40.834  20.526  28.061  1.00  0.00    -0.237 OA
ATOM     78  O   UNL A   1      39.510  21.006  26.025  1.00  0.00    -0.237 OA
ATOM     79  O   UNL A   1      41.629  19.756  25.857  1.00  0.00    -0.744 OA
ENDBRANCH  72  76
ENDBRANCH  45  69
BRANCH  57  80
ATOM     80  C   UNL A   1      46.249  25.718  32.976  1.00  0.00     0.023 A 
ATOM     81  C   UNL A   1      47.571  26.013  32.595  1.00  0.00     0.031 A 
ATOM     82  C   UNL A   1      46.049  24.702  33.928  1.00  0.00     0.131 A 
ATOM     83  C   UNL A   1      48.631  25.252  33.108  1.00  0.00     0.055 A 
ATOM     84  C   UNL A   1      47.115  23.999  34.491  1.00  0.00     0.041 A 
ATOM     85  F   UNL A   1      44.811  24.373  34.328  1.00  0.00    -0.206 F 
ATOM     86  C   UNL A   1      48.414  24.260  34.068  1.00  0.00     0.022 A 
BRANCH  83  87
ATOM     87  S   UNL A   1      50.288  25.487  32.407  1.00  0.00     0.124 S 
ATOM     88  O   UNL A   1      51.134  24.844  33.407  1.00  0.00    -0.237 OA
ATOM     89  O   UNL A   1      50.183  24.800  31.124  1.00  0.00    -0.237 OA
ATOM     90  O   UNL A   1      50.421  26.941  32.323  1.00  0.00    -0.744 OA
ENDBRANCH  83  87
ENDBRANCH  57  80
ENDBRANCH  31  32
ENDBRANCH  23  26
ENDBRANCH  21  22
ENDBRANCH  20  21
ENDBRANCH   1  20
TORSDOF 19
ENDMDL
MODEL 2
REMARK VINA RESULT:     -10.0      2.414      3.113
REMARK SMILES C=CC[C@H](CNC(=O)OC(C)(C)C)C(=O)NCCCNC(=O)c1ccc(-c2c3nc(c(-c4cc(S(=O)(=O)[O-])ccc4F)c4ccc([nH]4)c(-c4cc(S(=O)(=O)[O-])ccc4F)c4nc(c(-c5cc(S(=O)(=O)[O-])ccc5F)c5ccc2[nH]5)C=C4)C=C3)cc1
REMARK SMILES IDX 17 1 16 2 14 3 15 4 4 6 3 7 2 8 1 9 5 10 6 11 7 12 8 14 9 15
REMARK SMILES IDX 10 16 11 17 12 18 13 19 18 20 19 21 20 22 21 23 22 25 23 26
REMARK SMILES IDX 24 27 85 28 25 29 84 30 26 31 27 32 28 33 78 34 29 35 83 36
REMARK SMILES IDX 77 37 79 38 30 39 82 40 76 41 75 42 31 44 63 45 43 46 62 47
REMARK SMILES IDX 44 48 47 49 61 50 80 51 45 52 46 53 60 55 81 56 48 57 32 58
REMARK SMILES IDX 33 59 41 60 34 61 40 62 42 63 39 64 35 65 36 66 37 67 38 68
REMARK SMILES IDX 64 69 65 70 73 71 66 72 72 73 74 74 71 75 67 76 68 77 69 78
REMARK SMILES IDX 70 79 49 80 50 81 58 82 51 83 57 84 59 85 56 86 52 87 53 88
REMARK SMILES IDX 54 89 55 90
REMARK H PARENT 16 5 6 13 20 24 79 43 47 54
REMARK Flexibility Score: inf
ROOT
ATOM      1  C   UNL A   1      32.283  27.397  26.427  1.00  0.00     0.117 C 
ENDROOT
BRANCH   1   2
ATOM      2  N   UNL A   1      31.229  26.449  26.748  1.00  0.00    -0.356 N 
ATOM      3  C   UNL A   1      30.318  25.824  25.958  1.00  0.00     0.225 C 
ATOM      4  O   UNL A   1      29.518  25.059  26.503  1.00  0.00    -0.275 OA
ATOM      5  H   UNL A   1      31.163  26.222  27.704  1.00  0.00     0.163 HD
BRANCH   3   6
ATOM      6  C   UNL A   1      30.284  26.034  24.454  1.00  0.00     0.101 C 
BRANCH   6   7
ATOM      7  C   UNL A   1      28.974  26.722  24.015  1.00  0.00     0.042 C 
BRANCH   7   8
ATOM      8  C   UNL A   1      29.221  27.880  23.088  1.00  0.00    -0.034 C 
ATOM      9  C   UNL A   1      30.407  28.489  22.959  1.00  0.00     0.004 C 
ENDBRANCH   7   8
ENDBRANCH   6   7
BRANCH   6  10
ATOM     10  C   UNL A   1      30.594  24.727  23.709  1.00  0.00     0.133 C 
BRANCH  10  11
ATOM     11  N   UNL A   1      31.626  24.943  22.707  1.00  0.00    -0.321 N 
ATOM     12  C   UNL A   1      32.958  25.132  22.897  1.00  0.00     0.407 C 
ATOM     13  H   UNL A   1      31.320  24.954  21.772  1.00  0.00     0.167 HD
ATOM     14  O   UNL A   1      33.670  25.442  21.950  1.00  0.00    -0.225 OA
BRANCH  12  15
ATOM     15  O   UNL A   1      33.363  24.935  24.172  1.00  0.00    -0.444 OA
BRANCH  15  16
ATOM     16  C   UNL A   1      34.049  23.705  24.530  1.00  0.00     0.106 C 
ATOM     17  C   UNL A   1      33.385  22.994  25.718  1.00  0.00     0.056 C 
ATOM     18  C   UNL A   1      34.167  22.788  23.306  1.00  0.00     0.056 C 
ATOM     19  C   UNL A   1      35.461  24.132  24.962  1.00  0.00     0.056 C 
ENDBRANCH  15  16
ENDBRANCH  12  15
ENDBRANCH  10  11
ENDBRANCH   6  10
ENDBRANCH   3   6
ENDBRANCH   1   2
BRANCH   1  20
ATOM     20  C   UNL A   1      31.751  28.814  26.301  1.00  0.00     0.042 C 
BRANCH  20  21
ATOM     21  C   UNL A   1      32.772  29.794  25.743  1.00  0.00     0.118 C 
BRANCH  21  22
ATOM     22  N   UNL A   1      32.485  31.169  26.126  1.00  0.00    -0.352 N 
ATOM     23  C   UNL A   1      33.026  31.937  27.125  1.00  0.00     0.251 C 
ATOM     24  H   UNL A   1      31.797  31.615  25.583  1.00  0.00     0.163 HD
ATOM     25  O   UNL A   1      32.469  32.987  27.436  1.00  0.00    -0.269 OA
BRANCH  23  26
ATOM     26  C   UNL A   1      34.252  31.500  27.828  1.00  0.00     0.039 A 
ATOM     27  C   UNL A   1      35.296  32.411  27.994  1.00  0.00     0.014 A 
ATOM     28  C   UNL A   1      34.390  30.188  28.290  1.00  0.00     0.014 A 
ATOM     29  C   UNL A   1      36.460  32.014  28.655  1.00  0.00     0.010 A 
ATOM     30  C   UNL A   1      35.500  29.828  29.042  1.00  0.00     0.010 A 
ATOM     31  C   UNL A   1      36.563  30.726  29.206  1.00  0.00    -0.014 A 
BRANCH  31  32
ATOM     32  C   UNL A   1      37.802  30.285  29.898  1.00  0.00     0.031 A 
ATOM     33  C   UNL A   1      38.077  30.745  31.307  1.00  0.00     0.074 A 
ATOM     34  C   UNL A   1      38.687  29.500  29.254  1.00  0.00     0.049 A 
ATOM     35  N   UNL A   1      39.107  30.495  32.074  1.00  0.00    -0.248 NA
ATOM     36  C   UNL A   1      37.074  31.627  31.925  1.00  0.00     0.031 C 
ATOM     37  C   UNL A   1      38.548  29.026  27.875  1.00  0.00     0.029 A 
ATOM     38  N   UNL A   1      39.874  28.956  29.672  1.00  0.00    -0.354 N 
ATOM     39  C   UNL A   1      38.880  31.196  33.255  1.00  0.00     0.074 A 
ATOM     40  C   UNL A   1      37.656  31.943  33.070  1.00  0.00     0.031 C 
ATOM     41  C   UNL A   1      39.586  28.228  27.578  1.00  0.00     0.029 A 
ATOM     42  C   UNL A   1      40.490  28.174  28.723  1.00  0.00     0.049 A 
ATOM     43  H   UNL A   1      40.252  29.111  30.568  1.00  0.00     0.167 HD
ATOM     44  C   UNL A   1      39.606  31.191  34.400  1.00  0.00     0.034 A 
ATOM     45  C   UNL A   1      41.653  27.494  28.768  1.00  0.00     0.034 A 
ATOM     46  C   UNL A   1      40.819  30.429  34.569  1.00  0.00     0.049 A 
ATOM     47  C   UNL A   1      42.461  27.526  30.042  1.00  0.00     0.074 A 
ATOM     48  C   UNL A   1      41.616  30.315  35.694  1.00  0.00     0.029 A 
ATOM     49  N   UNL A   1      41.417  29.654  33.581  1.00  0.00    -0.354 N 
ATOM     50  N   UNL A   1      42.207  28.155  31.167  1.00  0.00    -0.248 NA
ATOM     51  C   UNL A   1      43.700  26.740  30.059  1.00  0.00     0.031 C 
ATOM     52  C   UNL A   1      42.732  29.541  35.365  1.00  0.00     0.029 A 
ATOM     53  C   UNL A   1      42.587  29.088  34.063  1.00  0.00     0.049 A 
ATOM     54  H   UNL A   1      41.062  29.528  32.671  1.00  0.00     0.167 HD
ATOM     55  C   UNL A   1      43.236  27.804  32.038  1.00  0.00     0.074 A 
ATOM     56  C   UNL A   1      44.101  26.899  31.310  1.00  0.00     0.031 C 
ATOM     57  C   UNL A   1      43.443  28.188  33.325  1.00  0.00     0.034 A 
BRANCH  44  58
ATOM     58  C   UNL A   1      39.116  32.054  35.540  1.00  0.00     0.023 A 
ATOM     59  C   UNL A   1      39.527  33.391  35.686  1.00  0.00     0.031 A 
ATOM     60  C   UNL A   1      38.250  31.525  36.513  1.00  0.00     0.131 A 
ATOM     61  C   UNL A   1      39.143  34.124  36.819  1.00  0.00     0.055 A 
ATOM     62  C   UNL A   1      37.795  32.290  37.590  1.00  0.00     0.041 A 
ATOM     63  F   UNL A   1      37.840  30.248  36.444  1.00  0.00    -0.206 F 
ATOM     64  C   UNL A   1      38.256  33.592  37.757  1.00  0.00     0.022 A 
BRANCH  61  65
ATOM     65  S   UNL A   1      39.947  35.719  37.132  1.00  0.00     0.124 S 
ATOM     66  O   UNL A   1      39.649  36.446  35.899  1.00  0.00    -0.237 OA
ATOM     67  O   UNL A   1      39.263  36.189  38.331  1.00  0.00    -0.237 OA
ATOM     68  O   UNL A   1      41.353  35.366  37.313  1.00  0.00    -0.744 OA
ENDBRANCH  61  65
ENDBRANCH  44  58
BRANCH  45  69
ATOM     69  C   UNL A   1      42.130  26.727  27.580  1.00  0.00     0.023 A 
ATOM     70  C   UNL A   1      41.906  25.345  27.471  1.00  0.00     0.031 A 
ATOM     71  C   UNL A   1      42.865  27.357  26.559  1.00  0.00     0.131 A 
ATOM     72  C   UNL A   1      42.458  24.629  26.397  1.00  0.00     0.055 A 
ATOM     73  C   UNL A   1      43.358  26.650  25.461  1.00  0.00     0.041 A 
ATOM     74  F   UNL A   1      43.106  28.676  26.610  1.00  0.00    -0.206 F 
ATOM     75  C   UNL A   1      43.170  25.274  25.384  1.00  0.00     0.022 A 
BRANCH  72  76
ATOM     76  S   UNL A   1      42.325  22.819  26.400  1.00  0.00     0.124 S 
ATOM     77  O   UNL A   1      42.582  22.502  25.000  1.00  0.00    -0.237 OA
ATOM     78  O   UNL A   1      43.371  22.442  27.346  1.00  0.00    -0.237 OA
ATOM     79  O   UNL A   1      40.958  22.580  26.855  1.00  0.00    -0.744 OA
ENDBRANCH  72  76
ENDBRANCH  45  69
BRANCH  57  80
ATOM     80  C   UNL A   1      44.620  27.574  34.046  1.00  0.00     0.023 A 
ATOM     81  C   UNL A   1      44.532  26.330  34.697  1.00  0.00     0.031 A 
ATOM     82  C   UNL A   1      45.849  28.258  34.095  1.00  0.00     0.131 A 
ATOM     83  C   UNL A   1      45.627  25.846  35.428  1.00  0.00     0.055 A 
ATOM     84  C   UNL A   1      46.958  27.734  34.760  1.00  0.00     0.041 A 
ATOM     85  F   UNL A   1      45.992  29.450  33.495  1.00  0.00    -0.206 F 
ATOM     86  C   UNL A   1      46.845  26.530  35.447  1.00  0.00     0.022 A 
BRANCH  83  87
ATOM     87  S   UNL A   1      45.399  24.373  36.461  1.00  0.00     0.124 S 
ATOM     88  O   UNL A   1      46.635  23.637  36.216  1.00  0.00    -0.237 OA
ATOM     89  O   UNL A   1      45.252  24.947  37.794  1.00  0.00    -0.237 OA
ATOM     90  O   UNL A   1      44.191  23.755  35.915  1.00  0.00    -0.744 OA
ENDBRANCH  83  87
ENDBRANCH  57  80
ENDBRANCH  31  32
ENDBRANCH  23  26
ENDBRANCH  21  22
ENDBRANCH  20  21
ENDBRANCH   1  20
TORSDOF 19
ENDMDL
MODEL 3
REMARK VINA RESULT:      -9.9      1.457      1.910
REMARK SMILES C=CC[C@H](CNC(=O)OC(C)(C)C)C(=O)NCCCNC(=O)c1ccc(-c2c3nc(c(-c4cc(S(=O)(=O)[O-])ccc4F)c4ccc([nH]4)c(-c4cc(S(=O)(=O)[O-])ccc4F)c4nc(c(-c5cc(S(=O)(=O)[O-])ccc5F)c5ccc2[nH]5)C=C4)C=C3)cc1
REMARK SMILES IDX 17 1 16 2 14 3 15 4 4 6 3 7 2 8 1 9 5 10 6 11 7 12 8 14 9 15
REMARK SMILES IDX 10 16 11 17 12 18 13 19 18 20 19 21 20 22 21 23 22 25 23 26
REMARK SMILES IDX 24 27 85 28 25 29 84 30 26 31 27 32 28 33 78 34 29 35 83 36
REMARK SMILES IDX 77 37 79 38 30 39 82 40 76 41 75 42 31 44 63 45 43 46 62 47
REMARK SMILES IDX 44 48 47 49 61 50 80 51 45 52 46 53 60 55 81 56 48 57 32 58
REMARK SMILES IDX 33 59 41 60 34 61 40 62 42 63 39 64 35 65 36 66 37 67 38 68
REMARK SMILES IDX 64 69 65 70 73 71 66 72 72 73 74 74 71 75 67 76 68 77 69 78
REMARK SMILES IDX 70 79 49 80 50 81 58 82 51 83 57 84 59 85 56 86 52 87 53 88
REMARK SMILES IDX 54 89 55 90
REMARK H PARENT 16 5 6 13 20 24 79 43 47 54
REMARK Flexibility Score: inf
ROOT
ATOM      1  C   UNL A   1      32.809  26.859  26.178  1.00  0.00     0.117 C 
ENDROOT
BRANCH   1   2
ATOM      2  N   UNL A   1      31.599  26.132  26.527  1.00  0.00    -0.356 N 
ATOM      3  C   UNL A   1      30.539  25.746  25.770  1.00  0.00     0.225 C 
ATOM      4  O   UNL A   1      29.628  25.135  26.333  1.00  0.00    -0.275 OA
ATOM      5  H   UNL A   1      31.537  25.876  27.475  1.00  0.00     0.163 HD
BRANCH   3   6
ATOM      6  C   UNL A   1      30.472  26.033  24.280  1.00  0.00     0.101 C 
BRANCH   6   7
ATOM      7  C   UNL A   1      29.377  27.072  23.960  1.00  0.00     0.042 C 
BRANCH   7   8
ATOM      8  C   UNL A   1      29.953  28.391  23.523  1.00  0.00    -0.034 C 
ATOM      9  C   UNL A   1      29.558  29.047  22.425  1.00  0.00     0.004 C 
ENDBRANCH   7   8
ENDBRANCH   6   7
BRANCH   6  10
ATOM     10  C   UNL A   1      30.364  24.730  23.473  1.00  0.00     0.133 C 
BRANCH  10  11
ATOM     11  N   UNL A   1      31.462  24.626  22.524  1.00  0.00    -0.321 N 
ATOM     12  C   UNL A   1      32.722  24.166  22.741  1.00  0.00     0.407 C 
ATOM     13  H   UNL A   1      31.267  24.927  21.608  1.00  0.00     0.167 HD
ATOM     14  O   UNL A   1      33.570  24.278  21.863  1.00  0.00    -0.225 OA
BRANCH  12  15
ATOM     15  O   UNL A   1      32.898  23.601  23.955  1.00  0.00    -0.444 OA
BRANCH  15  16
ATOM     16  C   UNL A   1      32.753  22.164  24.111  1.00  0.00     0.106 C 
ATOM     17  C   UNL A   1      31.830  21.796  25.283  1.00  0.00     0.056 C 
ATOM     18  C   UNL A   1      32.288  21.532  22.794  1.00  0.00     0.056 C 
ATOM     19  C   UNL A   1      34.162  21.641  24.437  1.00  0.00     0.056 C 
ENDBRANCH  15  16
ENDBRANCH  12  15
ENDBRANCH  10  11
ENDBRANCH   6  10
ENDBRANCH   3   6
ENDBRANCH   1   2
BRANCH   1  20
ATOM     20  C   UNL A   1      32.907  28.181  26.920  1.00  0.00     0.042 C 
BRANCH  20  21
ATOM     21  C   UNL A   1      33.841  29.179  26.251  1.00  0.00     0.118 C 
BRANCH  21  22
ATOM     22  N   UNL A   1      33.685  30.525  26.784  1.00  0.00    -0.352 N 
ATOM     23  C   UNL A   1      34.381  31.166  27.777  1.00  0.00     0.251 C 
ATOM     24  H   UNL A   1      32.970  31.056  26.366  1.00  0.00     0.163 HD
ATOM     25  O   UNL A   1      33.929  32.209  28.242  1.00  0.00    -0.269 OA
BRANCH  23  26
ATOM     26  C   UNL A   1      35.647  30.600  28.290  1.00  0.00     0.039 A 
ATOM     27  C   UNL A   1      36.848  30.975  27.685  1.00  0.00     0.014 A 
ATOM     28  C   UNL A   1      35.653  29.677  29.340  1.00  0.00     0.014 A 
ATOM     29  C   UNL A   1      38.052  30.450  28.157  1.00  0.00     0.010 A 
ATOM     30  C   UNL A   1      36.857  29.243  29.879  1.00  0.00     0.010 A 
ATOM     31  C   UNL A   1      38.070  29.598  29.275  1.00  0.00    -0.014 A 
BRANCH  31  32
ATOM     32  C   UNL A   1      39.344  29.021  29.778  1.00  0.00     0.031 A 
ATOM     33  C   UNL A   1      39.997  29.603  31.005  1.00  0.00     0.074 A 
ATOM     34  C   UNL A   1      39.921  27.997  29.120  1.00  0.00     0.049 A 
ATOM     35  N   UNL A   1      41.117  29.262  31.588  1.00  0.00    -0.248 NA
ATOM     36  C   UNL A   1      39.315  30.740  31.643  1.00  0.00     0.031 C 
ATOM     37  C   UNL A   1      39.403  27.377  27.899  1.00  0.00     0.029 A 
ATOM     38  N   UNL A   1      41.067  27.292  29.387  1.00  0.00    -0.354 N 
ATOM     39  C   UNL A   1      41.277  30.147  32.650  1.00  0.00     0.074 A 
ATOM     40  C   UNL A   1      40.182  31.088  32.580  1.00  0.00     0.031 C 
ATOM     41  C   UNL A   1      40.203  26.358  27.548  1.00  0.00     0.029 A 
ATOM     42  C   UNL A   1      41.319  26.282  28.487  1.00  0.00     0.049 A 
ATOM     43  H   UNL A   1      41.655  27.489  30.152  1.00  0.00     0.167 HD
ATOM     44  C   UNL A   1      42.229  30.154  33.615  1.00  0.00     0.034 A 
ATOM     45  C   UNL A   1      42.335  25.401  28.422  1.00  0.00     0.034 A 
ATOM     46  C   UNL A   1      43.308  29.198  33.674  1.00  0.00     0.049 A 
ATOM     47  C   UNL A   1      43.401  25.444  29.490  1.00  0.00     0.074 A 
ATOM     48  C   UNL A   1      44.306  29.083  34.626  1.00  0.00     0.029 A 
ATOM     49  N   UNL A   1      43.536  28.195  32.739  1.00  0.00    -0.354 N 
ATOM     50  N   UNL A   1      43.512  26.258  30.516  1.00  0.00    -0.248 NA
ATOM     51  C   UNL A   1      44.467  24.441  29.401  1.00  0.00     0.031 C 
ATOM     52  C   UNL A   1      45.179  28.068  34.225  1.00  0.00     0.029 A 
ATOM     53  C   UNL A   1      44.675  27.480  33.076  1.00  0.00     0.049 A 
ATOM     54  H   UNL A   1      42.971  28.020  31.952  1.00  0.00     0.167 HD
ATOM     55  C   UNL A   1      44.637  25.832  31.217  1.00  0.00     0.074 A 
ATOM     56  C   UNL A   1      45.158  24.685  30.504  1.00  0.00     0.031 C 
ATOM     57  C   UNL A   1      45.186  26.339  32.353  1.00  0.00     0.034 A 
BRANCH  44  58
ATOM     58  C   UNL A   1      42.154  31.243  34.661  1.00  0.00     0.023 A 
ATOM     59  C   UNL A   1      42.839  32.462  34.512  1.00  0.00     0.031 A 
ATOM     60  C   UNL A   1      41.412  31.049  35.840  1.00  0.00     0.131 A 
ATOM     61  C   UNL A   1      42.838  33.400  35.555  1.00  0.00     0.055 A 
ATOM     62  C   UNL A   1      41.339  32.027  36.835  1.00  0.00     0.041 A 
ATOM     63  F   UNL A   1      40.756  29.897  36.054  1.00  0.00    -0.206 F 
ATOM     64  C   UNL A   1      42.069  33.204  36.703  1.00  0.00     0.022 A 
BRANCH  61  65
ATOM     65  S   UNL A   1      43.984  34.803  35.458  1.00  0.00     0.124 S 
ATOM     66  O   UNL A   1      44.511  34.660  34.102  1.00  0.00    -0.237 OA
ATOM     67  O   UNL A   1      43.106  35.945  35.684  1.00  0.00    -0.237 OA
ATOM     68  O   UNL A   1      44.946  34.534  36.524  1.00  0.00    -0.744 OA
ENDBRANCH  61  65
ENDBRANCH  44  58
BRANCH  45  69
ATOM     69  C   UNL A   1      42.404  24.400  27.317  1.00  0.00     0.023 A 
ATOM     70  C   UNL A   1      41.612  23.241  27.336  1.00  0.00     0.031 A 
ATOM     71  C   UNL A   1      43.302  24.566  26.247  1.00  0.00     0.131 A 
ATOM     72  C   UNL A   1      41.774  22.266  26.339  1.00  0.00     0.055 A 
ATOM     73  C   UNL A   1      43.414  23.622  25.224  1.00  0.00     0.041 A 
ATOM     74  F   UNL A   1      44.081  25.656  26.175  1.00  0.00    -0.206 F 
ATOM     75  C   UNL A   1      42.658  22.455  25.276  1.00  0.00     0.022 A 
BRANCH  72  76
ATOM     76  S   UNL A   1      40.887  20.692  26.511  1.00  0.00     0.124 S 
ATOM     77  O   UNL A   1      39.579  21.028  25.962  1.00  0.00    -0.237 OA
ATOM     78  O   UNL A   1      41.710  19.794  25.706  1.00  0.00    -0.237 OA
ATOM     79  O   UNL A   1      40.917  20.441  27.950  1.00  0.00    -0.744 OA
ENDBRANCH  72  76
ENDBRANCH  45  69
BRANCH  57  80
ATOM     80  C   UNL A   1      46.378  25.608  32.926  1.00  0.00     0.023 A 
ATOM     81  C   UNL A   1      47.686  25.827  32.458  1.00  0.00     0.031 A 
ATOM     82  C   UNL A   1      46.195  24.661  33.950  1.00  0.00     0.131 A 
ATOM     83  C   UNL A   1      48.746  25.058  32.960  1.00  0.00     0.055 A 
ATOM     84  C   UNL A   1      47.265  23.953  34.499  1.00  0.00     0.041 A 
ATOM     85  F   UNL A   1      44.970  24.405  34.435  1.00  0.00    -0.206 F 
ATOM     86  C   UNL A   1      48.547  24.137  33.992  1.00  0.00     0.022 A 
BRANCH  83  87
ATOM     87  S   UNL A   1      50.368  25.186  32.159  1.00  0.00     0.124 S 
ATOM     88  O   UNL A   1      50.060  25.980  30.974  1.00  0.00    -0.237 OA
ATOM     89  O   UNL A   1      51.168  25.851  33.182  1.00  0.00    -0.237 OA
ATOM     90  O   UNL A   1      50.731  23.794  31.896  1.00  0.00    -0.744 OA
ENDBRANCH  83  87
ENDBRANCH  57  80
ENDBRANCH  31  32
ENDBRANCH  23  26
ENDBRANCH  21  22
ENDBRANCH  20  21
ENDBRANCH   1  20
TORSDOF 19
ENDMDL
