MODEL 1
REMARK VINA RESULT:     -12.4      0.000      0.000
REMARK SMILES CCOc1ccc(NC(=O)[C@@H]2[C@@H](C(=O)NCCCNC(=O)c3ccc(-c4c5nc(c(-c6cc(S(=O)(=O)[O-])ccc6F)c6ccc([nH]6)c(-c6cc(S(=O)(=O)[O-])ccc6F)c6nc(c(-c7cc(S(=O)(=O)[O-])ccc7F)c7ccc4[nH]7)C=C6)C=C5)cc3)[C@H]3C=C[C@@H]2C3)cc1
REMARK SMILES IDX 16 1 15 2 13 3 14 4 12 6 11 7 88 8 85 9 87 10 89 11 86 12
REMARK SMILES IDX 9 13 8 14 10 16 7 17 4 18 5 19 91 20 6 21 90 22 3 23 2 24
REMARK SMILES IDX 1 25 17 26 18 27 19 28 20 29 21 31 22 32 23 33 84 34 24 35
REMARK SMILES IDX 83 36 25 37 26 38 27 39 77 40 28 41 82 42 76 43 78 44 29 45
REMARK SMILES IDX 81 46 75 47 74 48 30 50 62 51 42 52 61 53 43 54 46 55 60 56
REMARK SMILES IDX 79 57 44 58 45 59 59 61 80 62 47 63 31 64 32 65 40 66 33 67
REMARK SMILES IDX 39 68 41 69 38 70 34 71 35 72 36 73 37 74 63 75 64 76 72 77
REMARK SMILES IDX 65 78 71 79 73 80 70 81 66 82 67 83 68 84 69 85 48 86 49 87
REMARK SMILES IDX 57 88 50 89 56 90 58 91 55 92 51 93 52 94 53 95 54 96
REMARK H PARENT 15 5 8 15 19 30 78 49 46 60
REMARK Flexibility Score: inf
ROOT
ATOM      1  C   UNL A   1      34.909  20.485  25.719  1.00  0.00     0.117 C 
ENDROOT
BRANCH   1   2
ATOM      2  N   UNL A   1      33.632  20.735  25.062  1.00  0.00    -0.356 N 
ATOM      3  C   UNL A   1      32.884  21.867  24.887  1.00  0.00     0.224 C 
ATOM      4  O   UNL A   1      31.909  21.783  24.135  1.00  0.00    -0.275 OA
ATOM      5  H   UNL A   1      33.228  19.930  24.665  1.00  0.00     0.163 HD
BRANCH   3   6
ATOM      6  C   UNL A   1      33.246  23.174  25.584  1.00  0.00     0.098 C 
ATOM      7  C   UNL A   1      32.361  24.400  25.144  1.00  0.00     0.099 C 
ATOM      8  C   UNL A   1      33.427  25.482  24.795  1.00  0.00     0.025 C 
ATOM      9  C   UNL A   1      34.672  23.667  25.194  1.00  0.00     0.025 C 
ATOM     10  C   UNL A   1      34.029  25.069  23.472  1.00  0.00    -0.027 C 
ATOM     11  C   UNL A   1      34.606  25.112  25.701  1.00  0.00     0.017 C 
ATOM     12  C   UNL A   1      34.766  23.972  23.709  1.00  0.00    -0.027 C 
BRANCH   7  13
ATOM     13  C   UNL A   1      31.423  24.874  26.246  1.00  0.00     0.228 C 
ATOM     14  N   UNL A   1      30.681  26.017  26.114  1.00  0.00    -0.326 N 
ATOM     15  H   UNL A   1      30.061  26.187  26.860  1.00  0.00     0.169 HD
ATOM     16  O   UNL A   1      31.232  24.188  27.256  1.00  0.00    -0.274 OA
BRANCH  14  17
ATOM     17  C   UNL A   1      30.648  26.991  25.104  1.00  0.00     0.041 A 
ATOM     18  C   UNL A   1      30.165  29.217  23.506  1.00  0.00     0.119 A 
ATOM     19  C   UNL A   1      29.663  27.984  23.128  1.00  0.00     0.048 A 
ATOM     20  C   UNL A   1      31.049  29.314  24.578  1.00  0.00     0.048 A 
ATOM     21  C   UNL A   1      29.943  26.863  23.909  1.00  0.00     0.030 A 
ATOM     22  C   UNL A   1      31.310  28.193  25.366  1.00  0.00     0.030 A 
BRANCH  18  23
ATOM     23  O   UNL A   1      29.580  30.342  22.999  1.00  0.00    -0.494 OA
BRANCH  23  24
ATOM     24  C   UNL A   1      28.229  30.156  22.580  1.00  0.00     0.226 C 
ATOM     25  C   UNL A   1      28.019  30.699  21.184  1.00  0.00     0.049 C 
ENDBRANCH  23  24
ENDBRANCH  18  23
ENDBRANCH  14  17
ENDBRANCH   7  13
ENDBRANCH   3   6
ENDBRANCH   1   2
BRANCH   1  26
ATOM     26  C   UNL A   1      36.041  20.065  24.769  1.00  0.00     0.042 C 
BRANCH  26  27
ATOM     27  C   UNL A   1      37.413  20.721  25.005  1.00  0.00     0.118 C 
BRANCH  27  28
ATOM     28  N   UNL A   1      38.460  19.770  25.353  1.00  0.00    -0.352 N 
ATOM     29  C   UNL A   1      39.711  19.983  25.892  1.00  0.00     0.251 C 
ATOM     30  H   UNL A   1      38.239  18.827  25.176  1.00  0.00     0.163 HD
ATOM     31  O   UNL A   1      40.468  19.021  26.036  1.00  0.00    -0.269 OA
BRANCH  29  32
ATOM     32  C   UNL A   1      40.180  21.336  26.281  1.00  0.00     0.039 A 
ATOM     33  C   UNL A   1      41.363  21.468  27.014  1.00  0.00     0.014 A 
ATOM     34  C   UNL A   1      39.427  22.477  26.014  1.00  0.00     0.014 A 
ATOM     35  C   UNL A   1      41.826  22.740  27.404  1.00  0.00     0.010 A 
ATOM     36  C   UNL A   1      39.922  23.747  26.366  1.00  0.00     0.010 A 
ATOM     37  C   UNL A   1      41.142  23.915  27.040  1.00  0.00    -0.014 A 
BRANCH  37  38
ATOM     38  C   UNL A   1      41.711  25.288  27.310  1.00  0.00     0.031 A 
ATOM     39  C   UNL A   1      40.952  26.336  28.106  1.00  0.00     0.074 A 
ATOM     40  C   UNL A   1      42.896  25.654  26.767  1.00  0.00     0.049 A 
ATOM     41  N   UNL A   1      41.275  27.584  28.362  1.00  0.00    -0.248 NA
ATOM     42  C   UNL A   1      39.641  25.948  28.640  1.00  0.00     0.031 C 
ATOM     43  C   UNL A   1      43.725  24.816  25.898  1.00  0.00     0.029 A 
ATOM     44  N   UNL A   1      43.616  26.826  26.863  1.00  0.00    -0.354 N 
ATOM     45  C   UNL A   1      40.191  28.138  29.041  1.00  0.00     0.074 A 
ATOM     46  C   UNL A   1      39.178  27.104  29.093  1.00  0.00     0.031 C 
ATOM     47  C   UNL A   1      44.861  25.465  25.605  1.00  0.00     0.029 A 
ATOM     48  C   UNL A   1      44.828  26.795  26.205  1.00  0.00     0.049 A 
ATOM     49  H   UNL A   1      43.295  27.615  27.357  1.00  0.00     0.167 HD
ATOM     50  C   UNL A   1      40.054  29.372  29.598  1.00  0.00     0.034 A 
ATOM     51  C   UNL A   1      45.809  27.717  26.088  1.00  0.00     0.034 A 
ATOM     52  C   UNL A   1      41.088  30.384  29.611  1.00  0.00     0.049 A 
ATOM     53  C   UNL A   1      45.654  29.068  26.740  1.00  0.00     0.074 A 
ATOM     54  C   UNL A   1      41.085  31.607  30.264  1.00  0.00     0.029 A 
ATOM     55  N   UNL A   1      42.302  30.300  28.945  1.00  0.00    -0.354 N 
ATOM     56  N   UNL A   1      44.654  29.535  27.449  1.00  0.00    -0.248 NA
ATOM     57  C   UNL A   1      46.768  30.016  26.581  1.00  0.00     0.031 C 
ATOM     58  C   UNL A   1      42.258  32.293  29.931  1.00  0.00     0.029 A 
ATOM     59  C   UNL A   1      43.036  31.464  29.142  1.00  0.00     0.049 A 
ATOM     60  H   UNL A   1      42.600  29.529  28.411  1.00  0.00     0.167 HD
ATOM     61  C   UNL A   1      45.040  30.813  27.852  1.00  0.00     0.074 A 
ATOM     62  C   UNL A   1      46.361  31.042  27.314  1.00  0.00     0.031 C 
ATOM     63  C   UNL A   1      44.356  31.707  28.610  1.00  0.00     0.034 A 
BRANCH  50  64
ATOM     64  C   UNL A   1      38.727  29.712  30.248  1.00  0.00     0.023 A 
ATOM     65  C   UNL A   1      37.709  30.384  29.550  1.00  0.00     0.031 A 
ATOM     66  C   UNL A   1      38.475  29.363  31.588  1.00  0.00     0.131 A 
ATOM     67  C   UNL A   1      36.542  30.781  30.218  1.00  0.00     0.055 A 
ATOM     68  C   UNL A   1      37.266  29.670  32.219  1.00  0.00     0.041 A 
ATOM     69  F   UNL A   1      39.405  28.724  32.316  1.00  0.00    -0.206 F 
ATOM     70  C   UNL A   1      36.299  30.404  31.539  1.00  0.00     0.022 A 
BRANCH  67  71
ATOM     71  S   UNL A   1      35.433  31.954  29.389  1.00  0.00     0.124 S 
ATOM     72  O   UNL A   1      34.849  31.113  28.345  1.00  0.00    -0.237 OA
ATOM     73  O   UNL A   1      34.531  32.348  30.468  1.00  0.00    -0.237 OA
ATOM     74  O   UNL A   1      36.331  32.998  28.911  1.00  0.00    -0.744 OA
ENDBRANCH  67  71
ENDBRANCH  50  64
BRANCH  51  75
ATOM     75  C   UNL A   1      47.058  27.399  25.332  1.00  0.00     0.023 A 
ATOM     76  C   UNL A   1      47.191  27.769  23.983  1.00  0.00     0.031 A 
ATOM     77  C   UNL A   1      48.110  26.680  25.925  1.00  0.00     0.131 A 
ATOM     78  C   UNL A   1      48.328  27.379  23.259  1.00  0.00     0.055 A 
ATOM     79  C   UNL A   1      49.265  26.344  25.215  1.00  0.00     0.041 A 
ATOM     80  F   UNL A   1      48.036  26.305  27.211  1.00  0.00    -0.206 F 
ATOM     81  C   UNL A   1      49.372  26.683  23.869  1.00  0.00     0.022 A 
BRANCH  78  82
ATOM     82  S   UNL A   1      48.381  27.720  21.478  1.00  0.00     0.124 S 
ATOM     83  O   UNL A   1      49.468  28.689  21.395  1.00  0.00    -0.237 OA
ATOM     84  O   UNL A   1      48.654  26.399  20.924  1.00  0.00    -0.237 OA
ATOM     85  O   UNL A   1      47.049  28.250  21.193  1.00  0.00    -0.744 OA
ENDBRANCH  78  82
ENDBRANCH  51  75
BRANCH  63  86
ATOM     86  C   UNL A   1      45.051  33.003  28.964  1.00  0.00     0.023 A 
ATOM     87  C   UNL A   1      45.840  33.138  30.120  1.00  0.00     0.031 A 
ATOM     88  C   UNL A   1      44.922  34.121  28.121  1.00  0.00     0.131 A 
ATOM     89  C   UNL A   1      46.432  34.376  30.423  1.00  0.00     0.055 A 
ATOM     90  C   UNL A   1      45.560  35.332  28.397  1.00  0.00     0.041 A 
ATOM     91  F   UNL A   1      44.177  34.055  27.005  1.00  0.00    -0.206 F 
ATOM     92  C   UNL A   1      46.311  35.468  29.559  1.00  0.00     0.022 A 
BRANCH  89  93
ATOM     93  S   UNL A   1      47.300  34.567  32.005  1.00  0.00     0.124 S 
ATOM     94  O   UNL A   1      47.691  33.193  32.306  1.00  0.00    -0.237 OA
ATOM     95  O   UNL A   1      48.386  35.478  31.659  1.00  0.00    -0.237 OA
ATOM     96  O   UNL A   1      46.281  35.129  32.892  1.00  0.00    -0.744 OA
ENDBRANCH  89  93
ENDBRANCH  63  86
ENDBRANCH  37  38
ENDBRANCH  29  32
ENDBRANCH  27  28
ENDBRANCH  26  27
ENDBRANCH   1  26
TORSDOF 17
ENDMDL
MODEL 2
REMARK VINA RESULT:     -12.3      2.177      7.663
REMARK SMILES CCOc1ccc(NC(=O)[C@@H]2[C@@H](C(=O)NCCCNC(=O)c3ccc(-c4c5nc(c(-c6cc(S(=O)(=O)[O-])ccc6F)c6ccc([nH]6)c(-c6cc(S(=O)(=O)[O-])ccc6F)c6nc(c(-c7cc(S(=O)(=O)[O-])ccc7F)c7ccc4[nH]7)C=C6)C=C5)cc3)[C@H]3C=C[C@@H]2C3)cc1
REMARK SMILES IDX 16 1 15 2 13 3 14 4 12 6 11 7 88 8 85 9 87 10 89 11 86 12
REMARK SMILES IDX 9 13 8 14 10 16 7 17 4 18 5 19 91 20 6 21 90 22 3 23 2 24
REMARK SMILES IDX 1 25 17 26 18 27 19 28 20 29 21 31 22 32 23 33 84 34 24 35
REMARK SMILES IDX 83 36 25 37 26 38 27 39 77 40 28 41 82 42 76 43 78 44 29 45
REMARK SMILES IDX 81 46 75 47 74 48 30 50 62 51 42 52 61 53 43 54 46 55 60 56
REMARK SMILES IDX 79 57 44 58 45 59 59 61 80 62 47 63 31 64 32 65 40 66 33 67
REMARK SMILES IDX 39 68 41 69 38 70 34 71 35 72 36 73 37 74 63 75 64 76 72 77
REMARK SMILES IDX 65 78 71 79 73 80 70 81 66 82 67 83 68 84 69 85 48 86 49 87
REMARK SMILES IDX 57 88 50 89 56 90 58 91 55 92 51 93 52 94 53 95 54 96
REMARK H PARENT 15 5 8 15 19 30 78 49 46 60
REMARK Flexibility Score: inf
ROOT
ATOM      1  C   UNL A   1      34.981  20.551  25.701  1.00  0.00     0.117 C 
ENDROOT
BRANCH   1   2
ATOM      2  N   UNL A   1      33.676  20.786  25.096  1.00  0.00    -0.356 N 
ATOM      3  C   UNL A   1      32.924  21.916  24.920  1.00  0.00     0.224 C 
ATOM      4  O   UNL A   1      31.915  21.812  24.218  1.00  0.00    -0.275 OA
ATOM      5  H   UNL A   1      33.250  19.971  24.745  1.00  0.00     0.163 HD
BRANCH   3   6
ATOM      6  C   UNL A   1      33.323  23.242  25.556  1.00  0.00     0.098 C 
ATOM      7  C   UNL A   1      32.419  24.457  25.123  1.00  0.00     0.099 C 
ATOM      8  C   UNL A   1      33.467  25.524  24.686  1.00  0.00     0.025 C 
ATOM      9  C   UNL A   1      34.728  23.718  25.078  1.00  0.00     0.025 C 
ATOM     10  C   UNL A   1      34.000  25.068  23.347  1.00  0.00    -0.027 C 
ATOM     11  C   UNL A   1      34.690  25.180  25.541  1.00  0.00     0.017 C 
ATOM     12  C   UNL A   1      34.747  23.977  23.581  1.00  0.00    -0.027 C 
BRANCH   7  13
ATOM     13  C   UNL A   1      31.539  24.968  26.256  1.00  0.00     0.228 C 
ATOM     14  N   UNL A   1      30.778  26.098  26.120  1.00  0.00    -0.326 N 
ATOM     15  H   UNL A   1      30.199  26.293  26.892  1.00  0.00     0.169 HD
ATOM     16  O   UNL A   1      31.414  24.323  27.304  1.00  0.00    -0.274 OA
BRANCH  14  17
ATOM     17  C   UNL A   1      30.677  27.028  25.073  1.00  0.00     0.041 A 
ATOM     18  C   UNL A   1      30.051  29.162  23.401  1.00  0.00     0.119 A 
ATOM     19  C   UNL A   1      29.605  27.891  23.082  1.00  0.00     0.048 A 
ATOM     20  C   UNL A   1      30.949  29.345  24.450  1.00  0.00     0.048 A 
ATOM     21  C   UNL A   1      29.956  26.817  23.899  1.00  0.00     0.030 A 
ATOM     22  C   UNL A   1      31.282  28.270  25.275  1.00  0.00     0.030 A 
BRANCH  18  23
ATOM     23  O   UNL A   1      29.400  30.235  22.863  1.00  0.00    -0.494 OA
BRANCH  23  24
ATOM     24  C   UNL A   1      27.998  30.258  23.129  1.00  0.00     0.226 C 
ATOM     25  C   UNL A   1      27.555  31.637  23.564  1.00  0.00     0.049 C 
ENDBRANCH  23  24
ENDBRANCH  18  23
ENDBRANCH  14  17
ENDBRANCH   7  13
ENDBRANCH   3   6
ENDBRANCH   1   2
BRANCH   1  26
ATOM     26  C   UNL A   1      36.133  20.416  24.693  1.00  0.00     0.042 C 
BRANCH  26  27
ATOM     27  C   UNL A   1      37.463  21.088  25.076  1.00  0.00     0.118 C 
BRANCH  27  28
ATOM     28  N   UNL A   1      38.473  20.152  25.550  1.00  0.00    -0.352 N 
ATOM     29  C   UNL A   1      39.665  20.385  26.203  1.00  0.00     0.251 C 
ATOM     30  H   UNL A   1      38.273  19.203  25.377  1.00  0.00     0.163 HD
ATOM     31  O   UNL A   1      40.407  19.432  26.445  1.00  0.00    -0.269 OA
BRANCH  29  32
ATOM     32  C   UNL A   1      40.091  21.751  26.599  1.00  0.00     0.039 A 
ATOM     33  C   UNL A   1      41.128  21.905  27.523  1.00  0.00     0.014 A 
ATOM     34  C   UNL A   1      39.424  22.886  26.145  1.00  0.00     0.014 A 
ATOM     35  C   UNL A   1      41.546  23.189  27.923  1.00  0.00     0.010 A 
ATOM     36  C   UNL A   1      39.880  24.166  26.514  1.00  0.00     0.010 A 
ATOM     37  C   UNL A   1      40.966  24.352  27.384  1.00  0.00    -0.014 A 
BRANCH  37  38
ATOM     38  C   UNL A   1      41.511  25.730  27.681  1.00  0.00     0.031 A 
ATOM     39  C   UNL A   1      42.894  26.168  27.230  1.00  0.00     0.074 A 
ATOM     40  C   UNL A   1      40.800  26.594  28.444  1.00  0.00     0.049 A 
ATOM     41  N   UNL A   1      43.532  27.292  27.469  1.00  0.00    -0.248 NA
ATOM     42  C   UNL A   1      43.680  25.201  26.454  1.00  0.00     0.031 C 
ATOM     43  C   UNL A   1      39.494  26.317  29.045  1.00  0.00     0.029 A 
ATOM     44  N   UNL A   1      41.072  27.884  28.848  1.00  0.00    -0.354 N 
ATOM     45  C   UNL A   1      44.803  27.146  26.917  1.00  0.00     0.074 A 
ATOM     46  C   UNL A   1      44.862  25.797  26.392  1.00  0.00     0.031 C 
ATOM     47  C   UNL A   1      39.049  27.417  29.670  1.00  0.00     0.029 A 
ATOM     48  C   UNL A   1      40.058  28.467  29.580  1.00  0.00     0.049 A 
ATOM     49  H   UNL A   1      41.913  28.349  28.633  1.00  0.00     0.167 HD
ATOM     50  C   UNL A   1      45.817  28.049  26.822  1.00  0.00     0.034 A 
ATOM     51  C   UNL A   1      39.937  29.699  30.121  1.00  0.00     0.034 A 
ATOM     52  C   UNL A   1      45.739  29.419  27.280  1.00  0.00     0.049 A 
ATOM     53  C   UNL A   1      41.059  30.699  29.977  1.00  0.00     0.074 A 
ATOM     54  C   UNL A   1      46.665  30.436  27.106  1.00  0.00     0.029 A 
ATOM     55  N   UNL A   1      44.688  29.966  28.001  1.00  0.00    -0.354 N 
ATOM     56  N   UNL A   1      42.216  30.562  29.375  1.00  0.00    -0.248 NA
ATOM     57  C   UNL A   1      40.851  32.024  30.581  1.00  0.00     0.031 C 
ATOM     58  C   UNL A   1      46.210  31.572  27.785  1.00  0.00     0.029 A 
ATOM     59  C   UNL A   1      44.961  31.293  28.309  1.00  0.00     0.049 A 
ATOM     60  H   UNL A   1      43.868  29.484  28.256  1.00  0.00     0.167 HD
ATOM     61  C   UNL A   1      42.853  31.797  29.495  1.00  0.00     0.074 A 
ATOM     62  C   UNL A   1      41.953  32.665  30.219  1.00  0.00     0.031 C 
ATOM     63  C   UNL A   1      44.072  32.172  29.033  1.00  0.00     0.034 A 
BRANCH  50  64
ATOM     64  C   UNL A   1      47.118  27.588  26.193  1.00  0.00     0.023 A 
ATOM     65  C   UNL A   1      48.148  27.013  26.957  1.00  0.00     0.031 A 
ATOM     66  C   UNL A   1      47.336  27.729  24.810  1.00  0.00     0.131 A 
ATOM     67  C   UNL A   1      49.379  26.705  26.360  1.00  0.00     0.055 A 
ATOM     68  C   UNL A   1      48.528  27.323  24.203  1.00  0.00     0.041 A 
ATOM     69  F   UNL A   1      46.397  28.275  24.021  1.00  0.00    -0.206 F 
ATOM     70  C   UNL A   1      49.567  26.827  24.983  1.00  0.00     0.022 A 
BRANCH  67  71
ATOM     71  S   UNL A   1      50.785  26.316  27.439  1.00  0.00     0.124 S 
ATOM     72  O   UNL A   1      51.063  24.930  27.067  1.00  0.00    -0.237 OA
ATOM     73  O   UNL A   1      51.780  27.300  27.022  1.00  0.00    -0.237 OA
ATOM     74  O   UNL A   1      50.248  26.499  28.782  1.00  0.00    -0.744 OA
ENDBRANCH  67  71
ENDBRANCH  50  64
BRANCH  51  75
ATOM     75  C   UNL A   1      38.690  30.087  30.847  1.00  0.00     0.023 A 
ATOM     76  C   UNL A   1      37.677  30.807  30.192  1.00  0.00     0.031 A 
ATOM     77  C   UNL A   1      38.513  29.790  32.209  1.00  0.00     0.131 A 
ATOM     78  C   UNL A   1      36.555  31.248  30.911  1.00  0.00     0.055 A 
ATOM     79  C   UNL A   1      37.368  30.182  32.905  1.00  0.00     0.041 A 
ATOM     80  F   UNL A   1      39.448  29.101  32.881  1.00  0.00    -0.206 F 
ATOM     81  C   UNL A   1      36.386  30.928  32.259  1.00  0.00     0.022 A 
BRANCH  78  82
ATOM     82  S   UNL A   1      35.359  32.327  30.076  1.00  0.00     0.124 S 
ATOM     83  O   UNL A   1      36.202  33.448  29.675  1.00  0.00    -0.237 OA
ATOM     84  O   UNL A   1      34.876  31.470  29.000  1.00  0.00    -0.237 OA
ATOM     85  O   UNL A   1      34.382  32.624  31.121  1.00  0.00    -0.744 OA
ENDBRANCH  78  82
ENDBRANCH  51  75
BRANCH  63  86
ATOM     86  C   UNL A   1      44.487  33.612  29.238  1.00  0.00     0.023 A 
ATOM     87  C   UNL A   1      44.071  34.642  28.376  1.00  0.00     0.031 A 
ATOM     88  C   UNL A   1      45.314  33.956  30.323  1.00  0.00     0.131 A 
ATOM     89  C   UNL A   1      44.518  35.957  28.588  1.00  0.00     0.055 A 
ATOM     90  C   UNL A   1      45.707  35.273  30.564  1.00  0.00     0.041 A 
ATOM     91  F   UNL A   1      45.748  33.015  31.177  1.00  0.00    -0.206 F 
ATOM     92  C   UNL A   1      45.319  36.281  29.687  1.00  0.00     0.022 A 
BRANCH  89  93
ATOM     93  S   UNL A   1      44.104  37.230  27.365  1.00  0.00     0.124 S 
ATOM     94  O   UNL A   1      43.151  36.532  26.508  1.00  0.00    -0.237 OA
ATOM     95  O   UNL A   1      43.554  38.296  28.195  1.00  0.00    -0.237 OA
ATOM     96  O   UNL A   1      45.390  37.537  26.738  1.00  0.00    -0.744 OA
ENDBRANCH  89  93
ENDBRANCH  63  86
ENDBRANCH  37  38
ENDBRANCH  29  32
ENDBRANCH  27  28
ENDBRANCH  26  27
ENDBRANCH   1  26
TORSDOF 17
ENDMDL
MODEL 3
REMARK VINA RESULT:     -12.3      5.038      8.446
REMARK SMILES CCOc1ccc(NC(=O)[C@@H]2[C@@H](C(=O)NCCCNC(=O)c3ccc(-c4c5nc(c(-c6cc(S(=O)(=O)[O-])ccc6F)c6ccc([nH]6)c(-c6cc(S(=O)(=O)[O-])ccc6F)c6nc(c(-c7cc(S(=O)(=O)[O-])ccc7F)c7ccc4[nH]7)C=C6)C=C5)cc3)[C@H]3C=C[C@@H]2C3)cc1
REMARK SMILES IDX 16 1 15 2 13 3 14 4 12 6 11 7 88 8 85 9 87 10 89 11 86 12
REMARK SMILES IDX 9 13 8 14 10 16 7 17 4 18 5 19 91 20 6 21 90 22 3 23 2 24
REMARK SMILES IDX 1 25 17 26 18 27 19 28 20 29 21 31 22 32 23 33 84 34 24 35
REMARK SMILES IDX 83 36 25 37 26 38 27 39 77 40 28 41 82 42 76 43 78 44 29 45
REMARK SMILES IDX 81 46 75 47 74 48 30 50 62 51 42 52 61 53 43 54 46 55 60 56
REMARK SMILES IDX 79 57 44 58 45 59 59 61 80 62 47 63 31 64 32 65 40 66 33 67
REMARK SMILES IDX 39 68 41 69 38 70 34 71 35 72 36 73 37 74 63 75 64 76 72 77
REMARK SMILES IDX 65 78 71 79 73 80 70 81 66 82 67 83 68 84 69 85 48 86 49 87
REMARK SMILES IDX 57 88 50 89 56 90 58 91 55 92 51 93 52 94 53 95 54 96
REMARK H PARENT 15 5 8 15 19 30 78 49 46 60
REMARK Flexibility Score: inf
ROOT
ATOM      1  C   UNL A   1      31.499  30.115  25.439  1.00  0.00     0.117 C 
ENDROOT
BRANCH   1   2
ATOM      2  N   UNL A   1      32.598  29.262  25.873  1.00  0.00    -0.356 N 
ATOM      3  C   UNL A   1      32.881  27.939  25.675  1.00  0.00     0.224 C 
ATOM      4  O   UNL A   1      33.989  27.542  26.044  1.00  0.00    -0.275 OA
ATOM      5  H   UNL A   1      33.271  29.732  26.418  1.00  0.00     0.163 HD
BRANCH   3   6
ATOM      6  C   UNL A   1      31.874  27.002  25.017  1.00  0.00     0.098 C 
ATOM      7  C   UNL A   1      32.201  25.473  25.212  1.00  0.00     0.099 C 
ATOM      8  C   UNL A   1      32.120  24.918  23.759  1.00  0.00     0.025 C 
ATOM      9  C   UNL A   1      31.891  27.124  23.464  1.00  0.00     0.025 C 
ATOM     10  C   UNL A   1      33.371  25.395  23.056  1.00  0.00    -0.027 C 
ATOM     11  C   UNL A   1      31.115  25.858  23.084  1.00  0.00     0.017 C 
ATOM     12  C   UNL A   1      33.239  26.720  22.890  1.00  0.00    -0.027 C 
BRANCH   7  13
ATOM     13  C   UNL A   1      31.210  24.773  26.134  1.00  0.00     0.228 C 
ATOM     14  N   UNL A   1      31.420  23.494  26.573  1.00  0.00    -0.326 N 
ATOM     15  H   UNL A   1      30.748  23.170  27.217  1.00  0.00     0.169 HD
ATOM     16  O   UNL A   1      30.232  25.376  26.590  1.00  0.00    -0.274 OA
BRANCH  14  17
ATOM     17  C   UNL A   1      32.422  22.560  26.267  1.00  0.00     0.041 A 
ATOM     18  C   UNL A   1      34.707  21.229  25.401  1.00  0.00     0.119 A 
ATOM     19  C   UNL A   1      33.503  21.008  24.755  1.00  0.00     0.048 A 
ATOM     20  C   UNL A   1      34.744  21.972  26.579  1.00  0.00     0.048 A 
ATOM     21  C   UNL A   1      32.352  21.644  25.219  1.00  0.00     0.030 A 
ATOM     22  C   UNL A   1      33.593  22.621  27.027  1.00  0.00     0.030 A 
BRANCH  18  23
ATOM     23  O   UNL A   1      35.865  20.949  24.734  1.00  0.00    -0.494 OA
BRANCH  23  24
ATOM     24  C   UNL A   1      36.753  22.060  24.618  1.00  0.00     0.226 C 
ATOM     25  C   UNL A   1      36.491  22.828  23.341  1.00  0.00     0.049 C 
ENDBRANCH  23  24
ENDBRANCH  18  23
ENDBRANCH  14  17
ENDBRANCH   7  13
ENDBRANCH   3   6
ENDBRANCH   1   2
BRANCH   1  26
ATOM     26  C   UNL A   1      31.415  31.464  26.168  1.00  0.00     0.042 C 
BRANCH  26  27
ATOM     27  C   UNL A   1      32.468  31.720  27.261  1.00  0.00     0.118 C 
BRANCH  27  28
ATOM     28  N   UNL A   1      32.757  33.133  27.471  1.00  0.00    -0.352 N 
ATOM     29  C   UNL A   1      33.840  33.738  28.071  1.00  0.00     0.251 C 
ATOM     30  H   UNL A   1      32.072  33.752  27.129  1.00  0.00     0.163 HD
ATOM     31  O   UNL A   1      33.838  34.964  28.205  1.00  0.00    -0.269 OA
BRANCH  29  32
ATOM     32  C   UNL A   1      34.995  32.958  28.583  1.00  0.00     0.039 A 
ATOM     33  C   UNL A   1      36.293  33.425  28.358  1.00  0.00     0.014 A 
ATOM     34  C   UNL A   1      34.826  31.722  29.203  1.00  0.00     0.014 A 
ATOM     35  C   UNL A   1      37.406  32.700  28.824  1.00  0.00     0.010 A 
ATOM     36  C   UNL A   1      35.943  31.028  29.707  1.00  0.00     0.010 A 
ATOM     37  C   UNL A   1      37.253  31.510  29.559  1.00  0.00    -0.014 A 
BRANCH  37  38
ATOM     38  C   UNL A   1      38.427  30.810  30.202  1.00  0.00     0.031 A 
ATOM     39  C   UNL A   1      38.885  31.128  31.615  1.00  0.00     0.074 A 
ATOM     40  C   UNL A   1      39.167  29.925  29.491  1.00  0.00     0.049 A 
ATOM     41  N   UNL A   1      39.919  30.666  32.281  1.00  0.00    -0.248 NA
ATOM     42  C   UNL A   1      38.113  32.133  32.356  1.00  0.00     0.031 C 
ATOM     43  C   UNL A   1      38.937  29.561  28.092  1.00  0.00     0.029 A 
ATOM     44  N   UNL A   1      40.263  29.167  29.844  1.00  0.00    -0.354 N 
ATOM     45  C   UNL A   1      39.946  31.355  33.493  1.00  0.00     0.074 A 
ATOM     46  C   UNL A   1      38.862  32.314  33.434  1.00  0.00     0.031 C 
ATOM     47  C   UNL A   1      39.807  28.606  27.732  1.00  0.00     0.029 A 
ATOM     48  C   UNL A   1      40.707  28.326  28.846  1.00  0.00     0.049 A 
ATOM     49  H   UNL A   1      40.691  29.221  30.729  1.00  0.00     0.167 HD
ATOM     50  C   UNL A   1      40.766  31.191  34.566  1.00  0.00     0.034 A 
ATOM     51  C   UNL A   1      41.716  27.427  28.812  1.00  0.00     0.034 A 
ATOM     52  C   UNL A   1      41.804  30.188  34.659  1.00  0.00     0.049 A 
ATOM     53  C   UNL A   1      42.594  27.236  30.024  1.00  0.00     0.074 A 
ATOM     54  C   UNL A   1      42.591  29.865  35.754  1.00  0.00     0.029 A 
ATOM     55  N   UNL A   1      42.205  29.350  33.629  1.00  0.00    -0.354 N 
ATOM     56  N   UNL A   1      42.543  27.841  31.187  1.00  0.00    -0.248 NA
ATOM     57  C   UNL A   1      43.664  26.232  29.919  1.00  0.00     0.031 C 
ATOM     58  C   UNL A   1      43.516  28.890  35.365  1.00  0.00     0.029 A 
ATOM     59  C   UNL A   1      43.251  28.539  34.053  1.00  0.00     0.049 A 
ATOM     60  H   UNL A   1      41.807  29.333  32.729  1.00  0.00     0.167 HD
ATOM     61  C   UNL A   1      43.546  27.260  31.960  1.00  0.00     0.074 A 
ATOM     62  C   UNL A   1      44.183  26.256  31.138  1.00  0.00     0.031 C 
ATOM     63  C   UNL A   1      43.897  27.534  33.242  1.00  0.00     0.034 A 
BRANCH  50  64
ATOM     64  C   UNL A   1      40.581  32.126  35.746  1.00  0.00     0.023 A 
ATOM     65  C   UNL A   1      39.564  31.928  36.696  1.00  0.00     0.031 A 
ATOM     66  C   UNL A   1      41.429  33.235  35.923  1.00  0.00     0.131 A 
ATOM     67  C   UNL A   1      39.352  32.876  37.707  1.00  0.00     0.055 A 
ATOM     68  C   UNL A   1      41.278  34.120  36.995  1.00  0.00     0.041 A 
ATOM     69  F   UNL A   1      42.418  33.487  35.051  1.00  0.00    -0.206 F 
ATOM     70  C   UNL A   1      40.219  33.956  37.883  1.00  0.00     0.022 A 
BRANCH  67  71
ATOM     71  S   UNL A   1      37.820  32.776  38.674  1.00  0.00     0.124 S 
ATOM     72  O   UNL A   1      36.813  33.070  37.655  1.00  0.00    -0.237 OA
ATOM     73  O   UNL A   1      37.848  31.400  39.162  1.00  0.00    -0.237 OA
ATOM     74  O   UNL A   1      37.987  33.806  39.692  1.00  0.00    -0.744 OA
ENDBRANCH  67  71
ENDBRANCH  50  64
BRANCH  51  75
ATOM     75  C   UNL A   1      41.956  26.606  27.587  1.00  0.00     0.023 A 
ATOM     76  C   UNL A   1      41.568  25.256  27.545  1.00  0.00     0.031 A 
ATOM     77  C   UNL A   1      42.617  27.137  26.468  1.00  0.00     0.131 A 
ATOM     78  C   UNL A   1      41.887  24.471  26.426  1.00  0.00     0.055 A 
ATOM     79  C   UNL A   1      42.881  26.367  25.333  1.00  0.00     0.041 A 
ATOM     80  F   UNL A   1      43.006  28.422  26.454  1.00  0.00    -0.206 F 
ATOM     81  C   UNL A   1      42.527  25.020  25.314  1.00  0.00     0.022 A 
BRANCH  78  82
ATOM     82  S   UNL A   1      41.530  22.694  26.483  1.00  0.00     0.124 S 
ATOM     83  O   UNL A   1      42.270  22.207  25.324  1.00  0.00    -0.237 OA
ATOM     84  O   UNL A   1      42.061  22.319  27.789  1.00  0.00    -0.237 OA
ATOM     85  O   UNL A   1      40.075  22.635  26.365  1.00  0.00    -0.744 OA
ENDBRANCH  78  82
ENDBRANCH  51  75
BRANCH  63  86
ATOM     86  C   UNL A   1      44.983  26.688  33.869  1.00  0.00     0.023 A 
ATOM     87  C   UNL A   1      44.710  25.455  34.487  1.00  0.00     0.031 A 
ATOM     88  C   UNL A   1      46.319  27.128  33.838  1.00  0.00     0.131 A 
ATOM     89  C   UNL A   1      45.751  24.728  35.089  1.00  0.00     0.055 A 
ATOM     90  C   UNL A   1      47.358  26.373  34.387  1.00  0.00     0.041 A 
ATOM     91  F   UNL A   1      46.641  28.300  33.266  1.00  0.00    -0.206 F 
ATOM     92  C   UNL A   1      47.075  25.170  35.026  1.00  0.00     0.022 A 
BRANCH  89  93
ATOM     93  S   UNL A   1      45.343  23.229  36.026  1.00  0.00     0.124 S 
ATOM     94  O   UNL A   1      45.297  23.729  37.397  1.00  0.00    -0.237 OA
ATOM     95  O   UNL A   1      44.063  22.836  35.448  1.00  0.00    -0.237 OA
ATOM     96  O   UNL A   1      46.457  22.326  35.734  1.00  0.00    -0.744 OA
ENDBRANCH  89  93
ENDBRANCH  63  86
ENDBRANCH  37  38
ENDBRANCH  29  32
ENDBRANCH  27  28
ENDBRANCH  26  27
ENDBRANCH   1  26
TORSDOF 17
ENDMDL
