MODEL 1
REMARK VINA RESULT:     -13.6      0.000      0.000
REMARK SMILES CCc1cc(N2CCC[C@H](C(=O)NCCCNC(=O)c3ccc(-c4c5nc(c(-c6cc(S(=O)(=O)[O-])ccc6F)c6ccc([nH]6)c(-c6cc(S(=O)(=O)[O-])ccc6F)c6nc(c(-c7cc(S(=O)(=O)[O-])ccc7F)c7ccc4[nH]7)C=C6)C=C5)cc3)C2)nc(-c2ccc(Cl)cc2)n1
REMARK SMILES IDX 15 1 14 2 13 3 11 4 12 5 10 7 6 8 7 9 83 10 8 11 9 12 5 13
REMARK SMILES IDX 3 14 4 15 93 16 85 17 84 18 2 19 1 20 86 21 87 22 92 23
REMARK SMILES IDX 88 24 91 25 89 26 90 27 16 28 17 29 18 30 19 32 20 33 21 34
REMARK SMILES IDX 82 35 22 36 81 37 23 38 24 39 25 40 75 41 26 42 80 43 74 44
REMARK SMILES IDX 76 45 27 46 79 47 73 48 72 49 28 51 60 52 40 53 59 54 41 55
REMARK SMILES IDX 44 56 58 57 77 58 42 59 43 60 57 62 78 63 45 64 29 65 30 66
REMARK SMILES IDX 38 67 31 68 37 69 39 70 36 71 32 72 33 73 34 74 35 75 61 76
REMARK SMILES IDX 62 77 70 78 63 79 69 80 71 81 68 82 64 83 65 84 66 85 67 86
REMARK SMILES IDX 46 87 47 88 55 89 48 90 54 91 56 92 53 93 49 94 50 95 51 96
REMARK SMILES IDX 52 97
REMARK H PARENT 13 6 17 31 76 50 44 61
REMARK Flexibility Score: inf
ROOT
ATOM      1  C   UNL A   1      31.575  28.552  26.736  1.00  0.00     0.042 C 
ENDROOT
BRANCH   1   2
ATOM      2  C   UNL A   1      31.421  27.311  25.879  1.00  0.00     0.117 C 
BRANCH   2   3
ATOM      3  N   UNL A   1      30.869  26.170  26.569  1.00  0.00    -0.356 N 
ATOM      4  C   UNL A   1      30.701  24.896  26.135  1.00  0.00     0.224 C 
ATOM      5  O   UNL A   1      30.594  24.025  27.008  1.00  0.00    -0.275 OA
ATOM      6  H   UNL A   1      30.570  26.342  27.491  1.00  0.00     0.163 HD
BRANCH   4   7
ATOM      7  C   UNL A   1      30.627  24.487  24.662  1.00  0.00     0.098 C 
ATOM      8  N   UNL A   1      32.691  23.413  23.874  1.00  0.00    -0.356 N 
ATOM      9  C   UNL A   1      32.908  24.292  22.738  1.00  0.00     0.118 C 
ATOM     10  C   UNL A   1      31.340  23.178  24.345  1.00  0.00     0.131 C 
ATOM     11  C   UNL A   1      32.223  25.645  22.955  1.00  0.00     0.022 C 
ATOM     12  C   UNL A   1      30.852  25.603  23.636  1.00  0.00     0.017 C 
BRANCH   8  13
ATOM     13  C   UNL A   1      33.677  22.548  24.299  1.00  0.00     0.132 A 
ATOM     14  C   UNL A   1      35.932  21.987  24.684  1.00  0.00     0.046 A 
ATOM     15  C   UNL A   1      34.990  22.955  24.390  1.00  0.00     0.070 A 
ATOM     16  N   UNL A   1      35.604  20.700  24.904  1.00  0.00    -0.233 NA
ATOM     17  C   UNL A   1      34.304  20.390  24.790  1.00  0.00     0.161 A 
ATOM     18  N   UNL A   1      33.328  21.265  24.491  1.00  0.00    -0.211 NA
BRANCH  14  19
ATOM     19  C   UNL A   1      37.395  22.325  24.749  1.00  0.00     0.053 C 
ATOM     20  C   UNL A   1      37.623  23.653  25.448  1.00  0.00     0.011 C 
ENDBRANCH  14  19
BRANCH  17  21
ATOM     21  C   UNL A   1      33.937  18.975  24.895  1.00  0.00     0.019 A 
ATOM     22  C   UNL A   1      34.769  17.968  24.377  1.00  0.00     0.013 A 
ATOM     23  C   UNL A   1      32.739  18.585  25.521  1.00  0.00     0.013 A 
ATOM     24  C   UNL A   1      34.426  16.617  24.501  1.00  0.00     0.021 A 
ATOM     25  C   UNL A   1      32.394  17.235  25.647  1.00  0.00     0.021 A 
ATOM     26  C   UNL A   1      33.243  16.256  25.139  1.00  0.00     0.041 A 
ATOM     27  Cl  UNL A   1      32.823  14.596  25.297  1.00  0.00    -0.084 Cl
ENDBRANCH  17  21
ENDBRANCH   8  13
ENDBRANCH   4   7
ENDBRANCH   2   3
ENDBRANCH   1   2
BRANCH   1  28
ATOM     28  C   UNL A   1      32.518  29.568  26.118  1.00  0.00     0.118 C 
BRANCH  28  29
ATOM     29  N   UNL A   1      32.273  30.946  26.532  1.00  0.00    -0.352 N 
ATOM     30  C   UNL A   1      33.098  31.826  27.204  1.00  0.00     0.251 C 
ATOM     31  H   UNL A   1      31.385  31.301  26.299  1.00  0.00     0.163 HD
ATOM     32  O   UNL A   1      32.689  32.936  27.514  1.00  0.00    -0.269 OA
BRANCH  30  33
ATOM     33  C   UNL A   1      34.443  31.388  27.641  1.00  0.00     0.039 A 
ATOM     34  C   UNL A   1      35.425  32.366  27.829  1.00  0.00     0.014 A 
ATOM     35  C   UNL A   1      34.715  30.059  27.960  1.00  0.00     0.014 A 
ATOM     36  C   UNL A   1      36.622  32.029  28.457  1.00  0.00     0.010 A 
ATOM     37  C   UNL A   1      35.845  29.753  28.704  1.00  0.00     0.010 A 
ATOM     38  C   UNL A   1      36.809  30.737  28.968  1.00  0.00    -0.014 A 
BRANCH  38  39
ATOM     39  C   UNL A   1      38.001  30.383  29.777  1.00  0.00     0.031 A 
ATOM     40  C   UNL A   1      39.034  29.454  29.202  1.00  0.00     0.074 A 
ATOM     41  C   UNL A   1      38.098  30.821  31.048  1.00  0.00     0.049 A 
ATOM     42  N   UNL A   1      40.070  28.906  29.780  1.00  0.00    -0.248 NA
ATOM     43  C   UNL A   1      38.841  29.045  27.801  1.00  0.00     0.031 C 
ATOM     44  C   UNL A   1      37.117  31.673  31.730  1.00  0.00     0.029 A 
ATOM     45  N   UNL A   1      39.060  30.606  32.001  1.00  0.00    -0.354 N 
ATOM     46  C   UNL A   1      40.627  28.059  28.827  1.00  0.00     0.074 A 
ATOM     47  C   UNL A   1      39.768  28.111  27.665  1.00  0.00     0.031 C 
ATOM     48  C   UNL A   1      37.550  31.940  32.972  1.00  0.00     0.029 A 
ATOM     49  C   UNL A   1      38.810  31.240  33.197  1.00  0.00     0.049 A 
ATOM     50  H   UNL A   1      39.858  30.050  31.842  1.00  0.00     0.167 HD
ATOM     51  C   UNL A   1      41.768  27.331  28.905  1.00  0.00     0.034 A 
ATOM     52  C   UNL A   1      39.516  31.247  34.344  1.00  0.00     0.034 A 
ATOM     53  C   UNL A   1      42.628  27.335  30.061  1.00  0.00     0.049 A 
ATOM     54  C   UNL A   1      40.801  30.461  34.396  1.00  0.00     0.074 A 
ATOM     55  C   UNL A   1      43.840  26.693  30.241  1.00  0.00     0.029 A 
ATOM     56  N   UNL A   1      42.366  28.027  31.239  1.00  0.00    -0.354 N 
ATOM     57  N   UNL A   1      41.340  29.699  33.471  1.00  0.00    -0.248 NA
ATOM     58  C   UNL A   1      41.577  30.546  35.638  1.00  0.00     0.031 C 
ATOM     59  C   UNL A   1      44.284  26.956  31.542  1.00  0.00     0.029 A 
ATOM     60  C   UNL A   1      43.384  27.815  32.152  1.00  0.00     0.049 A 
ATOM     61  H   UNL A   1      41.571  28.586  31.399  1.00  0.00     0.167 HD
ATOM     62  C   UNL A   1      42.534  29.236  34.012  1.00  0.00     0.074 A 
ATOM     63  C   UNL A   1      42.642  29.818  35.336  1.00  0.00     0.031 C 
ATOM     64  C   UNL A   1      43.462  28.407  33.467  1.00  0.00     0.034 A 
BRANCH  51  65
ATOM     65  C   UNL A   1      42.122  26.473  27.714  1.00  0.00     0.023 A 
ATOM     66  C   UNL A   1      41.717  25.127  27.627  1.00  0.00     0.031 A 
ATOM     67  C   UNL A   1      42.927  26.980  26.680  1.00  0.00     0.131 A 
ATOM     68  C   UNL A   1      42.201  24.314  26.592  1.00  0.00     0.055 A 
ATOM     69  C   UNL A   1      43.328  26.189  25.601  1.00  0.00     0.041 A 
ATOM     70  F   UNL A   1      43.364  28.250  26.713  1.00  0.00    -0.206 F 
ATOM     71  C   UNL A   1      42.982  24.841  25.563  1.00  0.00     0.022 A 
BRANCH  68  72
ATOM     72  S   UNL A   1      41.930  22.523  26.704  1.00  0.00     0.124 S 
ATOM     73  O   UNL A   1      40.508  22.463  27.037  1.00  0.00    -0.237 OA
ATOM     74  O   UNL A   1      42.294  22.064  25.369  1.00  0.00    -0.237 OA
ATOM     75  O   UNL A   1      42.832  22.107  27.776  1.00  0.00    -0.744 OA
ENDBRANCH  68  72
ENDBRANCH  51  65
BRANCH  52  76
ATOM     76  C   UNL A   1      39.038  32.021  35.525  1.00  0.00     0.023 A 
ATOM     77  C   UNL A   1      38.389  31.380  36.593  1.00  0.00     0.031 A 
ATOM     78  C   UNL A   1      39.199  33.416  35.595  1.00  0.00     0.131 A 
ATOM     79  C   UNL A   1      37.883  32.138  37.663  1.00  0.00     0.055 A 
ATOM     80  C   UNL A   1      38.736  34.160  36.684  1.00  0.00     0.041 A 
ATOM     81  F   UNL A   1      39.822  34.078  34.606  1.00  0.00    -0.206 F 
ATOM     82  C   UNL A   1      38.063  33.521  37.720  1.00  0.00     0.022 A 
BRANCH  79  83
ATOM     83  S   UNL A   1      36.918  31.293  38.946  1.00  0.00     0.124 S 
ATOM     84  O   UNL A   1      37.807  31.386  40.097  1.00  0.00    -0.237 OA
ATOM     85  O   UNL A   1      35.709  32.108  39.000  1.00  0.00    -0.237 OA
ATOM     86  O   UNL A   1      36.736  29.948  38.404  1.00  0.00    -0.744 OA
ENDBRANCH  79  83
ENDBRANCH  52  76
BRANCH  64  87
ATOM     87  C   UNL A   1      44.689  28.127  34.294  1.00  0.00     0.023 A 
ATOM     88  C   UNL A   1      44.748  27.037  35.180  1.00  0.00     0.031 A 
ATOM     89  C   UNL A   1      45.811  28.968  34.198  1.00  0.00     0.131 A 
ATOM     90  C   UNL A   1      45.888  26.848  35.975  1.00  0.00     0.055 A 
ATOM     91  C   UNL A   1      46.964  28.741  34.949  1.00  0.00     0.041 A 
ATOM     92  F   UNL A   1      45.803  30.023  33.367  1.00  0.00    -0.206 F 
ATOM     93  C   UNL A   1      47.002  27.683  35.853  1.00  0.00     0.022 A 
BRANCH  90  94
ATOM     94  S   UNL A   1      45.862  25.542  37.233  1.00  0.00     0.124 S 
ATOM     95  O   UNL A   1      44.667  24.789  36.864  1.00  0.00    -0.237 OA
ATOM     96  O   UNL A   1      47.135  24.866  37.009  1.00  0.00    -0.237 OA
ATOM     97  O   UNL A   1      45.766  26.280  38.491  1.00  0.00    -0.744 OA
ENDBRANCH  90  94
ENDBRANCH  64  87
ENDBRANCH  38  39
ENDBRANCH  30  33
ENDBRANCH  28  29
ENDBRANCH   1  28
TORSDOF 16
ENDMDL
MODEL 2
REMARK VINA RESULT:     -13.5      0.971      7.437
REMARK SMILES CCc1cc(N2CCC[C@H](C(=O)NCCCNC(=O)c3ccc(-c4c5nc(c(-c6cc(S(=O)(=O)[O-])ccc6F)c6ccc([nH]6)c(-c6cc(S(=O)(=O)[O-])ccc6F)c6nc(c(-c7cc(S(=O)(=O)[O-])ccc7F)c7ccc4[nH]7)C=C6)C=C5)cc3)C2)nc(-c2ccc(Cl)cc2)n1
REMARK SMILES IDX 15 1 14 2 13 3 11 4 12 5 10 7 6 8 7 9 83 10 8 11 9 12 5 13
REMARK SMILES IDX 3 14 4 15 93 16 85 17 84 18 2 19 1 20 86 21 87 22 92 23
REMARK SMILES IDX 88 24 91 25 89 26 90 27 16 28 17 29 18 30 19 32 20 33 21 34
REMARK SMILES IDX 82 35 22 36 81 37 23 38 24 39 25 40 75 41 26 42 80 43 74 44
REMARK SMILES IDX 76 45 27 46 79 47 73 48 72 49 28 51 60 52 40 53 59 54 41 55
REMARK SMILES IDX 44 56 58 57 77 58 42 59 43 60 57 62 78 63 45 64 29 65 30 66
REMARK SMILES IDX 38 67 31 68 37 69 39 70 36 71 32 72 33 73 34 74 35 75 61 76
REMARK SMILES IDX 62 77 70 78 63 79 69 80 71 81 68 82 64 83 65 84 66 85 67 86
REMARK SMILES IDX 46 87 47 88 55 89 48 90 54 91 56 92 53 93 49 94 50 95 51 96
REMARK SMILES IDX 52 97
REMARK H PARENT 13 6 17 31 76 50 44 61
REMARK Flexibility Score: inf
ROOT
ATOM      1  C   UNL A   1      31.424  30.085  25.278  1.00  0.00     0.042 C 
ENDROOT
BRANCH   1   2
ATOM      2  C   UNL A   1      31.319  28.613  24.932  1.00  0.00     0.117 C 
BRANCH   2   3
ATOM      3  N   UNL A   1      32.455  27.820  25.336  1.00  0.00    -0.356 N 
ATOM      4  C   UNL A   1      32.914  26.647  24.832  1.00  0.00     0.224 C 
ATOM      5  O   UNL A   1      34.100  26.375  25.061  1.00  0.00    -0.275 OA
ATOM      6  H   UNL A   1      32.973  28.183  26.091  1.00  0.00     0.163 HD
BRANCH   4   7
ATOM      7  C   UNL A   1      32.065  25.662  24.024  1.00  0.00     0.098 C 
ATOM      8  N   UNL A   1      33.221  23.533  23.617  1.00  0.00    -0.356 N 
ATOM      9  C   UNL A   1      33.063  23.536  22.173  1.00  0.00     0.118 C 
ATOM     10  C   UNL A   1      32.238  24.207  24.443  1.00  0.00     0.131 C 
ATOM     11  C   UNL A   1      32.876  24.962  21.646  1.00  0.00     0.022 C 
ATOM     12  C   UNL A   1      32.018  25.891  22.510  1.00  0.00     0.017 C 
BRANCH   8  13
ATOM     13  C   UNL A   1      34.075  22.643  24.233  1.00  0.00     0.132 A 
ATOM     14  C   UNL A   1      36.197  22.002  25.030  1.00  0.00     0.046 A 
ATOM     15  C   UNL A   1      35.369  22.997  24.547  1.00  0.00     0.070 A 
ATOM     16  N   UNL A   1      35.775  20.738  25.221  1.00  0.00    -0.233 NA
ATOM     17  C   UNL A   1      34.503  20.479  24.884  1.00  0.00     0.161 A 
ATOM     18  N   UNL A   1      33.637  21.382  24.393  1.00  0.00    -0.211 NA
BRANCH  14  19
ATOM     19  C   UNL A   1      37.639  22.281  25.347  1.00  0.00     0.053 C 
ATOM     20  C   UNL A   1      37.859  23.749  25.666  1.00  0.00     0.011 C 
ENDBRANCH  14  19
BRANCH  17  21
ATOM     21  C   UNL A   1      34.058  19.085  24.958  1.00  0.00     0.019 A 
ATOM     22  C   UNL A   1      32.806  18.749  25.500  1.00  0.00     0.013 A 
ATOM     23  C   UNL A   1      34.874  18.039  24.486  1.00  0.00     0.013 A 
ATOM     24  C   UNL A   1      32.374  17.418  25.548  1.00  0.00     0.021 A 
ATOM     25  C   UNL A   1      34.446  16.709  24.532  1.00  0.00     0.021 A 
ATOM     26  C   UNL A   1      33.194  16.405  25.059  1.00  0.00     0.041 A 
ATOM     27  Cl  UNL A   1      32.664  14.770  25.111  1.00  0.00    -0.084 Cl
ENDBRANCH  17  21
ENDBRANCH   8  13
ENDBRANCH   4   7
ENDBRANCH   2   3
ENDBRANCH   1   2
BRANCH   1  28
ATOM     28  C   UNL A   1      32.471  30.355  26.344  1.00  0.00     0.118 C 
BRANCH  28  29
ATOM     29  N   UNL A   1      32.447  31.711  26.881  1.00  0.00    -0.352 N 
ATOM     30  C   UNL A   1      33.415  32.401  27.583  1.00  0.00     0.251 C 
ATOM     31  H   UNL A   1      31.613  32.210  26.721  1.00  0.00     0.163 HD
ATOM     32  O   UNL A   1      33.185  33.527  28.001  1.00  0.00    -0.269 OA
BRANCH  30  33
ATOM     33  C   UNL A   1      34.696  31.738  27.917  1.00  0.00     0.039 A 
ATOM     34  C   UNL A   1      35.841  32.534  28.022  1.00  0.00     0.014 A 
ATOM     35  C   UNL A   1      34.762  30.380  28.221  1.00  0.00     0.014 A 
ATOM     36  C   UNL A   1      37.009  31.994  28.559  1.00  0.00     0.010 A 
ATOM     37  C   UNL A   1      35.877  29.881  28.878  1.00  0.00     0.010 A 
ATOM     38  C   UNL A   1      37.012  30.685  29.060  1.00  0.00    -0.014 A 
BRANCH  38  39
ATOM     39  C   UNL A   1      38.186  30.128  29.777  1.00  0.00     0.031 A 
ATOM     40  C   UNL A   1      38.474  30.577  31.182  1.00  0.00     0.074 A 
ATOM     41  C   UNL A   1      39.031  29.301  29.129  1.00  0.00     0.049 A 
ATOM     42  N   UNL A   1      39.513  30.331  31.936  1.00  0.00    -0.248 NA
ATOM     43  C   UNL A   1      37.481  31.471  31.802  1.00  0.00     0.031 C 
ATOM     44  C   UNL A   1      38.885  28.854  27.740  1.00  0.00     0.029 A 
ATOM     45  N   UNL A   1      40.188  28.695  29.547  1.00  0.00    -0.354 N 
ATOM     46  C   UNL A   1      39.317  31.069  33.099  1.00  0.00     0.074 A 
ATOM     47  C   UNL A   1      38.100  31.828  32.915  1.00  0.00     0.031 C 
ATOM     48  C   UNL A   1      39.887  28.013  27.437  1.00  0.00     0.029 A 
ATOM     49  C   UNL A   1      40.776  27.901  28.588  1.00  0.00     0.049 A 
ATOM     50  H   UNL A   1      40.563  28.816  30.449  1.00  0.00     0.167 HD
ATOM     51  C   UNL A   1      40.067  31.085  34.227  1.00  0.00     0.034 A 
ATOM     52  C   UNL A   1      41.908  27.172  28.634  1.00  0.00     0.034 A 
ATOM     53  C   UNL A   1      41.252  30.282  34.398  1.00  0.00     0.049 A 
ATOM     54  C   UNL A   1      42.707  27.175  29.912  1.00  0.00     0.074 A 
ATOM     55  C   UNL A   1      42.063  30.161  35.512  1.00  0.00     0.029 A 
ATOM     56  N   UNL A   1      41.792  29.453  33.421  1.00  0.00    -0.354 N 
ATOM     57  N   UNL A   1      42.487  27.843  31.021  1.00  0.00    -0.248 NA
ATOM     58  C   UNL A   1      43.897  26.318  29.948  1.00  0.00     0.031 C 
ATOM     59  C   UNL A   1      43.118  29.299  35.193  1.00  0.00     0.029 A 
ATOM     60  C   UNL A   1      42.931  28.830  33.901  1.00  0.00     0.049 A 
ATOM     61  H   UNL A   1      41.418  29.327  32.518  1.00  0.00     0.167 HD
ATOM     62  C   UNL A   1      43.497  27.464  31.898  1.00  0.00     0.074 A 
ATOM     63  C   UNL A   1      44.316  26.497  31.192  1.00  0.00     0.031 C 
ATOM     64  C   UNL A   1      43.730  27.873  33.172  1.00  0.00     0.034 A 
BRANCH  51  65
ATOM     65  C   UNL A   1      39.626  32.010  35.337  1.00  0.00     0.023 A 
ATOM     66  C   UNL A   1      38.926  31.532  36.461  1.00  0.00     0.031 A 
ATOM     67  C   UNL A   1      39.848  33.394  35.246  1.00  0.00     0.131 A 
ATOM     68  C   UNL A   1      38.388  32.435  37.389  1.00  0.00     0.055 A 
ATOM     69  C   UNL A   1      39.390  34.280  36.224  1.00  0.00     0.041 A 
ATOM     70  F   UNL A   1      40.492  33.916  34.189  1.00  0.00    -0.206 F 
ATOM     71  C   UNL A   1      38.638  33.805  37.294  1.00  0.00     0.022 A 
BRANCH  68  72
ATOM     72  S   UNL A   1      37.219  31.806  38.627  1.00  0.00     0.124 S 
ATOM     73  O   UNL A   1      36.969  30.454  38.132  1.00  0.00    -0.237 OA
ATOM     74  O   UNL A   1      37.985  31.903  39.863  1.00  0.00    -0.237 OA
ATOM     75  O   UNL A   1      36.084  32.721  38.521  1.00  0.00    -0.744 OA
ENDBRANCH  68  72
ENDBRANCH  51  65
BRANCH  52  76
ATOM     76  C   UNL A   1      42.350  26.379  27.451  1.00  0.00     0.023 A 
ATOM     77  C   UNL A   1      42.080  25.003  27.364  1.00  0.00     0.031 A 
ATOM     78  C   UNL A   1      43.071  26.975  26.402  1.00  0.00     0.131 A 
ATOM     79  C   UNL A   1      42.567  24.260  26.275  1.00  0.00     0.055 A 
ATOM     80  C   UNL A   1      43.512  26.242  25.298  1.00  0.00     0.041 A 
ATOM     81  F   UNL A   1      43.347  28.290  26.430  1.00  0.00    -0.206 F 
ATOM     82  C   UNL A   1      43.271  24.874  25.237  1.00  0.00     0.022 A 
BRANCH  79  83
ATOM     83  S   UNL A   1      42.330  22.462  26.275  1.00  0.00     0.124 S 
ATOM     84  O   UNL A   1      40.880  22.353  26.372  1.00  0.00    -0.237 OA
ATOM     85  O   UNL A   1      42.919  22.080  24.996  1.00  0.00    -0.237 OA
ATOM     86  O   UNL A   1      43.070  22.022  27.455  1.00  0.00    -0.744 OA
ENDBRANCH  79  83
ENDBRANCH  52  76
BRANCH  64  87
ATOM     87  C   UNL A   1      44.891  27.234  33.887  1.00  0.00     0.023 A 
ATOM     88  C   UNL A   1      44.732  26.066  34.653  1.00  0.00     0.031 A 
ATOM     89  C   UNL A   1      46.172  27.808  33.805  1.00  0.00     0.131 A 
ATOM     90  C   UNL A   1      45.829  25.539  35.351  1.00  0.00     0.055 A 
ATOM     91  C   UNL A   1      47.269  27.246  34.455  1.00  0.00     0.041 A 
ATOM     92  F   UNL A   1      46.374  28.925  33.087  1.00  0.00    -0.206 F 
ATOM     93  C   UNL A   1      47.099  26.112  35.244  1.00  0.00     0.022 A 
BRANCH  90  94
ATOM     94  S   UNL A   1      45.553  24.139  36.470  1.00  0.00     0.124 S 
ATOM     95  O   UNL A   1      46.888  23.559  36.566  1.00  0.00    -0.237 OA
ATOM     96  O   UNL A   1      45.054  24.794  37.674  1.00  0.00    -0.237 OA
ATOM     97  O   UNL A   1      44.571  23.320  35.758  1.00  0.00    -0.744 OA
ENDBRANCH  90  94
ENDBRANCH  64  87
ENDBRANCH  38  39
ENDBRANCH  30  33
ENDBRANCH  28  29
ENDBRANCH   1  28
TORSDOF 16
ENDMDL
MODEL 3
REMARK VINA RESULT:     -13.4      5.492     10.834
REMARK SMILES CCc1cc(N2CCC[C@H](C(=O)NCCCNC(=O)c3ccc(-c4c5nc(c(-c6cc(S(=O)(=O)[O-])ccc6F)c6ccc([nH]6)c(-c6cc(S(=O)(=O)[O-])ccc6F)c6nc(c(-c7cc(S(=O)(=O)[O-])ccc7F)c7ccc4[nH]7)C=C6)C=C5)cc3)C2)nc(-c2ccc(Cl)cc2)n1
REMARK SMILES IDX 15 1 14 2 13 3 11 4 12 5 10 7 6 8 7 9 83 10 8 11 9 12 5 13
REMARK SMILES IDX 3 14 4 15 93 16 85 17 84 18 2 19 1 20 86 21 87 22 92 23
REMARK SMILES IDX 88 24 91 25 89 26 90 27 16 28 17 29 18 30 19 32 20 33 21 34
REMARK SMILES IDX 82 35 22 36 81 37 23 38 24 39 25 40 75 41 26 42 80 43 74 44
REMARK SMILES IDX 76 45 27 46 79 47 73 48 72 49 28 51 60 52 40 53 59 54 41 55
REMARK SMILES IDX 44 56 58 57 77 58 42 59 43 60 57 62 78 63 45 64 29 65 30 66
REMARK SMILES IDX 38 67 31 68 37 69 39 70 36 71 32 72 33 73 34 74 35 75 61 76
REMARK SMILES IDX 62 77 70 78 63 79 69 80 71 81 68 82 64 83 65 84 66 85 67 86
REMARK SMILES IDX 46 87 47 88 55 89 48 90 54 91 56 92 53 93 49 94 50 95 51 96
REMARK SMILES IDX 52 97
REMARK H PARENT 13 6 17 31 76 50 44 61
REMARK Flexibility Score: inf
ROOT
ATOM      1  C   UNL A   1      35.880  21.272  24.513  1.00  0.00     0.042 C 
ENDROOT
BRANCH   1   2
ATOM      2  C   UNL A   1      34.710  21.187  25.473  1.00  0.00     0.117 C 
BRANCH   2   3
ATOM      3  N   UNL A   1      34.357  22.436  26.102  1.00  0.00    -0.356 N 
ATOM      4  C   UNL A   1      33.557  23.435  25.653  1.00  0.00     0.224 C 
ATOM      5  O   UNL A   1      33.089  24.196  26.510  1.00  0.00    -0.275 OA
ATOM      6  H   UNL A   1      34.757  22.586  26.990  1.00  0.00     0.163 HD
BRANCH   4   7
ATOM      7  C   UNL A   1      33.219  23.675  24.179  1.00  0.00     0.098 C 
ATOM      8  N   UNL A   1      31.923  25.733  23.831  1.00  0.00    -0.356 N 
ATOM      9  C   UNL A   1      30.830  25.115  23.101  1.00  0.00     0.118 C 
ATOM     10  C   UNL A   1      33.246  25.142  23.768  1.00  0.00     0.131 C 
ATOM     11  C   UNL A   1      30.718  23.626  23.442  1.00  0.00     0.022 C 
ATOM     12  C   UNL A   1      32.040  22.874  23.616  1.00  0.00     0.017 C 
BRANCH   8  13
ATOM     13  C   UNL A   1      31.820  27.026  24.299  1.00  0.00     0.132 A 
ATOM     14  C   UNL A   1      32.015  28.650  25.994  1.00  0.00     0.046 A 
ATOM     15  C   UNL A   1      32.288  27.371  25.548  1.00  0.00     0.070 A 
ATOM     16  N   UNL A   1      31.345  29.549  25.248  1.00  0.00    -0.233 NA
ATOM     17  C   UNL A   1      30.921  29.128  24.048  1.00  0.00     0.161 A 
ATOM     18  N   UNL A   1      31.129  27.898  23.546  1.00  0.00    -0.211 NA
BRANCH  14  19
ATOM     19  C   UNL A   1      32.437  29.099  27.364  1.00  0.00     0.053 C 
ATOM     20  C   UNL A   1      33.939  28.972  27.547  1.00  0.00     0.011 C 
ENDBRANCH  14  19
BRANCH  17  21
ATOM     21  C   UNL A   1      30.078  30.043  23.273  1.00  0.00     0.019 A 
ATOM     22  C   UNL A   1      29.448  31.141  23.880  1.00  0.00     0.013 A 
ATOM     23  C   UNL A   1      29.878  29.846  21.893  1.00  0.00     0.013 A 
ATOM     24  C   UNL A   1      28.664  32.027  23.131  1.00  0.00     0.021 A 
ATOM     25  C   UNL A   1      29.094  30.728  21.142  1.00  0.00     0.021 A 
ATOM     26  C   UNL A   1      28.495  31.818  21.765  1.00  0.00     0.041 A 
ATOM     27  Cl  UNL A   1      27.536  32.908  20.842  1.00  0.00    -0.084 Cl
ENDBRANCH  17  21
ENDBRANCH   8  13
ENDBRANCH   4   7
ENDBRANCH   2   3
ENDBRANCH   1   2
BRANCH   1  28
ATOM     28  C   UNL A   1      37.135  21.809  25.178  1.00  0.00     0.118 C 
BRANCH  28  29
ATOM     29  N   UNL A   1      38.154  20.799  25.444  1.00  0.00    -0.352 N 
ATOM     30  C   UNL A   1      39.345  20.907  26.133  1.00  0.00     0.251 C 
ATOM     31  H   UNL A   1      37.964  19.907  25.074  1.00  0.00     0.163 HD
ATOM     32  O   UNL A   1      40.102  19.949  26.204  1.00  0.00    -0.269 OA
BRANCH  30  33
ATOM     33  C   UNL A   1      39.754  22.212  26.699  1.00  0.00     0.039 A 
ATOM     34  C   UNL A   1      40.770  22.224  27.660  1.00  0.00     0.014 A 
ATOM     35  C   UNL A   1      39.228  23.413  26.230  1.00  0.00     0.014 A 
ATOM     36  C   UNL A   1      41.343  23.435  28.044  1.00  0.00     0.010 A 
ATOM     37  C   UNL A   1      39.885  24.602  26.508  1.00  0.00     0.010 A 
ATOM     38  C   UNL A   1      40.956  24.626  27.413  1.00  0.00    -0.014 A 
BRANCH  38  39
ATOM     39  C   UNL A   1      41.648  25.910  27.683  1.00  0.00     0.031 A 
ATOM     40  C   UNL A   1      40.949  26.971  28.486  1.00  0.00     0.074 A 
ATOM     41  C   UNL A   1      42.853  26.147  27.126  1.00  0.00     0.049 A 
ATOM     42  N   UNL A   1      41.307  28.207  28.718  1.00  0.00    -0.248 NA
ATOM     43  C   UNL A   1      39.643  26.607  29.059  1.00  0.00     0.031 C 
ATOM     44  C   UNL A   1      43.593  25.212  26.272  1.00  0.00     0.029 A 
ATOM     45  N   UNL A   1      43.668  27.248  27.185  1.00  0.00    -0.354 N 
ATOM     46  C   UNL A   1      40.254  28.775  29.428  1.00  0.00     0.074 A 
ATOM     47  C   UNL A   1      39.217  27.772  29.518  1.00  0.00     0.031 C 
ATOM     48  C   UNL A   1      44.767  25.763  25.924  1.00  0.00     0.029 A 
ATOM     49  C   UNL A   1      44.844  27.107  26.484  1.00  0.00     0.049 A 
ATOM     50  H   UNL A   1      43.433  28.064  27.685  1.00  0.00     0.167 HD
ATOM     51  C   UNL A   1      40.175  30.010  29.980  1.00  0.00     0.034 A 
ATOM     52  C   UNL A   1      45.863  27.971  26.310  1.00  0.00     0.034 A 
ATOM     53  C   UNL A   1      41.245  30.974  29.912  1.00  0.00     0.049 A 
ATOM     54  C   UNL A   1      45.772  29.325  26.965  1.00  0.00     0.074 A 
ATOM     55  C   UNL A   1      41.314  32.233  30.482  1.00  0.00     0.029 A 
ATOM     56  N   UNL A   1      42.442  30.779  29.232  1.00  0.00    -0.354 N 
ATOM     57  N   UNL A   1      44.789  29.835  27.672  1.00  0.00    -0.248 NA
ATOM     58  C   UNL A   1      46.929  30.213  26.809  1.00  0.00     0.031 C 
ATOM     59  C   UNL A   1      42.530  32.816  30.106  1.00  0.00     0.029 A 
ATOM     60  C   UNL A   1      43.248  31.898  29.356  1.00  0.00     0.049 A 
ATOM     61  H   UNL A   1      42.682  29.964  28.734  1.00  0.00     0.167 HD
ATOM     62  C   UNL A   1      45.222  31.094  28.069  1.00  0.00     0.074 A 
ATOM     63  C   UNL A   1      46.561  31.259  27.536  1.00  0.00     0.031 C 
ATOM     64  C   UNL A   1      44.578  32.033  28.809  1.00  0.00     0.034 A 
BRANCH  51  65
ATOM     65  C   UNL A   1      38.888  30.373  30.682  1.00  0.00     0.023 A 
ATOM     66  C   UNL A   1      37.843  31.034  30.011  1.00  0.00     0.031 A 
ATOM     67  C   UNL A   1      38.724  30.114  32.054  1.00  0.00     0.131 A 
ATOM     68  C   UNL A   1      36.732  31.502  30.729  1.00  0.00     0.055 A 
ATOM     69  C   UNL A   1      37.573  30.500  32.744  1.00  0.00     0.041 A 
ATOM     70  F   UNL A   1      39.692  29.504  32.756  1.00  0.00    -0.206 F 
ATOM     71  C   UNL A   1      36.577  31.216  32.087  1.00  0.00     0.022 A 
BRANCH  68  72
ATOM     72  S   UNL A   1      35.581  32.631  29.899  1.00  0.00     0.124 S 
ATOM     73  O   UNL A   1      35.505  32.040  28.564  1.00  0.00    -0.237 OA
ATOM     74  O   UNL A   1      34.380  32.517  30.717  1.00  0.00    -0.237 OA
ATOM     75  O   UNL A   1      36.261  33.923  29.963  1.00  0.00    -0.744 OA
ENDBRANCH  68  72
ENDBRANCH  51  65
BRANCH  52  76
ATOM     76  C   UNL A   1      47.053  27.587  25.497  1.00  0.00     0.023 A 
ATOM     77  C   UNL A   1      47.144  27.942  24.141  1.00  0.00     0.031 A 
ATOM     78  C   UNL A   1      48.104  26.838  26.053  1.00  0.00     0.131 A 
ATOM     79  C   UNL A   1      48.240  27.510  23.375  1.00  0.00     0.055 A 
ATOM     80  C   UNL A   1      49.215  26.451  25.299  1.00  0.00     0.041 A 
ATOM     81  F   UNL A   1      48.073  26.481  27.347  1.00  0.00    -0.206 F 
ATOM     82  C   UNL A   1      49.280  26.776  23.948  1.00  0.00     0.022 A 
BRANCH  79  83
ATOM     83  S   UNL A   1      48.247  27.858  21.594  1.00  0.00     0.124 S 
ATOM     84  O   UNL A   1      49.266  28.895  21.497  1.00  0.00    -0.237 OA
ATOM     85  O   UNL A   1      48.598  26.557  21.033  1.00  0.00    -0.237 OA
ATOM     86  O   UNL A   1      46.879  28.299  21.329  1.00  0.00    -0.744 OA
ENDBRANCH  79  83
ENDBRANCH  52  76
BRANCH  64  87
ATOM     87  C   UNL A   1      45.341  33.295  29.116  1.00  0.00     0.023 A 
ATOM     88  C   UNL A   1      45.371  34.376  28.218  1.00  0.00     0.031 A 
ATOM     89  C   UNL A   1      46.053  33.412  30.323  1.00  0.00     0.131 A 
ATOM     90  C   UNL A   1      46.143  35.508  28.517  1.00  0.00     0.055 A 
ATOM     91  C   UNL A   1      46.772  34.564  30.640  1.00  0.00     0.041 A 
ATOM     92  F   UNL A   1      46.056  32.407  31.213  1.00  0.00    -0.206 F 
ATOM     93  C   UNL A   1      46.830  35.615  29.730  1.00  0.00     0.022 A 
BRANCH  90  94
ATOM     94  S   UNL A   1      46.303  36.805  27.261  1.00  0.00     0.124 S 
ATOM     95  O   UNL A   1      45.048  37.534  27.416  1.00  0.00    -0.237 OA
ATOM     96  O   UNL A   1      47.506  37.510  27.691  1.00  0.00    -0.237 OA
ATOM     97  O   UNL A   1      46.436  36.058  26.012  1.00  0.00    -0.744 OA
ENDBRANCH  90  94
ENDBRANCH  64  87
ENDBRANCH  38  39
ENDBRANCH  30  33
ENDBRANCH  28  29
ENDBRANCH   1  28
TORSDOF 16
ENDMDL
