MODEL 1
REMARK VINA RESULT:     -10.6      0.000      0.000
REMARK SMILES CC(C)[C@@H](CC(=O)NCCCNC(=O)c1ccc(-c2c3nc(c(-c4cc(S(=O)(=O)[O-])ccc4F)c4ccc([nH]4)c(-c4cc(S(=O)(=O)[O-])ccc4F)c4nc(c(-c5cc(S(=O)(=O)[O-])ccc5F)c5ccc2[nH]5)C=C4)C=C3)cc1)NC(=O)OCc1ccccc1
REMARK SMILES IDX 9 1 8 2 6 3 7 4 5 6 4 7 2 8 1 9 3 10 78 11 79 12 80 14 81 15
REMARK SMILES IDX 82 16 83 17 84 18 88 19 85 20 87 21 86 22 10 23 11 24 12 25
REMARK SMILES IDX 13 26 14 28 15 29 16 30 77 31 17 32 76 33 18 34 19 35 20 36
REMARK SMILES IDX 70 37 21 38 75 39 69 40 71 41 22 42 74 43 68 44 67 45 23 47
REMARK SMILES IDX 55 48 35 49 54 50 36 51 39 52 53 53 72 54 37 55 38 56 52 58
REMARK SMILES IDX 73 59 40 60 24 61 25 62 33 63 26 64 32 65 34 66 31 67 27 68
REMARK SMILES IDX 28 69 29 70 30 71 56 72 57 73 65 74 58 75 64 76 66 77 63 78
REMARK SMILES IDX 59 79 60 80 61 81 62 82 41 83 42 84 50 85 43 86 49 87 51 88
REMARK SMILES IDX 48 89 44 90 45 91 46 92 47 93
REMARK H PARENT 8 5 78 13 12 27 71 46 39 57
REMARK Flexibility Score: inf
ROOT
ATOM      1  C   UNL A   1      33.993  22.939  25.715  1.00  0.00     0.117 C 
ENDROOT
BRANCH   1   2
ATOM      2  N   UNL A   1      32.862  23.177  26.593  1.00  0.00    -0.356 N 
ATOM      3  C   UNL A   1      31.586  23.555  26.315  1.00  0.00     0.222 C 
ATOM      4  O   UNL A   1      30.836  23.760  27.273  1.00  0.00    -0.275 OA
ATOM      5  H   UNL A   1      33.050  23.043  27.550  1.00  0.00     0.163 HD
BRANCH   3   6
ATOM      6  C   UNL A   1      31.081  23.697  24.888  1.00  0.00     0.125 C 
BRANCH   6   7
ATOM      7  C   UNL A   1      31.289  25.068  24.206  1.00  0.00     0.097 C 
BRANCH   7   8
ATOM      8  C   UNL A   1      29.976  25.849  23.915  1.00  0.00     0.006 C 
ATOM      9  C   UNL A   1      29.264  26.324  25.184  1.00  0.00     0.009 C 
ATOM     10  C   UNL A   1      30.159  27.049  22.976  1.00  0.00     0.009 C 
ENDBRANCH   7   8
BRANCH   7  11
ATOM     11  N   UNL A   1      32.086  24.937  22.991  1.00  0.00    -0.318 N 
ATOM     12  C   UNL A   1      33.274  25.540  22.708  1.00  0.00     0.407 C 
ATOM     13  H   UNL A   1      31.724  24.343  22.294  1.00  0.00     0.167 HD
ATOM     14  O   UNL A   1      33.692  25.578  21.554  1.00  0.00    -0.225 OA
BRANCH  12  15
ATOM     15  O   UNL A   1      33.888  26.075  23.789  1.00  0.00    -0.445 OA
BRANCH  15  16
ATOM     16  C   UNL A   1      33.958  27.508  23.812  1.00  0.00     0.270 C 
BRANCH  16  17
ATOM     17  C   UNL A   1      33.157  28.095  24.951  1.00  0.00    -0.011 A 
ATOM     18  C   UNL A   1      32.466  29.305  24.801  1.00  0.00     0.007 A 
ATOM     19  C   UNL A   1      33.101  27.442  26.192  1.00  0.00     0.007 A 
ATOM     20  C   UNL A   1      31.741  29.846  25.868  1.00  0.00     0.000 A 
ATOM     21  C   UNL A   1      32.366  27.974  27.252  1.00  0.00     0.000 A 
ATOM     22  C   UNL A   1      31.688  29.179  27.090  1.00  0.00     0.000 A 
ENDBRANCH  16  17
ENDBRANCH  15  16
ENDBRANCH  12  15
ENDBRANCH   7  11
ENDBRANCH   6   7
ENDBRANCH   3   6
ENDBRANCH   1   2
BRANCH   1  23
ATOM     23  C   UNL A   1      35.287  22.801  26.514  1.00  0.00     0.042 C 
BRANCH  23  24
ATOM     24  C   UNL A   1      36.531  23.285  25.789  1.00  0.00     0.118 C 
BRANCH  24  25
ATOM     25  N   UNL A   1      37.659  22.392  25.978  1.00  0.00    -0.352 N 
ATOM     26  C   UNL A   1      38.954  22.649  26.358  1.00  0.00     0.251 C 
ATOM     27  H   UNL A   1      37.463  21.442  25.802  1.00  0.00     0.163 HD
ATOM     28  O   UNL A   1      39.785  21.751  26.224  1.00  0.00    -0.269 OA
BRANCH  26  29
ATOM     29  C   UNL A   1      39.372  23.970  26.897  1.00  0.00     0.039 A 
ATOM     30  C   UNL A   1      40.022  24.863  26.037  1.00  0.00     0.014 A 
ATOM     31  C   UNL A   1      39.201  24.322  28.238  1.00  0.00     0.014 A 
ATOM     32  C   UNL A   1      40.457  26.105  26.509  1.00  0.00     0.010 A 
ATOM     33  C   UNL A   1      39.543  25.601  28.683  1.00  0.00     0.010 A 
ATOM     34  C   UNL A   1      40.200  26.499  27.832  1.00  0.00    -0.014 A 
BRANCH  34  35
ATOM     35  C   UNL A   1      40.658  27.821  28.342  1.00  0.00     0.031 A 
ATOM     36  C   UNL A   1      42.131  28.123  28.455  1.00  0.00     0.074 A 
ATOM     37  C   UNL A   1      39.752  28.741  28.729  1.00  0.00     0.049 A 
ATOM     38  N   UNL A   1      42.727  29.203  28.895  1.00  0.00    -0.248 NA
ATOM     39  C   UNL A   1      43.058  27.054  28.051  1.00  0.00     0.031 C 
ATOM     40  C   UNL A   1      38.300  28.551  28.721  1.00  0.00     0.029 A 
ATOM     41  N   UNL A   1      39.914  30.019  29.204  1.00  0.00    -0.354 N 
ATOM     42  C   UNL A   1      44.092  28.940  28.829  1.00  0.00     0.074 A 
ATOM     43  C   UNL A   1      44.232  27.572  28.380  1.00  0.00     0.031 C 
ATOM     44  C   UNL A   1      37.705  29.680  29.136  1.00  0.00     0.029 A 
ATOM     45  C   UNL A   1      38.729  30.663  29.477  1.00  0.00     0.049 A 
ATOM     46  H   UNL A   1      40.796  30.435  29.336  1.00  0.00     0.167 HD
ATOM     47  C   UNL A   1      45.135  29.770  29.088  1.00  0.00     0.034 A 
ATOM     48  C   UNL A   1      38.493  31.903  29.949  1.00  0.00     0.034 A 
ATOM     49  C   UNL A   1      44.981  31.138  29.520  1.00  0.00     0.049 A 
ATOM     50  C   UNL A   1      39.664  32.811  30.222  1.00  0.00     0.074 A 
ATOM     51  C   UNL A   1      45.963  32.082  29.770  1.00  0.00     0.029 A 
ATOM     52  N   UNL A   1      43.764  31.760  29.769  1.00  0.00    -0.354 N 
ATOM     53  N   UNL A   1      40.948  32.562  30.104  1.00  0.00    -0.248 NA
ATOM     54  C   UNL A   1      39.353  34.173  30.672  1.00  0.00     0.031 C 
ATOM     55  C   UNL A   1      45.343  33.252  30.225  1.00  0.00     0.029 A 
ATOM     56  C   UNL A   1      43.971  33.065  30.190  1.00  0.00     0.049 A 
ATOM     57  H   UNL A   1      42.882  31.336  29.662  1.00  0.00     0.167 HD
ATOM     58  C   UNL A   1      41.596  33.746  30.445  1.00  0.00     0.074 A 
ATOM     59  C   UNL A   1      40.560  34.713  30.745  1.00  0.00     0.031 C 
ATOM     60  C   UNL A   1      42.927  34.013  30.504  1.00  0.00     0.034 A 
BRANCH  47  61
ATOM     61  C   UNL A   1      46.528  29.206  28.920  1.00  0.00     0.023 A 
ATOM     62  C   UNL A   1      47.119  29.064  27.651  1.00  0.00     0.031 A 
ATOM     63  C   UNL A   1      47.263  28.768  30.037  1.00  0.00     0.131 A 
ATOM     64  C   UNL A   1      48.361  28.425  27.521  1.00  0.00     0.055 A 
ATOM     65  C   UNL A   1      48.538  28.210  29.908  1.00  0.00     0.041 A 
ATOM     66  F   UNL A   1      46.747  28.857  31.272  1.00  0.00    -0.206 F 
ATOM     67  C   UNL A   1      49.087  28.020  28.643  1.00  0.00     0.022 A 
BRANCH  64  68
ATOM     68  S   UNL A   1      48.942  27.994  25.857  1.00  0.00     0.124 S 
ATOM     69  O   UNL A   1      47.737  28.213  25.059  1.00  0.00    -0.237 OA
ATOM     70  O   UNL A   1      50.029  28.943  25.647  1.00  0.00    -0.237 OA
ATOM     71  O   UNL A   1      49.348  26.597  25.987  1.00  0.00    -0.744 OA
ENDBRANCH  64  68
ENDBRANCH  47  61
BRANCH  48  72
ATOM     72  C   UNL A   1      37.095  32.364  30.192  1.00  0.00     0.023 A 
ATOM     73  C   UNL A   1      36.371  33.046  29.201  1.00  0.00     0.031 A 
ATOM     74  C   UNL A   1      36.475  32.160  31.438  1.00  0.00     0.131 A 
ATOM     75  C   UNL A   1      35.088  33.539  29.486  1.00  0.00     0.055 A 
ATOM     76  C   UNL A   1      35.179  32.608  31.700  1.00  0.00     0.041 A 
ATOM     77  F   UNL A   1      37.120  31.507  32.418  1.00  0.00    -0.206 F 
ATOM     78  C   UNL A   1      34.484  33.315  30.724  1.00  0.00     0.022 A 
BRANCH  75  79
ATOM     79  S   UNL A   1      34.250  34.552  28.236  1.00  0.00     0.124 S 
ATOM     80  O   UNL A   1      35.184  34.482  27.119  1.00  0.00    -0.237 OA
ATOM     81  O   UNL A   1      32.989  33.838  28.064  1.00  0.00    -0.237 OA
ATOM     82  O   UNL A   1      34.139  35.860  28.877  1.00  0.00    -0.744 OA
ENDBRANCH  75  79
ENDBRANCH  48  72
BRANCH  60  83
ATOM     83  C   UNL A   1      43.322  35.421  30.876  1.00  0.00     0.023 A 
ATOM     84  C   UNL A   1      43.346  35.851  32.213  1.00  0.00     0.031 A 
ATOM     85  C   UNL A   1      43.651  36.353  29.876  1.00  0.00     0.131 A 
ATOM     86  C   UNL A   1      43.624  37.194  32.512  1.00  0.00     0.055 A 
ATOM     87  C   UNL A   1      43.989  37.671  30.182  1.00  0.00     0.041 A 
ATOM     88  F   UNL A   1      43.643  35.997  28.581  1.00  0.00    -0.206 F 
ATOM     89  C   UNL A   1      43.960  38.103  31.506  1.00  0.00     0.022 A 
BRANCH  86  90
ATOM     90  S   UNL A   1      43.431  37.762  34.224  1.00  0.00     0.124 S 
ATOM     91  O   UNL A   1      44.800  37.698  34.722  1.00  0.00    -0.237 OA
ATOM     92  O   UNL A   1      42.877  39.101  34.046  1.00  0.00    -0.237 OA
ATOM     93  O   UNL A   1      42.513  36.785  34.807  1.00  0.00    -0.744 OA
ENDBRANCH  86  90
ENDBRANCH  60  83
ENDBRANCH  34  35
ENDBRANCH  26  29
ENDBRANCH  24  25
ENDBRANCH  23  24
ENDBRANCH   1  23
TORSDOF 19
ENDMDL
MODEL 2
REMARK VINA RESULT:     -10.5      4.532      9.778
REMARK SMILES CC(C)[C@@H](CC(=O)NCCCNC(=O)c1ccc(-c2c3nc(c(-c4cc(S(=O)(=O)[O-])ccc4F)c4ccc([nH]4)c(-c4cc(S(=O)(=O)[O-])ccc4F)c4nc(c(-c5cc(S(=O)(=O)[O-])ccc5F)c5ccc2[nH]5)C=C4)C=C3)cc1)NC(=O)OCc1ccccc1
REMARK SMILES IDX 9 1 8 2 6 3 7 4 5 6 4 7 2 8 1 9 3 10 78 11 79 12 80 14 81 15
REMARK SMILES IDX 82 16 83 17 84 18 88 19 85 20 87 21 86 22 10 23 11 24 12 25
REMARK SMILES IDX 13 26 14 28 15 29 16 30 77 31 17 32 76 33 18 34 19 35 20 36
REMARK SMILES IDX 70 37 21 38 75 39 69 40 71 41 22 42 74 43 68 44 67 45 23 47
REMARK SMILES IDX 55 48 35 49 54 50 36 51 39 52 53 53 72 54 37 55 38 56 52 58
REMARK SMILES IDX 73 59 40 60 24 61 25 62 33 63 26 64 32 65 34 66 31 67 27 68
REMARK SMILES IDX 28 69 29 70 30 71 56 72 57 73 65 74 58 75 64 76 66 77 63 78
REMARK SMILES IDX 59 79 60 80 61 81 62 82 41 83 42 84 50 85 43 86 49 87 51 88
REMARK SMILES IDX 48 89 44 90 45 91 46 92 47 93
REMARK H PARENT 8 5 78 13 12 27 71 46 39 57
REMARK Flexibility Score: inf
ROOT
ATOM      1  C   UNL A   1      32.662  26.607  25.642  1.00  0.00     0.117 C 
ENDROOT
BRANCH   1   2
ATOM      2  N   UNL A   1      31.828  25.629  26.316  1.00  0.00    -0.356 N 
ATOM      3  C   UNL A   1      32.104  24.369  26.744  1.00  0.00     0.222 C 
ATOM      4  O   UNL A   1      31.174  23.719  27.226  1.00  0.00    -0.275 OA
ATOM      5  H   UNL A   1      30.906  25.928  26.492  1.00  0.00     0.163 HD
BRANCH   3   6
ATOM      6  C   UNL A   1      33.504  23.780  26.663  1.00  0.00     0.125 C 
BRANCH   6   7
ATOM      7  C   UNL A   1      33.781  22.794  25.506  1.00  0.00     0.097 C 
BRANCH   7   8
ATOM      8  C   UNL A   1      35.219  22.877  24.919  1.00  0.00     0.006 C 
ATOM      9  C   UNL A   1      36.083  23.948  25.590  1.00  0.00     0.009 C 
ATOM     10  C   UNL A   1      35.981  21.545  24.943  1.00  0.00     0.009 C 
ENDBRANCH   7   8
BRANCH   7  11
ATOM     11  N   UNL A   1      32.788  22.930  24.446  1.00  0.00    -0.318 N 
ATOM     12  C   UNL A   1      32.209  21.936  23.718  1.00  0.00     0.407 C 
ATOM     13  H   UNL A   1      32.502  23.848  24.233  1.00  0.00     0.167 HD
ATOM     14  O   UNL A   1      31.616  22.196  22.675  1.00  0.00    -0.225 OA
BRANCH  12  15
ATOM     15  O   UNL A   1      32.375  20.702  24.247  1.00  0.00    -0.445 OA
BRANCH  15  16
ATOM     16  C   UNL A   1      32.251  19.612  23.321  1.00  0.00     0.270 C 
BRANCH  16  17
ATOM     17  C   UNL A   1      32.796  18.323  23.889  1.00  0.00    -0.011 A 
ATOM     18  C   UNL A   1      33.652  17.506  23.138  1.00  0.00     0.007 A 
ATOM     19  C   UNL A   1      32.442  17.909  25.182  1.00  0.00     0.007 A 
ATOM     20  C   UNL A   1      34.137  16.307  23.668  1.00  0.00     0.000 A 
ATOM     21  C   UNL A   1      32.937  16.719  25.718  1.00  0.00     0.000 A 
ATOM     22  C   UNL A   1      33.783  15.917  24.959  1.00  0.00     0.000 A 
ENDBRANCH  16  17
ENDBRANCH  15  16
ENDBRANCH  12  15
ENDBRANCH   7  11
ENDBRANCH   6   7
ENDBRANCH   3   6
ENDBRANCH   1   2
BRANCH   1  23
ATOM     23  C   UNL A   1      32.901  27.828  26.530  1.00  0.00     0.042 C 
BRANCH  23  24
ATOM     24  C   UNL A   1      33.938  28.801  25.997  1.00  0.00     0.118 C 
BRANCH  24  25
ATOM     25  N   UNL A   1      33.800  30.123  26.580  1.00  0.00    -0.352 N 
ATOM     26  C   UNL A   1      34.534  30.755  27.555  1.00  0.00     0.251 C 
ATOM     27  H   UNL A   1      33.055  30.655  26.217  1.00  0.00     0.163 HD
ATOM     28  O   UNL A   1      34.079  31.790  28.041  1.00  0.00    -0.269 OA
BRANCH  26  29
ATOM     29  C   UNL A   1      35.831  30.216  28.042  1.00  0.00     0.039 A 
ATOM     30  C   UNL A   1      35.863  29.595  29.296  1.00  0.00     0.014 A 
ATOM     31  C   UNL A   1      37.023  30.366  27.328  1.00  0.00     0.014 A 
ATOM     32  C   UNL A   1      37.067  29.098  29.806  1.00  0.00     0.010 A 
ATOM     33  C   UNL A   1      38.203  29.779  27.791  1.00  0.00     0.010 A 
ATOM     34  C   UNL A   1      38.246  29.161  29.047  1.00  0.00    -0.014 A 
BRANCH  34  35
ATOM     35  C   UNL A   1      39.532  28.634  29.582  1.00  0.00     0.031 A 
ATOM     36  C   UNL A   1      40.149  29.241  30.817  1.00  0.00     0.074 A 
ATOM     37  C   UNL A   1      40.160  27.626  28.943  1.00  0.00     0.049 A 
ATOM     38  N   UNL A   1      41.269  28.936  31.422  1.00  0.00    -0.248 NA
ATOM     39  C   UNL A   1      39.425  30.362  31.434  1.00  0.00     0.031 C 
ATOM     40  C   UNL A   1      39.695  26.989  27.708  1.00  0.00     0.029 A 
ATOM     41  N   UNL A   1      41.321  26.957  29.241  1.00  0.00    -0.354 N 
ATOM     42  C   UNL A   1      41.388  29.831  32.481  1.00  0.00     0.074 A 
ATOM     43  C   UNL A   1      40.264  30.738  32.387  1.00  0.00     0.031 C 
ATOM     44  C   UNL A   1      40.543  26.004  27.374  1.00  0.00     0.029 A 
ATOM     45  C   UNL A   1      41.632  25.960  28.345  1.00  0.00     0.049 A 
ATOM     46  H   UNL A   1      41.880  27.173  30.022  1.00  0.00     0.167 HD
ATOM     47  C   UNL A   1      42.327  29.877  33.460  1.00  0.00     0.034 A 
ATOM     48  C   UNL A   1      42.674  25.106  28.309  1.00  0.00     0.034 A 
ATOM     49  C   UNL A   1      43.434  28.956  33.550  1.00  0.00     0.049 A 
ATOM     50  C   UNL A   1      43.702  25.168  29.410  1.00  0.00     0.074 A 
ATOM     51  C   UNL A   1      44.420  28.882  34.520  1.00  0.00     0.029 A 
ATOM     52  N   UNL A   1      43.706  27.948  32.633  1.00  0.00    -0.354 N 
ATOM     53  N   UNL A   1      43.769  25.989  30.433  1.00  0.00    -0.248 NA
ATOM     54  C   UNL A   1      44.782  24.175  29.362  1.00  0.00     0.031 C 
ATOM     55  C   UNL A   1      45.317  27.869  34.158  1.00  0.00     0.029 A 
ATOM     56  C   UNL A   1      44.853  27.262  33.002  1.00  0.00     0.049 A 
ATOM     57  H   UNL A   1      43.162  27.749  31.837  1.00  0.00     0.167 HD
ATOM     58  C   UNL A   1      44.887  25.595  31.162  1.00  0.00     0.074 A 
ATOM     59  C   UNL A   1      45.445  24.448  30.475  1.00  0.00     0.031 C 
ATOM     60  C   UNL A   1      45.408  26.130  32.297  1.00  0.00     0.034 A 
BRANCH  47  61
ATOM     61  C   UNL A   1      42.195  30.970  34.497  1.00  0.00     0.023 A 
ATOM     62  C   UNL A   1      42.671  32.272  34.260  1.00  0.00     0.031 A 
ATOM     63  C   UNL A   1      41.620  30.701  35.751  1.00  0.00     0.131 A 
ATOM     64  C   UNL A   1      42.644  33.229  35.286  1.00  0.00     0.055 A 
ATOM     65  C   UNL A   1      41.516  31.683  36.741  1.00  0.00     0.041 A 
ATOM     66  F   UNL A   1      41.164  29.474  36.046  1.00  0.00    -0.206 F 
ATOM     67  C   UNL A   1      42.045  32.951  36.517  1.00  0.00     0.022 A 
BRANCH  64  68
ATOM     68  S   UNL A   1      43.537  34.788  35.041  1.00  0.00     0.124 S 
ATOM     69  O   UNL A   1      43.612  35.303  36.407  1.00  0.00    -0.237 OA
ATOM     70  O   UNL A   1      44.796  34.342  34.456  1.00  0.00    -0.237 OA
ATOM     71  O   UNL A   1      42.665  35.545  34.146  1.00  0.00    -0.744 OA
ENDBRANCH  64  68
ENDBRANCH  47  61
BRANCH  48  72
ATOM     72  C   UNL A   1      42.802  24.119  27.199  1.00  0.00     0.023 A 
ATOM     73  C   UNL A   1      42.176  22.863  27.266  1.00  0.00     0.031 A 
ATOM     74  C   UNL A   1      43.587  24.404  26.067  1.00  0.00     0.131 A 
ATOM     75  C   UNL A   1      42.380  21.924  26.243  1.00  0.00     0.055 A 
ATOM     76  C   UNL A   1      43.747  23.484  25.029  1.00  0.00     0.041 A 
ATOM     77  F   UNL A   1      44.201  25.591  25.949  1.00  0.00    -0.206 F 
ATOM     78  C   UNL A   1      43.152  22.230  25.121  1.00  0.00     0.022 A 
BRANCH  75  79
ATOM     79  S   UNL A   1      41.687  20.260  26.441  1.00  0.00     0.124 S 
ATOM     80  O   UNL A   1      42.310  19.542  25.336  1.00  0.00    -0.237 OA
ATOM     81  O   UNL A   1      42.143  19.899  27.780  1.00  0.00    -0.237 OA
ATOM     82  O   UNL A   1      40.247  20.474  26.315  1.00  0.00    -0.744 OA
ENDBRANCH  75  79
ENDBRANCH  48  72
BRANCH  60  83
ATOM     83  C   UNL A   1      46.624  25.448  32.875  1.00  0.00     0.023 A 
ATOM     84  C   UNL A   1      46.511  24.425  33.832  1.00  0.00     0.031 A 
ATOM     85  C   UNL A   1      47.914  25.848  32.484  1.00  0.00     0.131 A 
ATOM     86  C   UNL A   1      47.665  23.883  34.417  1.00  0.00     0.055 A 
ATOM     87  C   UNL A   1      49.059  25.261  33.022  1.00  0.00     0.041 A 
ATOM     88  F   UNL A   1      48.082  26.821  31.573  1.00  0.00    -0.206 F 
ATOM     89  C   UNL A   1      48.939  24.285  34.007  1.00  0.00     0.022 A 
BRANCH  86  90
ATOM     90  S   UNL A   1      47.477  22.727  35.802  1.00  0.00     0.124 S 
ATOM     91  O   UNL A   1      47.723  21.441  35.160  1.00  0.00    -0.237 OA
ATOM     92  O   UNL A   1      48.507  23.184  36.731  1.00  0.00    -0.237 OA
ATOM     93  O   UNL A   1      46.102  22.945  36.246  1.00  0.00    -0.744 OA
ENDBRANCH  86  90
ENDBRANCH  60  83
ENDBRANCH  34  35
ENDBRANCH  26  29
ENDBRANCH  24  25
ENDBRANCH  23  24
ENDBRANCH   1  23
TORSDOF 19
ENDMDL
MODEL 3
REMARK VINA RESULT:     -10.5      4.965      8.141
REMARK SMILES CC(C)[C@@H](CC(=O)NCCCNC(=O)c1ccc(-c2c3nc(c(-c4cc(S(=O)(=O)[O-])ccc4F)c4ccc([nH]4)c(-c4cc(S(=O)(=O)[O-])ccc4F)c4nc(c(-c5cc(S(=O)(=O)[O-])ccc5F)c5ccc2[nH]5)C=C4)C=C3)cc1)NC(=O)OCc1ccccc1
REMARK SMILES IDX 9 1 8 2 6 3 7 4 5 6 4 7 2 8 1 9 3 10 78 11 79 12 80 14 81 15
REMARK SMILES IDX 82 16 83 17 84 18 88 19 85 20 87 21 86 22 10 23 11 24 12 25
REMARK SMILES IDX 13 26 14 28 15 29 16 30 77 31 17 32 76 33 18 34 19 35 20 36
REMARK SMILES IDX 70 37 21 38 75 39 69 40 71 41 22 42 74 43 68 44 67 45 23 47
REMARK SMILES IDX 55 48 35 49 54 50 36 51 39 52 53 53 72 54 37 55 38 56 52 58
REMARK SMILES IDX 73 59 40 60 24 61 25 62 33 63 26 64 32 65 34 66 31 67 27 68
REMARK SMILES IDX 28 69 29 70 30 71 56 72 57 73 65 74 58 75 64 76 66 77 63 78
REMARK SMILES IDX 59 79 60 80 61 81 62 82 41 83 42 84 50 85 43 86 49 87 51 88
REMARK SMILES IDX 48 89 44 90 45 91 46 92 47 93
REMARK H PARENT 8 5 78 13 12 27 71 46 39 57
REMARK Flexibility Score: inf
ROOT
ATOM      1  C   UNL A   1      31.667  30.521  26.847  1.00  0.00     0.117 C 
ENDROOT
BRANCH   1   2
ATOM      2  N   UNL A   1      32.893  30.070  27.479  1.00  0.00    -0.356 N 
ATOM      3  C   UNL A   1      33.941  29.362  26.980  1.00  0.00     0.222 C 
ATOM      4  O   UNL A   1      34.835  29.044  27.768  1.00  0.00    -0.275 OA
ATOM      5  H   UNL A   1      32.982  30.318  28.427  1.00  0.00     0.163 HD
BRANCH   3   6
ATOM      6  C   UNL A   1      34.035  28.991  25.508  1.00  0.00     0.125 C 
BRANCH   6   7
ATOM      7  C   UNL A   1      33.235  27.751  25.048  1.00  0.00     0.097 C 
BRANCH   7   8
ATOM      8  C   UNL A   1      33.067  26.652  26.135  1.00  0.00     0.006 C 
ATOM      9  C   UNL A   1      31.604  26.362  26.478  1.00  0.00     0.009 C 
ATOM     10  C   UNL A   1      33.765  25.328  25.798  1.00  0.00     0.009 C 
ENDBRANCH   7   8
BRANCH   7  11
ATOM     11  N   UNL A   1      33.801  27.182  23.829  1.00  0.00    -0.318 N 
ATOM     12  C   UNL A   1      33.258  27.188  22.581  1.00  0.00     0.407 C 
ATOM     13  H   UNL A   1      34.677  26.742  23.919  1.00  0.00     0.167 HD
ATOM     14  O   UNL A   1      33.688  26.433  21.713  1.00  0.00    -0.225 OA
BRANCH  12  15
ATOM     15  O   UNL A   1      32.237  28.063  22.431  1.00  0.00    -0.445 OA
BRANCH  15  16
ATOM     16  C   UNL A   1      30.927  27.479  22.377  1.00  0.00     0.270 C 
BRANCH  16  17
ATOM     17  C   UNL A   1      29.838  28.523  22.465  1.00  0.00    -0.011 A 
ATOM     18  C   UNL A   1      28.585  28.217  23.012  1.00  0.00     0.007 A 
ATOM     19  C   UNL A   1      30.058  29.822  21.983  1.00  0.00     0.007 A 
ATOM     20  C   UNL A   1      27.580  29.187  23.074  1.00  0.00     0.000 A 
ATOM     21  C   UNL A   1      29.060  30.795  22.057  1.00  0.00     0.000 A 
ATOM     22  C   UNL A   1      27.820  30.476  22.601  1.00  0.00     0.000 A 
ENDBRANCH  16  17
ENDBRANCH  15  16
ENDBRANCH  12  15
ENDBRANCH   7  11
ENDBRANCH   6   7
ENDBRANCH   3   6
ENDBRANCH   1   2
BRANCH   1  23
ATOM     23  C   UNL A   1      31.592  32.047  26.824  1.00  0.00     0.042 C 
BRANCH  23  24
ATOM     24  C   UNL A   1      32.909  32.748  27.112  1.00  0.00     0.118 C 
BRANCH  24  25
ATOM     25  N   UNL A   1      32.714  34.065  27.689  1.00  0.00    -0.352 N 
ATOM     26  C   UNL A   1      33.231  34.630  28.830  1.00  0.00     0.251 C 
ATOM     27  H   UNL A   1      32.110  34.651  27.178  1.00  0.00     0.163 HD
ATOM     28  O   UNL A   1      32.736  35.683  29.228  1.00  0.00    -0.269 OA
BRANCH  26  29
ATOM     29  C   UNL A   1      34.341  33.998  29.593  1.00  0.00     0.039 A 
ATOM     30  C   UNL A   1      35.654  34.374  29.289  1.00  0.00     0.014 A 
ATOM     31  C   UNL A   1      34.123  33.002  30.548  1.00  0.00     0.014 A 
ATOM     32  C   UNL A   1      36.729  33.785  29.962  1.00  0.00     0.010 A 
ATOM     33  C   UNL A   1      35.188  32.490  31.291  1.00  0.00     0.010 A 
ATOM     34  C   UNL A   1      36.507  32.855  30.990  1.00  0.00    -0.014 A 
BRANCH  34  35
ATOM     35  C   UNL A   1      37.646  32.224  31.713  1.00  0.00     0.031 A 
ATOM     36  C   UNL A   1      38.461  31.141  31.052  1.00  0.00     0.074 A 
ATOM     37  C   UNL A   1      37.933  32.605  32.974  1.00  0.00     0.049 A 
ATOM     38  N   UNL A   1      39.473  30.457  31.523  1.00  0.00    -0.248 NA
ATOM     39  C   UNL A   1      38.062  30.752  29.690  1.00  0.00     0.031 C 
ATOM     40  C   UNL A   1      37.186  33.602  33.745  1.00  0.00     0.029 A 
ATOM     41  N   UNL A   1      38.926  32.203  33.831  1.00  0.00    -0.354 N 
ATOM     42  C   UNL A   1      39.824  29.555  30.523  1.00  0.00     0.074 A 
ATOM     43  C   UNL A   1      38.867  29.727  29.452  1.00  0.00     0.031 C 
ATOM     44  C   UNL A   1      37.767  33.758  34.945  1.00  0.00     0.029 A 
ATOM     45  C   UNL A   1      38.903  32.846  35.047  1.00  0.00     0.049 A 
ATOM     46  H   UNL A   1      39.592  31.517  33.598  1.00  0.00     0.167 HD
ATOM     47  C   UNL A   1      40.865  28.684  30.485  1.00  0.00     0.034 A 
ATOM     48  C   UNL A   1      39.704  32.718  36.124  1.00  0.00     0.034 A 
ATOM     49  C   UNL A   1      41.822  28.534  31.555  1.00  0.00     0.049 A 
ATOM     50  C   UNL A   1      40.859  31.752  36.058  1.00  0.00     0.074 A 
ATOM     51  C   UNL A   1      42.938  27.716  31.607  1.00  0.00     0.029 A 
ATOM     52  N   UNL A   1      41.775  29.216  32.764  1.00  0.00    -0.354 N 
ATOM     53  N   UNL A   1      41.206  30.944  35.082  1.00  0.00    -0.248 NA
ATOM     54  C   UNL A   1      41.741  31.696  37.229  1.00  0.00     0.031 C 
ATOM     55  C   UNL A   1      43.530  27.861  32.868  1.00  0.00     0.029 A 
ATOM     56  C   UNL A   1      42.828  28.823  33.576  1.00  0.00     0.049 A 
ATOM     57  H   UNL A   1      41.093  29.883  33.009  1.00  0.00     0.167 HD
ATOM     58  C   UNL A   1      42.362  30.300  35.517  1.00  0.00     0.074 A 
ATOM     59  C   UNL A   1      42.664  30.835  36.829  1.00  0.00     0.031 C 
ATOM     60  C   UNL A   1      43.107  29.353  34.891  1.00  0.00     0.034 A 
BRANCH  47  61
ATOM     61  C   UNL A   1      41.004  27.824  29.249  1.00  0.00     0.023 A 
ATOM     62  C   UNL A   1      42.022  28.050  28.304  1.00  0.00     0.031 A 
ATOM     63  C   UNL A   1      40.088  26.789  28.990  1.00  0.00     0.131 A 
ATOM     64  C   UNL A   1      42.049  27.313  27.110  1.00  0.00     0.055 A 
ATOM     65  C   UNL A   1      40.172  26.001  27.839  1.00  0.00     0.041 A 
ATOM     66  F   UNL A   1      39.083  26.536  29.842  1.00  0.00    -0.206 F 
ATOM     67  C   UNL A   1      41.146  26.272  26.882  1.00  0.00     0.022 A 
BRANCH  64  68
ATOM     68  S   UNL A   1      43.183  27.838  25.796  1.00  0.00     0.124 S 
ATOM     69  O   UNL A   1      43.625  29.140  26.291  1.00  0.00    -0.237 OA
ATOM     70  O   UNL A   1      44.186  26.779  25.802  1.00  0.00    -0.237 OA
ATOM     71  O   UNL A   1      42.333  27.887  24.609  1.00  0.00    -0.744 OA
ENDBRANCH  64  68
ENDBRANCH  47  61
BRANCH  48  72
ATOM     72  C   UNL A   1      39.450  33.523  37.353  1.00  0.00     0.023 A 
ATOM     73  C   UNL A   1      40.143  34.720  37.596  1.00  0.00     0.031 A 
ATOM     74  C   UNL A   1      38.534  33.083  38.326  1.00  0.00     0.131 A 
ATOM     75  C   UNL A   1      39.941  35.413  38.800  1.00  0.00     0.055 A 
ATOM     76  C   UNL A   1      38.300  33.803  39.499  1.00  0.00     0.041 A 
ATOM     77  F   UNL A   1      37.839  31.949  38.140  1.00  0.00    -0.206 F 
ATOM     78  C   UNL A   1      39.017  34.969  39.747  1.00  0.00     0.022 A 
BRANCH  75  79
ATOM     79  S   UNL A   1      40.969  36.867  39.147  1.00  0.00     0.124 S 
ATOM     80  O   UNL A   1      39.969  37.857  39.526  1.00  0.00    -0.237 OA
ATOM     81  O   UNL A   1      41.830  36.379  40.220  1.00  0.00    -0.237 OA
ATOM     82  O   UNL A   1      41.645  37.117  37.876  1.00  0.00    -0.744 OA
ENDBRANCH  75  79
ENDBRANCH  48  72
BRANCH  60  83
ATOM     83  C   UNL A   1      44.340  28.869  35.614  1.00  0.00     0.023 A 
ATOM     84  C   UNL A   1      44.287  27.807  36.532  1.00  0.00     0.031 A 
ATOM     85  C   UNL A   1      45.579  29.500  35.403  1.00  0.00     0.131 A 
ATOM     86  C   UNL A   1      45.435  27.451  37.257  1.00  0.00     0.055 A 
ATOM     87  C   UNL A   1      46.731  29.100  36.080  1.00  0.00     0.041 A 
ATOM     88  F   UNL A   1      45.688  30.522  34.538  1.00  0.00    -0.206 F 
ATOM     89  C   UNL A   1      46.660  28.081  37.025  1.00  0.00     0.022 A 
BRANCH  86  90
ATOM     90  S   UNL A   1      45.278  26.228  38.587  1.00  0.00     0.124 S 
ATOM     91  O   UNL A   1      44.696  27.021  39.664  1.00  0.00    -0.237 OA
ATOM     92  O   UNL A   1      44.403  25.226  37.987  1.00  0.00    -0.237 OA
ATOM     93  O   UNL A   1      46.655  25.791  38.814  1.00  0.00    -0.744 OA
ENDBRANCH  86  90
ENDBRANCH  60  83
ENDBRANCH  34  35
ENDBRANCH  26  29
ENDBRANCH  24  25
ENDBRANCH  23  24
ENDBRANCH   1  23
TORSDOF 19
ENDMDL
