MODEL 1
REMARK VINA RESULT:     -12.4      0.000      0.000
REMARK SMILES Cc1ccc2c(c1C)O[C@@H](C(=O)NCCCNC(=O)c1ccc(-c3c4nc(c(-c5cc(S(=O)(=O)[O-])ccc5F)c5ccc([nH]5)c(-c5cc(S(=O)(=O)[O-])ccc5F)c5nc(c(-c6cc(S(=O)(=O)[O-])ccc6F)c6ccc3[nH]6)C=C5)C=C4)cc1)CC2=O
REMARK SMILES IDX 17 1 18 2 19 3 16 5 15 6 14 7 13 8 11 9 12 10 10 12 1 13
REMARK SMILES IDX 2 14 3 15 7 16 4 17 6 18 8 19 5 20 9 21 84 22 83 23 85 24
REMARK SMILES IDX 20 25 21 26 82 27 22 28 81 29 23 30 24 31 25 32 75 33 26 34
REMARK SMILES IDX 80 35 74 36 76 37 27 38 79 39 73 40 72 41 28 43 60 44 40 45
REMARK SMILES IDX 59 46 41 47 44 48 58 49 77 50 42 51 43 52 57 54 78 55 45 56
REMARK SMILES IDX 29 57 30 58 38 59 31 60 37 61 39 62 36 63 32 64 33 65 34 66
REMARK SMILES IDX 35 67 61 68 62 69 70 70 63 71 69 72 71 73 68 74 64 75 65 76
REMARK SMILES IDX 66 77 67 78 46 79 47 80 55 81 48 82 54 83 56 84 53 85 49 86
REMARK SMILES IDX 50 87 51 88 52 89
REMARK H PARENT 17 4 13 11 76 42 44 53
REMARK Flexibility Score: inf
ROOT
ATOM      1  N   UNL A   1      32.602  33.863  27.626  1.00  0.00    -0.352 N 
ATOM      2  C   UNL A   1      33.270  34.531  28.622  1.00  0.00     0.251 C 
ATOM      3  O   UNL A   1      32.902  35.658  28.948  1.00  0.00    -0.269 OA
ATOM      4  H   UNL A   1      31.983  34.416  27.096  1.00  0.00     0.163 HD
ENDROOT
BRANCH   1   5
ATOM      5  C   UNL A   1      32.669  32.458  27.232  1.00  0.00     0.118 C 
BRANCH   5   6
ATOM      6  C   UNL A   1      31.403  32.015  26.509  1.00  0.00     0.042 C 
BRANCH   6   7
ATOM      7  C   UNL A   1      31.594  30.699  25.765  1.00  0.00     0.118 C 
BRANCH   7   8
ATOM      8  N   UNL A   1      32.638  29.880  26.345  1.00  0.00    -0.353 N 
ATOM      9  C   UNL A   1      33.417  28.890  25.839  1.00  0.00     0.261 C 
ATOM     10  O   UNL A   1      34.312  28.475  26.588  1.00  0.00    -0.271 OA
ATOM     11  H   UNL A   1      32.820  30.081  27.290  1.00  0.00     0.163 HD
BRANCH   9  12
ATOM     12  C   UNL A   1      33.220  28.230  24.446  1.00  0.00     0.269 C 
ATOM     13  C   UNL A   1      27.278  28.580  23.202  1.00  0.00     0.045 C 
ATOM     14  C   UNL A   1      28.596  27.888  23.427  1.00  0.00    -0.044 A 
ATOM     15  C   UNL A   1      28.586  26.556  23.873  1.00  0.00     0.005 A 
ATOM     16  C   UNL A   1      29.830  28.547  23.231  1.00  0.00    -0.005 A 
ATOM     17  C   UNL A   1      29.776  25.893  24.164  1.00  0.00     0.016 A 
ATOM     18  C   UNL A   1      31.021  27.892  23.611  1.00  0.00     0.134 A 
ATOM     19  C   UNL A   1      29.911  29.964  22.724  1.00  0.00     0.049 C 
ATOM     20  C   UNL A   1      30.989  26.574  24.057  1.00  0.00     0.060 A 
ATOM     21  O   UNL A   1      32.153  28.658  23.617  1.00  0.00    -0.479 OA
ATOM     22  C   UNL A   1      32.226  25.938  24.532  1.00  0.00     0.170 C 
ATOM     23  C   UNL A   1      33.487  26.734  24.462  1.00  0.00     0.136 C 
ATOM     24  O   UNL A   1      32.212  24.785  24.951  1.00  0.00    -0.294 OA
ENDBRANCH   9  12
ENDBRANCH   7   8
ENDBRANCH   6   7
ENDBRANCH   5   6
ENDBRANCH   1   5
BRANCH   2  25
ATOM     25  C   UNL A   1      34.420  33.900  29.299  1.00  0.00     0.039 A 
ATOM     26  C   UNL A   1      35.718  34.267  28.933  1.00  0.00     0.014 A 
ATOM     27  C   UNL A   1      34.216  32.927  30.280  1.00  0.00     0.014 A 
ATOM     28  C   UNL A   1      36.809  33.697  29.592  1.00  0.00     0.010 A 
ATOM     29  C   UNL A   1      35.296  32.427  30.995  1.00  0.00     0.010 A 
ATOM     30  C   UNL A   1      36.603  32.789  30.642  1.00  0.00    -0.014 A 
BRANCH  30  31
ATOM     31  C   UNL A   1      37.739  32.156  31.355  1.00  0.00     0.031 A 
ATOM     32  C   UNL A   1      38.466  31.009  30.712  1.00  0.00     0.074 A 
ATOM     33  C   UNL A   1      38.065  32.565  32.595  1.00  0.00     0.049 A 
ATOM     34  N   UNL A   1      39.443  30.283  31.188  1.00  0.00    -0.248 NA
ATOM     35  C   UNL A   1      38.020  30.605  29.366  1.00  0.00     0.031 C 
ATOM     36  C   UNL A   1      37.390  33.630  33.336  1.00  0.00     0.029 A 
ATOM     37  N   UNL A   1      39.037  32.123  33.457  1.00  0.00    -0.354 N 
ATOM     38  C   UNL A   1      39.717  29.335  30.211  1.00  0.00     0.074 A 
ATOM     39  C   UNL A   1      38.766  29.534  29.143  1.00  0.00     0.031 C 
ATOM     40  C   UNL A   1      37.980  33.773  34.534  1.00  0.00     0.029 A 
ATOM     41  C   UNL A   1      39.053  32.789  34.660  1.00  0.00     0.049 A 
ATOM     42  H   UNL A   1      39.664  31.396  33.236  1.00  0.00     0.167 HD
ATOM     43  C   UNL A   1      40.698  28.404  30.191  1.00  0.00     0.034 A 
ATOM     44  C   UNL A   1      39.843  32.626  35.741  1.00  0.00     0.034 A 
ATOM     45  C   UNL A   1      41.660  28.240  31.247  1.00  0.00     0.049 A 
ATOM     46  C   UNL A   1      40.940  31.592  35.692  1.00  0.00     0.074 A 
ATOM     47  C   UNL A   1      42.733  27.370  31.295  1.00  0.00     0.029 A 
ATOM     48  N   UNL A   1      41.671  28.961  32.432  1.00  0.00    -0.354 N 
ATOM     49  N   UNL A   1      41.248  30.765  34.721  1.00  0.00    -0.248 NA
ATOM     50  C   UNL A   1      41.805  31.474  36.874  1.00  0.00     0.031 C 
ATOM     51  C   UNL A   1      43.366  27.530  32.527  1.00  0.00     0.029 A 
ATOM     52  C   UNL A   1      42.724  28.542  33.225  1.00  0.00     0.049 A 
ATOM     53  H   UNL A   1      41.027  29.665  32.672  1.00  0.00     0.167 HD
ATOM     54  C   UNL A   1      42.359  30.053  35.161  1.00  0.00     0.074 A 
ATOM     55  C   UNL A   1      42.679  30.556  36.481  1.00  0.00     0.031 C 
ATOM     56  C   UNL A   1      43.051  29.071  34.528  1.00  0.00     0.034 A 
BRANCH  43  57
ATOM     57  C   UNL A   1      40.819  27.513  28.985  1.00  0.00     0.023 A 
ATOM     58  C   UNL A   1      41.818  27.755  28.026  1.00  0.00     0.031 A 
ATOM     59  C   UNL A   1      39.874  26.504  28.727  1.00  0.00     0.131 A 
ATOM     60  C   UNL A   1      41.831  27.016  26.836  1.00  0.00     0.055 A 
ATOM     61  C   UNL A   1      39.914  25.744  27.558  1.00  0.00     0.041 A 
ATOM     62  F   UNL A   1      38.905  26.234  29.617  1.00  0.00    -0.206 F 
ATOM     63  C   UNL A   1      40.890  26.007  26.601  1.00  0.00     0.022 A 
BRANCH  60  64
ATOM     64  S   UNL A   1      43.043  27.363  25.534  1.00  0.00     0.124 S 
ATOM     65  O   UNL A   1      42.275  28.211  24.625  1.00  0.00    -0.237 OA
ATOM     66  O   UNL A   1      44.100  28.041  26.277  1.00  0.00    -0.237 OA
ATOM     67  O   UNL A   1      43.380  26.044  25.009  1.00  0.00    -0.744 OA
ENDBRANCH  60  64
ENDBRANCH  43  57
BRANCH  44  68
ATOM     68  C   UNL A   1      39.661  33.525  36.916  1.00  0.00     0.023 A 
ATOM     69  C   UNL A   1      39.028  33.073  38.087  1.00  0.00     0.031 A 
ATOM     70  C   UNL A   1      40.034  34.878  36.842  1.00  0.00     0.131 A 
ATOM     71  C   UNL A   1      38.737  33.982  39.114  1.00  0.00     0.055 A 
ATOM     72  C   UNL A   1      39.793  35.766  37.891  1.00  0.00     0.041 A 
ATOM     73  F   UNL A   1      40.631  35.354  35.739  1.00  0.00    -0.206 F 
ATOM     74  C   UNL A   1      39.130  35.321  39.031  1.00  0.00     0.022 A 
BRANCH  71  75
ATOM     75  S   UNL A   1      37.760  33.476  40.557  1.00  0.00     0.124 S 
ATOM     76  O   UNL A   1      38.566  32.390  41.108  1.00  0.00    -0.237 OA
ATOM     77  O   UNL A   1      37.740  34.706  41.344  1.00  0.00    -0.237 OA
ATOM     78  O   UNL A   1      36.479  33.078  39.983  1.00  0.00    -0.744 OA
ENDBRANCH  71  75
ENDBRANCH  44  68
BRANCH  56  79
ATOM     79  C   UNL A   1      44.245  28.465  35.216  1.00  0.00     0.023 A 
ATOM     80  C   UNL A   1      44.055  27.478  36.202  1.00  0.00     0.031 A 
ATOM     81  C   UNL A   1      45.538  28.983  35.029  1.00  0.00     0.131 A 
ATOM     82  C   UNL A   1      45.132  27.075  37.000  1.00  0.00     0.055 A 
ATOM     83  C   UNL A   1      46.617  28.545  35.796  1.00  0.00     0.041 A 
ATOM     84  F   UNL A   1      45.763  29.934  34.109  1.00  0.00    -0.206 F 
ATOM     85  C   UNL A   1      46.414  27.597  36.797  1.00  0.00     0.022 A 
BRANCH  82  86
ATOM     86  S   UNL A   1      44.894  25.922  38.379  1.00  0.00     0.124 S 
ATOM     87  O   UNL A   1      44.156  24.834  37.742  1.00  0.00    -0.237 OA
ATOM     88  O   UNL A   1      46.270  25.607  38.755  1.00  0.00    -0.237 OA
ATOM     89  O   UNL A   1      44.136  26.694  39.358  1.00  0.00    -0.744 OA
ENDBRANCH  82  86
ENDBRANCH  56  79
ENDBRANCH  30  31
ENDBRANCH   2  25
TORSDOF 13
ENDMDL
MODEL 2
REMARK VINA RESULT:     -12.3      5.843      8.732
REMARK SMILES Cc1ccc2c(c1C)O[C@@H](C(=O)NCCCNC(=O)c1ccc(-c3c4nc(c(-c5cc(S(=O)(=O)[O-])ccc5F)c5ccc([nH]5)c(-c5cc(S(=O)(=O)[O-])ccc5F)c5nc(c(-c6cc(S(=O)(=O)[O-])ccc6F)c6ccc3[nH]6)C=C5)C=C4)cc1)CC2=O
REMARK SMILES IDX 17 1 18 2 19 3 16 5 15 6 14 7 13 8 11 9 12 10 10 12 1 13
REMARK SMILES IDX 2 14 3 15 7 16 4 17 6 18 8 19 5 20 9 21 84 22 83 23 85 24
REMARK SMILES IDX 20 25 21 26 82 27 22 28 81 29 23 30 24 31 25 32 75 33 26 34
REMARK SMILES IDX 80 35 74 36 76 37 27 38 79 39 73 40 72 41 28 43 60 44 40 45
REMARK SMILES IDX 59 46 41 47 44 48 58 49 77 50 42 51 43 52 57 54 78 55 45 56
REMARK SMILES IDX 29 57 30 58 38 59 31 60 37 61 39 62 36 63 32 64 33 65 34 66
REMARK SMILES IDX 35 67 61 68 62 69 70 70 63 71 69 72 71 73 68 74 64 75 65 76
REMARK SMILES IDX 66 77 67 78 46 79 47 80 55 81 48 82 54 83 56 84 53 85 49 86
REMARK SMILES IDX 50 87 51 88 52 89
REMARK H PARENT 17 4 13 11 76 42 44 53
REMARK Flexibility Score: inf
ROOT
ATOM      1  N   UNL A   1      38.302  21.353  25.722  1.00  0.00    -0.352 N 
ATOM      2  C   UNL A   1      39.425  21.489  26.499  1.00  0.00     0.251 C 
ATOM      3  O   UNL A   1      40.026  20.485  26.878  1.00  0.00    -0.269 OA
ATOM      4  H   UNL A   1      37.933  20.441  25.679  1.00  0.00     0.163 HD
ENDROOT
BRANCH   1   5
ATOM      5  C   UNL A   1      37.571  22.353  24.948  1.00  0.00     0.118 C 
BRANCH   5   6
ATOM      6  C   UNL A   1      36.240  22.706  25.598  1.00  0.00     0.042 C 
BRANCH   6   7
ATOM      7  C   UNL A   1      35.511  21.474  26.122  1.00  0.00     0.118 C 
BRANCH   7   8
ATOM      8  N   UNL A   1      34.612  21.783  27.214  1.00  0.00    -0.353 N 
ATOM      9  C   UNL A   1      33.298  22.123  27.255  1.00  0.00     0.261 C 
ATOM     10  O   UNL A   1      32.800  22.203  28.387  1.00  0.00    -0.271 OA
ATOM     11  H   UNL A   1      35.036  21.737  28.101  1.00  0.00     0.163 HD
BRANCH   9  12
ATOM     12  C   UNL A   1      32.430  22.462  26.013  1.00  0.00     0.269 C 
ATOM     13  C   UNL A   1      33.626  28.258  24.612  1.00  0.00     0.045 C 
ATOM     14  C   UNL A   1      32.759  27.087  24.991  1.00  0.00    -0.044 A 
ATOM     15  C   UNL A   1      31.564  27.336  25.685  1.00  0.00     0.005 A 
ATOM     16  C   UNL A   1      33.128  25.755  24.695  1.00  0.00    -0.005 A 
ATOM     17  C   UNL A   1      30.761  26.284  26.121  1.00  0.00     0.016 A 
ATOM     18  C   UNL A   1      32.350  24.700  25.216  1.00  0.00     0.134 A 
ATOM     19  C   UNL A   1      34.380  25.422  23.925  1.00  0.00     0.049 C 
ATOM     20  C   UNL A   1      31.172  24.968  25.908  1.00  0.00     0.060 A 
ATOM     21  O   UNL A   1      32.879  23.446  25.097  1.00  0.00    -0.479 OA
ATOM     22  C   UNL A   1      30.422  23.862  26.521  1.00  0.00     0.170 C 
ATOM     23  C   UNL A   1      30.942  22.477  26.322  1.00  0.00     0.136 C 
ATOM     24  O   UNL A   1      29.395  24.082  27.154  1.00  0.00    -0.294 OA
ENDBRANCH   9  12
ENDBRANCH   7   8
ENDBRANCH   6   7
ENDBRANCH   5   6
ENDBRANCH   1   5
BRANCH   2  25
ATOM     25  C   UNL A   1      39.912  22.832  26.875  1.00  0.00     0.039 A 
ATOM     26  C   UNL A   1      40.800  22.965  27.946  1.00  0.00     0.014 A 
ATOM     27  C   UNL A   1      39.470  23.963  26.183  1.00  0.00     0.014 A 
ATOM     28  C   UNL A   1      41.288  24.229  28.285  1.00  0.00     0.010 A 
ATOM     29  C   UNL A   1      40.023  25.205  26.463  1.00  0.00     0.010 A 
ATOM     30  C   UNL A   1      40.918  25.354  27.531  1.00  0.00    -0.014 A 
BRANCH  30  31
ATOM     31  C   UNL A   1      41.408  26.711  27.871  1.00  0.00     0.031 A 
ATOM     32  C   UNL A   1      42.823  27.090  27.536  1.00  0.00     0.074 A 
ATOM     33  C   UNL A   1      40.610  27.566  28.537  1.00  0.00     0.049 A 
ATOM     34  N   UNL A   1      43.463  28.199  27.798  1.00  0.00    -0.248 NA
ATOM     35  C   UNL A   1      43.637  26.079  26.837  1.00  0.00     0.031 C 
ATOM     36  C   UNL A   1      39.239  27.282  28.962  1.00  0.00     0.029 A 
ATOM     37  N   UNL A   1      40.841  28.843  28.986  1.00  0.00    -0.354 N 
ATOM     38  C   UNL A   1      44.750  28.015  27.310  1.00  0.00     0.074 A 
ATOM     39  C   UNL A   1      44.823  26.668  26.793  1.00  0.00     0.031 C 
ATOM     40  C   UNL A   1      38.744  28.359  29.593  1.00  0.00     0.029 A 
ATOM     41  C   UNL A   1      39.771  29.398  29.646  1.00  0.00     0.049 A 
ATOM     42  H   UNL A   1      41.693  29.316  28.848  1.00  0.00     0.167 HD
ATOM     43  C   UNL A   1      45.769  28.902  27.265  1.00  0.00     0.034 A 
ATOM     44  C   UNL A   1      39.632  30.607  30.228  1.00  0.00     0.034 A 
ATOM     45  C   UNL A   1      45.672  30.252  27.753  1.00  0.00     0.049 A 
ATOM     46  C   UNL A   1      40.776  31.586  30.154  1.00  0.00     0.074 A 
ATOM     47  C   UNL A   1      46.626  31.249  27.695  1.00  0.00     0.029 A 
ATOM     48  N   UNL A   1      44.558  30.792  28.378  1.00  0.00    -0.354 N 
ATOM     49  N   UNL A   1      41.957  31.431  29.604  1.00  0.00    -0.248 NA
ATOM     50  C   UNL A   1      40.571  32.908  30.764  1.00  0.00     0.031 C 
ATOM     51  C   UNL A   1      46.108  32.380  28.327  1.00  0.00     0.029 A 
ATOM     52  C   UNL A   1      44.809  32.107  28.727  1.00  0.00     0.049 A 
ATOM     53  H   UNL A   1      43.716  30.313  28.548  1.00  0.00     0.167 HD
ATOM     54  C   UNL A   1      42.622  32.641  29.773  1.00  0.00     0.074 A 
ATOM     55  C   UNL A   1      41.707  33.525  30.465  1.00  0.00     0.031 C 
ATOM     56  C   UNL A   1      43.878  32.988  29.390  1.00  0.00     0.034 A 
BRANCH  43  57
ATOM     57  C   UNL A   1      47.068  28.473  26.638  1.00  0.00     0.023 A 
ATOM     58  C   UNL A   1      47.159  28.310  25.244  1.00  0.00     0.031 A 
ATOM     59  C   UNL A   1      48.174  28.112  27.428  1.00  0.00     0.131 A 
ATOM     60  C   UNL A   1      48.323  27.769  24.685  1.00  0.00     0.055 A 
ATOM     61  C   UNL A   1      49.346  27.610  26.862  1.00  0.00     0.041 A 
ATOM     62  F   UNL A   1      48.135  28.255  28.763  1.00  0.00    -0.206 F 
ATOM     63  C   UNL A   1      49.419  27.426  25.484  1.00  0.00     0.022 A 
BRANCH  60  64
ATOM     64  S   UNL A   1      48.444  27.453  22.903  1.00  0.00     0.124 S 
ATOM     65  O   UNL A   1      48.281  26.002  22.842  1.00  0.00    -0.237 OA
ATOM     66  O   UNL A   1      47.323  28.230  22.382  1.00  0.00    -0.237 OA
ATOM     67  O   UNL A   1      49.772  27.940  22.551  1.00  0.00    -0.744 OA
ENDBRANCH  60  64
ENDBRANCH  43  57
BRANCH  44  68
ATOM     68  C   UNL A   1      38.328  30.967  30.854  1.00  0.00     0.023 A 
ATOM     69  C   UNL A   1      37.311  31.592  30.110  1.00  0.00     0.031 A 
ATOM     70  C   UNL A   1      38.123  30.778  32.231  1.00  0.00     0.131 A 
ATOM     71  C   UNL A   1      36.158  32.053  30.761  1.00  0.00     0.055 A 
ATOM     72  C   UNL A   1      36.949  31.188  32.864  1.00  0.00     0.041 A 
ATOM     73  F   UNL A   1      39.071  30.197  32.982  1.00  0.00    -0.206 F 
ATOM     74  C   UNL A   1      35.963  31.841  32.129  1.00  0.00     0.022 A 
BRANCH  71  75
ATOM     75  S   UNL A   1      34.911  33.024  29.870  1.00  0.00     0.124 S 
ATOM     76  O   UNL A   1      34.029  33.455  30.951  1.00  0.00    -0.237 OA
ATOM     77  O   UNL A   1      35.729  34.073  29.269  1.00  0.00    -0.237 OA
ATOM     78  O   UNL A   1      34.333  32.066  28.933  1.00  0.00    -0.744 OA
ENDBRANCH  71  75
ENDBRANCH  44  68
BRANCH  56  79
ATOM     79  C   UNL A   1      44.364  34.385  29.675  1.00  0.00     0.023 A 
ATOM     80  C   UNL A   1      44.129  35.409  28.737  1.00  0.00     0.031 A 
ATOM     81  C   UNL A   1      45.203  34.658  30.768  1.00  0.00     0.131 A 
ATOM     82  C   UNL A   1      44.767  36.646  28.884  1.00  0.00     0.055 A 
ATOM     83  C   UNL A   1      45.800  35.907  30.934  1.00  0.00     0.041 A 
ATOM     84  F   UNL A   1      45.465  33.708  31.679  1.00  0.00    -0.206 F 
ATOM     85  C   UNL A   1      45.596  36.903  29.982  1.00  0.00     0.022 A 
BRANCH  82  86
ATOM     86  S   UNL A   1      44.611  37.935  27.618  1.00  0.00     0.124 S 
ATOM     87  O   UNL A   1      45.870  37.799  26.889  1.00  0.00    -0.237 OA
ATOM     88  O   UNL A   1      43.419  37.505  26.891  1.00  0.00    -0.237 OA
ATOM     89  O   UNL A   1      44.470  39.168  28.385  1.00  0.00    -0.744 OA
ENDBRANCH  82  86
ENDBRANCH  56  79
ENDBRANCH  30  31
ENDBRANCH   2  25
TORSDOF 13
ENDMDL
MODEL 3
REMARK VINA RESULT:     -12.3      1.475      7.915
REMARK SMILES Cc1ccc2c(c1C)O[C@@H](C(=O)NCCCNC(=O)c1ccc(-c3c4nc(c(-c5cc(S(=O)(=O)[O-])ccc5F)c5ccc([nH]5)c(-c5cc(S(=O)(=O)[O-])ccc5F)c5nc(c(-c6cc(S(=O)(=O)[O-])ccc6F)c6ccc3[nH]6)C=C5)C=C4)cc1)CC2=O
REMARK SMILES IDX 17 1 18 2 19 3 16 5 15 6 14 7 13 8 11 9 12 10 10 12 1 13
REMARK SMILES IDX 2 14 3 15 7 16 4 17 6 18 8 19 5 20 9 21 84 22 83 23 85 24
REMARK SMILES IDX 20 25 21 26 82 27 22 28 81 29 23 30 24 31 25 32 75 33 26 34
REMARK SMILES IDX 80 35 74 36 76 37 27 38 79 39 73 40 72 41 28 43 60 44 40 45
REMARK SMILES IDX 59 46 41 47 44 48 58 49 77 50 42 51 43 52 57 54 78 55 45 56
REMARK SMILES IDX 29 57 30 58 38 59 31 60 37 61 39 62 36 63 32 64 33 65 34 66
REMARK SMILES IDX 35 67 61 68 62 69 70 70 63 71 69 72 71 73 68 74 64 75 65 76
REMARK SMILES IDX 66 77 67 78 46 79 47 80 55 81 48 82 54 83 56 84 53 85 49 86
REMARK SMILES IDX 50 87 51 88 52 89
REMARK H PARENT 17 4 13 11 76 42 44 53
REMARK Flexibility Score: inf
ROOT
ATOM      1  N   UNL A   1      32.688  33.887  27.639  1.00  0.00    -0.352 N 
ATOM      2  C   UNL A   1      33.463  34.492  28.596  1.00  0.00     0.251 C 
ATOM      3  O   UNL A   1      33.201  35.640  28.951  1.00  0.00    -0.269 OA
ATOM      4  H   UNL A   1      32.081  34.489  27.151  1.00  0.00     0.163 HD
ENDROOT
BRANCH   1   5
ATOM      5  C   UNL A   1      32.624  32.484  27.233  1.00  0.00     0.118 C 
BRANCH   5   6
ATOM      6  C   UNL A   1      31.330  32.170  26.494  1.00  0.00     0.042 C 
BRANCH   6   7
ATOM      7  C   UNL A   1      31.389  30.828  25.774  1.00  0.00     0.118 C 
BRANCH   7   8
ATOM      8  N   UNL A   1      32.497  30.008  26.217  1.00  0.00    -0.353 N 
ATOM      9  C   UNL A   1      33.282  29.102  25.580  1.00  0.00     0.261 C 
ATOM     10  O   UNL A   1      34.235  28.662  26.237  1.00  0.00    -0.271 OA
ATOM     11  H   UNL A   1      32.726  30.131  27.166  1.00  0.00     0.163 HD
BRANCH   9  12
ATOM     12  C   UNL A   1      33.030  28.562  24.145  1.00  0.00     0.269 C 
ATOM     13  C   UNL A   1      27.000  28.537  23.355  1.00  0.00     0.045 C 
ATOM     14  C   UNL A   1      28.380  27.938  23.419  1.00  0.00    -0.044 A 
ATOM     15  C   UNL A   1      28.504  26.574  23.729  1.00  0.00     0.005 A 
ATOM     16  C   UNL A   1      29.543  28.711  23.204  1.00  0.00    -0.005 A 
ATOM     17  C   UNL A   1      29.759  25.986  23.870  1.00  0.00     0.016 A 
ATOM     18  C   UNL A   1      30.805  28.124  23.434  1.00  0.00     0.134 A 
ATOM     19  C   UNL A   1      29.477  30.171  22.836  1.00  0.00     0.049 C 
ATOM     20  C   UNL A   1      30.906  26.772  23.748  1.00  0.00     0.060 A 
ATOM     21  O   UNL A   1      31.873  28.976  23.439  1.00  0.00    -0.479 OA
ATOM     22  C   UNL A   1      32.220  26.198  24.072  1.00  0.00     0.170 C 
ATOM     23  C   UNL A   1      33.408  27.099  23.994  1.00  0.00     0.136 C 
ATOM     24  O   UNL A   1      32.325  25.014  24.374  1.00  0.00    -0.294 OA
ENDBRANCH   9  12
ENDBRANCH   7   8
ENDBRANCH   6   7
ENDBRANCH   5   6
ENDBRANCH   1   5
BRANCH   2  25
ATOM     25  C   UNL A   1      34.602  33.770  29.197  1.00  0.00     0.039 A 
ATOM     26  C   UNL A   1      34.355  32.711  30.076  1.00  0.00     0.014 A 
ATOM     27  C   UNL A   1      35.914  34.155  28.911  1.00  0.00     0.014 A 
ATOM     28  C   UNL A   1      35.428  32.004  30.623  1.00  0.00     0.010 A 
ATOM     29  C   UNL A   1      36.976  33.397  29.385  1.00  0.00     0.010 A 
ATOM     30  C   UNL A   1      36.745  32.330  30.263  1.00  0.00    -0.014 A 
BRANCH  30  31
ATOM     31  C   UNL A   1      37.906  31.607  30.835  1.00  0.00     0.031 A 
ATOM     32  C   UNL A   1      38.382  31.953  32.217  1.00  0.00     0.074 A 
ATOM     33  C   UNL A   1      38.567  30.701  30.090  1.00  0.00     0.049 A 
ATOM     34  N   UNL A   1      39.409  31.484  32.876  1.00  0.00    -0.248 NA
ATOM     35  C   UNL A   1      37.621  32.981  32.948  1.00  0.00     0.031 C 
ATOM     36  C   UNL A   1      38.226  30.330  28.716  1.00  0.00     0.029 A 
ATOM     37  N   UNL A   1      39.670  29.938  30.377  1.00  0.00    -0.354 N 
ATOM     38  C   UNL A   1      39.423  32.165  34.086  1.00  0.00     0.074 A 
ATOM     39  C   UNL A   1      38.344  33.124  34.049  1.00  0.00     0.031 C 
ATOM     40  C   UNL A   1      39.090  29.397  28.287  1.00  0.00     0.029 A 
ATOM     41  C   UNL A   1      40.066  29.126  29.341  1.00  0.00     0.049 A 
ATOM     42  H   UNL A   1      40.136  29.969  31.244  1.00  0.00     0.167 HD
ATOM     43  C   UNL A   1      40.242  31.982  35.147  1.00  0.00     0.034 A 
ATOM     44  C   UNL A   1      41.097  28.261  29.250  1.00  0.00     0.034 A 
ATOM     45  C   UNL A   1      41.291  30.999  35.182  1.00  0.00     0.049 A 
ATOM     46  C   UNL A   1      41.988  28.062  30.450  1.00  0.00     0.074 A 
ATOM     47  C   UNL A   1      42.133  30.690  36.233  1.00  0.00     0.029 A 
ATOM     48  N   UNL A   1      41.635  30.165  34.129  1.00  0.00    -0.354 N 
ATOM     49  N   UNL A   1      41.931  28.646  31.623  1.00  0.00    -0.248 NA
ATOM     50  C   UNL A   1      43.075  27.081  30.324  1.00  0.00     0.031 C 
ATOM     51  C   UNL A   1      43.019  29.703  35.802  1.00  0.00     0.029 A 
ATOM     52  C   UNL A   1      42.691  29.353  34.501  1.00  0.00     0.049 A 
ATOM     53  H   UNL A   1      41.194  30.154  33.249  1.00  0.00     0.167 HD
ATOM     54  C   UNL A   1      42.950  28.082  32.384  1.00  0.00     0.074 A 
ATOM     55  C   UNL A   1      43.601  27.100  31.543  1.00  0.00     0.031 C 
ATOM     56  C   UNL A   1      43.313  28.356  33.663  1.00  0.00     0.034 A 
BRANCH  43  57
ATOM     57  C   UNL A   1      40.025  32.824  36.375  1.00  0.00     0.023 A 
ATOM     58  C   UNL A   1      39.102  32.418  37.355  1.00  0.00     0.031 A 
ATOM     59  C   UNL A   1      40.640  34.080  36.515  1.00  0.00     0.131 A 
ATOM     60  C   UNL A   1      38.797  33.277  38.418  1.00  0.00     0.055 A 
ATOM     61  C   UNL A   1      40.362  34.916  37.597  1.00  0.00     0.041 A 
ATOM     62  F   UNL A   1      41.532  34.508  35.607  1.00  0.00    -0.206 F 
ATOM     63  C   UNL A   1      39.427  34.519  38.549  1.00  0.00     0.022 A 
BRANCH  60  64
ATOM     64  S   UNL A   1      37.542  32.832  39.648  1.00  0.00     0.124 S 
ATOM     65  O   UNL A   1      38.068  31.574  40.175  1.00  0.00    -0.237 OA
ATOM     66  O   UNL A   1      37.602  33.966  40.565  1.00  0.00    -0.237 OA
ATOM     67  O   UNL A   1      36.315  32.710  38.869  1.00  0.00    -0.744 OA
ENDBRANCH  60  64
ENDBRANCH  43  57
BRANCH  44  68
ATOM     68  C   UNL A   1      41.275  27.471  27.998  1.00  0.00     0.023 A 
ATOM     69  C   UNL A   1      40.960  26.101  27.951  1.00  0.00     0.031 A 
ATOM     70  C   UNL A   1      41.855  28.058  26.862  1.00  0.00     0.131 A 
ATOM     71  C   UNL A   1      41.279  25.355  26.809  1.00  0.00     0.055 A 
ATOM     72  C   UNL A   1      42.119  27.323  25.706  1.00  0.00     0.041 A 
ATOM     73  F   UNL A   1      42.182  29.360  26.867  1.00  0.00    -0.206 F 
ATOM     74  C   UNL A   1      41.842  25.959  25.680  1.00  0.00     0.022 A 
BRANCH  71  75
ATOM     75  S   UNL A   1      41.058  23.554  26.780  1.00  0.00     0.124 S 
ATOM     76  O   UNL A   1      39.639  23.425  26.457  1.00  0.00    -0.237 OA
ATOM     77  O   UNL A   1      41.983  23.161  25.721  1.00  0.00    -0.237 OA
ATOM     78  O   UNL A   1      41.434  23.139  28.127  1.00  0.00    -0.744 OA
ENDBRANCH  71  75
ENDBRANCH  44  68
BRANCH  56  79
ATOM     79  C   UNL A   1      44.452  27.583  34.276  1.00  0.00     0.023 A 
ATOM     80  C   UNL A   1      44.200  26.342  34.892  1.00  0.00     0.031 A 
ATOM     81  C   UNL A   1      45.731  28.148  34.408  1.00  0.00     0.131 A 
ATOM     82  C   UNL A   1      45.201  25.729  35.655  1.00  0.00     0.055 A 
ATOM     83  C   UNL A   1      46.738  27.511  35.132  1.00  0.00     0.041 A 
ATOM     84  F   UNL A   1      46.012  29.336  33.848  1.00  0.00    -0.206 F 
ATOM     85  C   UNL A   1      46.471  26.303  35.772  1.00  0.00     0.022 A 
BRANCH  82  86
ATOM     86  S   UNL A   1      44.866  24.210  36.588  1.00  0.00     0.124 S 
ATOM     87  O   UNL A   1      44.497  24.735  37.900  1.00  0.00    -0.237 OA
ATOM     88  O   UNL A   1      43.772  23.616  35.822  1.00  0.00    -0.237 OA
ATOM     89  O   UNL A   1      46.131  23.484  36.545  1.00  0.00    -0.744 OA
ENDBRANCH  82  86
ENDBRANCH  56  79
ENDBRANCH  30  31
ENDBRANCH   2  25
TORSDOF 13
ENDMDL
