MODEL 1
REMARK VINA RESULT:     -12.5      0.000      0.000
REMARK SMILES Cc1nc(C)c(C(=O)N2CCC([C@H](C)C(=O)NCCCNC(=O)c3ccc(-c4c5nc(c(-c6cc(S(=O)(=O)[O-])ccc6F)c6ccc([nH]6)c(-c6cc(S(=O)(=O)[O-])ccc6F)c6nc(c(-c7cc(S(=O)(=O)[O-])ccc7F)c7ccc4[nH]7)C=C6)C=C5)cc3)CC2)s1
REMARK SMILES IDX 19 1 18 2 17 3 15 4 16 5 13 7 14 8 12 9 7 10 8 11 9 12 10 13
REMARK SMILES IDX 88 14 11 15 87 16 6 17 1 18 2 19 3 20 89 21 4 22 5 23 20 24
REMARK SMILES IDX 21 25 22 26 23 28 24 29 25 30 86 31 26 32 85 33 27 34 28 35
REMARK SMILES IDX 29 36 79 37 30 38 84 39 78 40 80 41 31 42 83 43 77 44 76 45
REMARK SMILES IDX 32 47 64 48 44 49 63 50 45 51 48 52 62 53 81 54 46 55 47 56
REMARK SMILES IDX 61 58 82 59 49 60 33 61 34 62 42 63 35 64 41 65 43 66 40 67
REMARK SMILES IDX 36 68 37 69 38 70 39 71 65 72 66 73 74 74 67 75 73 76 75 77
REMARK SMILES IDX 72 78 68 79 69 80 70 81 71 82 50 83 51 84 59 85 52 86 58 87
REMARK SMILES IDX 60 88 57 89 53 90 54 91 55 92 56 93
REMARK H PARENT 17 6 21 27 80 46 48 57
REMARK Flexibility Score: inf
ROOT
ATOM      1  C   UNL A   1      31.866  31.592  26.593  1.00  0.00     0.042 C 
ENDROOT
BRANCH   1   2
ATOM      2  C   UNL A   1      32.146  30.123  26.366  1.00  0.00     0.117 C 
BRANCH   2   3
ATOM      3  N   UNL A   1      32.691  29.828  25.058  1.00  0.00    -0.356 N 
ATOM      4  C   UNL A   1      32.225  28.988  24.097  1.00  0.00     0.223 C 
ATOM      5  O   UNL A   1      32.761  29.038  22.986  1.00  0.00    -0.275 OA
ATOM      6  H   UNL A   1      33.521  30.308  24.831  1.00  0.00     0.163 HD
BRANCH   4   7
ATOM      7  C   UNL A   1      31.091  27.989  24.359  1.00  0.00     0.078 C 
ATOM      8  C   UNL A   1      29.911  28.283  23.427  1.00  0.00     0.018 C 
BRANCH   7   9
ATOM      9  C   UNL A   1      31.478  26.482  24.542  1.00  0.00     0.005 C 
ATOM     10  C   UNL A   1      33.992  23.427  23.172  1.00  0.00     0.265 C 
ATOM     11  O   UNL A   1      33.905  23.450  21.944  1.00  0.00    -0.268 OA
ATOM     12  N   UNL A   1      33.048  24.112  23.944  1.00  0.00    -0.338 N 
ATOM     13  C   UNL A   1      31.671  24.151  23.493  1.00  0.00     0.120 C 
ATOM     14  C   UNL A   1      33.327  24.807  25.194  1.00  0.00     0.120 C 
ATOM     15  C   UNL A   1      31.156  25.571  23.335  1.00  0.00     0.026 C 
ATOM     16  C   UNL A   1      32.905  26.272  25.100  1.00  0.00     0.026 C 
BRANCH  10  17
ATOM     17  C   UNL A   1      34.990  22.612  23.851  1.00  0.00     0.115 A 
ATOM     18  C   UNL A   1      38.349  21.665  25.569  1.00  0.00     0.079 C 
ATOM     19  C   UNL A   1      36.982  21.824  25.007  1.00  0.00     0.091 A 
ATOM     20  N   UNL A   1      35.976  21.021  25.263  1.00  0.00    -0.246 NA
ATOM     21  S   UNL A   1      36.621  23.147  23.993  1.00  0.00    -0.113 S 
ATOM     22  C   UNL A   1      34.818  21.478  24.639  1.00  0.00     0.061 A 
ATOM     23  C   UNL A   1      33.560  20.734  24.923  1.00  0.00     0.068 C 
ENDBRANCH  10  17
ENDBRANCH   7   9
ENDBRANCH   4   7
ENDBRANCH   2   3
ENDBRANCH   1   2
BRANCH   1  24
ATOM     24  C   UNL A   1      32.991  32.301  27.324  1.00  0.00     0.118 C 
BRANCH  24  25
ATOM     25  N   UNL A   1      32.703  33.710  27.573  1.00  0.00    -0.352 N 
ATOM     26  C   UNL A   1      33.209  34.558  28.529  1.00  0.00     0.251 C 
ATOM     27  H   UNL A   1      32.045  34.115  26.963  1.00  0.00     0.163 HD
ATOM     28  O   UNL A   1      32.697  35.662  28.695  1.00  0.00    -0.269 OA
BRANCH  26  29
ATOM     29  C   UNL A   1      34.347  34.123  29.364  1.00  0.00     0.039 A 
ATOM     30  C   UNL A   1      34.104  33.400  30.534  1.00  0.00     0.014 A 
ATOM     31  C   UNL A   1      35.656  34.406  28.970  1.00  0.00     0.014 A 
ATOM     32  C   UNL A   1      35.181  32.892  31.261  1.00  0.00     0.010 A 
ATOM     33  C   UNL A   1      36.717  33.801  29.628  1.00  0.00     0.010 A 
ATOM     34  C   UNL A   1      36.493  33.048  30.789  1.00  0.00    -0.014 A 
BRANCH  34  35
ATOM     35  C   UNL A   1      37.659  32.463  31.499  1.00  0.00     0.031 A 
ATOM     36  C   UNL A   1      38.427  31.335  30.863  1.00  0.00     0.074 A 
ATOM     37  C   UNL A   1      37.968  32.884  32.741  1.00  0.00     0.049 A 
ATOM     38  N   UNL A   1      39.393  30.605  31.357  1.00  0.00    -0.248 NA
ATOM     39  C   UNL A   1      38.015  30.946  29.505  1.00  0.00     0.031 C 
ATOM     40  C   UNL A   1      37.262  33.932  33.482  1.00  0.00     0.029 A 
ATOM     41  N   UNL A   1      38.949  32.474  33.606  1.00  0.00    -0.354 N 
ATOM     42  C   UNL A   1      39.686  29.658  30.382  1.00  0.00     0.074 A 
ATOM     43  C   UNL A   1      38.739  29.857  29.305  1.00  0.00     0.031 C 
ATOM     44  C   UNL A   1      37.855  34.105  34.673  1.00  0.00     0.029 A 
ATOM     45  C   UNL A   1      38.950  33.150  34.803  1.00  0.00     0.049 A 
ATOM     46  H   UNL A   1      39.595  31.761  33.390  1.00  0.00     0.167 HD
ATOM     47  C   UNL A   1      40.673  28.728  30.370  1.00  0.00     0.034 A 
ATOM     48  C   UNL A   1      39.739  33.007  35.887  1.00  0.00     0.034 A 
ATOM     49  C   UNL A   1      41.622  28.564  31.444  1.00  0.00     0.049 A 
ATOM     50  C   UNL A   1      40.826  31.965  35.858  1.00  0.00     0.074 A 
ATOM     51  C   UNL A   1      42.702  27.705  31.518  1.00  0.00     0.029 A 
ATOM     52  N   UNL A   1      41.600  29.278  32.637  1.00  0.00    -0.354 N 
ATOM     53  N   UNL A   1      41.125  31.109  34.908  1.00  0.00    -0.248 NA
ATOM     54  C   UNL A   1      41.687  31.878  37.043  1.00  0.00     0.031 C 
ATOM     55  C   UNL A   1      43.294  27.852  32.778  1.00  0.00     0.029 A 
ATOM     56  C   UNL A   1      42.630  28.857  33.464  1.00  0.00     0.049 A 
ATOM     57  H   UNL A   1      40.947  29.979  32.862  1.00  0.00     0.167 HD
ATOM     58  C   UNL A   1      42.229  30.400  35.372  1.00  0.00     0.074 A 
ATOM     59  C   UNL A   1      42.549  30.939  36.679  1.00  0.00     0.031 C 
ATOM     60  C   UNL A   1      42.922  29.396  34.771  1.00  0.00     0.034 A 
BRANCH  47  61
ATOM     61  C   UNL A   1      40.748  27.815  29.167  1.00  0.00     0.023 A 
ATOM     62  C   UNL A   1      41.688  28.021  28.142  1.00  0.00     0.031 A 
ATOM     63  C   UNL A   1      39.829  26.763  29.010  1.00  0.00     0.131 A 
ATOM     64  C   UNL A   1      41.625  27.258  26.966  1.00  0.00     0.055 A 
ATOM     65  C   UNL A   1      39.832  25.944  27.878  1.00  0.00     0.041 A 
ATOM     66  F   UNL A   1      38.894  26.526  29.943  1.00  0.00    -0.206 F 
ATOM     67  C   UNL A   1      40.720  26.203  26.837  1.00  0.00     0.022 A 
BRANCH  64  68
ATOM     68  S   UNL A   1      42.619  27.783  25.542  1.00  0.00     0.124 S 
ATOM     69  O   UNL A   1      41.734  28.760  24.910  1.00  0.00    -0.237 OA
ATOM     70  O   UNL A   1      43.817  28.321  26.175  1.00  0.00    -0.237 OA
ATOM     71  O   UNL A   1      42.812  26.548  24.785  1.00  0.00    -0.744 OA
ENDBRANCH  64  68
ENDBRANCH  47  61
BRANCH  48  72
ATOM     72  C   UNL A   1      39.536  33.872  37.084  1.00  0.00     0.023 A 
ATOM     73  C   UNL A   1      38.889  33.379  38.227  1.00  0.00     0.031 A 
ATOM     74  C   UNL A   1      39.968  35.210  37.095  1.00  0.00     0.131 A 
ATOM     75  C   UNL A   1      38.655  34.227  39.320  1.00  0.00     0.055 A 
ATOM     76  C   UNL A   1      39.777  36.037  38.203  1.00  0.00     0.041 A 
ATOM     77  F   UNL A   1      40.601  35.728  36.030  1.00  0.00    -0.206 F 
ATOM     78  C   UNL A   1      39.107  35.549  39.322  1.00  0.00     0.022 A 
BRANCH  75  79
ATOM     79  S   UNL A   1      37.694  33.594  40.722  1.00  0.00     0.124 S 
ATOM     80  O   UNL A   1      37.384  34.821  41.447  1.00  0.00    -0.237 OA
ATOM     81  O   UNL A   1      36.573  32.944  40.053  1.00  0.00    -0.237 OA
ATOM     82  O   UNL A   1      38.626  32.690  41.393  1.00  0.00    -0.744 OA
ENDBRANCH  75  79
ENDBRANCH  48  72
BRANCH  60  83
ATOM     83  C   UNL A   1      44.116  28.852  35.515  1.00  0.00     0.023 A 
ATOM     84  C   UNL A   1      44.006  27.760  36.393  1.00  0.00     0.031 A 
ATOM     85  C   UNL A   1      45.380  29.446  35.350  1.00  0.00     0.131 A 
ATOM     86  C   UNL A   1      45.129  27.329  37.114  1.00  0.00     0.055 A 
ATOM     87  C   UNL A   1      46.505  28.973  36.024  1.00  0.00     0.041 A 
ATOM     88  F   UNL A   1      45.541  30.493  34.526  1.00  0.00    -0.206 F 
ATOM     89  C   UNL A   1      46.381  27.917  36.923  1.00  0.00     0.022 A 
BRANCH  86  90
ATOM     90  S   UNL A   1      44.913  26.044  38.375  1.00  0.00     0.124 S 
ATOM     91  O   UNL A   1      44.155  25.030  37.648  1.00  0.00    -0.237 OA
ATOM     92  O   UNL A   1      46.290  25.693  38.705  1.00  0.00    -0.237 OA
ATOM     93  O   UNL A   1      44.176  26.725  39.438  1.00  0.00    -0.744 OA
ENDBRANCH  86  90
ENDBRANCH  60  83
ENDBRANCH  34  35
ENDBRANCH  26  29
ENDBRANCH  24  25
ENDBRANCH   1  24
TORSDOF 15
ENDMDL
MODEL 2
REMARK VINA RESULT:     -12.4      3.500      8.699
REMARK SMILES Cc1nc(C)c(C(=O)N2CCC([C@H](C)C(=O)NCCCNC(=O)c3ccc(-c4c5nc(c(-c6cc(S(=O)(=O)[O-])ccc6F)c6ccc([nH]6)c(-c6cc(S(=O)(=O)[O-])ccc6F)c6nc(c(-c7cc(S(=O)(=O)[O-])ccc7F)c7ccc4[nH]7)C=C6)C=C5)cc3)CC2)s1
REMARK SMILES IDX 19 1 18 2 17 3 15 4 16 5 13 7 14 8 12 9 7 10 8 11 9 12 10 13
REMARK SMILES IDX 88 14 11 15 87 16 6 17 1 18 2 19 3 20 89 21 4 22 5 23 20 24
REMARK SMILES IDX 21 25 22 26 23 28 24 29 25 30 86 31 26 32 85 33 27 34 28 35
REMARK SMILES IDX 29 36 79 37 30 38 84 39 78 40 80 41 31 42 83 43 77 44 76 45
REMARK SMILES IDX 32 47 64 48 44 49 63 50 45 51 48 52 62 53 81 54 46 55 47 56
REMARK SMILES IDX 61 58 82 59 49 60 33 61 34 62 42 63 35 64 41 65 43 66 40 67
REMARK SMILES IDX 36 68 37 69 38 70 39 71 65 72 66 73 74 74 67 75 73 76 75 77
REMARK SMILES IDX 72 78 68 79 69 80 70 81 71 82 50 83 51 84 59 85 52 86 58 87
REMARK SMILES IDX 60 88 57 89 53 90 54 91 55 92 56 93
REMARK H PARENT 17 6 21 27 80 46 48 57
REMARK Flexibility Score: inf
ROOT
ATOM      1  C   UNL A   1      32.969  29.394  25.192  1.00  0.00     0.042 C 
ENDROOT
BRANCH   1   2
ATOM      2  C   UNL A   1      31.516  29.764  24.999  1.00  0.00     0.117 C 
BRANCH   2   3
ATOM      3  N   UNL A   1      30.994  29.421  23.693  1.00  0.00    -0.356 N 
ATOM      4  C   UNL A   1      30.285  28.329  23.307  1.00  0.00     0.223 C 
ATOM      5  O   UNL A   1      29.789  28.341  22.176  1.00  0.00    -0.275 OA
ATOM      6  H   UNL A   1      31.180  30.076  22.982  1.00  0.00     0.163 HD
BRANCH   4   7
ATOM      7  C   UNL A   1      30.106  27.102  24.211  1.00  0.00     0.078 C 
ATOM      8  C   UNL A   1      28.818  26.361  23.837  1.00  0.00     0.018 C 
BRANCH   7   9
ATOM      9  C   UNL A   1      31.367  26.215  24.489  1.00  0.00     0.005 C 
ATOM     10  C   UNL A   1      32.722  22.720  26.353  1.00  0.00     0.265 C 
ATOM     11  O   UNL A   1      32.260  22.751  27.495  1.00  0.00    -0.268 OA
ATOM     12  N   UNL A   1      32.713  23.880  25.573  1.00  0.00    -0.338 N 
ATOM     13  C   UNL A   1      32.936  25.159  26.219  1.00  0.00     0.120 C 
ATOM     14  C   UNL A   1      32.499  23.925  24.132  1.00  0.00     0.120 C 
ATOM     15  C   UNL A   1      31.800  26.136  25.971  1.00  0.00     0.026 C 
ATOM     16  C   UNL A   1      31.319  24.835  23.794  1.00  0.00     0.026 C 
BRANCH  10  17
ATOM     17  C   UNL A   1      33.379  21.530  25.828  1.00  0.00     0.115 A 
ATOM     18  C   UNL A   1      33.812  18.136  23.979  1.00  0.00     0.079 C 
ATOM     19  C   UNL A   1      33.885  19.444  24.681  1.00  0.00     0.091 A 
ATOM     20  N   UNL A   1      34.995  20.113  24.890  1.00  0.00    -0.246 NA
ATOM     21  S   UNL A   1      32.460  20.200  25.234  1.00  0.00    -0.113 S 
ATOM     22  C   UNL A   1      34.719  21.328  25.513  1.00  0.00     0.061 A 
ATOM     23  C   UNL A   1      35.866  22.256  25.720  1.00  0.00     0.068 C 
ENDBRANCH  10  17
ENDBRANCH   7   9
ENDBRANCH   4   7
ENDBRANCH   2   3
ENDBRANCH   1   2
BRANCH   1  24
ATOM     24  C   UNL A   1      33.421  29.505  26.636  1.00  0.00     0.118 C 
BRANCH  24  25
ATOM     25  N   UNL A   1      33.495  30.887  27.100  1.00  0.00    -0.352 N 
ATOM     26  C   UNL A   1      34.410  31.492  27.929  1.00  0.00     0.251 C 
ATOM     27  H   UNL A   1      32.779  31.477  26.768  1.00  0.00     0.163 HD
ATOM     28  O   UNL A   1      34.192  32.623  28.353  1.00  0.00    -0.269 OA
BRANCH  26  29
ATOM     29  C   UNL A   1      35.634  30.764  28.320  1.00  0.00     0.039 A 
ATOM     30  C   UNL A   1      36.836  31.040  27.666  1.00  0.00     0.014 A 
ATOM     31  C   UNL A   1      35.595  29.830  29.357  1.00  0.00     0.014 A 
ATOM     32  C   UNL A   1      38.014  30.436  28.111  1.00  0.00     0.010 A 
ATOM     33  C   UNL A   1      36.780  29.324  29.871  1.00  0.00     0.010 A 
ATOM     34  C   UNL A   1      38.002  29.611  29.246  1.00  0.00    -0.014 A 
BRANCH  34  35
ATOM     35  C   UNL A   1      39.244  29.005  29.790  1.00  0.00     0.031 A 
ATOM     36  C   UNL A   1      39.893  29.609  31.006  1.00  0.00     0.074 A 
ATOM     37  C   UNL A   1      39.828  27.978  29.144  1.00  0.00     0.049 A 
ATOM     38  N   UNL A   1      41.036  29.316  31.570  1.00  0.00    -0.248 NA
ATOM     39  C   UNL A   1      39.180  30.728  31.642  1.00  0.00     0.031 C 
ATOM     40  C   UNL A   1      39.321  27.345  27.924  1.00  0.00     0.029 A 
ATOM     41  N   UNL A   1      40.984  27.292  29.415  1.00  0.00    -0.354 N 
ATOM     42  C   UNL A   1      41.189  30.229  32.609  1.00  0.00     0.074 A 
ATOM     43  C   UNL A   1      40.061  31.133  32.542  1.00  0.00     0.031 C 
ATOM     44  C   UNL A   1      40.142  26.342  27.575  1.00  0.00     0.029 A 
ATOM     45  C   UNL A   1      41.259  26.292  28.512  1.00  0.00     0.049 A 
ATOM     46  H   UNL A   1      41.563  27.495  30.185  1.00  0.00     0.167 HD
ATOM     47  C   UNL A   1      42.163  30.288  33.551  1.00  0.00     0.034 A 
ATOM     48  C   UNL A   1      42.299  25.437  28.445  1.00  0.00     0.034 A 
ATOM     49  C   UNL A   1      43.264  29.359  33.613  1.00  0.00     0.049 A 
ATOM     50  C   UNL A   1      43.374  25.522  29.496  1.00  0.00     0.074 A 
ATOM     51  C   UNL A   1      44.273  29.278  34.556  1.00  0.00     0.029 A 
ATOM     52  N   UNL A   1      43.502  28.348  32.688  1.00  0.00    -0.354 N 
ATOM     53  N   UNL A   1      43.481  26.357  30.504  1.00  0.00    -0.248 NA
ATOM     54  C   UNL A   1      44.463  24.542  29.406  1.00  0.00     0.031 C 
ATOM     55  C   UNL A   1      45.155  28.262  34.167  1.00  0.00     0.029 A 
ATOM     56  C   UNL A   1      44.658  27.659  33.022  1.00  0.00     0.049 A 
ATOM     57  H   UNL A   1      42.934  28.152  31.909  1.00  0.00     0.167 HD
ATOM     58  C   UNL A   1      44.635  25.984  31.185  1.00  0.00     0.074 A 
ATOM     59  C   UNL A   1      45.181  24.840  30.480  1.00  0.00     0.031 C 
ATOM     60  C   UNL A   1      45.194  26.531  32.296  1.00  0.00     0.034 A 
BRANCH  47  61
ATOM     61  C   UNL A   1      42.076  31.406  34.564  1.00  0.00     0.023 A 
ATOM     62  C   UNL A   1      41.100  31.412  35.577  1.00  0.00     0.031 A 
ATOM     63  C   UNL A   1      42.939  32.513  34.482  1.00  0.00     0.131 A 
ATOM     64  C   UNL A   1      40.943  32.539  36.397  1.00  0.00     0.055 A 
ATOM     65  C   UNL A   1      42.839  33.592  35.364  1.00  0.00     0.041 A 
ATOM     66  F   UNL A   1      43.879  32.579  33.527  1.00  0.00    -0.206 F 
ATOM     67  C   UNL A   1      41.824  33.620  36.315  1.00  0.00     0.022 A 
BRANCH  64  68
ATOM     68  S   UNL A   1      39.465  32.647  37.443  1.00  0.00     0.124 S 
ATOM     69  O   UNL A   1      40.046  32.567  38.782  1.00  0.00    -0.237 OA
ATOM     70  O   UNL A   1      38.905  33.940  37.066  1.00  0.00    -0.237 OA
ATOM     71  O   UNL A   1      38.676  31.484  37.043  1.00  0.00    -0.744 OA
ENDBRANCH  64  68
ENDBRANCH  47  61
BRANCH  48  72
ATOM     72  C   UNL A   1      42.373  24.428  27.351  1.00  0.00     0.023 A 
ATOM     73  C   UNL A   1      41.596  23.260  27.395  1.00  0.00     0.031 A 
ATOM     74  C   UNL A   1      43.237  24.604  26.256  1.00  0.00     0.131 A 
ATOM     75  C   UNL A   1      41.725  22.294  26.385  1.00  0.00     0.055 A 
ATOM     76  C   UNL A   1      43.327  23.664  25.229  1.00  0.00     0.041 A 
ATOM     77  F   UNL A   1      43.995  25.709  26.161  1.00  0.00    -0.206 F 
ATOM     78  C   UNL A   1      42.576  22.494  25.295  1.00  0.00     0.022 A 
BRANCH  75  79
ATOM     79  S   UNL A   1      40.808  20.738  26.548  1.00  0.00     0.124 S 
ATOM     80  O   UNL A   1      40.859  20.513  27.988  1.00  0.00    -0.237 OA
ATOM     81  O   UNL A   1      39.504  21.095  26.001  1.00  0.00    -0.237 OA
ATOM     82  O   UNL A   1      41.584  19.800  25.740  1.00  0.00    -0.744 OA
ENDBRANCH  75  79
ENDBRANCH  48  72
BRANCH  60  83
ATOM     83  C   UNL A   1      46.438  25.867  32.831  1.00  0.00     0.023 A 
ATOM     84  C   UNL A   1      47.707  26.119  32.282  1.00  0.00     0.031 A 
ATOM     85  C   UNL A   1      46.347  24.958  33.901  1.00  0.00     0.131 A 
ATOM     86  C   UNL A   1      48.827  25.429  32.767  1.00  0.00     0.055 A 
ATOM     87  C   UNL A   1      47.474  24.321  34.419  1.00  0.00     0.041 A 
ATOM     88  F   UNL A   1      45.160  24.679  34.462  1.00  0.00    -0.206 F 
ATOM     89  C   UNL A   1      48.722  24.545  33.844  1.00  0.00     0.022 A 
BRANCH  86  90
ATOM     90  S   UNL A   1      50.413  25.636  31.913  1.00  0.00     0.124 S 
ATOM     91  O   UNL A   1      51.309  25.971  33.015  1.00  0.00    -0.237 OA
ATOM     92  O   UNL A   1      50.616  24.325  31.305  1.00  0.00    -0.237 OA
ATOM     93  O   UNL A   1      50.157  26.723  30.970  1.00  0.00    -0.744 OA
ENDBRANCH  86  90
ENDBRANCH  60  83
ENDBRANCH  34  35
ENDBRANCH  26  29
ENDBRANCH  24  25
ENDBRANCH   1  24
TORSDOF 15
ENDMDL
MODEL 3
REMARK VINA RESULT:     -12.4      2.649      8.262
REMARK SMILES Cc1nc(C)c(C(=O)N2CCC([C@H](C)C(=O)NCCCNC(=O)c3ccc(-c4c5nc(c(-c6cc(S(=O)(=O)[O-])ccc6F)c6ccc([nH]6)c(-c6cc(S(=O)(=O)[O-])ccc6F)c6nc(c(-c7cc(S(=O)(=O)[O-])ccc7F)c7ccc4[nH]7)C=C6)C=C5)cc3)CC2)s1
REMARK SMILES IDX 19 1 18 2 17 3 15 4 16 5 13 7 14 8 12 9 7 10 8 11 9 12 10 13
REMARK SMILES IDX 88 14 11 15 87 16 6 17 1 18 2 19 3 20 89 21 4 22 5 23 20 24
REMARK SMILES IDX 21 25 22 26 23 28 24 29 25 30 86 31 26 32 85 33 27 34 28 35
REMARK SMILES IDX 29 36 79 37 30 38 84 39 78 40 80 41 31 42 83 43 77 44 76 45
REMARK SMILES IDX 32 47 64 48 44 49 63 50 45 51 48 52 62 53 81 54 46 55 47 56
REMARK SMILES IDX 61 58 82 59 49 60 33 61 34 62 42 63 35 64 41 65 43 66 40 67
REMARK SMILES IDX 36 68 37 69 38 70 39 71 65 72 66 73 74 74 67 75 73 76 75 77
REMARK SMILES IDX 72 78 68 79 69 80 70 81 71 82 50 83 51 84 59 85 52 86 58 87
REMARK SMILES IDX 60 88 57 89 53 90 54 91 55 92 56 93
REMARK H PARENT 17 6 21 27 80 46 48 57
REMARK Flexibility Score: inf
ROOT
ATOM      1  C   UNL A   1      32.788  29.692  25.403  1.00  0.00     0.042 C 
ENDROOT
BRANCH   1   2
ATOM      2  C   UNL A   1      31.361  29.920  24.957  1.00  0.00     0.117 C 
BRANCH   2   3
ATOM      3  N   UNL A   1      31.086  29.446  23.618  1.00  0.00    -0.356 N 
ATOM      4  C   UNL A   1      30.563  28.259  23.212  1.00  0.00     0.223 C 
ATOM      5  O   UNL A   1      30.249  28.151  22.023  1.00  0.00    -0.275 OA
ATOM      6  H   UNL A   1      31.309  30.076  22.895  1.00  0.00     0.163 HD
BRANCH   4   7
ATOM      7  C   UNL A   1      30.378  27.073  24.167  1.00  0.00     0.078 C 
ATOM      8  C   UNL A   1      29.047  26.371  23.875  1.00  0.00     0.018 C 
BRANCH   7   9
ATOM      9  C   UNL A   1      31.615  26.147  24.424  1.00  0.00     0.005 C 
ATOM     10  C   UNL A   1      32.905  22.644  26.319  1.00  0.00     0.265 C 
ATOM     11  O   UNL A   1      32.482  22.715  27.474  1.00  0.00    -0.268 OA
ATOM     12  N   UNL A   1      32.912  23.788  25.514  1.00  0.00    -0.338 N 
ATOM     13  C   UNL A   1      33.201  25.071  26.125  1.00  0.00     0.120 C 
ATOM     14  C   UNL A   1      32.653  23.811  24.081  1.00  0.00     0.120 C 
ATOM     15  C   UNL A   1      32.093  26.083  25.893  1.00  0.00     0.026 C 
ATOM     16  C   UNL A   1      31.495  24.755  23.760  1.00  0.00     0.026 C 
BRANCH  10  17
ATOM     17  C   UNL A   1      33.503  21.421  25.799  1.00  0.00     0.115 A 
ATOM     18  C   UNL A   1      33.791  18.047  23.885  1.00  0.00     0.079 C 
ATOM     19  C   UNL A   1      33.920  19.330  24.626  1.00  0.00     0.091 A 
ATOM     20  N   UNL A   1      35.062  19.910  24.913  1.00  0.00    -0.246 NA
ATOM     21  S   UNL A   1      32.524  20.177  25.120  1.00  0.00    -0.113 S 
ATOM     22  C   UNL A   1      34.840  21.127  25.552  1.00  0.00     0.061 A 
ATOM     23  C   UNL A   1      36.038  21.962  25.847  1.00  0.00     0.068 C 
ENDBRANCH  10  17
ENDBRANCH   7   9
ENDBRANCH   4   7
ENDBRANCH   2   3
ENDBRANCH   1   2
BRANCH   1  24
ATOM     24  C   UNL A   1      33.014  30.048  26.861  1.00  0.00     0.118 C 
BRANCH  24  25
ATOM     25  N   UNL A   1      33.125  31.487  27.080  1.00  0.00    -0.352 N 
ATOM     26  C   UNL A   1      34.080  32.205  27.760  1.00  0.00     0.251 C 
ATOM     27  H   UNL A   1      32.406  32.026  26.679  1.00  0.00     0.163 HD
ATOM     28  O   UNL A   1      33.894  33.396  27.994  1.00  0.00    -0.269 OA
BRANCH  26  29
ATOM     29  C   UNL A   1      35.308  31.530  28.226  1.00  0.00     0.039 A 
ATOM     30  C   UNL A   1      36.522  32.220  28.207  1.00  0.00     0.014 A 
ATOM     31  C   UNL A   1      35.250  30.221  28.709  1.00  0.00     0.014 A 
ATOM     32  C   UNL A   1      37.659  31.623  28.752  1.00  0.00     0.010 A 
ATOM     33  C   UNL A   1      36.352  29.678  29.354  1.00  0.00     0.010 A 
ATOM     34  C   UNL A   1      37.573  30.367  29.371  1.00  0.00    -0.014 A 
BRANCH  34  35
ATOM     35  C   UNL A   1      38.746  29.729  30.021  1.00  0.00     0.031 A 
ATOM     36  C   UNL A   1      39.176  30.185  31.390  1.00  0.00     0.074 A 
ATOM     37  C   UNL A   1      39.468  28.812  29.350  1.00  0.00     0.049 A 
ATOM     38  N   UNL A   1      40.233  29.852  32.083  1.00  0.00    -0.248 NA
ATOM     39  C   UNL A   1      38.323  31.190  32.043  1.00  0.00     0.031 C 
ATOM     40  C   UNL A   1      39.182  28.330  27.997  1.00  0.00     0.029 A 
ATOM     41  N   UNL A   1      40.601  28.127  29.709  1.00  0.00    -0.354 N 
ATOM     42  C   UNL A   1      40.185  30.624  33.240  1.00  0.00     0.074 A 
ATOM     43  C   UNL A   1      39.038  31.498  33.112  1.00  0.00     0.031 C 
ATOM     44  C   UNL A   1      40.092  27.405  27.656  1.00  0.00     0.029 A 
ATOM     45  C   UNL A   1      41.056  27.262  28.742  1.00  0.00     0.049 A 
ATOM     46  H   UNL A   1      41.048  28.244  30.580  1.00  0.00     0.167 HD
ATOM     47  C   UNL A   1      41.001  30.585  34.321  1.00  0.00     0.034 A 
ATOM     48  C   UNL A   1      42.133  26.453  28.730  1.00  0.00     0.034 A 
ATOM     49  C   UNL A   1      42.123  29.686  34.437  1.00  0.00     0.049 A 
ATOM     50  C   UNL A   1      43.033  26.427  29.938  1.00  0.00     0.074 A 
ATOM     51  C   UNL A   1      42.982  29.509  35.507  1.00  0.00     0.029 A 
ATOM     52  N   UNL A   1      42.545  28.813  33.441  1.00  0.00    -0.354 N 
ATOM     53  N   UNL A   1      42.946  27.126  31.047  1.00  0.00    -0.248 NA
ATOM     54  C   UNL A   1      44.167  25.498  29.896  1.00  0.00     0.031 C 
ATOM     55  C   UNL A   1      43.959  28.578  35.135  1.00  0.00     0.029 A 
ATOM     56  C   UNL A   1      43.669  28.117  33.861  1.00  0.00     0.049 A 
ATOM     57  H   UNL A   1      42.111  28.705  32.564  1.00  0.00     0.167 HD
ATOM     58  C   UNL A   1      44.002  26.698  31.847  1.00  0.00     0.074 A 
ATOM     59  C   UNL A   1      44.700  25.672  31.097  1.00  0.00     0.031 C 
ATOM     60  C   UNL A   1      44.360  27.109  33.091  1.00  0.00     0.034 A 
BRANCH  47  61
ATOM     61  C   UNL A   1      40.711  31.558  35.441  1.00  0.00     0.023 A 
ATOM     62  C   UNL A   1      39.643  31.357  36.336  1.00  0.00     0.031 A 
ATOM     63  C   UNL A   1      41.469  32.733  35.581  1.00  0.00     0.131 A 
ATOM     64  C   UNL A   1      39.301  32.357  37.258  1.00  0.00     0.055 A 
ATOM     65  C   UNL A   1      41.182  33.683  36.566  1.00  0.00     0.041 A 
ATOM     66  F   UNL A   1      42.488  32.994  34.748  1.00  0.00    -0.206 F 
ATOM     67  C   UNL A   1      40.080  33.508  37.398  1.00  0.00     0.022 A 
BRANCH  64  68
ATOM     68  S   UNL A   1      37.724  32.213  38.143  1.00  0.00     0.124 S 
ATOM     69  O   UNL A   1      37.397  30.804  37.932  1.00  0.00    -0.237 OA
ATOM     70  O   UNL A   1      38.091  32.587  39.504  1.00  0.00    -0.237 OA
ATOM     71  O   UNL A   1      36.853  33.157  37.448  1.00  0.00    -0.744 OA
ENDBRANCH  64  68
ENDBRANCH  47  61
BRANCH  48  72
ATOM     72  C   UNL A   1      42.419  25.598  27.543  1.00  0.00     0.023 A 
ATOM     73  C   UNL A   1      41.971  24.269  27.489  1.00  0.00     0.031 A 
ATOM     74  C   UNL A   1      43.162  26.089  26.455  1.00  0.00     0.131 A 
ATOM     75  C   UNL A   1      42.301  23.463  26.388  1.00  0.00     0.055 A 
ATOM     76  C   UNL A   1      43.447  25.299  25.341  1.00  0.00     0.041 A 
ATOM     77  F   UNL A   1      43.606  27.357  26.454  1.00  0.00    -0.206 F 
ATOM     78  C   UNL A   1      43.026  23.973  25.307  1.00  0.00     0.022 A 
BRANCH  75  79
ATOM     79  S   UNL A   1      41.823  21.714  26.416  1.00  0.00     0.124 S 
ATOM     80  O   UNL A   1      40.400  21.790  26.107  1.00  0.00    -0.237 OA
ATOM     81  O   UNL A   1      42.676  21.150  25.376  1.00  0.00    -0.237 OA
ATOM     82  O   UNL A   1      42.147  21.295  27.778  1.00  0.00    -0.744 OA
ENDBRANCH  75  79
ENDBRANCH  48  72
BRANCH  60  83
ATOM     83  C   UNL A   1      45.539  26.415  33.726  1.00  0.00     0.023 A 
ATOM     84  C   UNL A   1      45.385  25.250  34.496  1.00  0.00     0.031 A 
ATOM     85  C   UNL A   1      46.835  26.936  33.563  1.00  0.00     0.131 A 
ATOM     86  C   UNL A   1      46.501  24.675  35.122  1.00  0.00     0.055 A 
ATOM     87  C   UNL A   1      47.949  26.325  34.139  1.00  0.00     0.041 A 
ATOM     88  F   UNL A   1      47.040  28.048  32.839  1.00  0.00    -0.206 F 
ATOM     89  C   UNL A   1      47.784  25.194  34.935  1.00  0.00     0.022 A 
BRANCH  86  90
ATOM     90  S   UNL A   1      46.241  23.287  36.261  1.00  0.00     0.124 S 
ATOM     91  O   UNL A   1      46.047  23.972  37.535  1.00  0.00    -0.237 OA
ATOM     92  O   UNL A   1      45.060  22.639  35.701  1.00  0.00    -0.237 OA
ATOM     93  O   UNL A   1      47.479  22.517  36.152  1.00  0.00    -0.744 OA
ENDBRANCH  86  90
ENDBRANCH  60  83
ENDBRANCH  34  35
ENDBRANCH  26  29
ENDBRANCH  24  25
ENDBRANCH   1  24
TORSDOF 15
ENDMDL
