MODEL 1
REMARK VINA RESULT:     -11.6      0.000      0.000
REMARK SMILES O=C(NCCCNC(=O)[C@@H]1C=C[C@@H](NC(=O)[C@@H]2CCS(=O)(=O)C2)C1)c1ccc(-c2c3nc(c(-c4cc(S(=O)(=O)[O-])ccc4F)c4ccc([nH]4)c(-c4cc(S(=O)(=O)[O-])ccc4F)c4nc(c(-c5cc(S(=O)(=O)[O-])ccc5F)c5ccc2[nH]5)C=C4)C=C3)cc1
REMARK SMILES IDX 4 1 3 2 1 3 2 4 25 6 26 7 87 8 27 9 86 10 28 11 29 12 30 13
REMARK SMILES IDX 80 14 31 15 85 16 79 17 81 18 32 19 84 20 78 21 77 22 33 24
REMARK SMILES IDX 65 25 45 26 64 27 46 28 49 29 63 30 82 31 47 32 48 33 62 35
REMARK SMILES IDX 83 36 50 37 34 38 35 39 43 40 36 41 42 42 44 43 41 44 37 45
REMARK SMILES IDX 38 46 39 47 40 48 66 49 67 50 75 51 68 52 74 53 76 54 73 55
REMARK SMILES IDX 69 56 70 57 71 58 72 59 51 60 52 61 60 62 53 63 59 64 61 65
REMARK SMILES IDX 58 66 54 67 55 68 56 69 57 70 5 71 6 72 7 73 8 74 9 76 10 77
REMARK SMILES IDX 11 78 24 79 12 80 13 81 14 82 15 83 16 85 17 86 18 87 23 88
REMARK SMILES IDX 19 89 20 90 21 91 22 92
REMARK H PARENT 3 5 81 23 49 34 7 75 14 84
REMARK Flexibility Score: inf
ROOT
ATOM      1  C   UNL A   1      33.548  29.106  25.118  1.00  0.00     0.118 C 
ENDROOT
BRANCH   1   2
ATOM      2  N   UNL A   1      32.963  30.335  25.632  1.00  0.00    -0.352 N 
ATOM      3  O   UNL A   1      32.422  31.892  27.146  1.00  0.00    -0.269 OA
ATOM      4  C   UNL A   1      33.237  31.051  26.772  1.00  0.00     0.251 C 
ATOM      5  H   UNL A   1      32.251  30.717  25.069  1.00  0.00     0.163 HD
BRANCH   4   6
ATOM      6  C   UNL A   1      34.479  30.825  27.553  1.00  0.00     0.039 A 
ATOM      7  C   UNL A   1      34.723  29.613  28.199  1.00  0.00     0.014 A 
ATOM      8  C   UNL A   1      35.464  31.821  27.570  1.00  0.00     0.014 A 
ATOM      9  C   UNL A   1      35.869  29.447  28.972  1.00  0.00     0.010 A 
ATOM     10  C   UNL A   1      36.665  31.611  28.257  1.00  0.00     0.010 A 
ATOM     11  C   UNL A   1      36.871  30.427  28.982  1.00  0.00    -0.014 A 
BRANCH  11  12
ATOM     12  C   UNL A   1      38.152  30.162  29.693  1.00  0.00     0.031 A 
ATOM     13  C   UNL A   1      39.218  29.302  29.073  1.00  0.00     0.074 A 
ATOM     14  C   UNL A   1      38.351  30.715  30.908  1.00  0.00     0.049 A 
ATOM     15  N   UNL A   1      40.372  28.931  29.567  1.00  0.00    -0.248 NA
ATOM     16  C   UNL A   1      38.944  28.780  27.728  1.00  0.00     0.031 C 
ATOM     17  C   UNL A   1      37.390  31.574  31.607  1.00  0.00     0.029 A 
ATOM     18  N   UNL A   1      39.419  30.653  31.766  1.00  0.00    -0.354 N 
ATOM     19  C   UNL A   1      40.956  28.116  28.602  1.00  0.00     0.074 A 
ATOM     20  C   UNL A   1      40.007  28.018  27.513  1.00  0.00     0.031 C 
ATOM     21  C   UNL A   1      37.929  31.991  32.762  1.00  0.00     0.029 A 
ATOM     22  C   UNL A   1      39.232  31.362  32.931  1.00  0.00     0.049 A 
ATOM     23  H   UNL A   1      40.240  30.147  31.569  1.00  0.00     0.167 HD
ATOM     24  C   UNL A   1      42.173  27.512  28.627  1.00  0.00     0.034 A 
ATOM     25  C   UNL A   1      40.003  31.469  34.031  1.00  0.00     0.034 A 
ATOM     26  C   UNL A   1      43.099  27.625  29.733  1.00  0.00     0.049 A 
ATOM     27  C   UNL A   1      41.316  30.736  34.065  1.00  0.00     0.074 A 
ATOM     28  C   UNL A   1      44.367  27.082  29.855  1.00  0.00     0.029 A 
ATOM     29  N   UNL A   1      42.853  28.312  30.919  1.00  0.00    -0.354 N 
ATOM     30  N   UNL A   1      41.859  29.974  33.144  1.00  0.00    -0.248 NA
ATOM     31  C   UNL A   1      42.122  30.879  35.283  1.00  0.00     0.031 C 
ATOM     32  C   UNL A   1      44.846  27.362  31.139  1.00  0.00     0.029 A 
ATOM     33  C   UNL A   1      43.926  28.170  31.788  1.00  0.00     0.049 A 
ATOM     34  H   UNL A   1      42.035  28.825  31.112  1.00  0.00     0.167 HD
ATOM     35  C   UNL A   1      43.087  29.572  33.660  1.00  0.00     0.074 A 
ATOM     36  C   UNL A   1      43.206  30.186  34.967  1.00  0.00     0.031 C 
ATOM     37  C   UNL A   1      44.032  28.774  33.099  1.00  0.00     0.034 A 
BRANCH  24  38
ATOM     38  C   UNL A   1      42.535  26.618  27.458  1.00  0.00     0.023 A 
ATOM     39  C   UNL A   1      42.089  25.286  27.354  1.00  0.00     0.031 A 
ATOM     40  C   UNL A   1      43.376  27.103  26.438  1.00  0.00     0.131 A 
ATOM     41  C   UNL A   1      42.552  24.471  26.307  1.00  0.00     0.055 A 
ATOM     42  C   UNL A   1      43.751  26.317  25.347  1.00  0.00     0.041 A 
ATOM     43  F   UNL A   1      43.861  28.354  26.489  1.00  0.00    -0.206 F 
ATOM     44  C   UNL A   1      43.351  24.988  25.285  1.00  0.00     0.022 A 
BRANCH  41  45
ATOM     45  S   UNL A   1      42.212  22.688  26.355  1.00  0.00     0.124 S 
ATOM     46  O   UNL A   1      40.752  22.673  26.402  1.00  0.00    -0.237 OA
ATOM     47  O   UNL A   1      42.834  22.215  25.124  1.00  0.00    -0.237 OA
ATOM     48  O   UNL A   1      42.864  22.251  27.589  1.00  0.00    -0.744 OA
ENDBRANCH  41  45
ENDBRANCH  24  38
BRANCH  25  49
ATOM     49  C   UNL A   1      39.532  32.265  35.201  1.00  0.00     0.023 A 
ATOM     50  C   UNL A   1      38.827  31.663  36.254  1.00  0.00     0.031 A 
ATOM     51  C   UNL A   1      39.767  33.652  35.272  1.00  0.00     0.131 A 
ATOM     52  C   UNL A   1      38.347  32.451  37.313  1.00  0.00     0.055 A 
ATOM     53  C   UNL A   1      39.342  34.419  36.357  1.00  0.00     0.041 A 
ATOM     54  F   UNL A   1      40.438  34.278  34.293  1.00  0.00    -0.206 F 
ATOM     55  C   UNL A   1      38.616  33.820  37.380  1.00  0.00     0.022 A 
BRANCH  52  56
ATOM     56  S   UNL A   1      37.291  31.672  38.565  1.00  0.00     0.124 S 
ATOM     57  O   UNL A   1      37.109  30.337  38.010  1.00  0.00    -0.237 OA
ATOM     58  O   UNL A   1      38.123  31.763  39.761  1.00  0.00    -0.237 OA
ATOM     59  O   UNL A   1      36.097  32.515  38.574  1.00  0.00    -0.744 OA
ENDBRANCH  52  56
ENDBRANCH  25  49
BRANCH  37  60
ATOM     60  C   UNL A   1      45.310  28.570  33.880  1.00  0.00     0.023 A 
ATOM     61  C   UNL A   1      45.479  27.494  34.770  1.00  0.00     0.031 A 
ATOM     62  C   UNL A   1      46.374  29.479  33.735  1.00  0.00     0.131 A 
ATOM     63  C   UNL A   1      46.661  27.387  35.520  1.00  0.00     0.055 A 
ATOM     64  C   UNL A   1      47.574  29.327  34.430  1.00  0.00     0.041 A 
ATOM     65  F   UNL A   1      46.265  30.532  32.908  1.00  0.00    -0.206 F 
ATOM     66  C   UNL A   1      47.717  28.284  35.339  1.00  0.00     0.022 A 
BRANCH  63  67
ATOM     67  S   UNL A   1      46.764  26.120  36.814  1.00  0.00     0.124 S 
ATOM     68  O   UNL A   1      46.592  26.913  38.028  1.00  0.00    -0.237 OA
ATOM     69  O   UNL A   1      45.658  25.231  36.471  1.00  0.00    -0.237 OA
ATOM     70  O   UNL A   1      48.097  25.549  36.632  1.00  0.00    -0.744 OA
ENDBRANCH  63  67
ENDBRANCH  37  60
ENDBRANCH  11  12
ENDBRANCH   4   6
ENDBRANCH   1   2
BRANCH   1  71
ATOM     71  C   UNL A   1      32.876  27.876  25.708  1.00  0.00     0.042 C 
BRANCH  71  72
ATOM     72  C   UNL A   1      33.251  26.567  25.025  1.00  0.00     0.117 C 
BRANCH  72  73
ATOM     73  N   UNL A   1      33.120  25.434  25.918  1.00  0.00    -0.356 N 
ATOM     74  C   UNL A   1      32.126  24.529  26.106  1.00  0.00     0.227 C 
ATOM     75  H   UNL A   1      33.900  25.295  26.501  1.00  0.00     0.163 HD
ATOM     76  O   UNL A   1      32.382  23.602  26.886  1.00  0.00    -0.274 OA
BRANCH  74  77
ATOM     77  C   UNL A   1      30.751  24.575  25.418  1.00  0.00     0.103 C 
ATOM     78  C   UNL A   1      30.732  24.376  23.934  1.00  0.00    -0.016 C 
ATOM     79  C   UNL A   1      29.912  25.838  25.613  1.00  0.00     0.047 C 
ATOM     80  C   UNL A   1      30.136  25.394  23.298  1.00  0.00    -0.006 C 
ATOM     81  C   UNL A   1      29.802  26.510  24.232  1.00  0.00     0.106 C 
BRANCH  81  82
ATOM     82  N   UNL A   1      28.487  27.037  23.981  1.00  0.00    -0.350 N 
ATOM     83  C   UNL A   1      28.093  28.137  23.277  1.00  0.00     0.224 C 
ATOM     84  H   UNL A   1      27.752  26.519  24.382  1.00  0.00     0.164 HD
ATOM     85  O   UNL A   1      26.882  28.356  23.241  1.00  0.00    -0.275 OA
BRANCH  83  86
ATOM     86  C   UNL A   1      29.083  28.984  22.458  1.00  0.00     0.094 C 
ATOM     87  C   UNL A   1      30.158  29.725  23.248  1.00  0.00     0.030 C 
ATOM     88  C   UNL A   1      28.366  30.120  21.696  1.00  0.00     0.150 C 
ATOM     89  C   UNL A   1      29.470  30.836  24.008  1.00  0.00     0.138 C 
ATOM     90  S   UNL A   1      28.328  31.514  22.840  1.00  0.00     0.151 S 
ATOM     91  O   UNL A   1      27.051  31.589  23.511  1.00  0.00    -0.229 OA
ATOM     92  O   UNL A   1      29.023  32.644  22.260  1.00  0.00    -0.229 OA
ENDBRANCH  83  86
ENDBRANCH  81  82
ENDBRANCH  74  77
ENDBRANCH  72  73
ENDBRANCH  71  72
ENDBRANCH   1  71
TORSDOF 15
ENDMDL
MODEL 2
REMARK VINA RESULT:     -11.5      1.408      7.714
REMARK SMILES O=C(NCCCNC(=O)[C@@H]1C=C[C@@H](NC(=O)[C@@H]2CCS(=O)(=O)C2)C1)c1ccc(-c2c3nc(c(-c4cc(S(=O)(=O)[O-])ccc4F)c4ccc([nH]4)c(-c4cc(S(=O)(=O)[O-])ccc4F)c4nc(c(-c5cc(S(=O)(=O)[O-])ccc5F)c5ccc2[nH]5)C=C4)C=C3)cc1
REMARK SMILES IDX 4 1 3 2 1 3 2 4 25 6 26 7 87 8 27 9 86 10 28 11 29 12 30 13
REMARK SMILES IDX 80 14 31 15 85 16 79 17 81 18 32 19 84 20 78 21 77 22 33 24
REMARK SMILES IDX 65 25 45 26 64 27 46 28 49 29 63 30 82 31 47 32 48 33 62 35
REMARK SMILES IDX 83 36 50 37 34 38 35 39 43 40 36 41 42 42 44 43 41 44 37 45
REMARK SMILES IDX 38 46 39 47 40 48 66 49 67 50 75 51 68 52 74 53 76 54 73 55
REMARK SMILES IDX 69 56 70 57 71 58 72 59 51 60 52 61 60 62 53 63 59 64 61 65
REMARK SMILES IDX 58 66 54 67 55 68 56 69 57 70 5 71 6 72 7 73 8 74 9 76 10 77
REMARK SMILES IDX 11 78 24 79 12 80 13 81 14 82 15 83 16 85 17 86 18 87 23 88
REMARK SMILES IDX 19 89 20 90 21 91 22 92
REMARK H PARENT 3 5 81 23 49 34 7 75 14 84
REMARK Flexibility Score: inf
ROOT
ATOM      1  C   UNL A   1      33.602  29.171  24.998  1.00  0.00     0.118 C 
ENDROOT
BRANCH   1   2
ATOM      2  N   UNL A   1      33.033  30.395  25.541  1.00  0.00    -0.352 N 
ATOM      3  O   UNL A   1      32.470  31.899  27.100  1.00  0.00    -0.269 OA
ATOM      4  C   UNL A   1      33.274  31.047  26.727  1.00  0.00     0.251 C 
ATOM      5  H   UNL A   1      32.365  30.829  24.963  1.00  0.00     0.163 HD
BRANCH   4   6
ATOM      6  C   UNL A   1      34.467  30.740  27.556  1.00  0.00     0.039 A 
ATOM      7  C   UNL A   1      34.615  29.506  28.190  1.00  0.00     0.014 A 
ATOM      8  C   UNL A   1      35.503  31.679  27.632  1.00  0.00     0.014 A 
ATOM      9  C   UNL A   1      35.716  29.264  29.008  1.00  0.00     0.010 A 
ATOM     10  C   UNL A   1      36.660  31.392  28.365  1.00  0.00     0.010 A 
ATOM     11  C   UNL A   1      36.769  30.187  29.078  1.00  0.00    -0.014 A 
BRANCH  11  12
ATOM     12  C   UNL A   1      38.001  29.840  29.838  1.00  0.00     0.031 A 
ATOM     13  C   UNL A   1      38.249  30.403  31.210  1.00  0.00     0.074 A 
ATOM     14  C   UNL A   1      38.897  29.001  29.279  1.00  0.00     0.049 A 
ATOM     15  N   UNL A   1      39.285  30.244  31.994  1.00  0.00    -0.248 NA
ATOM     16  C   UNL A   1      37.201  31.269  31.767  1.00  0.00     0.031 C 
ATOM     17  C   UNL A   1      38.761  28.386  27.955  1.00  0.00     0.029 A 
ATOM     18  N   UNL A   1      40.089  28.509  29.747  1.00  0.00    -0.354 N 
ATOM     19  C   UNL A   1      39.024  31.004  33.131  1.00  0.00     0.074 A 
ATOM     20  C   UNL A   1      37.749  31.654  32.911  1.00  0.00     0.031 C 
ATOM     21  C   UNL A   1      39.801  27.569  27.738  1.00  0.00     0.029 A 
ATOM     22  C   UNL A   1      40.723  27.667  28.861  1.00  0.00     0.049 A 
ATOM     23  H   UNL A   1      40.457  28.737  30.631  1.00  0.00     0.167 HD
ATOM     24  C   UNL A   1      39.780  31.140  34.251  1.00  0.00     0.034 A 
ATOM     25  C   UNL A   1      41.928  27.067  28.925  1.00  0.00     0.034 A 
ATOM     26  C   UNL A   1      41.055  30.480  34.440  1.00  0.00     0.049 A 
ATOM     27  C   UNL A   1      42.780  27.286  30.146  1.00  0.00     0.074 A 
ATOM     28  C   UNL A   1      41.892  30.521  35.542  1.00  0.00     0.029 A 
ATOM     29  N   UNL A   1      41.689  29.675  33.499  1.00  0.00    -0.354 N 
ATOM     30  N   UNL A   1      42.519  28.002  31.215  1.00  0.00    -0.248 NA
ATOM     31  C   UNL A   1      44.085  26.616  30.171  1.00  0.00     0.031 C 
ATOM     32  C   UNL A   1      43.063  29.822  35.235  1.00  0.00     0.029 A 
ATOM     33  C   UNL A   1      42.920  29.251  33.980  1.00  0.00     0.049 A 
ATOM     34  H   UNL A   1      41.317  29.440  32.617  1.00  0.00     0.167 HD
ATOM     35  C   UNL A   1      43.616  27.842  32.055  1.00  0.00     0.074 A 
ATOM     36  C   UNL A   1      44.533  26.953  31.371  1.00  0.00     0.031 C 
ATOM     37  C   UNL A   1      43.838  28.375  33.284  1.00  0.00     0.034 A 
BRANCH  24  38
ATOM     38  C   UNL A   1      39.283  32.092  35.321  1.00  0.00     0.023 A 
ATOM     39  C   UNL A   1      39.679  33.442  35.378  1.00  0.00     0.031 A 
ATOM     40  C   UNL A   1      38.416  31.625  36.327  1.00  0.00     0.131 A 
ATOM     41  C   UNL A   1      39.277  34.246  36.459  1.00  0.00     0.055 A 
ATOM     42  C   UNL A   1      37.940  32.457  37.342  1.00  0.00     0.041 A 
ATOM     43  F   UNL A   1      38.022  30.342  36.349  1.00  0.00    -0.206 F 
ATOM     44  C   UNL A   1      38.382  33.772  37.421  1.00  0.00     0.022 A 
BRANCH  41  45
ATOM     45  S   UNL A   1      40.035  35.881  36.678  1.00  0.00     0.124 S 
ATOM     46  O   UNL A   1      39.360  36.354  37.884  1.00  0.00    -0.237 OA
ATOM     47  O   UNL A   1      41.451  35.559  36.802  1.00  0.00    -0.237 OA
ATOM     48  O   UNL A   1      39.664  36.593  35.455  1.00  0.00    -0.744 OA
ENDBRANCH  41  45
ENDBRANCH  24  38
BRANCH  25  49
ATOM     49  C   UNL A   1      42.415  26.241  27.782  1.00  0.00     0.023 A 
ATOM     50  C   UNL A   1      41.996  24.913  27.614  1.00  0.00     0.031 A 
ATOM     51  C   UNL A   1      43.326  26.768  26.847  1.00  0.00     0.131 A 
ATOM     52  C   UNL A   1      42.518  24.145  26.561  1.00  0.00     0.055 A 
ATOM     53  C   UNL A   1      43.794  26.020  25.767  1.00  0.00     0.041 A 
ATOM     54  F   UNL A   1      43.759  28.034  26.960  1.00  0.00    -0.206 F 
ATOM     55  C   UNL A   1      43.399  24.695  25.627  1.00  0.00     0.022 A 
BRANCH  52  56
ATOM     56  S   UNL A   1      42.091  22.384  26.476  1.00  0.00     0.124 S 
ATOM     57  O   UNL A   1      42.717  21.988  25.221  1.00  0.00    -0.237 OA
ATOM     58  O   UNL A   1      42.707  21.864  27.694  1.00  0.00    -0.237 OA
ATOM     59  O   UNL A   1      40.630  22.388  26.474  1.00  0.00    -0.744 OA
ENDBRANCH  52  56
ENDBRANCH  25  49
BRANCH  37  60
ATOM     60  C   UNL A   1      45.107  27.959  33.994  1.00  0.00     0.023 A 
ATOM     61  C   UNL A   1      45.145  26.863  34.875  1.00  0.00     0.031 A 
ATOM     62  C   UNL A   1      46.296  28.682  33.789  1.00  0.00     0.131 A 
ATOM     63  C   UNL A   1      46.333  26.558  35.559  1.00  0.00     0.055 A 
ATOM     64  C   UNL A   1      47.491  28.330  34.418  1.00  0.00     0.041 A 
ATOM     65  F   UNL A   1      46.316  29.745  32.968  1.00  0.00    -0.206 F 
ATOM     66  C   UNL A   1      47.510  27.271  35.319  1.00  0.00     0.022 A 
BRANCH  63  67
ATOM     67  S   UNL A   1      46.296  25.281  36.848  1.00  0.00     0.124 S 
ATOM     68  O   UNL A   1      45.441  24.265  36.242  1.00  0.00    -0.237 OA
ATOM     69  O   UNL A   1      47.707  24.931  36.981  1.00  0.00    -0.237 OA
ATOM     70  O   UNL A   1      45.718  25.971  37.999  1.00  0.00    -0.744 OA
ENDBRANCH  63  67
ENDBRANCH  37  60
ENDBRANCH  11  12
ENDBRANCH   4   6
ENDBRANCH   1   2
BRANCH   1  71
ATOM     71  C   UNL A   1      32.831  27.943  25.458  1.00  0.00     0.042 C 
BRANCH  71  72
ATOM     72  C   UNL A   1      33.319  26.633  24.853  1.00  0.00     0.117 C 
BRANCH  72  73
ATOM     73  N   UNL A   1      33.164  25.523  25.771  1.00  0.00    -0.356 N 
ATOM     74  C   UNL A   1      32.163  24.626  25.960  1.00  0.00     0.227 C 
ATOM     75  H   UNL A   1      33.932  25.395  26.373  1.00  0.00     0.163 HD
ATOM     76  O   UNL A   1      32.399  23.718  26.768  1.00  0.00    -0.274 OA
BRANCH  74  77
ATOM     77  C   UNL A   1      30.803  24.661  25.242  1.00  0.00     0.103 C 
ATOM     78  C   UNL A   1      30.825  24.571  23.748  1.00  0.00    -0.016 C 
ATOM     79  C   UNL A   1      29.901  25.867  25.507  1.00  0.00     0.047 C 
ATOM     80  C   UNL A   1      30.196  25.605  23.172  1.00  0.00    -0.006 C 
ATOM     81  C   UNL A   1      29.789  26.633  24.176  1.00  0.00     0.106 C 
BRANCH  81  82
ATOM     82  N   UNL A   1      28.458  27.117  23.931  1.00  0.00    -0.350 N 
ATOM     83  C   UNL A   1      28.024  28.202  23.225  1.00  0.00     0.224 C 
ATOM     84  H   UNL A   1      27.741  26.578  24.338  1.00  0.00     0.164 HD
ATOM     85  O   UNL A   1      26.807  28.382  23.196  1.00  0.00    -0.275 OA
BRANCH  83  86
ATOM     86  C   UNL A   1      28.982  29.077  22.398  1.00  0.00     0.094 C 
ATOM     87  C   UNL A   1      30.078  29.804  23.173  1.00  0.00     0.030 C 
ATOM     88  C   UNL A   1      28.235  30.227  21.689  1.00  0.00     0.150 C 
ATOM     89  C   UNL A   1      29.408  30.890  23.983  1.00  0.00     0.138 C 
ATOM     90  S   UNL A   1      28.225  31.590  22.871  1.00  0.00     0.151 S 
ATOM     91  O   UNL A   1      26.969  31.639  23.584  1.00  0.00    -0.229 OA
ATOM     92  O   UNL A   1      28.894  32.740  22.299  1.00  0.00    -0.229 OA
ENDBRANCH  83  86
ENDBRANCH  81  82
ENDBRANCH  74  77
ENDBRANCH  72  73
ENDBRANCH  71  72
ENDBRANCH   1  71
TORSDOF 15
ENDMDL
MODEL 3
REMARK VINA RESULT:     -11.5      3.112      4.791
REMARK SMILES O=C(NCCCNC(=O)[C@@H]1C=C[C@@H](NC(=O)[C@@H]2CCS(=O)(=O)C2)C1)c1ccc(-c2c3nc(c(-c4cc(S(=O)(=O)[O-])ccc4F)c4ccc([nH]4)c(-c4cc(S(=O)(=O)[O-])ccc4F)c4nc(c(-c5cc(S(=O)(=O)[O-])ccc5F)c5ccc2[nH]5)C=C4)C=C3)cc1
REMARK SMILES IDX 4 1 3 2 1 3 2 4 25 6 26 7 87 8 27 9 86 10 28 11 29 12 30 13
REMARK SMILES IDX 80 14 31 15 85 16 79 17 81 18 32 19 84 20 78 21 77 22 33 24
REMARK SMILES IDX 65 25 45 26 64 27 46 28 49 29 63 30 82 31 47 32 48 33 62 35
REMARK SMILES IDX 83 36 50 37 34 38 35 39 43 40 36 41 42 42 44 43 41 44 37 45
REMARK SMILES IDX 38 46 39 47 40 48 66 49 67 50 75 51 68 52 74 53 76 54 73 55
REMARK SMILES IDX 69 56 70 57 71 58 72 59 51 60 52 61 60 62 53 63 59 64 61 65
REMARK SMILES IDX 58 66 54 67 55 68 56 69 57 70 5 71 6 72 7 73 8 74 9 76 10 77
REMARK SMILES IDX 11 78 24 79 12 80 13 81 14 82 15 83 16 85 17 86 18 87 23 88
REMARK SMILES IDX 19 89 20 90 21 91 22 92
REMARK H PARENT 3 5 81 23 49 34 7 75 14 84
REMARK Flexibility Score: inf
ROOT
ATOM      1  C   UNL A   1      32.773  32.824  27.241  1.00  0.00     0.118 C 
ENDROOT
BRANCH   1   2
ATOM      2  N   UNL A   1      32.606  34.183  27.731  1.00  0.00    -0.352 N 
ATOM      3  O   UNL A   1      32.633  35.868  29.205  1.00  0.00    -0.269 OA
ATOM      4  C   UNL A   1      33.141  34.812  28.830  1.00  0.00     0.251 C 
ATOM      5  H   UNL A   1      32.012  34.746  27.185  1.00  0.00     0.163 HD
BRANCH   4   6
ATOM      6  C   UNL A   1      34.300  34.246  29.564  1.00  0.00     0.039 A 
ATOM      7  C   UNL A   1      34.126  33.381  30.645  1.00  0.00     0.014 A 
ATOM      8  C   UNL A   1      35.595  34.520  29.107  1.00  0.00     0.014 A 
ATOM      9  C   UNL A   1      35.228  32.909  31.352  1.00  0.00     0.010 A 
ATOM     10  C   UNL A   1      36.703  33.956  29.752  1.00  0.00     0.010 A 
ATOM     11  C   UNL A   1      36.529  33.160  30.895  1.00  0.00    -0.014 A 
BRANCH  11  12
ATOM     12  C   UNL A   1      37.685  32.519  31.580  1.00  0.00     0.031 A 
ATOM     13  C   UNL A   1      38.446  31.396  30.930  1.00  0.00     0.074 A 
ATOM     14  C   UNL A   1      38.052  32.968  32.799  1.00  0.00     0.049 A 
ATOM     15  N   UNL A   1      39.447  30.695  31.399  1.00  0.00    -0.248 NA
ATOM     16  C   UNL A   1      38.014  31.002  29.583  1.00  0.00     0.031 C 
ATOM     17  C   UNL A   1      37.393  34.057  33.526  1.00  0.00     0.029 A 
ATOM     18  N   UNL A   1      39.066  32.580  33.638  1.00  0.00    -0.354 N 
ATOM     19  C   UNL A   1      39.755  29.763  30.414  1.00  0.00     0.074 A 
ATOM     20  C   UNL A   1      38.805  29.966  29.339  1.00  0.00     0.031 C 
ATOM     21  C   UNL A   1      38.045  34.277  34.677  1.00  0.00     0.029 A 
ATOM     22  C   UNL A   1      39.109  33.292  34.815  1.00  0.00     0.049 A 
ATOM     23  H   UNL A   1      39.701  31.860  33.420  1.00  0.00     0.167 HD
ATOM     24  C   UNL A   1      40.742  28.829  30.409  1.00  0.00     0.034 A 
ATOM     25  C   UNL A   1      39.891  33.149  35.903  1.00  0.00     0.034 A 
ATOM     26  C   UNL A   1      41.674  28.647  31.501  1.00  0.00     0.049 A 
ATOM     27  C   UNL A   1      40.933  32.063  35.905  1.00  0.00     0.074 A 
ATOM     28  C   UNL A   1      42.729  27.755  31.594  1.00  0.00     0.029 A 
ATOM     29  N   UNL A   1      41.655  29.353  32.700  1.00  0.00    -0.354 N 
ATOM     30  N   UNL A   1      41.218  31.193  34.964  1.00  0.00    -0.248 NA
ATOM     31  C   UNL A   1      41.760  31.942  37.111  1.00  0.00     0.031 C 
ATOM     32  C   UNL A   1      43.285  27.858  32.873  1.00  0.00     0.029 A 
ATOM     33  C   UNL A   1      42.649  28.888  33.548  1.00  0.00     0.049 A 
ATOM     34  H   UNL A   1      41.025  30.080  32.914  1.00  0.00     0.167 HD
ATOM     35  C   UNL A   1      42.280  30.440  35.454  1.00  0.00     0.074 A 
ATOM     36  C   UNL A   1      42.590  30.968  36.767  1.00  0.00     0.031 C 
ATOM     37  C   UNL A   1      42.943  29.411  34.865  1.00  0.00     0.034 A 
BRANCH  24  38
ATOM     38  C   UNL A   1      40.812  27.890  29.221  1.00  0.00     0.023 A 
ATOM     39  C   UNL A   1      41.736  28.060  28.173  1.00  0.00     0.031 A 
ATOM     40  C   UNL A   1      39.909  26.814  29.124  1.00  0.00     0.131 A 
ATOM     41  C   UNL A   1      41.677  27.225  27.043  1.00  0.00     0.055 A 
ATOM     42  C   UNL A   1      39.922  25.928  28.046  1.00  0.00     0.041 A 
ATOM     43  F   UNL A   1      38.983  26.610  30.075  1.00  0.00    -0.206 F 
ATOM     44  C   UNL A   1      40.800  26.140  26.990  1.00  0.00     0.022 A 
BRANCH  41  45
ATOM     45  S   UNL A   1      42.665  27.644  25.578  1.00  0.00     0.124 S 
ATOM     46  O   UNL A   1      43.983  27.859  26.170  1.00  0.00    -0.237 OA
ATOM     47  O   UNL A   1      42.506  26.461  24.742  1.00  0.00    -0.237 OA
ATOM     48  O   UNL A   1      42.023  28.856  25.071  1.00  0.00    -0.744 OA
ENDBRANCH  41  45
ENDBRANCH  24  38
BRANCH  25  49
ATOM     49  C   UNL A   1      39.688  34.026  37.092  1.00  0.00     0.023 A 
ATOM     50  C   UNL A   1      39.062  33.546  38.252  1.00  0.00     0.031 A 
ATOM     51  C   UNL A   1      40.104  35.371  37.077  1.00  0.00     0.131 A 
ATOM     52  C   UNL A   1      38.834  34.413  39.332  1.00  0.00     0.055 A 
ATOM     53  C   UNL A   1      39.930  36.212  38.176  1.00  0.00     0.041 A 
ATOM     54  F   UNL A   1      40.709  35.882  35.993  1.00  0.00    -0.206 F 
ATOM     55  C   UNL A   1      39.280  35.737  39.309  1.00  0.00     0.022 A 
BRANCH  52  56
ATOM     56  S   UNL A   1      37.868  33.808  40.743  1.00  0.00     0.124 S 
ATOM     57  O   UNL A   1      38.822  32.922  41.398  1.00  0.00    -0.237 OA
ATOM     58  O   UNL A   1      37.552  35.047  41.448  1.00  0.00    -0.237 OA
ATOM     59  O   UNL A   1      36.727  33.145  40.114  1.00  0.00    -0.744 OA
ENDBRANCH  52  56
ENDBRANCH  25  49
BRANCH  37  60
ATOM     60  C   UNL A   1      44.115  28.828  35.622  1.00  0.00     0.023 A 
ATOM     61  C   UNL A   1      43.973  27.735  36.496  1.00  0.00     0.031 A 
ATOM     62  C   UNL A   1      45.398  29.387  35.469  1.00  0.00     0.131 A 
ATOM     63  C   UNL A   1      45.081  27.274  37.224  1.00  0.00     0.055 A 
ATOM     64  C   UNL A   1      46.509  28.878  36.141  1.00  0.00     0.041 A 
ATOM     65  F   UNL A   1      45.591  30.438  34.656  1.00  0.00    -0.206 F 
ATOM     66  C   UNL A   1      46.351  27.824  37.035  1.00  0.00     0.022 A 
BRANCH  63  67
ATOM     67  S   UNL A   1      44.824  26.011  38.502  1.00  0.00     0.124 S 
ATOM     68  O   UNL A   1      46.194  25.625  38.825  1.00  0.00    -0.237 OA
ATOM     69  O   UNL A   1      44.109  26.752  39.535  1.00  0.00    -0.237 OA
ATOM     70  O   UNL A   1      44.038  24.986  37.818  1.00  0.00    -0.744 OA
ENDBRANCH  63  67
ENDBRANCH  37  60
ENDBRANCH  11  12
ENDBRANCH   4   6
ENDBRANCH   1   2
BRANCH   1  71
ATOM     71  C   UNL A   1      31.456  32.236  26.760  1.00  0.00     0.042 C 
BRANCH  71  72
ATOM     72  C   UNL A   1      31.585  30.885  26.068  1.00  0.00     0.117 C 
BRANCH  72  73
ATOM     73  N   UNL A   1      31.512  29.786  27.009  1.00  0.00    -0.356 N 
ATOM     74  C   UNL A   1      31.789  28.463  26.892  1.00  0.00     0.227 C 
ATOM     75  H   UNL A   1      31.199  30.050  27.904  1.00  0.00     0.163 HD
ATOM     76  O   UNL A   1      31.725  27.805  27.939  1.00  0.00    -0.274 OA
BRANCH  74  77
ATOM     77  C   UNL A   1      32.182  27.758  25.583  1.00  0.00     0.103 C 
ATOM     78  C   UNL A   1      31.090  27.048  24.845  1.00  0.00    -0.016 C 
ATOM     79  C   UNL A   1      33.293  26.709  25.658  1.00  0.00     0.047 C 
ATOM     80  C   UNL A   1      31.382  25.758  24.632  1.00  0.00    -0.006 C 
ATOM     81  C   UNL A   1      32.640  25.354  25.327  1.00  0.00     0.106 C 
BRANCH  81  82
ATOM     82  N   UNL A   1      33.472  24.535  24.487  1.00  0.00    -0.350 N 
ATOM     83  C   UNL A   1      33.417  23.198  24.219  1.00  0.00     0.224 C 
ATOM     84  H   UNL A   1      34.199  25.017  24.031  1.00  0.00     0.164 HD
ATOM     85  O   UNL A   1      34.281  22.758  23.461  1.00  0.00    -0.275 OA
BRANCH  83  86
ATOM     86  C   UNL A   1      32.265  22.308  24.720  1.00  0.00     0.094 C 
ATOM     87  C   UNL A   1      32.231  22.023  26.218  1.00  0.00     0.030 C 
ATOM     88  C   UNL A   1      32.324  20.896  24.097  1.00  0.00     0.150 C 
ATOM     89  C   UNL A   1      33.390  21.103  26.526  1.00  0.00     0.138 C 
ATOM     90  S   UNL A   1      33.373  19.930  25.202  1.00  0.00     0.151 S 
ATOM     91  O   UNL A   1      34.723  19.863  24.695  1.00  0.00    -0.229 OA
ATOM     92  O   UNL A   1      32.629  18.801  25.721  1.00  0.00    -0.229 OA
ENDBRANCH  83  86
ENDBRANCH  81  82
ENDBRANCH  74  77
ENDBRANCH  72  73
ENDBRANCH  71  72
ENDBRANCH   1  71
TORSDOF 15
ENDMDL
