MODEL 1
REMARK VINA RESULT:     -12.2      0.000      0.000
REMARK SMILES O=C(NCCCNC(=O)C(Cl)(c1ccccc1)c1ccccc1)c1ccc(-c2c3nc(c(-c4cc(S(=O)(=O)[O-])ccc4F)c4ccc([nH]4)c(-c4cc(S(=O)(=O)[O-])ccc4F)c4nc(c(-c5cc(S(=O)(=O)[O-])ccc5F)c5ccc2[nH]5)C=C4)C=C3)cc1
REMARK SMILES IDX 4 1 3 2 1 3 2 4 24 6 25 7 86 8 26 9 85 10 27 11 28 12 29 13
REMARK SMILES IDX 79 14 30 15 84 16 78 17 80 18 31 19 83 20 77 21 76 22 32 24
REMARK SMILES IDX 64 25 44 26 63 27 45 28 48 29 62 30 81 31 46 32 47 33 61 35
REMARK SMILES IDX 82 36 49 37 33 38 34 39 42 40 35 41 41 42 43 43 40 44 36 45
REMARK SMILES IDX 37 46 38 47 39 48 65 49 66 50 74 51 67 52 73 53 75 54 72 55
REMARK SMILES IDX 68 56 69 57 70 58 71 59 50 60 51 61 59 62 52 63 58 64 60 65
REMARK SMILES IDX 57 66 53 67 54 68 55 69 56 70 5 71 6 72 7 73 8 74 9 76 10 77
REMARK SMILES IDX 11 78 12 79 13 80 17 81 14 82 16 83 15 84 18 85 19 86 23 87
REMARK SMILES IDX 20 88 22 89 21 90
REMARK H PARENT 3 5 80 23 48 34 7 75
REMARK Flexibility Score: inf
ROOT
ATOM      1  C   UNL A   1      32.628  29.908  25.953  1.00  0.00     0.118 C 
ENDROOT
BRANCH   1   2
ATOM      2  N   UNL A   1      32.333  31.269  26.385  1.00  0.00    -0.352 N 
ATOM      3  O   UNL A   1      32.522  33.155  27.604  1.00  0.00    -0.269 OA
ATOM      4  C   UNL A   1      33.016  32.089  27.258  1.00  0.00     0.251 C 
ATOM      5  H   UNL A   1      31.521  31.664  25.994  1.00  0.00     0.163 HD
BRANCH   4   6
ATOM      6  C   UNL A   1      34.329  31.664  27.792  1.00  0.00     0.039 A 
ATOM      7  C   UNL A   1      34.565  30.327  28.107  1.00  0.00     0.014 A 
ATOM      8  C   UNL A   1      35.328  32.619  28.002  1.00  0.00     0.014 A 
ATOM      9  C   UNL A   1      35.708  29.980  28.814  1.00  0.00     0.010 A 
ATOM     10  C   UNL A   1      36.530  32.244  28.611  1.00  0.00     0.010 A 
ATOM     11  C   UNL A   1      36.709  30.930  29.072  1.00  0.00    -0.014 A 
BRANCH  11  12
ATOM     12  C   UNL A   1      37.931  30.503  29.806  1.00  0.00     0.031 A 
ATOM     13  C   UNL A   1      38.143  30.879  31.251  1.00  0.00     0.074 A 
ATOM     14  C   UNL A   1      38.820  29.711  29.176  1.00  0.00     0.049 A 
ATOM     15  N   UNL A   1      39.122  30.545  32.054  1.00  0.00    -0.248 NA
ATOM     16  C   UNL A   1      37.136  31.753  31.867  1.00  0.00     0.031 C 
ATOM     17  C   UNL A   1      38.723  29.288  27.776  1.00  0.00     0.029 A 
ATOM     18  N   UNL A   1      39.954  29.089  29.628  1.00  0.00    -0.354 N 
ATOM     19  C   UNL A   1      38.868  31.192  33.260  1.00  0.00     0.074 A 
ATOM     20  C   UNL A   1      37.656  31.960  33.070  1.00  0.00     0.031 C 
ATOM     21  C   UNL A   1      39.706  28.417  27.509  1.00  0.00     0.029 A 
ATOM     22  C   UNL A   1      40.549  28.278  28.688  1.00  0.00     0.049 A 
ATOM     23  H   UNL A   1      40.310  29.210  30.538  1.00  0.00     0.167 HD
ATOM     24  C   UNL A   1      39.577  31.143  34.417  1.00  0.00     0.034 A 
ATOM     25  C   UNL A   1      41.656  27.515  28.761  1.00  0.00     0.034 A 
ATOM     26  C   UNL A   1      40.772  30.350  34.593  1.00  0.00     0.049 A 
ATOM     27  C   UNL A   1      42.425  27.482  30.052  1.00  0.00     0.074 A 
ATOM     28  C   UNL A   1      41.545  30.196  35.732  1.00  0.00     0.029 A 
ATOM     29  N   UNL A   1      41.372  29.580  33.604  1.00  0.00    -0.354 N 
ATOM     30  N   UNL A   1      42.164  28.094  31.185  1.00  0.00    -0.248 NA
ATOM     31  C   UNL A   1      43.637  26.657  30.074  1.00  0.00     0.031 C 
ATOM     32  C   UNL A   1      42.642  29.385  35.414  1.00  0.00     0.029 A 
ATOM     33  C   UNL A   1      42.519  28.974  34.097  1.00  0.00     0.049 A 
ATOM     34  H   UNL A   1      41.033  29.479  32.686  1.00  0.00     0.167 HD
ATOM     35  C   UNL A   1      43.175  27.713  32.060  1.00  0.00     0.074 A 
ATOM     36  C   UNL A   1      44.033  26.801  31.330  1.00  0.00     0.031 C 
ATOM     37  C   UNL A   1      43.377  28.084  33.350  1.00  0.00     0.034 A 
BRANCH  24  38
ATOM     38  C   UNL A   1      39.108  32.013  35.560  1.00  0.00     0.023 A 
ATOM     39  C   UNL A   1      39.546  33.340  35.718  1.00  0.00     0.031 A 
ATOM     40  C   UNL A   1      38.224  31.496  36.524  1.00  0.00     0.131 A 
ATOM     41  C   UNL A   1      39.158  34.077  36.850  1.00  0.00     0.055 A 
ATOM     42  C   UNL A   1      37.780  32.259  37.607  1.00  0.00     0.041 A 
ATOM     43  F   UNL A   1      37.785  30.230  36.438  1.00  0.00    -0.206 F 
ATOM     44  C   UNL A   1      38.260  33.553  37.782  1.00  0.00     0.022 A 
BRANCH  41  45
ATOM     45  S   UNL A   1      39.958  35.675  37.162  1.00  0.00     0.124 S 
ATOM     46  O   UNL A   1      39.270  36.119  38.372  1.00  0.00    -0.237 OA
ATOM     47  O   UNL A   1      41.358  35.300  37.323  1.00  0.00    -0.237 OA
ATOM     48  O   UNL A   1      39.653  36.453  35.963  1.00  0.00    -0.744 OA
ENDBRANCH  41  45
ENDBRANCH  24  38
BRANCH  25  49
ATOM     49  C   UNL A   1      42.111  26.740  27.574  1.00  0.00     0.023 A 
ATOM     50  C   UNL A   1      41.864  25.364  27.469  1.00  0.00     0.031 A 
ATOM     51  C   UNL A   1      42.817  27.367  26.531  1.00  0.00     0.131 A 
ATOM     52  C   UNL A   1      42.347  24.649  26.361  1.00  0.00     0.055 A 
ATOM     53  C   UNL A   1      43.251  26.663  25.407  1.00  0.00     0.041 A 
ATOM     54  F   UNL A   1      43.074  28.683  26.579  1.00  0.00    -0.206 F 
ATOM     55  C   UNL A   1      43.026  25.293  25.323  1.00  0.00     0.022 A 
BRANCH  52  56
ATOM     56  S   UNL A   1      42.136  22.849  26.328  1.00  0.00     0.124 S 
ATOM     57  O   UNL A   1      42.645  22.513  25.003  1.00  0.00    -0.237 OA
ATOM     58  O   UNL A   1      42.958  22.427  27.457  1.00  0.00    -0.237 OA
ATOM     59  O   UNL A   1      40.696  22.672  26.508  1.00  0.00    -0.744 OA
ENDBRANCH  52  56
ENDBRANCH  25  49
BRANCH  37  60
ATOM     60  C   UNL A   1      44.561  27.465  34.049  1.00  0.00     0.023 A 
ATOM     61  C   UNL A   1      44.441  26.274  34.787  1.00  0.00     0.031 A 
ATOM     62  C   UNL A   1      45.814  28.102  34.016  1.00  0.00     0.131 A 
ATOM     63  C   UNL A   1      45.539  25.792  35.516  1.00  0.00     0.055 A 
ATOM     64  C   UNL A   1      46.917  27.584  34.695  1.00  0.00     0.041 A 
ATOM     65  F   UNL A   1      45.982  29.243  33.328  1.00  0.00    -0.206 F 
ATOM     66  C   UNL A   1      46.780  26.432  35.463  1.00  0.00     0.022 A 
BRANCH  63  67
ATOM     67  S   UNL A   1      45.293  24.376  36.623  1.00  0.00     0.124 S 
ATOM     68  O   UNL A   1      44.254  24.869  37.521  1.00  0.00    -0.237 OA
ATOM     69  O   UNL A   1      44.888  23.323  35.697  1.00  0.00    -0.237 OA
ATOM     70  O   UNL A   1      46.606  24.189  37.237  1.00  0.00    -0.744 OA
ENDBRANCH  63  67
ENDBRANCH  37  60
ENDBRANCH  11  12
ENDBRANCH   4   6
ENDBRANCH   1   2
BRANCH   1  71
ATOM     71  C   UNL A   1      31.773  28.857  26.646  1.00  0.00     0.042 C 
BRANCH  71  72
ATOM     72  C   UNL A   1      32.418  27.483  26.719  1.00  0.00     0.117 C 
BRANCH  72  73
ATOM     73  N   UNL A   1      31.441  26.414  26.875  1.00  0.00    -0.354 N 
ATOM     74  C   UNL A   1      31.107  25.375  26.043  1.00  0.00     0.250 C 
ATOM     75  H   UNL A   1      30.935  26.443  27.719  1.00  0.00     0.163 HD
ATOM     76  O   UNL A   1      30.379  24.518  26.561  1.00  0.00    -0.272 OA
BRANCH  74  77
ATOM     77  C   UNL A   1      31.675  25.252  24.570  1.00  0.00     0.173 C 
ATOM     78  Cl  UNL A   1      30.653  23.922  23.792  1.00  0.00    -0.098 Cl
BRANCH  77  79
ATOM     79  C   UNL A   1      31.483  26.582  23.796  1.00  0.00    -0.013 A 
ATOM     80  C   UNL A   1      32.587  27.264  23.238  1.00  0.00     0.006 A 
ATOM     81  C   UNL A   1      30.212  27.170  23.635  1.00  0.00     0.006 A 
ATOM     82  C   UNL A   1      32.437  28.517  22.637  1.00  0.00     0.000 A 
ATOM     83  C   UNL A   1      30.061  28.407  23.004  1.00  0.00     0.000 A 
ATOM     84  C   UNL A   1      31.176  29.088  22.523  1.00  0.00     0.000 A 
ENDBRANCH  77  79
BRANCH  77  85
ATOM     85  C   UNL A   1      33.122  24.686  24.537  1.00  0.00    -0.013 A 
ATOM     86  C   UNL A   1      33.649  24.001  23.425  1.00  0.00     0.006 A 
ATOM     87  C   UNL A   1      33.938  24.755  25.689  1.00  0.00     0.006 A 
ATOM     88  C   UNL A   1      34.919  23.414  23.466  1.00  0.00     0.000 A 
ATOM     89  C   UNL A   1      35.212  24.183  25.724  1.00  0.00     0.000 A 
ATOM     90  C   UNL A   1      35.700  23.505  24.614  1.00  0.00     0.000 A 
ENDBRANCH  77  85
ENDBRANCH  74  77
ENDBRANCH  72  73
ENDBRANCH  71  72
ENDBRANCH   1  71
TORSDOF 15
ENDMDL
MODEL 2
REMARK VINA RESULT:     -12.1      1.309      1.705
REMARK SMILES O=C(NCCCNC(=O)C(Cl)(c1ccccc1)c1ccccc1)c1ccc(-c2c3nc(c(-c4cc(S(=O)(=O)[O-])ccc4F)c4ccc([nH]4)c(-c4cc(S(=O)(=O)[O-])ccc4F)c4nc(c(-c5cc(S(=O)(=O)[O-])ccc5F)c5ccc2[nH]5)C=C4)C=C3)cc1
REMARK SMILES IDX 4 1 3 2 1 3 2 4 24 6 25 7 86 8 26 9 85 10 27 11 28 12 29 13
REMARK SMILES IDX 79 14 30 15 84 16 78 17 80 18 31 19 83 20 77 21 76 22 32 24
REMARK SMILES IDX 64 25 44 26 63 27 45 28 48 29 62 30 81 31 46 32 47 33 61 35
REMARK SMILES IDX 82 36 49 37 33 38 34 39 42 40 35 41 41 42 43 43 40 44 36 45
REMARK SMILES IDX 37 46 38 47 39 48 65 49 66 50 74 51 67 52 73 53 75 54 72 55
REMARK SMILES IDX 68 56 69 57 70 58 71 59 50 60 51 61 59 62 52 63 58 64 60 65
REMARK SMILES IDX 57 66 53 67 54 68 55 69 56 70 5 71 6 72 7 73 8 74 9 76 10 77
REMARK SMILES IDX 11 78 12 79 13 80 17 81 14 82 16 83 15 84 18 85 19 86 23 87
REMARK SMILES IDX 20 88 22 89 21 90
REMARK H PARENT 3 5 80 23 48 34 7 75
REMARK Flexibility Score: inf
ROOT
ATOM      1  C   UNL A   1      32.716  29.771  25.993  1.00  0.00     0.118 C 
ENDROOT
BRANCH   1   2
ATOM      2  N   UNL A   1      32.432  31.137  26.419  1.00  0.00    -0.352 N 
ATOM      3  O   UNL A   1      32.647  33.034  27.616  1.00  0.00    -0.269 OA
ATOM      4  C   UNL A   1      33.132  31.964  27.270  1.00  0.00     0.251 C 
ATOM      5  H   UNL A   1      31.612  31.529  26.040  1.00  0.00     0.163 HD
BRANCH   4   6
ATOM      6  C   UNL A   1      34.455  31.543  27.782  1.00  0.00     0.039 A 
ATOM      7  C   UNL A   1      34.690  30.212  28.124  1.00  0.00     0.014 A 
ATOM      8  C   UNL A   1      35.466  32.495  27.942  1.00  0.00     0.014 A 
ATOM      9  C   UNL A   1      35.848  29.875  28.811  1.00  0.00     0.010 A 
ATOM     10  C   UNL A   1      36.681  32.126  28.530  1.00  0.00     0.010 A 
ATOM     11  C   UNL A   1      36.862  30.823  29.020  1.00  0.00    -0.014 A 
BRANCH  11  12
ATOM     12  C   UNL A   1      38.099  30.406  29.734  1.00  0.00     0.031 A 
ATOM     13  C   UNL A   1      38.340  30.797  31.170  1.00  0.00     0.074 A 
ATOM     14  C   UNL A   1      38.976  29.608  29.095  1.00  0.00     0.049 A 
ATOM     15  N   UNL A   1      39.335  30.474  31.957  1.00  0.00    -0.248 NA
ATOM     16  C   UNL A   1      37.344  31.677  31.797  1.00  0.00     0.031 C 
ATOM     17  C   UNL A   1      38.851  29.169  27.701  1.00  0.00     0.029 A 
ATOM     18  N   UNL A   1      40.120  28.992  29.531  1.00  0.00    -0.354 N 
ATOM     19  C   UNL A   1      39.104  31.133  33.160  1.00  0.00     0.074 A 
ATOM     20  C   UNL A   1      37.888  31.898  32.987  1.00  0.00     0.031 C 
ATOM     21  C   UNL A   1      39.830  28.297  27.424  1.00  0.00     0.029 A 
ATOM     22  C   UNL A   1      40.696  28.171  28.588  1.00  0.00     0.049 A 
ATOM     23  H   UNL A   1      40.494  29.123  30.432  1.00  0.00     0.167 HD
ATOM     24  C   UNL A   1      39.836  31.098  34.303  1.00  0.00     0.034 A 
ATOM     25  C   UNL A   1      41.806  27.410  28.647  1.00  0.00     0.034 A 
ATOM     26  C   UNL A   1      41.036  30.308  34.464  1.00  0.00     0.049 A 
ATOM     27  C   UNL A   1      42.601  27.392  29.922  1.00  0.00     0.074 A 
ATOM     28  C   UNL A   1      41.832  30.167  35.589  1.00  0.00     0.029 A 
ATOM     29  N   UNL A   1      41.617  29.528  33.471  1.00  0.00    -0.354 N 
ATOM     30  N   UNL A   1      42.362  28.016  31.053  1.00  0.00    -0.248 NA
ATOM     31  C   UNL A   1      43.814  26.569  29.929  1.00  0.00     0.031 C 
ATOM     32  C   UNL A   1      42.924  29.355  35.258  1.00  0.00     0.029 A 
ATOM     33  C   UNL A   1      42.774  28.928  33.948  1.00  0.00     0.049 A 
ATOM     34  H   UNL A   1      41.259  29.417  32.562  1.00  0.00     0.167 HD
ATOM     35  C   UNL A   1      43.391  27.646  31.912  1.00  0.00     0.074 A 
ATOM     36  C   UNL A   1      44.235  26.727  31.175  1.00  0.00     0.031 C 
ATOM     37  C   UNL A   1      43.618  28.031  33.193  1.00  0.00     0.034 A 
BRANCH  24  38
ATOM     38  C   UNL A   1      39.389  31.980  35.445  1.00  0.00     0.023 A 
ATOM     39  C   UNL A   1      38.702  31.469  36.561  1.00  0.00     0.031 A 
ATOM     40  C   UNL A   1      39.634  33.365  35.405  1.00  0.00     0.131 A 
ATOM     41  C   UNL A   1      38.222  32.343  37.550  1.00  0.00     0.055 A 
ATOM     42  C   UNL A   1      39.221  34.220  36.430  1.00  0.00     0.041 A 
ATOM     43  F   UNL A   1      40.269  33.916  34.358  1.00  0.00    -0.206 F 
ATOM     44  C   UNL A   1      38.497  33.711  37.504  1.00  0.00     0.022 A 
BRANCH  41  45
ATOM     45  S   UNL A   1      37.108  31.686  38.823  1.00  0.00     0.124 S 
ATOM     46  O   UNL A   1      35.980  32.611  38.736  1.00  0.00    -0.237 OA
ATOM     47  O   UNL A   1      36.859  30.328  38.354  1.00  0.00    -0.237 OA
ATOM     48  O   UNL A   1      37.892  31.789  40.052  1.00  0.00    -0.744 OA
ENDBRANCH  41  45
ENDBRANCH  24  38
BRANCH  25  49
ATOM     49  C   UNL A   1      42.238  26.623  27.460  1.00  0.00     0.023 A 
ATOM     50  C   UNL A   1      41.948  25.254  27.353  1.00  0.00     0.031 A 
ATOM     51  C   UNL A   1      42.964  27.228  26.417  1.00  0.00     0.131 A 
ATOM     52  C   UNL A   1      42.411  24.527  26.245  1.00  0.00     0.055 A 
ATOM     53  C   UNL A   1      43.377  26.512  25.293  1.00  0.00     0.041 A 
ATOM     54  F   UNL A   1      43.261  28.536  26.468  1.00  0.00    -0.206 F 
ATOM     55  C   UNL A   1      43.110  25.150  25.208  1.00  0.00     0.022 A 
BRANCH  52  56
ATOM     56  S   UNL A   1      42.144  22.734  26.210  1.00  0.00     0.124 S 
ATOM     57  O   UNL A   1      40.692  22.646  26.309  1.00  0.00    -0.237 OA
ATOM     58  O   UNL A   1      42.722  22.367  24.922  1.00  0.00    -0.237 OA
ATOM     59  O   UNL A   1      42.880  22.257  27.379  1.00  0.00    -0.744 OA
ENDBRANCH  52  56
ENDBRANCH  25  49
BRANCH  37  60
ATOM     60  C   UNL A   1      44.817  27.422  33.876  1.00  0.00     0.023 A 
ATOM     61  C   UNL A   1      44.714  26.237  34.626  1.00  0.00     0.031 A 
ATOM     62  C   UNL A   1      46.068  28.061  33.813  1.00  0.00     0.131 A 
ATOM     63  C   UNL A   1      45.827  25.764  35.338  1.00  0.00     0.055 A 
ATOM     64  C   UNL A   1      47.185  27.552  34.475  1.00  0.00     0.041 A 
ATOM     65  F   UNL A   1      46.219  29.197  33.113  1.00  0.00    -0.206 F 
ATOM     66  C   UNL A   1      47.065  26.406  35.256  1.00  0.00     0.022 A 
BRANCH  63  67
ATOM     67  S   UNL A   1      45.606  24.356  36.461  1.00  0.00     0.124 S 
ATOM     68  O   UNL A   1      45.462  23.243  35.527  1.00  0.00    -0.237 OA
ATOM     69  O   UNL A   1      46.840  24.380  37.238  1.00  0.00    -0.237 OA
ATOM     70  O   UNL A   1      44.396  24.698  37.207  1.00  0.00    -0.744 OA
ENDBRANCH  63  67
ENDBRANCH  37  60
ENDBRANCH  11  12
ENDBRANCH   4   6
ENDBRANCH   1   2
BRANCH   1  71
ATOM     71  C   UNL A   1      31.832  28.732  26.668  1.00  0.00     0.042 C 
BRANCH  71  72
ATOM     72  C   UNL A   1      32.451  27.347  26.745  1.00  0.00     0.117 C 
BRANCH  72  73
ATOM     73  N   UNL A   1      31.454  26.298  26.908  1.00  0.00    -0.354 N 
ATOM     74  C   UNL A   1      31.099  25.262  26.082  1.00  0.00     0.250 C 
ATOM     75  H   UNL A   1      30.951  26.339  27.754  1.00  0.00     0.163 HD
ATOM     76  O   UNL A   1      30.355  24.420  26.605  1.00  0.00    -0.272 OA
BRANCH  74  77
ATOM     77  C   UNL A   1      31.660  25.122  24.607  1.00  0.00     0.173 C 
ATOM     78  Cl  UNL A   1      30.611  23.808  23.839  1.00  0.00    -0.098 Cl
BRANCH  77  79
ATOM     79  C   UNL A   1      31.490  26.452  23.829  1.00  0.00    -0.013 A 
ATOM     80  C   UNL A   1      32.602  27.101  23.249  1.00  0.00     0.006 A 
ATOM     81  C   UNL A   1      30.233  27.072  23.684  1.00  0.00     0.006 A 
ATOM     82  C   UNL A   1      32.476  28.354  22.642  1.00  0.00     0.000 A 
ATOM     83  C   UNL A   1      30.104  28.309  23.047  1.00  0.00     0.000 A 
ATOM     84  C   UNL A   1      31.228  28.958  22.545  1.00  0.00     0.000 A 
ENDBRANCH  77  79
BRANCH  77  85
ATOM     85  C   UNL A   1      33.096  24.528  24.573  1.00  0.00    -0.013 A 
ATOM     86  C   UNL A   1      34.056  24.795  25.567  1.00  0.00     0.006 A 
ATOM     87  C   UNL A   1      33.522  23.765  23.462  1.00  0.00     0.006 A 
ATOM     88  C   UNL A   1      35.371  24.329  25.453  1.00  0.00     0.000 A 
ATOM     89  C   UNL A   1      34.830  23.286  23.356  1.00  0.00     0.000 A 
ATOM     90  C   UNL A   1      35.758  23.575  24.349  1.00  0.00     0.000 A 
ENDBRANCH  77  85
ENDBRANCH  74  77
ENDBRANCH  72  73
ENDBRANCH  71  72
ENDBRANCH   1  71
TORSDOF 15
ENDMDL
MODEL 3
REMARK VINA RESULT:     -12.1      5.047     10.151
REMARK SMILES O=C(NCCCNC(=O)C(Cl)(c1ccccc1)c1ccccc1)c1ccc(-c2c3nc(c(-c4cc(S(=O)(=O)[O-])ccc4F)c4ccc([nH]4)c(-c4cc(S(=O)(=O)[O-])ccc4F)c4nc(c(-c5cc(S(=O)(=O)[O-])ccc5F)c5ccc2[nH]5)C=C4)C=C3)cc1
REMARK SMILES IDX 4 1 3 2 1 3 2 4 24 6 25 7 86 8 26 9 85 10 27 11 28 12 29 13
REMARK SMILES IDX 79 14 30 15 84 16 78 17 80 18 31 19 83 20 77 21 76 22 32 24
REMARK SMILES IDX 64 25 44 26 63 27 45 28 48 29 62 30 81 31 46 32 47 33 61 35
REMARK SMILES IDX 82 36 49 37 33 38 34 39 42 40 35 41 41 42 43 43 40 44 36 45
REMARK SMILES IDX 37 46 38 47 39 48 65 49 66 50 74 51 67 52 73 53 75 54 72 55
REMARK SMILES IDX 68 56 69 57 70 58 71 59 50 60 51 61 59 62 52 63 58 64 60 65
REMARK SMILES IDX 57 66 53 67 54 68 55 69 56 70 5 71 6 72 7 73 8 74 9 76 10 77
REMARK SMILES IDX 11 78 12 79 13 80 17 81 14 82 16 83 15 84 18 85 19 86 23 87
REMARK SMILES IDX 20 88 22 89 21 90
REMARK H PARENT 3 5 80 23 48 34 7 75
REMARK Flexibility Score: inf
ROOT
ATOM      1  C   UNL A   1      37.213  21.882  24.881  1.00  0.00     0.118 C 
ENDROOT
BRANCH   1   2
ATOM      2  N   UNL A   1      38.069  20.789  25.329  1.00  0.00    -0.352 N 
ATOM      3  O   UNL A   1      39.903  19.792  26.177  1.00  0.00    -0.269 OA
ATOM      4  C   UNL A   1      39.260  20.823  26.021  1.00  0.00     0.251 C 
ATOM      5  H   UNL A   1      37.746  19.887  25.101  1.00  0.00     0.163 HD
BRANCH   4   6
ATOM      6  C   UNL A   1      39.768  22.108  26.549  1.00  0.00     0.039 A 
ATOM      7  C   UNL A   1      39.210  23.315  26.130  1.00  0.00     0.014 A 
ATOM      8  C   UNL A   1      40.830  22.107  27.458  1.00  0.00     0.014 A 
ATOM      9  C   UNL A   1      39.838  24.510  26.452  1.00  0.00     0.010 A 
ATOM     10  C   UNL A   1      41.389  23.320  27.874  1.00  0.00     0.010 A 
ATOM     11  C   UNL A   1      40.932  24.532  27.333  1.00  0.00    -0.014 A 
BRANCH  11  12
ATOM     12  C   UNL A   1      41.553  25.841  27.673  1.00  0.00     0.031 A 
ATOM     13  C   UNL A   1      42.877  26.253  27.083  1.00  0.00     0.074 A 
ATOM     14  C   UNL A   1      40.874  26.690  28.470  1.00  0.00     0.049 A 
ATOM     15  N   UNL A   1      43.532  27.377  27.230  1.00  0.00    -0.248 NA
ATOM     16  C   UNL A   1      43.562  25.270  26.232  1.00  0.00     0.031 C 
ATOM     17  C   UNL A   1      39.586  26.397  29.105  1.00  0.00     0.029 A 
ATOM     18  N   UNL A   1      41.144  27.977  28.854  1.00  0.00    -0.354 N 
ATOM     19  C   UNL A   1      44.718  27.228  26.517  1.00  0.00     0.074 A 
ATOM     20  C   UNL A   1      44.703  25.892  25.963  1.00  0.00     0.031 C 
ATOM     21  C   UNL A   1      39.143  27.496  29.731  1.00  0.00     0.029 A 
ATOM     22  C   UNL A   1      40.145  28.546  29.611  1.00  0.00     0.049 A 
ATOM     23  H   UNL A   1      41.973  28.451  28.612  1.00  0.00     0.167 HD
ATOM     24  C   UNL A   1      45.720  28.127  26.339  1.00  0.00     0.034 A 
ATOM     25  C   UNL A   1      40.049  29.772  30.160  1.00  0.00     0.034 A 
ATOM     26  C   UNL A   1      45.705  29.466  26.882  1.00  0.00     0.049 A 
ATOM     27  C   UNL A   1      41.175  30.745  29.951  1.00  0.00     0.074 A 
ATOM     28  C   UNL A   1      46.648  30.469  26.731  1.00  0.00     0.029 A 
ATOM     29  N   UNL A   1      44.699  29.990  27.685  1.00  0.00    -0.354 N 
ATOM     30  N   UNL A   1      42.285  30.590  29.266  1.00  0.00    -0.248 NA
ATOM     31  C   UNL A   1      41.035  32.058  30.589  1.00  0.00     0.031 C 
ATOM     32  C   UNL A   1      46.242  31.574  27.490  1.00  0.00     0.029 A 
ATOM     33  C   UNL A   1      45.012  31.289  28.059  1.00  0.00     0.049 A 
ATOM     34  H   UNL A   1      43.883  29.509  27.950  1.00  0.00     0.167 HD
ATOM     35  C   UNL A   1      42.970  31.794  29.380  1.00  0.00     0.074 A 
ATOM     36  C   UNL A   1      42.135  32.671  30.176  1.00  0.00     0.031 C 
ATOM     37  C   UNL A   1      44.179  32.144  28.873  1.00  0.00     0.034 A 
BRANCH  24  38
ATOM     38  C   UNL A   1      46.939  27.668  25.573  1.00  0.00     0.023 A 
ATOM     39  C   UNL A   1      47.153  28.020  24.228  1.00  0.00     0.031 A 
ATOM     40  C   UNL A   1      47.894  26.841  26.193  1.00  0.00     0.131 A 
ATOM     41  C   UNL A   1      48.251  27.489  23.530  1.00  0.00     0.055 A 
ATOM     42  C   UNL A   1      49.024  26.378  25.516  1.00  0.00     0.041 A 
ATOM     43  F   UNL A   1      47.735  26.455  27.469  1.00  0.00    -0.206 F 
ATOM     44  C   UNL A   1      49.200  26.690  24.171  1.00  0.00     0.022 A 
BRANCH  41  45
ATOM     45  S   UNL A   1      48.342  27.739  21.735  1.00  0.00     0.124 S 
ATOM     46  O   UNL A   1      48.663  26.394  21.264  1.00  0.00    -0.237 OA
ATOM     47  O   UNL A   1      47.005  28.226  21.417  1.00  0.00    -0.237 OA
ATOM     48  O   UNL A   1      49.417  28.717  21.578  1.00  0.00    -0.744 OA
ENDBRANCH  41  45
ENDBRANCH  24  38
BRANCH  25  49
ATOM     49  C   UNL A   1      38.855  30.138  30.971  1.00  0.00     0.023 A 
ATOM     50  C   UNL A   1      37.804  30.884  30.418  1.00  0.00     0.031 A 
ATOM     51  C   UNL A   1      38.757  29.758  32.322  1.00  0.00     0.131 A 
ATOM     52  C   UNL A   1      36.714  31.256  31.220  1.00  0.00     0.055 A 
ATOM     53  C   UNL A   1      37.648  30.086  33.102  1.00  0.00     0.041 A 
ATOM     54  F   UNL A   1      39.733  29.038  32.897  1.00  0.00    -0.206 F 
ATOM     55  C   UNL A   1      36.623  30.850  32.554  1.00  0.00     0.022 A 
BRANCH  52  56
ATOM     56  S   UNL A   1      35.445  32.341  30.514  1.00  0.00     0.124 S 
ATOM     57  O   UNL A   1      36.147  33.617  30.445  1.00  0.00    -0.237 OA
ATOM     58  O   UNL A   1      35.168  31.692  29.237  1.00  0.00    -0.237 OA
ATOM     59  O   UNL A   1      34.360  32.277  31.491  1.00  0.00    -0.744 OA
ENDBRANCH  52  56
ENDBRANCH  25  49
BRANCH  37  60
ATOM     60  C   UNL A   1      44.641  33.553  29.148  1.00  0.00     0.023 A 
ATOM     61  C   UNL A   1      44.226  34.633  28.350  1.00  0.00     0.031 A 
ATOM     62  C   UNL A   1      45.545  33.809  30.194  1.00  0.00     0.131 A 
ATOM     63  C   UNL A   1      44.767  35.910  28.568  1.00  0.00     0.055 A 
ATOM     64  C   UNL A   1      46.032  35.093  30.443  1.00  0.00     0.041 A 
ATOM     65  F   UNL A   1      45.975  32.813  30.984  1.00  0.00    -0.206 F 
ATOM     66  C   UNL A   1      45.656  36.149  29.618  1.00  0.00     0.022 A 
BRANCH  63  67
ATOM     67  S   UNL A   1      44.373  37.233  27.391  1.00  0.00     0.124 S 
ATOM     68  O   UNL A   1      43.275  36.646  26.630  1.00  0.00    -0.237 OA
ATOM     69  O   UNL A   1      44.017  38.339  28.273  1.00  0.00    -0.237 OA
ATOM     70  O   UNL A   1      45.619  37.411  26.646  1.00  0.00    -0.744 OA
ENDBRANCH  63  67
ENDBRANCH  37  60
ENDBRANCH  11  12
ENDBRANCH   4   6
ENDBRANCH   1   2
BRANCH   1  71
ATOM     71  C   UNL A   1      35.780  21.770  25.382  1.00  0.00     0.042 C 
BRANCH  71  72
ATOM     72  C   UNL A   1      35.249  23.037  26.030  1.00  0.00     0.117 C 
BRANCH  72  73
ATOM     73  N   UNL A   1      34.444  22.765  27.213  1.00  0.00    -0.354 N 
ATOM     74  C   UNL A   1      33.086  22.816  27.404  1.00  0.00     0.250 C 
ATOM     75  H   UNL A   1      34.961  22.500  28.008  1.00  0.00     0.163 HD
ATOM     76  O   UNL A   1      32.701  22.324  28.473  1.00  0.00    -0.272 OA
BRANCH  74  77
ATOM     77  C   UNL A   1      32.096  23.387  26.308  1.00  0.00     0.173 C 
ATOM     78  Cl  UNL A   1      30.414  22.932  26.926  1.00  0.00    -0.098 Cl
BRANCH  77  79
ATOM     79  C   UNL A   1      32.220  24.930  26.209  1.00  0.00    -0.013 A 
ATOM     80  C   UNL A   1      33.459  25.542  25.917  1.00  0.00     0.006 A 
ATOM     81  C   UNL A   1      31.115  25.778  26.422  1.00  0.00     0.006 A 
ATOM     82  C   UNL A   1      33.603  26.931  25.935  1.00  0.00     0.000 A 
ATOM     83  C   UNL A   1      31.255  27.168  26.407  1.00  0.00     0.000 A 
ATOM     84  C   UNL A   1      32.503  27.743  26.184  1.00  0.00     0.000 A 
ENDBRANCH  77  79
BRANCH  77  85
ATOM     85  C   UNL A   1      32.216  22.638  24.951  1.00  0.00    -0.013 A 
ATOM     86  C   UNL A   1      32.197  23.301  23.709  1.00  0.00     0.006 A 
ATOM     87  C   UNL A   1      32.248  21.226  24.920  1.00  0.00     0.006 A 
ATOM     88  C   UNL A   1      32.203  22.589  22.504  1.00  0.00     0.000 A 
ATOM     89  C   UNL A   1      32.271  20.516  23.717  1.00  0.00     0.000 A 
ATOM     90  C   UNL A   1      32.241  21.198  22.508  1.00  0.00     0.000 A 
ENDBRANCH  77  85
ENDBRANCH  74  77
ENDBRANCH  72  73
ENDBRANCH  71  72
ENDBRANCH   1  71
TORSDOF 15
ENDMDL
