MODEL 1
REMARK VINA RESULT:     -11.7      0.000      0.000
REMARK SMILES [NH3+][C@@H](Cc1c[nH]c2ccccc12)C(=O)N[C@@H](CS)C(=O)N[C@@H](CO)C(=O)NCCCNC(=O)c1ccc(-c2c3nc(c(-c4cc(S(=O)(=O)[O-])ccc4F)c4ccc([nH]4)c(-c4cc(S(=O)(=O)[O-])ccc4F)c4nc(c(-c5cc(S(=O)(=O)[O-])ccc5F)c5ccc2[nH]5)C=C4)C=C3)cc1
REMARK SMILES IDX 25 1 26 2 27 3 22 5 21 6 19 7 20 8 16 10 15 11 13 12 14 13
REMARK SMILES IDX 2 15 1 16 3 20 4 21 5 22 12 23 6 24 7 25 11 26 8 28 10 29
REMARK SMILES IDX 9 30 17 31 18 32 23 34 24 35 28 37 29 38 30 39 31 40 32 41
REMARK SMILES IDX 33 43 34 44 35 45 96 46 36 47 95 48 37 49 38 50 39 51 89 52
REMARK SMILES IDX 40 53 94 54 88 55 90 56 41 57 93 58 87 59 86 60 42 62 74 63
REMARK SMILES IDX 54 64 73 65 55 66 58 67 72 68 91 69 56 70 57 71 71 73 92 74
REMARK SMILES IDX 59 75 43 76 44 77 52 78 45 79 51 80 53 81 50 82 46 83 47 84
REMARK SMILES IDX 48 85 49 86 75 87 76 88 84 89 77 90 83 91 85 92 82 93 78 94
REMARK SMILES IDX 79 95 80 96 81 97 60 98 61 99 69 100 62 101 68 102 70 103
REMARK SMILES IDX 67 104 63 105 64 106 65 107 66 108
REMARK H PARENT 27 4 21 9 15 14 1 17 1 18 1 19 6 27 18 33 24 36 31 42 90 61
REMARK H PARENT 58 72
REMARK Flexibility Score: inf
ROOT
ATOM      1  C   UNL A   1      31.542  27.710  26.533  1.00  0.00     0.244 C 
ATOM      2  O   UNL A   1      31.712  26.858  27.412  1.00  0.00    -0.273 OA
ATOM      3  N   UNL A   1      31.965  28.972  26.797  1.00  0.00    -0.354 N 
ATOM      4  H   UNL A   1      32.217  29.128  27.735  1.00  0.00     0.163 HD
ENDROOT
BRANCH   1   5
ATOM      5  C   UNL A   1      30.935  27.305  25.190  1.00  0.00     0.197 C 
BRANCH   5   6
ATOM      6  N   UNL A   1      31.841  27.525  24.074  1.00  0.00    -0.340 N 
ATOM      7  C   UNL A   1      33.081  27.003  23.954  1.00  0.00     0.244 C 
ATOM      8  O   UNL A   1      33.965  27.826  23.699  1.00  0.00    -0.273 OA
ATOM      9  H   UNL A   1      31.523  28.102  23.344  1.00  0.00     0.164 HD
BRANCH   7  10
ATOM     10  C   UNL A   1      33.404  25.522  24.262  1.00  0.00     0.181 C 
BRANCH  10  11
ATOM     11  N   UNL A   1      33.843  24.876  23.042  1.00  0.00    -0.338 N 
ATOM     12  C   UNL A   1      33.112  23.991  22.293  1.00  0.00     0.279 C 
ATOM     13  O   UNL A   1      33.356  23.968  21.080  1.00  0.00    -0.268 OA
ATOM     14  H   UNL A   1      34.748  25.093  22.722  1.00  0.00     0.164 HD
BRANCH  12  15
ATOM     15  C   UNL A   1      32.123  22.961  22.928  1.00  0.00     0.275 C 
BRANCH  15  16
ATOM     16  N   UNL A   1      30.759  23.530  22.940  1.00  0.00    -0.347 N 
ATOM     17  H   UNL A   1      30.075  22.777  22.866  1.00  0.00     0.345 HD
ATOM     18  H   UNL A   1      30.649  24.168  22.152  1.00  0.00     0.345 HD
ATOM     19  H   UNL A   1      30.610  24.039  23.812  1.00  0.00     0.345 HD
ENDBRANCH  15  16
BRANCH  15  20
ATOM     20  C   UNL A   1      32.248  21.443  22.620  1.00  0.00     0.113 C 
BRANCH  20  21
ATOM     21  C   UNL A   1      32.351  20.416  23.724  1.00  0.00    -0.016 A 
ATOM     22  C   UNL A   1      32.164  20.716  25.063  1.00  0.00     0.087 A 
ATOM     23  C   UNL A   1      32.683  19.011  23.685  1.00  0.00     0.003 A 
ATOM     24  N   UNL A   1      32.555  19.646  25.818  1.00  0.00    -0.361 N 
ATOM     25  C   UNL A   1      32.972  18.627  24.999  1.00  0.00     0.046 A 
ATOM     26  C   UNL A   1      32.899  18.058  22.669  1.00  0.00     0.010 A 
ATOM     27  H   UNL A   1      32.539  19.612  26.802  1.00  0.00     0.166 HD
ATOM     28  C   UNL A   1      33.587  17.410  25.325  1.00  0.00     0.026 A 
ATOM     29  C   UNL A   1      33.514  16.836  22.974  1.00  0.00     0.001 A 
ATOM     30  C   UNL A   1      33.883  16.534  24.280  1.00  0.00     0.002 A 
ENDBRANCH  20  21
ENDBRANCH  15  20
ENDBRANCH  12  15
ENDBRANCH  10  11
BRANCH  10  31
ATOM     31  C   UNL A   1      34.104  25.170  25.585  1.00  0.00     0.101 C 
BRANCH  31  32
ATOM     32  S   UNL A   1      33.632  23.621  26.429  1.00  0.00    -0.177 SA
ATOM     33  H   UNL A   1      34.407  22.602  25.970  1.00  0.00     0.102 HD
ENDBRANCH  31  32
ENDBRANCH  10  31
ENDBRANCH   7  10
ENDBRANCH   5   6
BRANCH   5  34
ATOM     34  C   UNL A   1      30.331  25.889  25.190  1.00  0.00     0.191 C 
BRANCH  34  35
ATOM     35  O   UNL A   1      29.139  25.768  24.421  1.00  0.00    -0.394 OA
ATOM     36  H   UNL A   1      28.805  24.860  24.484  1.00  0.00     0.210 HD
ENDBRANCH  34  35
ENDBRANCH   5  34
ENDBRANCH   1   5
BRANCH   3  37
ATOM     37  C   UNL A   1      32.109  30.134  25.938  1.00  0.00     0.117 C 
BRANCH  37  38
ATOM     38  C   UNL A   1      31.790  31.431  26.661  1.00  0.00     0.042 C 
BRANCH  38  39
ATOM     39  C   UNL A   1      33.009  32.092  27.282  1.00  0.00     0.118 C 
BRANCH  39  40
ATOM     40  N   UNL A   1      32.806  33.515  27.519  1.00  0.00    -0.352 N 
ATOM     41  C   UNL A   1      33.320  34.330  28.499  1.00  0.00     0.251 C 
ATOM     42  H   UNL A   1      32.207  33.962  26.879  1.00  0.00     0.163 HD
ATOM     43  O   UNL A   1      32.832  35.438  28.683  1.00  0.00    -0.269 OA
BRANCH  41  44
ATOM     44  C   UNL A   1      34.440  33.848  29.331  1.00  0.00     0.039 A 
ATOM     45  C   UNL A   1      34.183  32.968  30.382  1.00  0.00     0.014 A 
ATOM     46  C   UNL A   1      35.746  34.260  29.060  1.00  0.00     0.014 A 
ATOM     47  C   UNL A   1      35.249  32.445  31.115  1.00  0.00     0.010 A 
ATOM     48  C   UNL A   1      36.809  33.651  29.711  1.00  0.00     0.010 A 
ATOM     49  C   UNL A   1      36.573  32.749  30.757  1.00  0.00    -0.014 A 
BRANCH  49  50
ATOM     50  C   UNL A   1      37.729  32.161  31.478  1.00  0.00     0.031 A 
ATOM     51  C   UNL A   1      38.527  31.060  30.835  1.00  0.00     0.074 A 
ATOM     52  C   UNL A   1      38.014  32.572  32.729  1.00  0.00     0.049 A 
ATOM     53  N   UNL A   1      39.514  30.356  31.326  1.00  0.00    -0.248 NA
ATOM     54  C   UNL A   1      38.133  30.672  29.472  1.00  0.00     0.031 C 
ATOM     55  C   UNL A   1      37.286  33.605  33.469  1.00  0.00     0.029 A 
ATOM     56  N   UNL A   1      38.994  32.170  33.601  1.00  0.00    -0.354 N 
ATOM     57  C   UNL A   1      39.850  29.439  30.336  1.00  0.00     0.074 A 
ATOM     58  C   UNL A   1      38.901  29.617  29.259  1.00  0.00     0.031 C 
ATOM     59  C   UNL A   1      37.873  33.787  34.662  1.00  0.00     0.029 A 
ATOM     60  C   UNL A   1      38.982  32.849  34.798  1.00  0.00     0.049 A 
ATOM     61  H   UNL A   1      39.645  31.463  33.390  1.00  0.00     0.167 HD
ATOM     62  C   UNL A   1      40.878  28.555  30.311  1.00  0.00     0.034 A 
ATOM     63  C   UNL A   1      39.771  32.722  35.882  1.00  0.00     0.034 A 
ATOM     64  C   UNL A   1      41.818  28.398  31.394  1.00  0.00     0.049 A 
ATOM     65  C   UNL A   1      40.875  31.695  35.855  1.00  0.00     0.074 A 
ATOM     66  C   UNL A   1      42.919  27.565  31.468  1.00  0.00     0.029 A 
ATOM     67  N   UNL A   1      41.761  29.088  32.599  1.00  0.00    -0.354 N 
ATOM     68  N   UNL A   1      41.210  30.864  34.894  1.00  0.00    -0.248 NA
ATOM     69  C   UNL A   1      41.713  31.597  37.056  1.00  0.00     0.031 C 
ATOM     70  C   UNL A   1      43.482  27.695  32.742  1.00  0.00     0.029 A 
ATOM     71  C   UNL A   1      42.787  28.673  33.435  1.00  0.00     0.049 A 
ATOM     72  H   UNL A   1      41.091  29.772  32.827  1.00  0.00     0.167 HD
ATOM     73  C   UNL A   1      42.323  30.171  35.364  1.00  0.00     0.074 A 
ATOM     74  C   UNL A   1      42.606  30.691  36.686  1.00  0.00     0.031 C 
ATOM     75  C   UNL A   1      43.049  29.197  34.756  1.00  0.00     0.034 A 
BRANCH  62  76
ATOM     76  C   UNL A   1      41.012  27.684  29.081  1.00  0.00     0.023 A 
ATOM     77  C   UNL A   1      42.021  27.907  28.127  1.00  0.00     0.031 A 
ATOM     78  C   UNL A   1      40.087  26.656  28.827  1.00  0.00     0.131 A 
ATOM     79  C   UNL A   1      42.022  27.189  26.923  1.00  0.00     0.055 A 
ATOM     80  C   UNL A   1      40.154  25.876  27.670  1.00  0.00     0.041 A 
ATOM     81  F   UNL A   1      39.085  26.407  29.685  1.00  0.00    -0.206 F 
ATOM     82  C   UNL A   1      41.112  26.154  26.699  1.00  0.00     0.022 A 
BRANCH  79  83
ATOM     83  S   UNL A   1      43.106  27.755  25.583  1.00  0.00     0.124 S 
ATOM     84  O   UNL A   1      43.797  26.518  25.224  1.00  0.00    -0.237 OA
ATOM     85  O   UNL A   1      42.155  28.264  24.602  1.00  0.00    -0.237 OA
ATOM     86  O   UNL A   1      43.945  28.764  26.224  1.00  0.00    -0.744 OA
ENDBRANCH  79  83
ENDBRANCH  62  76
BRANCH  63  87
ATOM     87  C   UNL A   1      39.562  33.587  37.077  1.00  0.00     0.023 A 
ATOM     88  C   UNL A   1      38.900  33.094  38.213  1.00  0.00     0.031 A 
ATOM     89  C   UNL A   1      39.983  34.929  37.091  1.00  0.00     0.131 A 
ATOM     90  C   UNL A   1      38.634  33.947  39.294  1.00  0.00     0.055 A 
ATOM     91  C   UNL A   1      39.765  35.759  38.194  1.00  0.00     0.041 A 
ATOM     92  F   UNL A   1      40.625  35.452  36.035  1.00  0.00    -0.206 F 
ATOM     93  C   UNL A   1      39.074  35.272  39.299  1.00  0.00     0.022 A 
BRANCH  90  94
ATOM     94  S   UNL A   1      37.617  33.322  40.660  1.00  0.00     0.124 S 
ATOM     95  O   UNL A   1      36.364  33.016  39.979  1.00  0.00    -0.237 OA
ATOM     96  O   UNL A   1      38.396  32.176  41.117  1.00  0.00    -0.237 OA
ATOM     97  O   UNL A   1      37.565  34.449  41.588  1.00  0.00    -0.744 OA
ENDBRANCH  90  94
ENDBRANCH  63  87
BRANCH  75  98
ATOM     98  C   UNL A   1      44.251  28.671  35.503  1.00  0.00     0.023 A 
ATOM     99  C   UNL A   1      44.140  27.651  36.464  1.00  0.00     0.031 A 
ATOM    100  C   UNL A   1      45.527  29.210  35.255  1.00  0.00     0.131 A 
ATOM    101  C   UNL A   1      45.273  27.244  37.184  1.00  0.00     0.055 A 
ATOM    102  C   UNL A   1      46.662  28.752  35.925  1.00  0.00     0.041 A 
ATOM    103  F   UNL A   1      45.692  30.188  34.351  1.00  0.00    -0.206 F 
ATOM    104  C   UNL A   1      46.537  27.774  36.906  1.00  0.00     0.022 A 
BRANCH 101 105
ATOM    105  S   UNL A   1      45.057  26.086  38.563  1.00  0.00     0.124 S 
ATOM    106  O   UNL A   1      44.967  24.805  37.871  1.00  0.00    -0.237 OA
ATOM    107  O   UNL A   1      46.269  26.303  39.346  1.00  0.00    -0.237 OA
ATOM    108  O   UNL A   1      43.819  26.537  39.198  1.00  0.00    -0.744 OA
ENDBRANCH 101 105
ENDBRANCH  75  98
ENDBRANCH  49  50
ENDBRANCH  41  44
ENDBRANCH  39  40
ENDBRANCH  38  39
ENDBRANCH  37  38
ENDBRANCH   3  37
TORSDOF 24
ENDMDL
MODEL 2
REMARK VINA RESULT:     -11.6      2.437      8.433
REMARK SMILES [NH3+][C@@H](Cc1c[nH]c2ccccc12)C(=O)N[C@@H](CS)C(=O)N[C@@H](CO)C(=O)NCCCNC(=O)c1ccc(-c2c3nc(c(-c4cc(S(=O)(=O)[O-])ccc4F)c4ccc([nH]4)c(-c4cc(S(=O)(=O)[O-])ccc4F)c4nc(c(-c5cc(S(=O)(=O)[O-])ccc5F)c5ccc2[nH]5)C=C4)C=C3)cc1
REMARK SMILES IDX 25 1 26 2 27 3 22 5 21 6 19 7 20 8 16 10 15 11 13 12 14 13
REMARK SMILES IDX 2 15 1 16 3 20 4 21 5 22 12 23 6 24 7 25 11 26 8 28 10 29
REMARK SMILES IDX 9 30 17 31 18 32 23 34 24 35 28 37 29 38 30 39 31 40 32 41
REMARK SMILES IDX 33 43 34 44 35 45 96 46 36 47 95 48 37 49 38 50 39 51 89 52
REMARK SMILES IDX 40 53 94 54 88 55 90 56 41 57 93 58 87 59 86 60 42 62 74 63
REMARK SMILES IDX 54 64 73 65 55 66 58 67 72 68 91 69 56 70 57 71 71 73 92 74
REMARK SMILES IDX 59 75 43 76 44 77 52 78 45 79 51 80 53 81 50 82 46 83 47 84
REMARK SMILES IDX 48 85 49 86 75 87 76 88 84 89 77 90 83 91 85 92 82 93 78 94
REMARK SMILES IDX 79 95 80 96 81 97 60 98 61 99 69 100 62 101 68 102 70 103
REMARK SMILES IDX 67 104 63 105 64 106 65 107 66 108
REMARK H PARENT 27 4 21 9 15 14 1 17 1 18 1 19 6 27 18 33 24 36 31 42 90 61
REMARK H PARENT 58 72
REMARK Flexibility Score: inf
ROOT
ATOM      1  C   UNL A   1      31.949  28.472  27.269  1.00  0.00     0.244 C 
ATOM      2  O   UNL A   1      31.504  27.860  28.245  1.00  0.00    -0.273 OA
ATOM      3  N   UNL A   1      31.243  29.544  26.828  1.00  0.00    -0.354 N 
ATOM      4  H   UNL A   1      30.349  29.633  27.228  1.00  0.00     0.163 HD
ENDROOT
BRANCH   1   5
ATOM      5  C   UNL A   1      33.280  28.046  26.647  1.00  0.00     0.197 C 
BRANCH   5   6
ATOM      6  N   UNL A   1      33.113  27.363  25.374  1.00  0.00    -0.340 N 
ATOM      7  C   UNL A   1      33.415  26.069  25.132  1.00  0.00     0.244 C 
ATOM      8  O   UNL A   1      34.130  25.882  24.143  1.00  0.00    -0.273 OA
ATOM      9  H   UNL A   1      32.749  27.888  24.627  1.00  0.00     0.164 HD
BRANCH   7  10
ATOM     10  C   UNL A   1      33.030  24.921  26.095  1.00  0.00     0.181 C 
BRANCH  10  11
ATOM     11  N   UNL A   1      31.728  25.205  26.663  1.00  0.00    -0.338 N 
ATOM     12  C   UNL A   1      30.521  25.023  26.039  1.00  0.00     0.279 C 
ATOM     13  O   UNL A   1      29.557  24.774  26.774  1.00  0.00    -0.268 OA
ATOM     14  H   UNL A   1      31.709  25.562  27.581  1.00  0.00     0.164 HD
BRANCH  12  15
ATOM     15  C   UNL A   1      30.319  25.248  24.506  1.00  0.00     0.275 C 
BRANCH  15  16
ATOM     16  N   UNL A   1      30.438  23.956  23.798  1.00  0.00    -0.347 N 
ATOM     17  H   UNL A   1      30.673  24.124  22.819  1.00  0.00     0.345 HD
ATOM     18  H   UNL A   1      29.551  23.455  23.853  1.00  0.00     0.345 HD
ATOM     19  H   UNL A   1      31.172  23.397  24.232  1.00  0.00     0.345 HD
ENDBRANCH  15  16
BRANCH  15  20
ATOM     20  C   UNL A   1      29.244  26.240  23.983  1.00  0.00     0.113 C 
BRANCH  20  21
ATOM     21  C   UNL A   1      29.618  27.462  23.176  1.00  0.00    -0.016 A 
ATOM     22  C   UNL A   1      30.839  27.608  22.537  1.00  0.00     0.087 A 
ATOM     23  C   UNL A   1      28.900  28.689  22.923  1.00  0.00     0.003 A 
ATOM     24  N   UNL A   1      30.963  28.899  22.104  1.00  0.00    -0.361 N 
ATOM     25  C   UNL A   1      29.829  29.606  22.418  1.00  0.00     0.046 A 
ATOM     26  C   UNL A   1      27.600  29.165  23.189  1.00  0.00     0.010 A 
ATOM     27  H   UNL A   1      31.748  29.265  21.636  1.00  0.00     0.166 HD
ATOM     28  C   UNL A   1      29.568  30.977  22.302  1.00  0.00     0.026 A 
ATOM     29  C   UNL A   1      27.319  30.533  23.081  1.00  0.00     0.001 A 
ATOM     30  C   UNL A   1      28.302  31.430  22.675  1.00  0.00     0.002 A 
ENDBRANCH  20  21
ENDBRANCH  15  20
ENDBRANCH  12  15
ENDBRANCH  10  11
BRANCH  10  31
ATOM     31  C   UNL A   1      33.373  23.474  25.706  1.00  0.00     0.101 C 
BRANCH  31  32
ATOM     32  S   UNL A   1      35.073  22.878  26.002  1.00  0.00    -0.177 SA
ATOM     33  H   UNL A   1      35.303  22.812  27.341  1.00  0.00     0.102 HD
ENDBRANCH  31  32
ENDBRANCH  10  31
ENDBRANCH   7  10
ENDBRANCH   5   6
BRANCH   5  34
ATOM     34  C   UNL A   1      34.317  29.181  26.578  1.00  0.00     0.191 C 
BRANCH  34  35
ATOM     35  O   UNL A   1      35.439  28.992  27.433  1.00  0.00    -0.394 OA
ATOM     36  H   UNL A   1      35.213  28.352  28.126  1.00  0.00     0.210 HD
ENDBRANCH  34  35
ENDBRANCH   5  34
ENDBRANCH   1   5
BRANCH   3  37
ATOM     37  C   UNL A   1      31.576  30.582  25.870  1.00  0.00     0.117 C 
BRANCH  37  38
ATOM     38  C   UNL A   1      31.438  31.976  26.457  1.00  0.00     0.042 C 
BRANCH  38  39
ATOM     39  C   UNL A   1      32.664  32.428  27.232  1.00  0.00     0.118 C 
BRANCH  39  40
ATOM     40  N   UNL A   1      32.604  33.840  27.590  1.00  0.00    -0.352 N 
ATOM     41  C   UNL A   1      33.264  34.530  28.578  1.00  0.00     0.251 C 
ATOM     42  H   UNL A   1      31.994  34.383  27.040  1.00  0.00     0.163 HD
ATOM     43  O   UNL A   1      32.889  35.655  28.885  1.00  0.00    -0.269 OA
BRANCH  41  44
ATOM     44  C   UNL A   1      34.404  33.897  29.269  1.00  0.00     0.039 A 
ATOM     45  C   UNL A   1      34.161  33.013  30.321  1.00  0.00     0.014 A 
ATOM     46  C   UNL A   1      35.712  34.170  28.866  1.00  0.00     0.014 A 
ATOM     47  C   UNL A   1      35.232  32.348  30.920  1.00  0.00     0.010 A 
ATOM     48  C   UNL A   1      36.762  33.423  29.382  1.00  0.00     0.010 A 
ATOM     49  C   UNL A   1      36.536  32.515  30.426  1.00  0.00    -0.014 A 
BRANCH  49  50
ATOM     50  C   UNL A   1      37.687  31.777  31.001  1.00  0.00     0.031 A 
ATOM     51  C   UNL A   1      38.122  32.059  32.414  1.00  0.00     0.074 A 
ATOM     52  C   UNL A   1      38.376  30.910  30.234  1.00  0.00     0.049 A 
ATOM     53  N   UNL A   1      39.149  31.592  33.075  1.00  0.00    -0.248 NA
ATOM     54  C   UNL A   1      37.315  33.031  33.169  1.00  0.00     0.031 C 
ATOM     55  C   UNL A   1      38.070  30.584  28.839  1.00  0.00     0.029 A 
ATOM     56  N   UNL A   1      39.475  30.140  30.520  1.00  0.00    -0.354 N 
ATOM     57  C   UNL A   1      39.115  32.217  34.316  1.00  0.00     0.074 A 
ATOM     58  C   UNL A   1      38.022  33.164  34.278  1.00  0.00     0.031 C 
ATOM     59  C   UNL A   1      38.932  29.651  28.407  1.00  0.00     0.029 A 
ATOM     60  C   UNL A   1      39.884  29.350  29.470  1.00  0.00     0.049 A 
ATOM     61  H   UNL A   1      39.928  30.153  31.393  1.00  0.00     0.167 HD
ATOM     62  C   UNL A   1      39.899  31.997  35.400  1.00  0.00     0.034 A 
ATOM     63  C   UNL A   1      40.914  28.487  29.377  1.00  0.00     0.034 A 
ATOM     64  C   UNL A   1      40.980  31.042  35.418  1.00  0.00     0.049 A 
ATOM     65  C   UNL A   1      41.807  28.297  30.577  1.00  0.00     0.074 A 
ATOM     66  C   UNL A   1      41.816  30.704  36.466  1.00  0.00     0.029 A 
ATOM     67  N   UNL A   1      41.378  30.274  34.330  1.00  0.00    -0.354 N 
ATOM     68  N   UNL A   1      41.737  28.863  31.760  1.00  0.00    -0.248 NA
ATOM     69  C   UNL A   1      42.913  27.342  30.431  1.00  0.00     0.031 C 
ATOM     70  C   UNL A   1      42.766  29.792  35.993  1.00  0.00     0.029 A 
ATOM     71  C   UNL A   1      42.470  29.491  34.673  1.00  0.00     0.049 A 
ATOM     72  H   UNL A   1      40.947  30.284  33.445  1.00  0.00     0.167 HD
ATOM     73  C   UNL A   1      42.768  28.302  32.511  1.00  0.00     0.074 A 
ATOM     74  C   UNL A   1      43.434  27.348  31.649  1.00  0.00     0.031 C 
ATOM     75  C   UNL A   1      43.128  28.550  33.797  1.00  0.00     0.034 A 
BRANCH  62  76
ATOM     76  C   UNL A   1      39.619  32.824  36.635  1.00  0.00     0.023 A 
ATOM     77  C   UNL A   1      38.804  32.340  37.675  1.00  0.00     0.031 A 
ATOM     78  C   UNL A   1      40.122  34.131  36.753  1.00  0.00     0.131 A 
ATOM     79  C   UNL A   1      38.433  33.188  38.729  1.00  0.00     0.055 A 
ATOM     80  C   UNL A   1      39.830  34.936  37.856  1.00  0.00     0.041 A 
ATOM     81  F   UNL A   1      40.886  34.661  35.784  1.00  0.00    -0.206 F 
ATOM     82  C   UNL A   1      38.963  34.474  38.843  1.00  0.00     0.022 A 
BRANCH  79  83
ATOM     83  S   UNL A   1      37.104  32.650  39.841  1.00  0.00     0.124 S 
ATOM     84  O   UNL A   1      37.523  31.286  40.159  1.00  0.00    -0.237 OA
ATOM     85  O   UNL A   1      37.192  33.616  40.929  1.00  0.00    -0.237 OA
ATOM     86  O   UNL A   1      35.904  32.747  39.013  1.00  0.00    -0.744 OA
ENDBRANCH  79  83
ENDBRANCH  62  76
BRANCH  63  87
ATOM     87  C   UNL A   1      41.157  27.730  28.116  1.00  0.00     0.023 A 
ATOM     88  C   UNL A   1      40.830  26.368  28.023  1.00  0.00     0.031 A 
ATOM     89  C   UNL A   1      41.755  28.341  27.000  1.00  0.00     0.131 A 
ATOM     90  C   UNL A   1      41.146  25.649  26.861  1.00  0.00     0.055 A 
ATOM     91  C   UNL A   1      42.016  27.634  25.824  1.00  0.00     0.041 A 
ATOM     92  F   UNL A   1      42.084  29.643  27.031  1.00  0.00    -0.206 F 
ATOM     93  C   UNL A   1      41.724  26.276  25.755  1.00  0.00     0.022 A 
BRANCH  90  94
ATOM     94  S   UNL A   1      40.876  23.855  26.851  1.00  0.00     0.124 S 
ATOM     95  O   UNL A   1      41.854  23.416  25.862  1.00  0.00    -0.237 OA
ATOM     96  O   UNL A   1      41.161  23.500  28.237  1.00  0.00    -0.237 OA
ATOM     97  O   UNL A   1      39.478  23.725  26.450  1.00  0.00    -0.744 OA
ENDBRANCH  90  94
ENDBRANCH  63  87
BRANCH  75  98
ATOM     98  C   UNL A   1      44.267  27.733  34.359  1.00  0.00     0.023 A 
ATOM     99  C   UNL A   1      44.049  26.515  35.025  1.00  0.00     0.031 A 
ATOM    100  C   UNL A   1      45.591  28.190  34.234  1.00  0.00     0.131 A 
ATOM    101  C   UNL A   1      45.131  25.826  35.593  1.00  0.00     0.055 A 
ATOM    102  C   UNL A   1      46.671  27.465  34.739  1.00  0.00     0.041 A 
ATOM    103  F   UNL A   1      45.859  29.349  33.610  1.00  0.00    -0.206 F 
ATOM    104  C   UNL A   1      46.443  26.283  35.437  1.00  0.00     0.022 A 
BRANCH 101 105
ATOM    105  S   UNL A   1      44.791  24.377  36.630  1.00  0.00     0.124 S 
ATOM    106  O   UNL A   1      46.123  24.034  37.117  1.00  0.00    -0.237 OA
ATOM    107  O   UNL A   1      43.868  24.915  37.624  1.00  0.00    -0.237 OA
ATOM    108  O   UNL A   1      44.206  23.417  35.695  1.00  0.00    -0.744 OA
ENDBRANCH 101 105
ENDBRANCH  75  98
ENDBRANCH  49  50
ENDBRANCH  41  44
ENDBRANCH  39  40
ENDBRANCH  38  39
ENDBRANCH  37  38
ENDBRANCH   3  37
TORSDOF 24
ENDMDL
MODEL 3
REMARK VINA RESULT:     -11.4      2.414      7.842
REMARK SMILES [NH3+][C@@H](Cc1c[nH]c2ccccc12)C(=O)N[C@@H](CS)C(=O)N[C@@H](CO)C(=O)NCCCNC(=O)c1ccc(-c2c3nc(c(-c4cc(S(=O)(=O)[O-])ccc4F)c4ccc([nH]4)c(-c4cc(S(=O)(=O)[O-])ccc4F)c4nc(c(-c5cc(S(=O)(=O)[O-])ccc5F)c5ccc2[nH]5)C=C4)C=C3)cc1
REMARK SMILES IDX 25 1 26 2 27 3 22 5 21 6 19 7 20 8 16 10 15 11 13 12 14 13
REMARK SMILES IDX 2 15 1 16 3 20 4 21 5 22 12 23 6 24 7 25 11 26 8 28 10 29
REMARK SMILES IDX 9 30 17 31 18 32 23 34 24 35 28 37 29 38 30 39 31 40 32 41
REMARK SMILES IDX 33 43 34 44 35 45 96 46 36 47 95 48 37 49 38 50 39 51 89 52
REMARK SMILES IDX 40 53 94 54 88 55 90 56 41 57 93 58 87 59 86 60 42 62 74 63
REMARK SMILES IDX 54 64 73 65 55 66 58 67 72 68 91 69 56 70 57 71 71 73 92 74
REMARK SMILES IDX 59 75 43 76 44 77 52 78 45 79 51 80 53 81 50 82 46 83 47 84
REMARK SMILES IDX 48 85 49 86 75 87 76 88 84 89 77 90 83 91 85 92 82 93 78 94
REMARK SMILES IDX 79 95 80 96 81 97 60 98 61 99 69 100 62 101 68 102 70 103
REMARK SMILES IDX 67 104 63 105 64 106 65 107 66 108
REMARK H PARENT 27 4 21 9 15 14 1 17 1 18 1 19 6 27 18 33 24 36 31 42 90 61
REMARK H PARENT 58 72
REMARK Flexibility Score: inf
ROOT
ATOM      1  C   UNL A   1      30.198  30.082  23.873  1.00  0.00     0.244 C 
ATOM      2  O   UNL A   1      29.373  30.242  22.967  1.00  0.00    -0.273 OA
ATOM      3  N   UNL A   1      30.399  31.118  24.725  1.00  0.00    -0.354 N 
ATOM      4  H   UNL A   1      29.988  31.965  24.439  1.00  0.00     0.163 HD
ENDROOT
BRANCH   1   5
ATOM      5  C   UNL A   1      30.899  28.732  24.032  1.00  0.00     0.197 C 
BRANCH   5   6
ATOM      6  N   UNL A   1      30.011  27.606  23.789  1.00  0.00    -0.340 N 
ATOM      7  C   UNL A   1      30.084  26.402  24.397  1.00  0.00     0.244 C 
ATOM      8  O   UNL A   1      30.093  25.436  23.629  1.00  0.00    -0.273 OA
ATOM      9  H   UNL A   1      29.296  27.732  23.125  1.00  0.00     0.164 HD
BRANCH   7  10
ATOM     10  C   UNL A   1      30.296  26.241  25.921  1.00  0.00     0.181 C 
BRANCH  10  11
ATOM     11  N   UNL A   1      29.474  25.145  26.393  1.00  0.00    -0.338 N 
ATOM     12  C   UNL A   1      29.919  23.892  26.725  1.00  0.00     0.279 C 
ATOM     13  O   UNL A   1      29.268  23.290  27.588  1.00  0.00    -0.268 OA
ATOM     14  H   UNL A   1      28.509  25.317  26.484  1.00  0.00     0.164 HD
BRANCH  12  15
ATOM     15  C   UNL A   1      31.093  23.185  25.973  1.00  0.00     0.275 C 
BRANCH  15  16
ATOM     16  N   UNL A   1      30.673  22.869  24.591  1.00  0.00    -0.347 N 
ATOM     17  H   UNL A   1      31.034  23.580  23.955  1.00  0.00     0.345 HD
ATOM     18  H   UNL A   1      29.655  22.853  24.539  1.00  0.00     0.345 HD
ATOM     19  H   UNL A   1      31.042  21.956  24.325  1.00  0.00     0.345 HD
ENDBRANCH  15  16
BRANCH  15  20
ATOM     20  C   UNL A   1      32.561  23.653  26.172  1.00  0.00     0.113 C 
BRANCH  20  21
ATOM     21  C   UNL A   1      33.716  22.680  26.123  1.00  0.00    -0.016 A 
ATOM     22  C   UNL A   1      33.979  21.760  27.125  1.00  0.00     0.087 A 
ATOM     23  C   UNL A   1      34.767  22.501  25.149  1.00  0.00     0.003 A 
ATOM     24  N   UNL A   1      35.208  21.201  26.905  1.00  0.00    -0.361 N 
ATOM     25  C   UNL A   1      35.753  21.714  25.755  1.00  0.00     0.046 A 
ATOM     26  C   UNL A   1      35.052  23.027  23.871  1.00  0.00     0.010 A 
ATOM     27  H   UNL A   1      35.636  20.531  27.485  1.00  0.00     0.166 HD
ATOM     28  C   UNL A   1      37.037  21.547  25.220  1.00  0.00     0.026 A 
ATOM     29  C   UNL A   1      36.331  22.872  23.320  1.00  0.00     0.001 A 
ATOM     30  C   UNL A   1      37.318  22.170  24.003  1.00  0.00     0.002 A 
ENDBRANCH  20  21
ENDBRANCH  15  20
ENDBRANCH  12  15
ENDBRANCH  10  11
BRANCH  10  31
ATOM     31  C   UNL A   1      31.708  26.418  26.501  1.00  0.00     0.101 C 
BRANCH  31  32
ATOM     32  S   UNL A   1      32.094  27.968  27.386  1.00  0.00    -0.177 SA
ATOM     33  H   UNL A   1      33.429  28.214  27.306  1.00  0.00     0.102 HD
ENDBRANCH  31  32
ENDBRANCH  10  31
ENDBRANCH   7  10
ENDBRANCH   5   6
BRANCH   5  34
ATOM     34  C   UNL A   1      32.217  28.627  23.245  1.00  0.00     0.191 C 
BRANCH  34  35
ATOM     35  O   UNL A   1      33.194  29.592  23.621  1.00  0.00    -0.394 OA
ATOM     36  H   UNL A   1      32.768  30.456  23.731  1.00  0.00     0.210 HD
ENDBRANCH  34  35
ENDBRANCH   5  34
ENDBRANCH   1   5
BRANCH   3  37
ATOM     37  C   UNL A   1      31.116  31.198  25.985  1.00  0.00     0.117 C 
BRANCH  37  38
ATOM     38  C   UNL A   1      31.289  32.629  26.463  1.00  0.00     0.042 C 
BRANCH  38  39
ATOM     39  C   UNL A   1      32.640  32.891  27.107  1.00  0.00     0.118 C 
BRANCH  39  40
ATOM     40  N   UNL A   1      32.702  34.196  27.753  1.00  0.00    -0.352 N 
ATOM     41  C   UNL A   1      33.482  34.630  28.797  1.00  0.00     0.251 C 
ATOM     42  H   UNL A   1      32.088  34.872  27.384  1.00  0.00     0.163 HD
ATOM     43  O   UNL A   1      33.208  35.681  29.363  1.00  0.00    -0.269 OA
BRANCH  41  44
ATOM     44  C   UNL A   1      34.629  33.810  29.236  1.00  0.00     0.039 A 
ATOM     45  C   UNL A   1      35.923  34.208  28.900  1.00  0.00     0.014 A 
ATOM     46  C   UNL A   1      34.421  32.654  29.990  1.00  0.00     0.014 A 
ATOM     47  C   UNL A   1      37.012  33.482  29.386  1.00  0.00     0.010 A 
ATOM     48  C   UNL A   1      35.501  32.003  30.567  1.00  0.00     0.010 A 
ATOM     49  C   UNL A   1      36.810  32.400  30.259  1.00  0.00    -0.014 A 
BRANCH  49  50
ATOM     50  C   UNL A   1      37.948  31.646  30.839  1.00  0.00     0.031 A 
ATOM     51  C   UNL A   1      38.391  31.933  32.249  1.00  0.00     0.074 A 
ATOM     52  C   UNL A   1      38.619  30.758  30.080  1.00  0.00     0.049 A 
ATOM     53  N   UNL A   1      39.410  31.452  32.912  1.00  0.00    -0.248 NA
ATOM     54  C   UNL A   1      37.603  32.927  32.996  1.00  0.00     0.031 C 
ATOM     55  C   UNL A   1      38.305  30.426  28.688  1.00  0.00     0.029 A 
ATOM     56  N   UNL A   1      39.704  29.971  30.370  1.00  0.00    -0.354 N 
ATOM     57  C   UNL A   1      39.390  32.090  34.148  1.00  0.00     0.074 A 
ATOM     58  C   UNL A   1      38.315  33.057  34.103  1.00  0.00     0.031 C 
ATOM     59  C   UNL A   1      39.148  29.472  28.263  1.00  0.00     0.029 A 
ATOM     60  C   UNL A   1      40.097  29.164  29.328  1.00  0.00     0.049 A 
ATOM     61  H   UNL A   1      40.159  29.984  31.243  1.00  0.00     0.167 HD
ATOM     62  C   UNL A   1      40.171  31.865  35.233  1.00  0.00     0.034 A 
ATOM     63  C   UNL A   1      41.110  28.281  29.241  1.00  0.00     0.034 A 
ATOM     64  C   UNL A   1      41.234  30.890  35.258  1.00  0.00     0.049 A 
ATOM     65  C   UNL A   1      42.001  28.085  30.442  1.00  0.00     0.074 A 
ATOM     66  C   UNL A   1      42.066  30.547  36.308  1.00  0.00     0.029 A 
ATOM     67  N   UNL A   1      41.616  30.105  34.176  1.00  0.00    -0.354 N 
ATOM     68  N   UNL A   1      41.944  28.663  31.619  1.00  0.00    -0.248 NA
ATOM     69  C   UNL A   1      43.089  27.108  30.302  1.00  0.00     0.031 C 
ATOM     70  C   UNL A   1      42.997  29.613  35.842  1.00  0.00     0.029 A 
ATOM     71  C   UNL A   1      42.693  29.305  34.525  1.00  0.00     0.049 A 
ATOM     72  H   UNL A   1      41.184  30.115  33.292  1.00  0.00     0.167 HD
ATOM     73  C   UNL A   1      42.965  28.091  32.373  1.00  0.00     0.074 A 
ATOM     74  C   UNL A   1      43.612  27.116  31.519  1.00  0.00     0.031 C 
ATOM     75  C   UNL A   1      43.333  28.343  33.656  1.00  0.00     0.034 A 
BRANCH  62  76
ATOM     76  C   UNL A   1      39.909  32.709  36.460  1.00  0.00     0.023 A 
ATOM     77  C   UNL A   1      39.039  32.276  37.478  1.00  0.00     0.031 A 
ATOM     78  C   UNL A   1      40.487  33.983  36.592  1.00  0.00     0.131 A 
ATOM     79  C   UNL A   1      38.692  33.146  38.522  1.00  0.00     0.055 A 
ATOM     80  C   UNL A   1      40.215  34.806  37.687  1.00  0.00     0.041 A 
ATOM     81  F   UNL A   1      41.307  34.465  35.644  1.00  0.00    -0.206 F 
ATOM     82  C   UNL A   1      39.296  34.398  38.650  1.00  0.00     0.022 A 
BRANCH  79  83
ATOM     83  S   UNL A   1      37.304  32.690  39.598  1.00  0.00     0.124 S 
ATOM     84  O   UNL A   1      37.694  31.347  40.025  1.00  0.00    -0.237 OA
ATOM     85  O   UNL A   1      37.347  33.725  40.624  1.00  0.00    -0.237 OA
ATOM     86  O   UNL A   1      36.148  32.740  38.706  1.00  0.00    -0.744 OA
ENDBRANCH  79  83
ENDBRANCH  62  76
BRANCH  63  87
ATOM     87  C   UNL A   1      41.336  27.508  27.987  1.00  0.00     0.023 A 
ATOM     88  C   UNL A   1      41.053  26.134  27.931  1.00  0.00     0.031 A 
ATOM     89  C   UNL A   1      41.875  28.116  26.840  1.00  0.00     0.131 A 
ATOM     90  C   UNL A   1      41.355  25.403  26.772  1.00  0.00     0.055 A 
ATOM     91  C   UNL A   1      42.121  27.395  25.669  1.00  0.00     0.041 A 
ATOM     92  F   UNL A   1      42.160  29.429  26.836  1.00  0.00    -0.206 F 
ATOM     93  C   UNL A   1      41.874  26.027  25.635  1.00  0.00     0.022 A 
BRANCH  90  94
ATOM     94  S   UNL A   1      41.147  23.601  26.805  1.00  0.00     0.124 S 
ATOM     95  O   UNL A   1      42.108  23.175  25.794  1.00  0.00    -0.237 OA
ATOM     96  O   UNL A   1      41.485  23.284  28.188  1.00  0.00    -0.237 OA
ATOM     97  O   UNL A   1      39.742  23.416  26.449  1.00  0.00    -0.744 OA
ENDBRANCH  90  94
ENDBRANCH  63  87
BRANCH  75  98
ATOM     98  C   UNL A   1      44.457  27.511  34.224  1.00  0.00     0.023 A 
ATOM     99  C   UNL A   1      44.229  26.250  34.801  1.00  0.00     0.031 A 
ATOM    100  C   UNL A   1      45.777  27.995  34.196  1.00  0.00     0.131 A 
ATOM    101  C   UNL A   1      45.293  25.543  35.381  1.00  0.00     0.055 A 
ATOM    102  C   UNL A   1      46.843  27.257  34.710  1.00  0.00     0.041 A 
ATOM    103  F   UNL A   1      46.054  29.195  33.660  1.00  0.00    -0.206 F 
ATOM    104  C   UNL A   1      46.602  26.029  35.320  1.00  0.00     0.022 A 
BRANCH 101 105
ATOM    105  S   UNL A   1      44.929  24.027  36.306  1.00  0.00     0.124 S 
ATOM    106  O   UNL A   1      45.015  24.487  37.688  1.00  0.00    -0.237 OA
ATOM    107  O   UNL A   1      43.592  23.685  35.831  1.00  0.00    -0.237 OA
ATOM    108  O   UNL A   1      45.989  23.109  35.890  1.00  0.00    -0.744 OA
ENDBRANCH 101 105
ENDBRANCH  75  98
ENDBRANCH  49  50
ENDBRANCH  41  44
ENDBRANCH  39  40
ENDBRANCH  38  39
ENDBRANCH  37  38
ENDBRANCH   3  37
TORSDOF 24
ENDMDL
