MODEL 1
REMARK VINA RESULT:     -13.3      0.000      0.000
REMARK SMILES O=C(Cc1ccccc1)Nc1cccc(C(=O)Nc2ccccc2C(=O)NCCCNC(=O)c2ccc(-c3c4nc(c(-c5cc(S(=O)(=O)[O-])ccc5F)c5ccc([nH]5)c(-c5cc(S(=O)(=O)[O-])ccc5F)c5nc(c(-c6cc(S(=O)(=O)[O-])ccc6F)c6ccc3[nH]6)C=C5)C=C4)cc2)c1
REMARK SMILES IDX 28 1 27 2 25 3 26 4 24 6 19 7 20 8 21 9 23 10 22 11 18 12
REMARK SMILES IDX 16 13 17 14 15 16 11 17 12 18 97 19 13 20 14 21 10 22 1 23
REMARK SMILES IDX 2 24 3 26 4 27 5 28 9 29 6 30 8 31 7 32 29 33 30 34 31 35
REMARK SMILES IDX 32 36 33 38 34 39 35 40 96 41 36 42 95 43 37 44 38 45 39 46
REMARK SMILES IDX 89 47 40 48 94 49 88 50 90 51 41 52 93 53 87 54 86 55 42 57
REMARK SMILES IDX 74 58 54 59 73 60 55 61 58 62 72 63 91 64 56 65 57 66 71 68
REMARK SMILES IDX 92 69 59 70 43 71 44 72 52 73 45 74 51 75 53 76 50 77 46 78
REMARK SMILES IDX 47 79 48 80 49 81 75 82 76 83 84 84 77 85 83 86 85 87 82 88
REMARK SMILES IDX 78 89 79 90 80 91 81 92 60 93 61 94 69 95 62 96 68 97 70 98
REMARK SMILES IDX 67 99 63 100 64 101 65 102 66 103
REMARK H PARENT 27 5 18 15 10 25 31 37 90 56 58 67
REMARK Flexibility Score: inf
ROOT
ATOM      1  C   UNL A   1      30.391  30.445  24.752  1.00  0.00     0.118 C 
ENDROOT
BRANCH   1   2
ATOM      2  N   UNL A   1      30.068  30.456  23.339  1.00  0.00    -0.352 N 
ATOM      3  C   UNL A   1      29.834  29.423  22.478  1.00  0.00     0.253 C 
ATOM      4  O   UNL A   1      29.639  29.694  21.291  1.00  0.00    -0.269 OA
ATOM      5  H   UNL A   1      30.007  31.353  22.935  1.00  0.00     0.163 HD
BRANCH   3   6
ATOM      6  C   UNL A   1      29.917  27.999  22.897  1.00  0.00     0.063 A 
ATOM      7  C   UNL A   1      30.901  27.045  22.562  1.00  0.00     0.054 A 
ATOM      8  C   UNL A   1      30.663  25.703  22.920  1.00  0.00     0.027 A 
ATOM      9  C   UNL A   1      29.562  25.335  23.700  1.00  0.00     0.002 A 
ATOM     10  C   UNL A   1      28.820  27.611  23.700  1.00  0.00     0.016 A 
ATOM     11  C   UNL A   1      28.652  26.294  24.114  1.00  0.00     0.001 A 
BRANCH   7  12
ATOM     12  N   UNL A   1      32.164  27.244  21.941  1.00  0.00    -0.321 N 
ATOM     13  C   UNL A   1      33.465  27.164  22.405  1.00  0.00     0.255 C 
ATOM     14  O   UNL A   1      34.392  27.556  21.702  1.00  0.00    -0.269 OA
ATOM     15  H   UNL A   1      32.101  27.488  20.989  1.00  0.00     0.170 HD
BRANCH  13  16
ATOM     16  C   UNL A   1      33.766  26.569  23.718  1.00  0.00     0.042 A 
ATOM     17  C   UNL A   1      34.287  24.573  24.933  1.00  0.00     0.041 A 
ATOM     18  C   UNL A   1      33.835  25.189  26.108  1.00  0.00     0.026 A 
ATOM     19  C   UNL A   1      34.355  25.309  23.762  1.00  0.00     0.040 A 
ATOM     20  C   UNL A   1      33.422  26.525  26.096  1.00  0.00     0.003 A 
ATOM     21  C   UNL A   1      33.366  27.216  24.889  1.00  0.00     0.014 A 
BRANCH  17  22
ATOM     22  N   UNL A   1      34.499  23.186  24.944  1.00  0.00    -0.326 N 
ATOM     23  O   UNL A   1      32.612  22.392  26.079  1.00  0.00    -0.274 OA
ATOM     24  C   UNL A   1      33.709  22.220  25.553  1.00  0.00     0.228 C 
ATOM     25  H   UNL A   1      35.295  22.861  24.466  1.00  0.00     0.169 HD
BRANCH  24  26
ATOM     26  C   UNL A   1      34.329  20.839  25.487  1.00  0.00     0.135 C 
BRANCH  26  27
ATOM     27  C   UNL A   1      33.675  19.932  24.470  1.00  0.00    -0.039 A 
ATOM     28  C   UNL A   1      33.963  18.559  24.403  1.00  0.00     0.004 A 
ATOM     29  C   UNL A   1      32.712  20.454  23.596  1.00  0.00     0.004 A 
ATOM     30  C   UNL A   1      33.323  17.736  23.479  1.00  0.00     0.000 A 
ATOM     31  C   UNL A   1      32.071  19.629  22.672  1.00  0.00     0.000 A 
ATOM     32  C   UNL A   1      32.376  18.271  22.614  1.00  0.00     0.000 A 
ENDBRANCH  26  27
ENDBRANCH  24  26
ENDBRANCH  17  22
ENDBRANCH  13  16
ENDBRANCH   7  12
ENDBRANCH   3   6
ENDBRANCH   1   2
BRANCH   1  33
ATOM     33  C   UNL A   1      31.834  30.072  25.032  1.00  0.00     0.042 C 
BRANCH  33  34
ATOM     34  C   UNL A   1      32.273  30.337  26.468  1.00  0.00     0.118 C 
BRANCH  34  35
ATOM     35  N   UNL A   1      32.155  31.729  26.892  1.00  0.00    -0.352 N 
ATOM     36  C   UNL A   1      33.047  32.574  27.517  1.00  0.00     0.251 C 
ATOM     37  H   UNL A   1      31.281  32.137  26.697  1.00  0.00     0.163 HD
ATOM     38  O   UNL A   1      32.701  33.709  27.819  1.00  0.00    -0.269 OA
BRANCH  36  39
ATOM     39  C   UNL A   1      34.395  32.089  27.880  1.00  0.00     0.039 A 
ATOM     40  C   UNL A   1      35.454  32.999  27.933  1.00  0.00     0.014 A 
ATOM     41  C   UNL A   1      34.601  30.761  28.235  1.00  0.00     0.014 A 
ATOM     42  C   UNL A   1      36.677  32.602  28.479  1.00  0.00     0.010 A 
ATOM     43  C   UNL A   1      35.763  30.409  28.907  1.00  0.00     0.010 A 
ATOM     44  C   UNL A   1      36.815  31.326  29.049  1.00  0.00    -0.014 A 
BRANCH  44  45
ATOM     45  C   UNL A   1      38.029  30.914  29.806  1.00  0.00     0.031 A 
ATOM     46  C   UNL A   1      38.995  29.938  29.184  1.00  0.00     0.074 A 
ATOM     47  C   UNL A   1      38.193  31.305  31.087  1.00  0.00     0.049 A 
ATOM     48  N   UNL A   1      39.974  29.269  29.739  1.00  0.00    -0.248 NA
ATOM     49  C   UNL A   1      38.783  29.623  27.763  1.00  0.00     0.031 C 
ATOM     50  C   UNL A   1      37.297  32.197  31.827  1.00  0.00     0.029 A 
ATOM     51  N   UNL A   1      39.164  30.985  32.004  1.00  0.00    -0.354 N 
ATOM     52  C   UNL A   1      40.454  28.416  28.750  1.00  0.00     0.074 A 
ATOM     53  C   UNL A   1      39.614  28.608  27.587  1.00  0.00     0.031 C 
ATOM     54  C   UNL A   1      37.777  32.377  33.068  1.00  0.00     0.029 A 
ATOM     55  C   UNL A   1      38.979  31.570  33.236  1.00  0.00     0.049 A 
ATOM     56  H   UNL A   1      39.922  30.391  31.798  1.00  0.00     0.167 HD
ATOM     57  C   UNL A   1      41.515  27.571  28.798  1.00  0.00     0.034 A 
ATOM     58  C   UNL A   1      39.687  31.454  34.377  1.00  0.00     0.034 A 
ATOM     59  C   UNL A   1      42.380  27.447  29.943  1.00  0.00     0.049 A 
ATOM     60  C   UNL A   1      40.893  30.551  34.394  1.00  0.00     0.074 A 
ATOM     61  C   UNL A   1      43.533  26.693  30.077  1.00  0.00     0.029 A 
ATOM     62  N   UNL A   1      42.195  28.108  31.152  1.00  0.00    -0.354 N 
ATOM     63  N   UNL A   1      41.356  29.777  33.439  1.00  0.00    -0.248 NA
ATOM     64  C   UNL A   1      41.674  30.509  35.636  1.00  0.00     0.031 C 
ATOM     65  C   UNL A   1      44.017  26.861  31.380  1.00  0.00     0.029 A 
ATOM     66  C   UNL A   1      43.204  27.767  32.039  1.00  0.00     0.049 A 
ATOM     67  H   UNL A   1      41.455  28.727  31.349  1.00  0.00     0.167 HD
ATOM     68  C   UNL A   1      42.500  29.178  33.959  1.00  0.00     0.074 A 
ATOM     69  C   UNL A   1      42.661  29.690  35.304  1.00  0.00     0.031 C 
ATOM     70  C   UNL A   1      43.343  28.290  33.377  1.00  0.00     0.034 A 
BRANCH  57  71
ATOM     71  C   UNL A   1      41.777  26.718  27.579  1.00  0.00     0.023 A 
ATOM     72  C   UNL A   1      41.381  25.371  27.521  1.00  0.00     0.031 A 
ATOM     73  C   UNL A   1      42.480  27.242  26.480  1.00  0.00     0.131 A 
ATOM     74  C   UNL A   1      41.777  24.568  26.441  1.00  0.00     0.055 A 
ATOM     75  C   UNL A   1      42.789  26.462  25.363  1.00  0.00     0.041 A 
ATOM     76  F   UNL A   1      42.902  28.517  26.481  1.00  0.00    -0.206 F 
ATOM     77  C   UNL A   1      42.455  25.110  25.348  1.00  0.00     0.022 A 
BRANCH  74  78
ATOM     78  S   UNL A   1      41.538  22.776  26.567  1.00  0.00     0.124 S 
ATOM     79  O   UNL A   1      42.240  22.474  27.812  1.00  0.00    -0.237 OA
ATOM     80  O   UNL A   1      40.085  22.652  26.607  1.00  0.00    -0.237 OA
ATOM     81  O   UNL A   1      42.175  22.258  25.358  1.00  0.00    -0.744 OA
ENDBRANCH  74  78
ENDBRANCH  57  71
BRANCH  58  82
ATOM     82  C   UNL A   1      39.282  32.205  35.599  1.00  0.00     0.023 A 
ATOM     83  C   UNL A   1      38.539  31.581  36.613  1.00  0.00     0.031 A 
ATOM     84  C   UNL A   1      39.604  33.565  35.758  1.00  0.00     0.131 A 
ATOM     85  C   UNL A   1      38.100  32.325  37.720  1.00  0.00     0.055 A 
ATOM     86  C   UNL A   1      39.206  34.289  36.885  1.00  0.00     0.041 A 
ATOM     87  F   UNL A   1      40.322  34.208  34.824  1.00  0.00    -0.206 F 
ATOM     88  C   UNL A   1      38.438  33.672  37.868  1.00  0.00     0.022 A 
BRANCH  85  89
ATOM     89  S   UNL A   1      37.012  31.522  38.928  1.00  0.00     0.124 S 
ATOM     90  O   UNL A   1      35.834  32.381  38.886  1.00  0.00    -0.237 OA
ATOM     91  O   UNL A   1      36.856  30.189  38.356  1.00  0.00    -0.237 OA
ATOM     92  O   UNL A   1      37.783  31.578  40.169  1.00  0.00    -0.744 OA
ENDBRANCH  85  89
ENDBRANCH  58  82
BRANCH  70  93
ATOM     93  C   UNL A   1      44.543  27.861  34.181  1.00  0.00     0.023 A 
ATOM     94  C   UNL A   1      44.513  26.724  35.005  1.00  0.00     0.031 A 
ATOM     95  C   UNL A   1      45.735  28.605  34.113  1.00  0.00     0.131 A 
ATOM     96  C   UNL A   1      45.641  26.386  35.766  1.00  0.00     0.055 A 
ATOM     97  C   UNL A   1      46.870  28.233  34.834  1.00  0.00     0.041 A 
ATOM     98  F   UNL A   1      45.815  29.699  33.341  1.00  0.00    -0.206 F 
ATOM     99  C   UNL A   1      46.824  27.124  35.674  1.00  0.00     0.022 A 
BRANCH  96 100
ATOM    100  S   UNL A   1      45.522  25.003  36.932  1.00  0.00     0.124 S 
ATOM    101  O   UNL A   1      45.930  23.872  36.106  1.00  0.00    -0.237 OA
ATOM    102  O   UNL A   1      46.456  25.396  37.982  1.00  0.00    -0.237 OA
ATOM    103  O   UNL A   1      44.114  25.006  37.326  1.00  0.00    -0.744 OA
ENDBRANCH  96 100
ENDBRANCH  70  93
ENDBRANCH  44  45
ENDBRANCH  36  39
ENDBRANCH  34  35
ENDBRANCH  33  34
ENDBRANCH   1  33
TORSDOF 18
ENDMDL
MODEL 2
REMARK VINA RESULT:     -13.1      1.606      4.793
REMARK SMILES O=C(Cc1ccccc1)Nc1cccc(C(=O)Nc2ccccc2C(=O)NCCCNC(=O)c2ccc(-c3c4nc(c(-c5cc(S(=O)(=O)[O-])ccc5F)c5ccc([nH]5)c(-c5cc(S(=O)(=O)[O-])ccc5F)c5nc(c(-c6cc(S(=O)(=O)[O-])ccc6F)c6ccc3[nH]6)C=C5)C=C4)cc2)c1
REMARK SMILES IDX 28 1 27 2 25 3 26 4 24 6 19 7 20 8 21 9 23 10 22 11 18 12
REMARK SMILES IDX 16 13 17 14 15 16 11 17 12 18 97 19 13 20 14 21 10 22 1 23
REMARK SMILES IDX 2 24 3 26 4 27 5 28 9 29 6 30 8 31 7 32 29 33 30 34 31 35
REMARK SMILES IDX 32 36 33 38 34 39 35 40 96 41 36 42 95 43 37 44 38 45 39 46
REMARK SMILES IDX 89 47 40 48 94 49 88 50 90 51 41 52 93 53 87 54 86 55 42 57
REMARK SMILES IDX 74 58 54 59 73 60 55 61 58 62 72 63 91 64 56 65 57 66 71 68
REMARK SMILES IDX 92 69 59 70 43 71 44 72 52 73 45 74 51 75 53 76 50 77 46 78
REMARK SMILES IDX 47 79 48 80 49 81 75 82 76 83 84 84 77 85 83 86 85 87 82 88
REMARK SMILES IDX 78 89 79 90 80 91 81 92 60 93 61 94 69 95 62 96 68 97 70 98
REMARK SMILES IDX 67 99 63 100 64 101 65 102 66 103
REMARK H PARENT 27 5 18 15 10 25 31 37 90 56 58 67
REMARK Flexibility Score: inf
ROOT
ATOM      1  C   UNL A   1      33.725  26.220  25.921  1.00  0.00     0.118 C 
ENDROOT
BRANCH   1   2
ATOM      2  N   UNL A   1      33.106  25.060  26.532  1.00  0.00    -0.352 N 
ATOM      3  C   UNL A   1      33.447  23.740  26.466  1.00  0.00     0.253 C 
ATOM      4  O   UNL A   1      32.713  22.926  27.033  1.00  0.00    -0.269 OA
ATOM      5  H   UNL A   1      32.314  25.256  27.084  1.00  0.00     0.163 HD
BRANCH   3   6
ATOM      6  C   UNL A   1      34.589  23.249  25.652  1.00  0.00     0.063 A 
ATOM      7  C   UNL A   1      34.557  22.450  24.489  1.00  0.00     0.054 A 
ATOM      8  C   UNL A   1      35.780  21.948  24.004  1.00  0.00     0.027 A 
ATOM      9  C   UNL A   1      37.004  22.329  24.560  1.00  0.00     0.002 A 
ATOM     10  C   UNL A   1      35.838  23.638  26.190  1.00  0.00     0.016 A 
ATOM     11  C   UNL A   1      37.036  23.197  25.640  1.00  0.00     0.001 A 
BRANCH   7  12
ATOM     12  N   UNL A   1      33.444  22.103  23.676  1.00  0.00    -0.321 N 
ATOM     13  C   UNL A   1      32.459  22.854  23.058  1.00  0.00     0.255 C 
ATOM     14  O   UNL A   1      31.495  22.295  22.542  1.00  0.00    -0.269 OA
ATOM     15  H   UNL A   1      33.356  21.135  23.520  1.00  0.00     0.170 HD
BRANCH  13  16
ATOM     16  C   UNL A   1      32.570  24.319  22.963  1.00  0.00     0.042 A 
ATOM     17  C   UNL A   1      31.404  26.401  22.776  1.00  0.00     0.041 A 
ATOM     18  C   UNL A   1      32.568  26.990  22.265  1.00  0.00     0.026 A 
ATOM     19  C   UNL A   1      31.445  25.094  23.230  1.00  0.00     0.040 A 
ATOM     20  C   UNL A   1      33.755  26.256  22.177  1.00  0.00     0.003 A 
ATOM     21  C   UNL A   1      33.754  24.904  22.508  1.00  0.00     0.014 A 
BRANCH  17  22
ATOM     22  N   UNL A   1      30.193  27.101  22.660  1.00  0.00    -0.326 N 
ATOM     23  O   UNL A   1      30.527  28.934  24.078  1.00  0.00    -0.274 OA
ATOM     24  C   UNL A   1      29.818  28.249  23.346  1.00  0.00     0.228 C 
ATOM     25  H   UNL A   1      29.538  26.740  22.022  1.00  0.00     0.169 HD
BRANCH  24  26
ATOM     26  C   UNL A   1      28.378  28.639  23.077  1.00  0.00     0.135 C 
BRANCH  26  27
ATOM     27  C   UNL A   1      28.219  30.057  22.578  1.00  0.00    -0.039 A 
ATOM     28  C   UNL A   1      28.179  31.154  23.454  1.00  0.00     0.004 A 
ATOM     29  C   UNL A   1      28.162  30.302  21.200  1.00  0.00     0.004 A 
ATOM     30  C   UNL A   1      28.066  32.456  22.970  1.00  0.00     0.000 A 
ATOM     31  C   UNL A   1      28.050  31.606  20.716  1.00  0.00     0.000 A 
ATOM     32  C   UNL A   1      28.002  32.681  21.600  1.00  0.00     0.000 A 
ENDBRANCH  26  27
ENDBRANCH  24  26
ENDBRANCH  17  22
ENDBRANCH  13  16
ENDBRANCH   7  12
ENDBRANCH   3   6
ENDBRANCH   1   2
BRANCH   1  33
ATOM     33  C   UNL A   1      32.873  27.472  26.018  1.00  0.00     0.042 C 
BRANCH  33  34
ATOM     34  C   UNL A   1      33.585  28.740  25.558  1.00  0.00     0.118 C 
BRANCH  34  35
ATOM     35  N   UNL A   1      32.820  29.969  25.748  1.00  0.00    -0.352 N 
ATOM     36  C   UNL A   1      32.980  31.021  26.624  1.00  0.00     0.251 C 
ATOM     37  H   UNL A   1      32.052  30.063  25.140  1.00  0.00     0.163 HD
ATOM     38  O   UNL A   1      32.171  31.939  26.627  1.00  0.00    -0.269 OA
BRANCH  36  39
ATOM     39  C   UNL A   1      34.088  31.006  27.602  1.00  0.00     0.039 A 
ATOM     40  C   UNL A   1      34.341  29.837  28.325  1.00  0.00     0.014 A 
ATOM     41  C   UNL A   1      34.917  32.112  27.755  1.00  0.00     0.014 A 
ATOM     42  C   UNL A   1      35.507  29.738  29.089  1.00  0.00     0.010 A 
ATOM     43  C   UNL A   1      36.140  31.962  28.393  1.00  0.00     0.010 A 
ATOM     44  C   UNL A   1      36.459  30.769  29.061  1.00  0.00    -0.014 A 
BRANCH  44  45
ATOM     45  C   UNL A   1      37.796  30.643  29.703  1.00  0.00     0.031 A 
ATOM     46  C   UNL A   1      38.869  29.826  29.030  1.00  0.00     0.074 A 
ATOM     47  C   UNL A   1      38.003  31.141  30.940  1.00  0.00     0.049 A 
ATOM     48  N   UNL A   1      40.007  29.391  29.508  1.00  0.00    -0.248 NA
ATOM     49  C   UNL A   1      38.588  29.384  27.655  1.00  0.00     0.031 C 
ATOM     50  C   UNL A   1      37.025  31.897  31.729  1.00  0.00     0.029 A 
ATOM     51  N   UNL A   1      39.100  31.070  31.763  1.00  0.00    -0.354 N 
ATOM     52  C   UNL A   1      40.547  28.579  28.515  1.00  0.00     0.074 A 
ATOM     53  C   UNL A   1      39.579  28.533  27.440  1.00  0.00     0.031 C 
ATOM     54  C   UNL A   1      37.577  32.245  32.902  1.00  0.00     0.029 A 
ATOM     55  C   UNL A   1      38.922  31.690  32.980  1.00  0.00     0.049 A 
ATOM     56  H   UNL A   1      39.935  30.617  31.507  1.00  0.00     0.167 HD
ATOM     57  C   UNL A   1      41.750  27.953  28.490  1.00  0.00     0.034 A 
ATOM     58  C   UNL A   1      39.744  31.785  34.043  1.00  0.00     0.034 A 
ATOM     59  C   UNL A   1      42.728  28.069  29.543  1.00  0.00     0.049 A 
ATOM     60  C   UNL A   1      41.098  31.127  33.975  1.00  0.00     0.074 A 
ATOM     61  C   UNL A   1      44.012  27.556  29.589  1.00  0.00     0.029 A 
ATOM     62  N   UNL A   1      42.534  28.762  30.732  1.00  0.00    -0.354 N 
ATOM     63  N   UNL A   1      41.609  30.392  33.014  1.00  0.00    -0.248 NA
ATOM     64  C   UNL A   1      41.987  31.314  35.128  1.00  0.00     0.031 C 
ATOM     65  C   UNL A   1      44.576  27.896  30.823  1.00  0.00     0.029 A 
ATOM     66  C   UNL A   1      43.669  28.676  31.522  1.00  0.00     0.049 A 
ATOM     67  H   UNL A   1      41.711  29.243  30.977  1.00  0.00     0.167 HD
ATOM     68  C   UNL A   1      42.891  30.054  33.438  1.00  0.00     0.074 A 
ATOM     69  C   UNL A   1      43.077  30.675  34.733  1.00  0.00     0.031 C 
ATOM     70  C   UNL A   1      43.831  29.303  32.812  1.00  0.00     0.034 A 
BRANCH  57  71
ATOM     71  C   UNL A   1      42.056  27.086  27.292  1.00  0.00     0.023 A 
ATOM     72  C   UNL A   1      41.739  25.716  27.272  1.00  0.00     0.031 A 
ATOM     73  C   UNL A   1      42.720  27.621  26.174  1.00  0.00     0.131 A 
ATOM     74  C   UNL A   1      42.175  24.911  26.209  1.00  0.00     0.055 A 
ATOM     75  C   UNL A   1      43.069  26.832  25.076  1.00  0.00     0.041 A 
ATOM     76  F   UNL A   1      43.066  28.918  26.141  1.00  0.00    -0.206 F 
ATOM     77  C   UNL A   1      42.815  25.463  25.098  1.00  0.00     0.022 A 
BRANCH  74  78
ATOM     78  S   UNL A   1      42.043  23.111  26.383  1.00  0.00     0.124 S 
ATOM     79  O   UNL A   1      42.880  22.868  27.555  1.00  0.00    -0.237 OA
ATOM     80  O   UNL A   1      40.610  22.916  26.569  1.00  0.00    -0.237 OA
ATOM     81  O   UNL A   1      42.584  22.604  25.123  1.00  0.00    -0.744 OA
ENDBRANCH  74  78
ENDBRANCH  57  71
BRANCH  58  82
ATOM     82  C   UNL A   1      39.320  32.527  35.265  1.00  0.00     0.023 A 
ATOM     83  C   UNL A   1      38.692  31.860  36.329  1.00  0.00     0.031 A 
ATOM     84  C   UNL A   1      39.506  33.916  35.376  1.00  0.00     0.131 A 
ATOM     85  C   UNL A   1      38.229  32.587  37.437  1.00  0.00     0.055 A 
ATOM     86  C   UNL A   1      39.087  34.628  36.502  1.00  0.00     0.041 A 
ATOM     87  F   UNL A   1      40.111  34.601  34.392  1.00  0.00    -0.206 F 
ATOM     88  C   UNL A   1      38.433  33.964  37.535  1.00  0.00     0.022 A 
BRANCH  85  89
ATOM     89  S   UNL A   1      37.286  31.713  38.715  1.00  0.00     0.124 S 
ATOM     90  O   UNL A   1      36.052  32.488  38.759  1.00  0.00    -0.237 OA
ATOM     91  O   UNL A   1      37.183  30.370  38.151  1.00  0.00    -0.237 OA
ATOM     92  O   UNL A   1      38.136  31.823  39.899  1.00  0.00    -0.744 OA
ENDBRANCH  85  89
ENDBRANCH  58  82
BRANCH  70  93
ATOM     93  C   UNL A   1      45.162  29.161  33.503  1.00  0.00     0.023 A 
ATOM     94  C   UNL A   1      45.448  28.067  34.337  1.00  0.00     0.031 A 
ATOM     95  C   UNL A   1      46.158  30.137  33.317  1.00  0.00     0.131 A 
ATOM     96  C   UNL A   1      46.686  27.998  34.992  1.00  0.00     0.055 A 
ATOM     97  C   UNL A   1      47.406  30.035  33.932  1.00  0.00     0.041 A 
ATOM     98  F   UNL A   1      45.933  31.200  32.530  1.00  0.00    -0.206 F 
ATOM     99  C   UNL A   1      47.673  28.966  34.783  1.00  0.00     0.022 A 
BRANCH  96 100
ATOM    100  S   UNL A   1      46.969  26.655  36.178  1.00  0.00     0.124 S 
ATOM    101  O   UNL A   1      46.542  27.264  37.433  1.00  0.00    -0.237 OA
ATOM    102  O   UNL A   1      46.113  25.593  35.660  1.00  0.00    -0.237 OA
ATOM    103  O   UNL A   1      48.405  26.399  36.071  1.00  0.00    -0.744 OA
ENDBRANCH  96 100
ENDBRANCH  70  93
ENDBRANCH  44  45
ENDBRANCH  36  39
ENDBRANCH  34  35
ENDBRANCH  33  34
ENDBRANCH   1  33
TORSDOF 18
ENDMDL
MODEL 3
REMARK VINA RESULT:     -13.0      5.633     11.051
REMARK SMILES O=C(Cc1ccccc1)Nc1cccc(C(=O)Nc2ccccc2C(=O)NCCCNC(=O)c2ccc(-c3c4nc(c(-c5cc(S(=O)(=O)[O-])ccc5F)c5ccc([nH]5)c(-c5cc(S(=O)(=O)[O-])ccc5F)c5nc(c(-c6cc(S(=O)(=O)[O-])ccc6F)c6ccc3[nH]6)C=C5)C=C4)cc2)c1
REMARK SMILES IDX 28 1 27 2 25 3 26 4 24 6 19 7 20 8 21 9 23 10 22 11 18 12
REMARK SMILES IDX 16 13 17 14 15 16 11 17 12 18 97 19 13 20 14 21 10 22 1 23
REMARK SMILES IDX 2 24 3 26 4 27 5 28 9 29 6 30 8 31 7 32 29 33 30 34 31 35
REMARK SMILES IDX 32 36 33 38 34 39 35 40 96 41 36 42 95 43 37 44 38 45 39 46
REMARK SMILES IDX 89 47 40 48 94 49 88 50 90 51 41 52 93 53 87 54 86 55 42 57
REMARK SMILES IDX 74 58 54 59 73 60 55 61 58 62 72 63 91 64 56 65 57 66 71 68
REMARK SMILES IDX 92 69 59 70 43 71 44 72 52 73 45 74 51 75 53 76 50 77 46 78
REMARK SMILES IDX 47 79 48 80 49 81 75 82 76 83 84 84 77 85 83 86 85 87 82 88
REMARK SMILES IDX 78 89 79 90 80 91 81 92 60 93 61 94 69 95 62 96 68 97 70 98
REMARK SMILES IDX 67 99 63 100 64 101 65 102 66 103
REMARK H PARENT 27 5 18 15 10 25 31 37 90 56 58 67
REMARK Flexibility Score: inf
ROOT
ATOM      1  C   UNL A   1      36.669  22.346  25.668  1.00  0.00     0.118 C 
ENDROOT
BRANCH   1   2
ATOM      2  N   UNL A   1      35.673  21.652  26.459  1.00  0.00    -0.352 N 
ATOM      3  C   UNL A   1      34.337  21.476  26.240  1.00  0.00     0.253 C 
ATOM      4  O   UNL A   1      33.682  20.892  27.107  1.00  0.00    -0.269 OA
ATOM      5  H   UNL A   1      36.014  21.240  27.287  1.00  0.00     0.163 HD
BRANCH   3   6
ATOM      6  C   UNL A   1      33.636  22.056  25.064  1.00  0.00     0.063 A 
ATOM      7  C   UNL A   1      32.258  22.314  24.906  1.00  0.00     0.054 A 
ATOM      8  C   UNL A   1      31.804  22.686  23.625  1.00  0.00     0.027 A 
ATOM      9  C   UNL A   1      32.690  22.928  22.572  1.00  0.00     0.002 A 
ATOM     10  C   UNL A   1      34.519  22.323  23.992  1.00  0.00     0.016 A 
ATOM     11  C   UNL A   1      34.054  22.773  22.761  1.00  0.00     0.001 A 
BRANCH   7  12
ATOM     12  N   UNL A   1      31.230  22.304  25.886  1.00  0.00    -0.321 N 
ATOM     13  C   UNL A   1      30.652  23.300  26.655  1.00  0.00     0.255 C 
ATOM     14  O   UNL A   1      29.886  23.003  27.568  1.00  0.00    -0.269 OA
ATOM     15  H   UNL A   1      30.851  21.411  26.052  1.00  0.00     0.170 HD
BRANCH  13  16
ATOM     16  C   UNL A   1      30.903  24.722  26.366  1.00  0.00     0.042 A 
ATOM     17  C   UNL A   1      30.202  26.668  25.162  1.00  0.00     0.041 A 
ATOM     18  C   UNL A   1      31.490  27.201  25.304  1.00  0.00     0.026 A 
ATOM     19  C   UNL A   1      29.885  25.478  25.794  1.00  0.00     0.040 A 
ATOM     20  C   UNL A   1      32.461  26.523  26.048  1.00  0.00     0.003 A 
ATOM     21  C   UNL A   1      32.175  25.264  26.566  1.00  0.00     0.014 A 
BRANCH  17  22
ATOM     22  N   UNL A   1      29.325  27.273  24.248  1.00  0.00    -0.326 N 
ATOM     23  O   UNL A   1      30.759  27.905  22.509  1.00  0.00    -0.274 OA
ATOM     24  C   UNL A   1      29.656  27.892  23.050  1.00  0.00     0.228 C 
ATOM     25  H   UNL A   1      28.370  27.256  24.482  1.00  0.00     0.169 HD
BRANCH  24  26
ATOM     26  C   UNL A   1      28.466  28.567  22.400  1.00  0.00     0.135 C 
BRANCH  26  27
ATOM     27  C   UNL A   1      28.518  30.077  22.465  1.00  0.00    -0.039 A 
ATOM     28  C   UNL A   1      28.998  30.757  23.595  1.00  0.00     0.004 A 
ATOM     29  C   UNL A   1      28.126  30.830  21.350  1.00  0.00     0.004 A 
ATOM     30  C   UNL A   1      29.068  32.149  23.620  1.00  0.00     0.000 A 
ATOM     31  C   UNL A   1      28.198  32.223  21.375  1.00  0.00     0.000 A 
ATOM     32  C   UNL A   1      28.668  32.882  22.509  1.00  0.00     0.000 A 
ENDBRANCH  26  27
ENDBRANCH  24  26
ENDBRANCH  17  22
ENDBRANCH  13  16
ENDBRANCH   7  12
ENDBRANCH   3   6
ENDBRANCH   1   2
BRANCH   1  33
ATOM     33  C   UNL A   1      37.776  21.436  25.169  1.00  0.00     0.042 C 
BRANCH  33  34
ATOM     34  C   UNL A   1      39.002  21.402  26.075  1.00  0.00     0.118 C 
BRANCH  34  35
ATOM     35  N   UNL A   1      39.822  20.201  25.943  1.00  0.00    -0.352 N 
ATOM     36  C   UNL A   1      41.181  20.002  26.061  1.00  0.00     0.251 C 
ATOM     37  H   UNL A   1      39.311  19.386  25.732  1.00  0.00     0.163 HD
ATOM     38  O   UNL A   1      41.653  18.891  25.859  1.00  0.00    -0.269 OA
BRANCH  36  39
ATOM     39  C   UNL A   1      42.071  21.143  26.363  1.00  0.00     0.039 A 
ATOM     40  C   UNL A   1      42.486  21.977  25.322  1.00  0.00     0.014 A 
ATOM     41  C   UNL A   1      42.437  21.431  27.673  1.00  0.00     0.014 A 
ATOM     42  C   UNL A   1      43.145  23.173  25.618  1.00  0.00     0.010 A 
ATOM     43  C   UNL A   1      42.959  22.681  27.974  1.00  0.00     0.010 A 
ATOM     44  C   UNL A   1      43.311  23.576  26.952  1.00  0.00    -0.014 A 
BRANCH  44  45
ATOM     45  C   UNL A   1      43.838  24.918  27.324  1.00  0.00     0.031 A 
ATOM     46  C   UNL A   1      42.902  25.948  27.903  1.00  0.00     0.074 A 
ATOM     47  C   UNL A   1      45.109  25.254  27.020  1.00  0.00     0.049 A 
ATOM     48  N   UNL A   1      43.083  27.233  28.075  1.00  0.00    -0.248 NA
ATOM     49  C   UNL A   1      41.558  25.477  28.271  1.00  0.00     0.031 C 
ATOM     50  C   UNL A   1      46.100  24.370  26.400  1.00  0.00     0.029 A 
ATOM     51  N   UNL A   1      45.783  26.441  27.175  1.00  0.00    -0.354 N 
ATOM     52  C   UNL A   1      41.860  27.729  28.517  1.00  0.00     0.074 A 
ATOM     53  C   UNL A   1      40.933  26.617  28.519  1.00  0.00     0.031 C 
ATOM     54  C   UNL A   1      47.258  25.034  26.258  1.00  0.00     0.029 A 
ATOM     55  C   UNL A   1      47.081  26.405  26.719  1.00  0.00     0.049 A 
ATOM     56  H   UNL A   1      45.374  27.243  27.574  1.00  0.00     0.167 HD
ATOM     57  C   UNL A   1      41.546  28.989  28.910  1.00  0.00     0.034 A 
ATOM     58  C   UNL A   1      48.017  27.373  26.662  1.00  0.00     0.034 A 
ATOM     59  C   UNL A   1      42.503  30.065  28.966  1.00  0.00     0.049 A 
ATOM     60  C   UNL A   1      47.665  28.753  27.153  1.00  0.00     0.074 A 
ATOM     61  C   UNL A   1      42.325  31.356  29.431  1.00  0.00     0.029 A 
ATOM     62  N   UNL A   1      43.828  29.970  28.556  1.00  0.00    -0.354 N 
ATOM     63  N   UNL A   1      46.513  29.199  27.602  1.00  0.00    -0.248 NA
ATOM     64  C   UNL A   1      48.735  29.757  27.137  1.00  0.00     0.031 C 
ATOM     65  C   UNL A   1      43.525  32.055  29.257  1.00  0.00     0.029 A 
ATOM     66  C   UNL A   1      44.472  31.183  28.744  1.00  0.00     0.049 A 
ATOM     67  H   UNL A   1      44.247  29.160  28.186  1.00  0.00     0.167 HD
ATOM     68  C   UNL A   1      46.732  30.529  27.947  1.00  0.00     0.074 A 
ATOM     69  C   UNL A   1      48.126  30.807  27.667  1.00  0.00     0.031 C 
ATOM     70  C   UNL A   1      45.862  31.437  28.455  1.00  0.00     0.034 A 
BRANCH  57  71
ATOM     71  C   UNL A   1      40.111  29.258  29.296  1.00  0.00     0.023 A 
ATOM     72  C   UNL A   1      39.713  29.351  30.641  1.00  0.00     0.031 A 
ATOM     73  C   UNL A   1      39.116  29.371  28.309  1.00  0.00     0.131 A 
ATOM     74  C   UNL A   1      38.352  29.448  30.966  1.00  0.00     0.055 A 
ATOM     75  C   UNL A   1      37.772  29.562  28.636  1.00  0.00     0.041 A 
ATOM     76  F   UNL A   1      39.429  29.273  27.008  1.00  0.00    -0.206 F 
ATOM     77  C   UNL A   1      37.379  29.581  29.972  1.00  0.00     0.022 A 
BRANCH  74  78
ATOM     78  S   UNL A   1      37.861  29.226  32.696  1.00  0.00     0.124 S 
ATOM     79  O   UNL A   1      38.987  29.833  33.400  1.00  0.00    -0.237 OA
ATOM     80  O   UNL A   1      36.599  29.955  32.763  1.00  0.00    -0.237 OA
ATOM     81  O   UNL A   1      37.753  27.776  32.841  1.00  0.00    -0.744 OA
ENDBRANCH  74  78
ENDBRANCH  57  71
BRANCH  58  82
ATOM     82  C   UNL A   1      49.376  27.082  26.120  1.00  0.00     0.023 A 
ATOM     83  C   UNL A   1      49.736  27.489  24.826  1.00  0.00     0.031 A 
ATOM     84  C   UNL A   1      50.323  26.367  26.875  1.00  0.00     0.131 A 
ATOM     85  C   UNL A   1      50.991  27.138  24.305  1.00  0.00     0.055 A 
ATOM     86  C   UNL A   1      51.589  26.063  26.370  1.00  0.00     0.041 A 
ATOM     87  F   UNL A   1      50.034  25.964  28.123  1.00  0.00    -0.206 F 
ATOM     88  C   UNL A   1      51.924  26.438  25.072  1.00  0.00     0.022 A 
BRANCH  85  89
ATOM     89  S   UNL A   1      51.357  27.546  22.576  1.00  0.00     0.124 S 
ATOM     90  O   UNL A   1      51.241  28.999  22.582  1.00  0.00    -0.237 OA
ATOM     91  O   UNL A   1      52.706  27.010  22.418  1.00  0.00    -0.237 OA
ATOM     92  O   UNL A   1      50.318  26.837  21.832  1.00  0.00    -0.744 OA
ENDBRANCH  85  89
ENDBRANCH  58  82
BRANCH  70  93
ATOM     93  C   UNL A   1      46.414  32.799  28.786  1.00  0.00     0.023 A 
ATOM     94  C   UNL A   1      46.456  33.831  27.834  1.00  0.00     0.031 A 
ATOM     95  C   UNL A   1      46.901  33.064  30.079  1.00  0.00     0.131 A 
ATOM     96  C   UNL A   1      47.016  35.070  28.176  1.00  0.00     0.055 A 
ATOM     97  C   UNL A   1      47.410  34.316  30.427  1.00  0.00     0.041 A 
ATOM     98  F   UNL A   1      46.882  32.112  31.024  1.00  0.00    -0.206 F 
ATOM     99  C   UNL A   1      47.479  35.324  29.470  1.00  0.00     0.022 A 
BRANCH  96 100
ATOM    100  S   UNL A   1      47.194  36.331  26.884  1.00  0.00     0.124 S 
ATOM    101  O   UNL A   1      48.189  35.727  26.005  1.00  0.00    -0.237 OA
ATOM    102  O   UNL A   1      45.840  36.424  26.348  1.00  0.00    -0.237 OA
ATOM    103  O   UNL A   1      47.650  37.511  27.617  1.00  0.00    -0.744 OA
ENDBRANCH  96 100
ENDBRANCH  70  93
ENDBRANCH  44  45
ENDBRANCH  36  39
ENDBRANCH  34  35
ENDBRANCH  33  34
ENDBRANCH   1  33
TORSDOF 18
ENDMDL
