MODEL 1
REMARK VINA RESULT:     -11.1      0.000      0.000
REMARK SMILES CN(C)S(=O)(=O)c1ccc(N(CC(=O)NCCCNC(=O)c2ccc(-c3c4nc(c(-c5cc(S(=O)(=O)[O-])ccc5F)c5ccc([nH]5)c(-c5cc(S(=O)(=O)[O-])ccc5F)c5nc(c(-c6cc(S(=O)(=O)[O-])ccc6F)c6ccc3[nH]6)C=C5)C=C4)cc2)C(C)(C)C)cc1
REMARK SMILES IDX 16 1 15 2 13 3 14 4 12 6 11 7 10 8 7 9 8 10 90 11 9 12 89 13
REMARK SMILES IDX 4 14 5 15 6 16 2 17 1 18 3 19 85 20 86 21 87 22 88 23 17 24
REMARK SMILES IDX 18 25 19 26 20 27 21 29 22 30 23 31 84 32 24 33 83 34 25 35
REMARK SMILES IDX 26 36 27 37 77 38 28 39 82 40 76 41 78 42 29 43 81 44 75 45
REMARK SMILES IDX 74 46 30 48 62 49 42 50 61 51 43 52 46 53 60 54 79 55 44 56
REMARK SMILES IDX 45 57 59 59 80 60 47 61 31 62 32 63 40 64 33 65 39 66 41 67
REMARK SMILES IDX 38 68 34 69 35 70 36 71 37 72 63 73 64 74 72 75 65 76 71 77
REMARK SMILES IDX 73 78 70 79 66 80 67 81 68 82 69 83 48 84 49 85 57 86 50 87
REMARK SMILES IDX 56 88 58 89 55 90 51 91 52 92 53 93 54 94
REMARK H PARENT 15 5 19 28 78 47 46 58
REMARK Flexibility Score: inf
ROOT
ATOM      1  C   UNL A   1      36.916  20.416  24.995  1.00  0.00     0.117 C 
ENDROOT
BRANCH   1   2
ATOM      2  N   UNL A   1      37.232  21.803  24.726  1.00  0.00    -0.354 N 
ATOM      3  C   UNL A   1      36.656  22.928  25.242  1.00  0.00     0.239 C 
ATOM      4  O   UNL A   1      37.195  24.010  24.985  1.00  0.00    -0.273 OA
ATOM      5  H   UNL A   1      37.961  21.956  24.082  1.00  0.00     0.163 HD
BRANCH   3   6
ATOM      6  C   UNL A   1      35.459  22.834  26.199  1.00  0.00     0.217 C 
BRANCH   6   7
ATOM      7  N   UNL A   1      34.125  23.115  25.588  1.00  0.00    -0.357 N 
BRANCH   7   8
ATOM      8  C   UNL A   1      33.825  24.436  25.188  1.00  0.00     0.038 A 
ATOM      9  C   UNL A   1      33.099  27.096  24.357  1.00  0.00     0.082 A 
ATOM     10  C   UNL A   1      33.097  26.760  25.702  1.00  0.00     0.024 A 
ATOM     11  C   UNL A   1      33.476  26.146  23.422  1.00  0.00     0.024 A 
ATOM     12  C   UNL A   1      33.466  25.459  26.097  1.00  0.00     0.027 A 
ATOM     13  C   UNL A   1      33.833  24.853  23.843  1.00  0.00     0.027 A 
BRANCH   9  14
ATOM     14  S   UNL A   1      32.675  28.731  23.824  1.00  0.00     0.242 S 
ATOM     15  O   UNL A   1      33.197  28.924  22.491  1.00  0.00    -0.207 OA
ATOM     16  O   UNL A   1      33.025  29.625  24.911  1.00  0.00    -0.207 OA
BRANCH  14  17
ATOM     17  N   UNL A   1      30.960  28.719  23.688  1.00  0.00    -0.204 NA
ATOM     18  C   UNL A   1      30.368  30.008  24.132  1.00  0.00     0.124 C 
ATOM     19  C   UNL A   1      30.445  28.341  22.350  1.00  0.00     0.124 C 
ENDBRANCH  14  17
ENDBRANCH   9  14
ENDBRANCH   7   8
BRANCH   7  20
ATOM     20  C   UNL A   1      33.234  21.925  25.247  1.00  0.00     0.032 C 
ATOM     21  C   UNL A   1      33.380  21.510  23.767  1.00  0.00     0.034 C 
ATOM     22  C   UNL A   1      33.486  20.755  26.226  1.00  0.00     0.034 C 
ATOM     23  C   UNL A   1      31.712  22.212  25.404  1.00  0.00     0.034 C 
ENDBRANCH   7  20
ENDBRANCH   6   7
ENDBRANCH   3   6
ENDBRANCH   1   2
BRANCH   1  24
ATOM     24  C   UNL A   1      38.149  19.525  25.037  1.00  0.00     0.042 C 
BRANCH  24  25
ATOM     25  C   UNL A   1      39.271  20.068  25.915  1.00  0.00     0.118 C 
BRANCH  25  26
ATOM     26  N   UNL A   1      40.429  19.183  25.941  1.00  0.00    -0.352 N 
ATOM     27  C   UNL A   1      41.761  19.497  26.064  1.00  0.00     0.251 C 
ATOM     28  H   UNL A   1      40.227  18.223  25.861  1.00  0.00     0.163 HD
ATOM     29  O   UNL A   1      42.607  18.633  25.854  1.00  0.00    -0.269 OA
BRANCH  27  30
ATOM     30  C   UNL A   1      42.168  20.874  26.423  1.00  0.00     0.039 A 
ATOM     31  C   UNL A   1      42.329  21.207  27.770  1.00  0.00     0.014 A 
ATOM     32  C   UNL A   1      42.381  21.835  25.431  1.00  0.00     0.014 A 
ATOM     33  C   UNL A   1      42.774  22.484  28.121  1.00  0.00     0.010 A 
ATOM     34  C   UNL A   1      42.883  23.087  25.779  1.00  0.00     0.010 A 
ATOM     35  C   UNL A   1      43.089  23.423  27.126  1.00  0.00    -0.014 A 
BRANCH  35  36
ATOM     36  C   UNL A   1      43.632  24.766  27.456  1.00  0.00     0.031 A 
ATOM     37  C   UNL A   1      42.711  25.837  27.974  1.00  0.00     0.074 A 
ATOM     38  C   UNL A   1      44.924  25.050  27.197  1.00  0.00     0.049 A 
ATOM     39  N   UNL A   1      42.940  27.111  28.156  1.00  0.00    -0.248 NA
ATOM     40  C   UNL A   1      41.340  25.417  28.296  1.00  0.00     0.031 C 
ATOM     41  C   UNL A   1      45.909  24.102  26.671  1.00  0.00     0.029 A 
ATOM     42  N   UNL A   1      45.624  26.224  27.316  1.00  0.00    -0.354 N 
ATOM     43  C   UNL A   1      41.734  27.654  28.588  1.00  0.00     0.074 A 
ATOM     44  C   UNL A   1      40.769  26.574  28.596  1.00  0.00     0.031 C 
ATOM     45  C   UNL A   1      47.085  24.732  26.517  1.00  0.00     0.029 A 
ATOM     46  C   UNL A   1      46.926  26.136  26.883  1.00  0.00     0.049 A 
ATOM     47  H   UNL A   1      45.231  27.051  27.678  1.00  0.00     0.167 HD
ATOM     48  C   UNL A   1      41.462  28.931  28.956  1.00  0.00     0.034 A 
ATOM     49  C   UNL A   1      47.879  27.083  26.768  1.00  0.00     0.034 A 
ATOM     50  C   UNL A   1      42.442  29.990  28.960  1.00  0.00     0.049 A 
ATOM     51  C   UNL A   1      47.552  28.500  27.169  1.00  0.00     0.074 A 
ATOM     52  C   UNL A   1      42.288  31.307  29.358  1.00  0.00     0.029 A 
ATOM     53  N   UNL A   1      43.760  29.855  28.542  1.00  0.00    -0.354 N 
ATOM     54  N   UNL A   1      46.413  28.994  27.598  1.00  0.00    -0.248 NA
ATOM     55  C   UNL A   1      48.640  29.483  27.079  1.00  0.00     0.031 C 
ATOM     56  C   UNL A   1      43.494  31.980  29.129  1.00  0.00     0.029 A 
ATOM     57  C   UNL A   1      44.422  31.067  28.653  1.00  0.00     0.049 A 
ATOM     58  H   UNL A   1      44.164  29.019  28.215  1.00  0.00     0.167 HD
ATOM     59  C   UNL A   1      46.660  30.338  27.863  1.00  0.00     0.074 A 
ATOM     60  C   UNL A   1      48.053  30.575  27.547  1.00  0.00     0.031 C 
ATOM     61  C   UNL A   1      45.813  31.288  28.335  1.00  0.00     0.034 A 
BRANCH  48  62
ATOM     62  C   UNL A   1      40.040  29.250  29.352  1.00  0.00     0.023 A 
ATOM     63  C   UNL A   1      39.644  29.318  30.699  1.00  0.00     0.031 A 
ATOM     64  C   UNL A   1      39.056  29.452  28.367  1.00  0.00     0.131 A 
ATOM     65  C   UNL A   1      38.292  29.496  31.024  1.00  0.00     0.055 A 
ATOM     66  C   UNL A   1      37.725  29.715  28.700  1.00  0.00     0.041 A 
ATOM     67  F   UNL A   1      39.368  29.381  27.064  1.00  0.00    -0.206 F 
ATOM     68  C   UNL A   1      37.332  29.720  30.035  1.00  0.00     0.022 A 
BRANCH  65  69
ATOM     69  S   UNL A   1      37.783  29.280  32.752  1.00  0.00     0.124 S 
ATOM     70  O   UNL A   1      36.519  30.011  32.780  1.00  0.00    -0.237 OA
ATOM     71  O   UNL A   1      37.685  27.830  32.873  1.00  0.00    -0.237 OA
ATOM     72  O   UNL A   1      38.870  29.898  33.510  1.00  0.00    -0.744 OA
ENDBRANCH  65  69
ENDBRANCH  48  62
BRANCH  49  73
ATOM     73  C   UNL A   1      49.225  26.736  26.234  1.00  0.00     0.023 A 
ATOM     74  C   UNL A   1      49.645  27.206  24.980  1.00  0.00     0.031 A 
ATOM     75  C   UNL A   1      50.100  25.906  26.957  1.00  0.00     0.131 A 
ATOM     76  C   UNL A   1      50.889  26.808  24.467  1.00  0.00     0.055 A 
ATOM     77  C   UNL A   1      51.356  25.553  26.463  1.00  0.00     0.041 A 
ATOM     78  F   UNL A   1      49.748  25.438  28.166  1.00  0.00    -0.206 F 
ATOM     79  C   UNL A   1      51.753  25.994  25.204  1.00  0.00     0.022 A 
BRANCH  76  80
ATOM     80  S   UNL A   1      51.332  27.312  22.781  1.00  0.00     0.124 S 
ATOM     81  O   UNL A   1      52.723  26.881  22.697  1.00  0.00    -0.237 OA
ATOM     82  O   UNL A   1      50.376  26.558  21.978  1.00  0.00    -0.237 OA
ATOM     83  O   UNL A   1      51.126  28.759  22.795  1.00  0.00    -0.744 OA
ENDBRANCH  76  80
ENDBRANCH  49  73
BRANCH  61  84
ATOM     84  C   UNL A   1      46.393  32.654  28.598  1.00  0.00     0.023 A 
ATOM     85  C   UNL A   1      46.572  33.597  27.572  1.00  0.00     0.031 A 
ATOM     86  C   UNL A   1      46.768  33.014  29.905  1.00  0.00     0.131 A 
ATOM     87  C   UNL A   1      47.151  34.841  27.863  1.00  0.00     0.055 A 
ATOM     88  C   UNL A   1      47.298  34.271  30.197  1.00  0.00     0.041 A 
ATOM     89  F   UNL A   1      46.618  32.149  30.921  1.00  0.00    -0.206 F 
ATOM     90  C   UNL A   1      47.502  35.189  29.171  1.00  0.00     0.022 A 
BRANCH  87  91
ATOM     91  S   UNL A   1      47.504  35.982  26.497  1.00  0.00     0.124 S 
ATOM     92  O   UNL A   1      47.365  35.114  25.333  1.00  0.00    -0.237 OA
ATOM     93  O   UNL A   1      46.469  36.997  26.663  1.00  0.00    -0.237 OA
ATOM     94  O   UNL A   1      48.865  36.437  26.773  1.00  0.00    -0.744 OA
ENDBRANCH  87  91
ENDBRANCH  61  84
ENDBRANCH  35  36
ENDBRANCH  27  30
ENDBRANCH  25  26
ENDBRANCH  24  25
ENDBRANCH   1  24
TORSDOF 18
ENDMDL
MODEL 2
REMARK VINA RESULT:     -10.9      6.085     11.478
REMARK SMILES CN(C)S(=O)(=O)c1ccc(N(CC(=O)NCCCNC(=O)c2ccc(-c3c4nc(c(-c5cc(S(=O)(=O)[O-])ccc5F)c5ccc([nH]5)c(-c5cc(S(=O)(=O)[O-])ccc5F)c5nc(c(-c6cc(S(=O)(=O)[O-])ccc6F)c6ccc3[nH]6)C=C5)C=C4)cc2)C(C)(C)C)cc1
REMARK SMILES IDX 16 1 15 2 13 3 14 4 12 6 11 7 10 8 7 9 8 10 90 11 9 12 89 13
REMARK SMILES IDX 4 14 5 15 6 16 2 17 1 18 3 19 85 20 86 21 87 22 88 23 17 24
REMARK SMILES IDX 18 25 19 26 20 27 21 29 22 30 23 31 84 32 24 33 83 34 25 35
REMARK SMILES IDX 26 36 27 37 77 38 28 39 82 40 76 41 78 42 29 43 81 44 75 45
REMARK SMILES IDX 74 46 30 48 62 49 42 50 61 51 43 52 46 53 60 54 79 55 44 56
REMARK SMILES IDX 45 57 59 59 80 60 47 61 31 62 32 63 40 64 33 65 39 66 41 67
REMARK SMILES IDX 38 68 34 69 35 70 36 71 37 72 63 73 64 74 72 75 65 76 71 77
REMARK SMILES IDX 73 78 70 79 66 80 67 81 68 82 69 83 48 84 49 85 57 86 50 87
REMARK SMILES IDX 56 88 58 89 55 90 51 91 52 92 53 93 54 94
REMARK H PARENT 15 5 19 28 78 47 46 58
REMARK Flexibility Score: inf
ROOT
ATOM      1  C   UNL A   1      31.963  30.531  26.192  1.00  0.00     0.117 C 
ENDROOT
BRANCH   1   2
ATOM      2  N   UNL A   1      31.827  29.408  27.095  1.00  0.00    -0.354 N 
ATOM      3  C   UNL A   1      31.427  28.131  26.822  1.00  0.00     0.239 C 
ATOM      4  O   UNL A   1      31.537  27.297  27.726  1.00  0.00    -0.273 OA
ATOM      5  H   UNL A   1      32.054  29.589  28.037  1.00  0.00     0.163 HD
BRANCH   3   6
ATOM      6  C   UNL A   1      30.973  27.732  25.411  1.00  0.00     0.217 C 
BRANCH   6   7
ATOM      7  N   UNL A   1      32.015  27.083  24.559  1.00  0.00    -0.357 N 
BRANCH   7   8
ATOM      8  C   UNL A   1      32.654  25.917  25.036  1.00  0.00     0.038 A 
ATOM      9  C   UNL A   1      33.961  23.500  25.896  1.00  0.00     0.082 A 
ATOM     10  C   UNL A   1      34.707  24.633  25.612  1.00  0.00     0.024 A 
ATOM     11  C   UNL A   1      32.582  23.551  25.784  1.00  0.00     0.024 A 
ATOM     12  C   UNL A   1      34.055  25.814  25.204  1.00  0.00     0.027 A 
ATOM     13  C   UNL A   1      31.957  24.739  25.368  1.00  0.00     0.027 A 
BRANCH   9  14
ATOM     14  S   UNL A   1      34.742  22.008  26.444  1.00  0.00     0.242 S 
ATOM     15  O   UNL A   1      34.036  21.528  27.610  1.00  0.00    -0.207 OA
ATOM     16  O   UNL A   1      36.167  22.275  26.479  1.00  0.00    -0.207 OA
BRANCH  14  17
ATOM     17  N   UNL A   1      34.453  20.871  25.186  1.00  0.00    -0.204 NA
ATOM     18  C   UNL A   1      35.668  20.071  24.883  1.00  0.00     0.124 C 
ATOM     19  C   UNL A   1      33.285  19.984  25.405  1.00  0.00     0.124 C 
ENDBRANCH  14  17
ENDBRANCH   9  14
ENDBRANCH   7   8
BRANCH   7  20
ATOM     20  C   UNL A   1      32.193  27.600  23.136  1.00  0.00     0.032 C 
ATOM     21  C   UNL A   1      30.839  27.969  22.490  1.00  0.00     0.034 C 
ATOM     22  C   UNL A   1      33.212  28.762  23.099  1.00  0.00     0.034 C 
ATOM     23  C   UNL A   1      32.797  26.552  22.156  1.00  0.00     0.034 C 
ENDBRANCH   7  20
ENDBRANCH   6   7
ENDBRANCH   3   6
ENDBRANCH   1   2
BRANCH   1  24
ATOM     24  C   UNL A   1      31.656  31.865  26.855  1.00  0.00     0.042 C 
BRANCH  24  25
ATOM     25  C   UNL A   1      32.826  32.842  26.843  1.00  0.00     0.118 C 
BRANCH  25  26
ATOM     26  N   UNL A   1      32.552  34.043  27.622  1.00  0.00    -0.352 N 
ATOM     27  C   UNL A   1      33.145  34.483  28.781  1.00  0.00     0.251 C 
ATOM     28  H   UNL A   1      31.841  34.623  27.266  1.00  0.00     0.163 HD
ATOM     29  O   UNL A   1      32.637  35.409  29.405  1.00  0.00    -0.269 OA
BRANCH  27  30
ATOM     30  C   UNL A   1      34.372  33.825  29.281  1.00  0.00     0.039 A 
ATOM     31  C   UNL A   1      35.619  34.329  28.899  1.00  0.00     0.014 A 
ATOM     32  C   UNL A   1      34.293  32.708  30.117  1.00  0.00     0.014 A 
ATOM     33  C   UNL A   1      36.786  33.758  29.414  1.00  0.00     0.010 A 
ATOM     34  C   UNL A   1      35.453  32.179  30.676  1.00  0.00     0.010 A 
ATOM     35  C   UNL A   1      36.710  32.701  30.335  1.00  0.00    -0.014 A 
BRANCH  35  36
ATOM     36  C   UNL A   1      37.925  32.114  30.958  1.00  0.00     0.031 A 
ATOM     37  C   UNL A   1      38.715  31.071  30.217  1.00  0.00     0.074 A 
ATOM     38  C   UNL A   1      38.257  32.445  32.222  1.00  0.00     0.049 A 
ATOM     39  N   UNL A   1      39.692  30.313  30.641  1.00  0.00    -0.248 NA
ATOM     40  C   UNL A   1      38.325  30.829  28.820  1.00  0.00     0.031 C 
ATOM     41  C   UNL A   1      37.554  33.425  33.052  1.00  0.00     0.029 A 
ATOM     42  N   UNL A   1      39.254  31.973  33.039  1.00  0.00    -0.354 N 
ATOM     43  C   UNL A   1      40.018  29.482  29.573  1.00  0.00     0.074 A 
ATOM     44  C   UNL A   1      39.101  29.804  28.499  1.00  0.00     0.031 C 
ATOM     45  C   UNL A   1      38.144  33.484  34.257  1.00  0.00     0.029 A 
ATOM     46  C   UNL A   1      39.232  32.512  34.304  1.00  0.00     0.049 A 
ATOM     47  H   UNL A   1      39.922  31.312  32.746  1.00  0.00     0.167 HD
ATOM     48  C   UNL A   1      40.999  28.548  29.493  1.00  0.00     0.034 A 
ATOM     49  C   UNL A   1      39.985  32.237  35.388  1.00  0.00     0.034 A 
ATOM     50  C   UNL A   1      41.916  28.256  30.568  1.00  0.00     0.049 A 
ATOM     51  C   UNL A   1      41.061  31.185  35.282  1.00  0.00     0.074 A 
ATOM     52  C   UNL A   1      42.976  27.364  30.579  1.00  0.00     0.029 A 
ATOM     53  N   UNL A   1      41.881  28.843  31.826  1.00  0.00    -0.354 N 
ATOM     54  N   UNL A   1      41.373  30.424  34.258  1.00  0.00    -0.248 NA
ATOM     55  C   UNL A   1      41.891  30.963  36.473  1.00  0.00     0.031 C 
ATOM     56  C   UNL A   1      43.544  27.373  31.858  1.00  0.00     0.029 A 
ATOM     57  C   UNL A   1      42.884  28.321  32.625  1.00  0.00     0.049 A 
ATOM     58  H   UNL A   1      41.236  29.532  32.108  1.00  0.00     0.167 HD
ATOM     59  C   UNL A   1      42.459  29.659  34.673  1.00  0.00     0.074 A 
ATOM     60  C   UNL A   1      42.748  30.051  36.036  1.00  0.00     0.031 C 
ATOM     61  C   UNL A   1      43.160  28.723  33.984  1.00  0.00     0.034 A 
BRANCH  48  62
ATOM     62  C   UNL A   1      41.101  27.761  28.209  1.00  0.00     0.023 A 
ATOM     63  C   UNL A   1      40.615  26.445  28.108  1.00  0.00     0.031 A 
ATOM     64  C   UNL A   1      41.725  28.320  27.079  1.00  0.00     0.131 A 
ATOM     65  C   UNL A   1      40.837  25.705  26.937  1.00  0.00     0.055 A 
ATOM     66  C   UNL A   1      41.866  27.605  25.887  1.00  0.00     0.041 A 
ATOM     67  F   UNL A   1      42.226  29.564  27.120  1.00  0.00    -0.206 F 
ATOM     68  C   UNL A   1      41.436  26.283  25.816  1.00  0.00     0.022 A 
BRANCH  65  69
ATOM     69  S   UNL A   1      40.464  23.930  26.954  1.00  0.00     0.124 S 
ATOM     70  O   UNL A   1      41.400  23.423  25.954  1.00  0.00    -0.237 OA
ATOM     71  O   UNL A   1      40.744  23.562  28.337  1.00  0.00    -0.237 OA
ATOM     72  O   UNL A   1      39.056  23.871  26.565  1.00  0.00    -0.744 OA
ENDBRANCH  65  69
ENDBRANCH  48  62
BRANCH  49  73
ATOM     73  C   UNL A   1      39.742  32.948  36.673  1.00  0.00     0.023 A 
ATOM     74  C   UNL A   1      38.835  32.440  37.616  1.00  0.00     0.031 A 
ATOM     75  C   UNL A   1      40.390  34.160  36.965  1.00  0.00     0.131 A 
ATOM     76  C   UNL A   1      38.569  33.165  38.789  1.00  0.00     0.055 A 
ATOM     77  C   UNL A   1      40.158  34.852  38.155  1.00  0.00     0.041 A 
ATOM     78  F   UNL A   1      41.273  34.684  36.099  1.00  0.00    -0.206 F 
ATOM     79  C   UNL A   1      39.233  34.361  39.070  1.00  0.00     0.022 A 
BRANCH  76  80
ATOM     80  S   UNL A   1      37.281  32.552  39.911  1.00  0.00     0.124 S 
ATOM     81  O   UNL A   1      37.163  33.655  40.859  1.00  0.00    -0.237 OA
ATOM     82  O   UNL A   1      36.154  32.362  39.004  1.00  0.00    -0.237 OA
ATOM     83  O   UNL A   1      37.858  31.323  40.451  1.00  0.00    -0.744 OA
ENDBRANCH  76  80
ENDBRANCH  49  73
BRANCH  61  84
ATOM     84  C   UNL A   1      44.350  28.109  34.678  1.00  0.00     0.023 A 
ATOM     85  C   UNL A   1      44.259  26.889  35.370  1.00  0.00     0.031 A 
ATOM     86  C   UNL A   1      45.595  28.761  34.638  1.00  0.00     0.131 A 
ATOM     87  C   UNL A   1      45.386  26.380  36.031  1.00  0.00     0.055 A 
ATOM     88  C   UNL A   1      46.724  28.224  35.256  1.00  0.00     0.041 A 
ATOM     89  F   UNL A   1      45.734  29.929  33.991  1.00  0.00    -0.206 F 
ATOM     90  C   UNL A   1      46.621  27.031  35.966  1.00  0.00     0.022 A 
BRANCH  87  91
ATOM     91  S   UNL A   1      45.206  24.880  37.036  1.00  0.00     0.124 S 
ATOM     92  O   UNL A   1      44.622  25.406  38.265  1.00  0.00    -0.237 OA
ATOM     93  O   UNL A   1      44.326  24.057  36.214  1.00  0.00    -0.237 OA
ATOM     94  O   UNL A   1      46.576  24.385  37.164  1.00  0.00    -0.744 OA
ENDBRANCH  87  91
ENDBRANCH  61  84
ENDBRANCH  35  36
ENDBRANCH  27  30
ENDBRANCH  25  26
ENDBRANCH  24  25
ENDBRANCH   1  24
TORSDOF 18
ENDMDL
MODEL 3
REMARK VINA RESULT:     -10.9      5.869     10.951
REMARK SMILES CN(C)S(=O)(=O)c1ccc(N(CC(=O)NCCCNC(=O)c2ccc(-c3c4nc(c(-c5cc(S(=O)(=O)[O-])ccc5F)c5ccc([nH]5)c(-c5cc(S(=O)(=O)[O-])ccc5F)c5nc(c(-c6cc(S(=O)(=O)[O-])ccc6F)c6ccc3[nH]6)C=C5)C=C4)cc2)C(C)(C)C)cc1
REMARK SMILES IDX 16 1 15 2 13 3 14 4 12 6 11 7 10 8 7 9 8 10 90 11 9 12 89 13
REMARK SMILES IDX 4 14 5 15 6 16 2 17 1 18 3 19 85 20 86 21 87 22 88 23 17 24
REMARK SMILES IDX 18 25 19 26 20 27 21 29 22 30 23 31 84 32 24 33 83 34 25 35
REMARK SMILES IDX 26 36 27 37 77 38 28 39 82 40 76 41 78 42 29 43 81 44 75 45
REMARK SMILES IDX 74 46 30 48 62 49 42 50 61 51 43 52 46 53 60 54 79 55 44 56
REMARK SMILES IDX 45 57 59 59 80 60 47 61 31 62 32 63 40 64 33 65 39 66 41 67
REMARK SMILES IDX 38 68 34 69 35 70 36 71 37 72 63 73 64 74 72 75 65 76 71 77
REMARK SMILES IDX 73 78 70 79 66 80 67 81 68 82 69 83 48 84 49 85 57 86 50 87
REMARK SMILES IDX 56 88 58 89 55 90 51 91 52 92 53 93 54 94
REMARK H PARENT 15 5 19 28 78 47 46 58
REMARK Flexibility Score: inf
ROOT
ATOM      1  C   UNL A   1      32.418  28.598  27.040  1.00  0.00     0.117 C 
ENDROOT
BRANCH   1   2
ATOM      2  N   UNL A   1      31.482  27.508  27.219  1.00  0.00    -0.354 N 
ATOM      3  C   UNL A   1      30.819  26.783  26.272  1.00  0.00     0.239 C 
ATOM      4  O   UNL A   1      30.185  25.794  26.654  1.00  0.00    -0.273 OA
ATOM      5  H   UNL A   1      31.297  27.256  28.153  1.00  0.00     0.163 HD
BRANCH   3   6
ATOM      6  C   UNL A   1      30.957  27.121  24.781  1.00  0.00     0.217 C 
BRANCH   6   7
ATOM      7  N   UNL A   1      32.279  26.791  24.166  1.00  0.00    -0.357 N 
BRANCH   7   8
ATOM      8  C   UNL A   1      32.867  25.539  24.450  1.00  0.00     0.038 A 
ATOM      9  C   UNL A   1      34.140  23.001  24.936  1.00  0.00     0.082 A 
ATOM     10  C   UNL A   1      34.593  24.144  25.577  1.00  0.00     0.024 A 
ATOM     11  C   UNL A   1      33.055  23.091  24.079  1.00  0.00     0.024 A 
ATOM     12  C   UNL A   1      33.955  25.377  25.341  1.00  0.00     0.027 A 
ATOM     13  C   UNL A   1      32.441  24.336  23.856  1.00  0.00     0.027 A 
BRANCH   9  14
ATOM     14  S   UNL A   1      34.894  21.427  25.233  1.00  0.00     0.242 S 
ATOM     15  O   UNL A   1      34.987  21.230  26.661  1.00  0.00    -0.207 OA
ATOM     16  O   UNL A   1      36.068  21.364  24.383  1.00  0.00    -0.207 OA
BRANCH  14  17
ATOM     17  N   UNL A   1      33.760  20.276  24.646  1.00  0.00    -0.204 NA
ATOM     18  C   UNL A   1      34.340  18.908  24.605  1.00  0.00     0.124 C 
ATOM     19  C   UNL A   1      32.457  20.269  25.354  1.00  0.00     0.124 C 
ENDBRANCH  14  17
ENDBRANCH   9  14
ENDBRANCH   7   8
BRANCH   7  20
ATOM     20  C   UNL A   1      32.829  27.742  23.108  1.00  0.00     0.032 C 
ATOM     21  C   UNL A   1      33.992  28.596  23.658  1.00  0.00     0.034 C 
ATOM     22  C   UNL A   1      33.207  26.969  21.823  1.00  0.00     0.034 C 
ATOM     23  C   UNL A   1      31.797  28.795  22.611  1.00  0.00     0.034 C 
ENDBRANCH   7  20
ENDBRANCH   6   7
ENDBRANCH   3   6
ENDBRANCH   1   2
BRANCH   1  24
ATOM     24  C   UNL A   1      31.737  29.953  26.923  1.00  0.00     0.042 C 
BRANCH  24  25
ATOM     25  C   UNL A   1      32.541  30.981  26.134  1.00  0.00     0.118 C 
BRANCH  25  26
ATOM     26  N   UNL A   1      32.285  32.344  26.581  1.00  0.00    -0.352 N 
ATOM     27  C   UNL A   1      32.931  33.081  27.544  1.00  0.00     0.251 C 
ATOM     28  H   UNL A   1      31.543  32.804  26.126  1.00  0.00     0.163 HD
ATOM     29  O   UNL A   1      32.439  34.137  27.928  1.00  0.00    -0.269 OA
BRANCH  27  30
ATOM     30  C   UNL A   1      34.198  32.587  28.128  1.00  0.00     0.039 A 
ATOM     31  C   UNL A   1      35.370  33.323  27.932  1.00  0.00     0.014 A 
ATOM     32  C   UNL A   1      34.230  31.397  28.859  1.00  0.00     0.014 A 
ATOM     33  C   UNL A   1      36.561  32.903  28.530  1.00  0.00     0.010 A 
ATOM     34  C   UNL A   1      35.403  31.013  29.504  1.00  0.00     0.010 A 
ATOM     35  C   UNL A   1      36.579  31.764  29.351  1.00  0.00    -0.014 A 
BRANCH  35  36
ATOM     36  C   UNL A   1      37.809  31.326  30.061  1.00  0.00     0.031 A 
ATOM     37  C   UNL A   1      38.714  30.306  29.427  1.00  0.00     0.074 A 
ATOM     38  C   UNL A   1      38.055  31.769  31.310  1.00  0.00     0.049 A 
ATOM     39  N   UNL A   1      39.730  29.664  29.941  1.00  0.00    -0.248 NA
ATOM     40  C   UNL A   1      38.408  29.938  28.037  1.00  0.00     0.031 C 
ATOM     41  C   UNL A   1      37.238  32.739  32.041  1.00  0.00     0.029 A 
ATOM     42  N   UNL A   1      39.050  31.440  32.196  1.00  0.00    -0.354 N 
ATOM     43  C   UNL A   1      40.171  28.795  28.949  1.00  0.00     0.074 A 
ATOM     44  C   UNL A   1      39.279  28.964  27.820  1.00  0.00     0.031 C 
ATOM     45  C   UNL A   1      37.766  32.929  33.261  1.00  0.00     0.029 A 
ATOM     46  C   UNL A   1      38.928  32.058  33.418  1.00  0.00     0.049 A 
ATOM     47  H   UNL A   1      39.783  30.819  31.977  1.00  0.00     0.167 HD
ATOM     48  C   UNL A   1      41.228  27.944  28.973  1.00  0.00     0.034 A 
ATOM     49  C   UNL A   1      39.651  31.922  34.547  1.00  0.00     0.034 A 
ATOM     50  C   UNL A   1      42.116  27.804  30.101  1.00  0.00     0.049 A 
ATOM     51  C   UNL A   1      40.813  30.962  34.559  1.00  0.00     0.074 A 
ATOM     52  C   UNL A   1      43.244  27.009  30.217  1.00  0.00     0.029 A 
ATOM     53  N   UNL A   1      41.977  28.470  31.312  1.00  0.00    -0.354 N 
ATOM     54  N   UNL A   1      41.232  30.163  33.604  1.00  0.00    -0.248 NA
ATOM     55  C   UNL A   1      41.605  30.891  35.794  1.00  0.00     0.031 C 
ATOM     56  C   UNL A   1      43.753  27.153  31.513  1.00  0.00     0.029 A 
ATOM     57  C   UNL A   1      42.983  28.090  32.185  1.00  0.00     0.049 A 
ATOM     58  H   UNL A   1      41.265  29.118  31.519  1.00  0.00     0.167 HD
ATOM     59  C   UNL A   1      42.358  29.522  34.114  1.00  0.00     0.074 A 
ATOM     60  C   UNL A   1      42.552  30.029  35.457  1.00  0.00     0.031 C 
ATOM     61  C   UNL A   1      43.164  28.605  33.521  1.00  0.00     0.034 A 
BRANCH  48  62
ATOM     62  C   UNL A   1      41.452  27.084  27.753  1.00  0.00     0.023 A 
ATOM     63  C   UNL A   1      41.040  25.740  27.711  1.00  0.00     0.031 A 
ATOM     64  C   UNL A   1      42.118  27.603  26.629  1.00  0.00     0.131 A 
ATOM     65  C   UNL A   1      41.373  24.940  26.608  1.00  0.00     0.055 A 
ATOM     66  C   UNL A   1      42.371  26.823  25.498  1.00  0.00     0.041 A 
ATOM     67  F   UNL A   1      42.552  28.873  26.617  1.00  0.00    -0.206 F 
ATOM     68  C   UNL A   1      42.014  25.478  25.490  1.00  0.00     0.022 A 
BRANCH  65  69
ATOM     69  S   UNL A   1      41.091  23.152  26.721  1.00  0.00     0.124 S 
ATOM     70  O   UNL A   1      41.561  22.864  28.073  1.00  0.00    -0.237 OA
ATOM     71  O   UNL A   1      39.652  23.045  26.508  1.00  0.00    -0.237 OA
ATOM     72  O   UNL A   1      41.922  22.605  25.650  1.00  0.00    -0.744 OA
ENDBRANCH  65  69
ENDBRANCH  48  62
BRANCH  49  73
ATOM     73  C   UNL A   1      39.293  32.695  35.769  1.00  0.00     0.023 A 
ATOM     74  C   UNL A   1      39.735  34.015  35.941  1.00  0.00     0.031 A 
ATOM     75  C   UNL A   1      38.527  32.115  36.795  1.00  0.00     0.131 A 
ATOM     76  C   UNL A   1      39.445  34.700  37.132  1.00  0.00     0.055 A 
ATOM     77  C   UNL A   1      38.199  32.817  37.957  1.00  0.00     0.041 A 
ATOM     78  F   UNL A   1      38.071  30.857  36.675  1.00  0.00    -0.206 F 
ATOM     79  C   UNL A   1      38.670  34.114  38.135  1.00  0.00     0.022 A 
BRANCH  76  80
ATOM     80  S   UNL A   1      40.161  36.348  37.380  1.00  0.00     0.124 S 
ATOM     81  O   UNL A   1      40.040  36.929  36.048  1.00  0.00    -0.237 OA
ATOM     82  O   UNL A   1      39.287  36.907  38.406  1.00  0.00    -0.237 OA
ATOM     83  O   UNL A   1      41.527  36.062  37.815  1.00  0.00    -0.744 OA
ENDBRANCH  76  80
ENDBRANCH  49  73
BRANCH  61  84
ATOM     84  C   UNL A   1      44.368  28.143  34.303  1.00  0.00     0.023 A 
ATOM     85  C   UNL A   1      44.326  27.010  35.134  1.00  0.00     0.031 A 
ATOM     86  C   UNL A   1      45.578  28.853  34.206  1.00  0.00     0.131 A 
ATOM     87  C   UNL A   1      45.462  26.644  35.869  1.00  0.00     0.055 A 
ATOM     88  C   UNL A   1      46.720  28.454  34.902  1.00  0.00     0.041 A 
ATOM     89  F   UNL A   1      45.671  29.941  33.427  1.00  0.00    -0.206 F 
ATOM     90  C   UNL A   1      46.663  27.350  35.748  1.00  0.00     0.022 A 
BRANCH  87  91
ATOM     91  S   UNL A   1      45.337  25.266  37.043  1.00  0.00     0.124 S 
ATOM     92  O   UNL A   1      46.428  24.400  36.611  1.00  0.00    -0.237 OA
ATOM     93  O   UNL A   1      45.522  25.932  38.328  1.00  0.00    -0.237 OA
ATOM     94  O   UNL A   1      43.995  24.736  36.808  1.00  0.00    -0.744 OA
ENDBRANCH  87  91
ENDBRANCH  61  84
ENDBRANCH  35  36
ENDBRANCH  27  30
ENDBRANCH  25  26
ENDBRANCH  24  25
ENDBRANCH   1  24
TORSDOF 18
ENDMDL
