MODEL 1
REMARK VINA RESULT:     -11.6      0.000      0.000
REMARK SMILES O=C(NCCCNC(=O)c1cc(SCCn2cccn2)cs1)c1ccc(-c2c3nc(c(-c4cc(S(=O)(=O)[O-])ccc4F)c4ccc([nH]4)c(-c4cc(S(=O)(=O)[O-])ccc4F)c4nc(c(-c5cc(S(=O)(=O)[O-])ccc5F)c5ccc2[nH]5)C=C4)C=C3)cc1
REMARK SMILES IDX 5 1 4 2 3 3 1 4 2 5 23 7 24 8 85 9 25 10 84 11 26 12 27 13
REMARK SMILES IDX 28 14 78 15 29 16 83 17 77 18 79 19 30 20 82 21 76 22 75 23
REMARK SMILES IDX 31 25 63 26 43 27 62 28 44 29 47 30 61 31 80 32 45 33 46 34
REMARK SMILES IDX 60 36 81 37 48 38 32 39 33 40 41 41 34 42 40 43 42 44 39 45
REMARK SMILES IDX 35 46 36 47 37 48 38 49 64 50 65 51 73 52 66 53 72 54 74 55
REMARK SMILES IDX 71 56 67 57 68 58 69 59 70 60 49 61 50 62 58 63 51 64 57 65
REMARK SMILES IDX 59 66 56 67 52 68 53 69 54 70 55 71 6 72 7 73 8 74 9 76
REMARK SMILES IDX 10 77 11 78 22 79 12 80 21 81 13 82 14 83 15 84 16 85 17 86
REMARK SMILES IDX 20 87 18 88 19 89
REMARK H PARENT 3 6 79 24 47 35 7 75
REMARK Flexibility Score: inf
ROOT
ATOM      1  C   UNL A   1      32.535  30.455  26.459  1.00  0.00     0.042 C 
ENDROOT
BRANCH   1   2
ATOM      2  C   UNL A   1      33.695  29.868  27.262  1.00  0.00     0.118 C 
BRANCH   2   3
ATOM      3  N   UNL A   1      34.313  30.802  28.187  1.00  0.00    -0.352 N 
ATOM      4  O   UNL A   1      35.580  32.573  27.655  1.00  0.00    -0.269 OA
ATOM      5  C   UNL A   1      35.545  31.387  27.975  1.00  0.00     0.251 C 
ATOM      6  H   UNL A   1      33.827  31.030  29.012  1.00  0.00     0.163 HD
BRANCH   5   7
ATOM      7  C   UNL A   1      36.794  30.672  28.373  1.00  0.00     0.039 A 
ATOM      8  C   UNL A   1      37.919  31.286  28.931  1.00  0.00     0.014 A 
ATOM      9  C   UNL A   1      36.848  29.299  28.067  1.00  0.00     0.014 A 
ATOM     10  C   UNL A   1      39.092  30.541  29.129  1.00  0.00     0.010 A 
ATOM     11  C   UNL A   1      38.022  28.568  28.237  1.00  0.00     0.010 A 
ATOM     12  C   UNL A   1      39.161  29.192  28.744  1.00  0.00    -0.014 A 
BRANCH  12  13
ATOM     13  C   UNL A   1      40.350  28.388  29.076  1.00  0.00     0.031 A 
ATOM     14  C   UNL A   1      40.657  28.360  30.535  1.00  0.00     0.074 A 
ATOM     15  C   UNL A   1      41.011  27.569  28.221  1.00  0.00     0.049 A 
ATOM     16  N   UNL A   1      41.689  28.847  31.144  1.00  0.00    -0.248 NA
ATOM     17  C   UNL A   1      39.613  27.868  31.450  1.00  0.00     0.031 C 
ATOM     18  C   UNL A   1      40.661  27.276  26.829  1.00  0.00     0.029 A 
ATOM     19  N   UNL A   1      42.085  26.741  28.437  1.00  0.00    -0.354 N 
ATOM     20  C   UNL A   1      41.545  28.491  32.483  1.00  0.00     0.074 A 
ATOM     21  C   UNL A   1      40.169  28.107  32.637  1.00  0.00     0.031 C 
ATOM     22  C   UNL A   1      41.356  26.195  26.404  1.00  0.00     0.029 A 
ATOM     23  C   UNL A   1      42.285  25.774  27.444  1.00  0.00     0.049 A 
ATOM     24  H   UNL A   1      42.667  26.821  29.226  1.00  0.00     0.167 HD
ATOM     25  C   UNL A   1      42.632  28.274  33.277  1.00  0.00     0.034 A 
ATOM     26  C   UNL A   1      43.108  24.681  27.475  1.00  0.00     0.034 A 
ATOM     27  C   UNL A   1      43.819  28.874  32.699  1.00  0.00     0.049 A 
ATOM     28  C   UNL A   1      44.144  24.950  28.500  1.00  0.00     0.074 A 
ATOM     29  C   UNL A   1      44.160  30.148  32.280  1.00  0.00     0.029 A 
ATOM     30  N   UNL A   1      44.767  28.048  32.135  1.00  0.00    -0.354 N 
ATOM     31  N   UNL A   1      45.050  25.877  28.374  1.00  0.00    -0.248 NA
ATOM     32  C   UNL A   1      43.881  24.518  29.864  1.00  0.00     0.031 C 
ATOM     33  C   UNL A   1      44.937  29.952  31.100  1.00  0.00     0.029 A 
ATOM     34  C   UNL A   1      45.102  28.579  30.918  1.00  0.00     0.049 A 
ATOM     35  H   UNL A   1      45.135  27.226  32.533  1.00  0.00     0.167 HD
ATOM     36  C   UNL A   1      45.132  26.462  29.627  1.00  0.00     0.074 A 
ATOM     37  C   UNL A   1      44.461  25.522  30.527  1.00  0.00     0.031 C 
ATOM     38  C   UNL A   1      45.478  27.775  29.772  1.00  0.00     0.034 A 
BRANCH  25  39
ATOM     39  C   UNL A   1      42.726  27.159  34.313  1.00  0.00     0.023 A 
ATOM     40  C   UNL A   1      43.570  26.080  33.987  1.00  0.00     0.031 A 
ATOM     41  C   UNL A   1      41.822  26.917  35.372  1.00  0.00     0.131 A 
ATOM     42  C   UNL A   1      43.348  24.801  34.521  1.00  0.00     0.055 A 
ATOM     43  C   UNL A   1      41.660  25.658  35.960  1.00  0.00     0.041 A 
ATOM     44  F   UNL A   1      40.996  27.846  35.858  1.00  0.00    -0.206 F 
ATOM     45  C   UNL A   1      42.386  24.576  35.498  1.00  0.00     0.022 A 
BRANCH  42  46
ATOM     46  S   UNL A   1      44.171  23.400  33.723  1.00  0.00     0.124 S 
ATOM     47  O   UNL A   1      45.404  24.035  33.258  1.00  0.00    -0.237 OA
ATOM     48  O   UNL A   1      44.314  22.466  34.840  1.00  0.00    -0.237 OA
ATOM     49  O   UNL A   1      43.236  23.000  32.687  1.00  0.00    -0.744 OA
ENDBRANCH  42  46
ENDBRANCH  25  39
BRANCH  26  50
ATOM     50  C   UNL A   1      42.872  23.313  26.902  1.00  0.00     0.023 A 
ATOM     51  C   UNL A   1      43.836  22.585  26.155  1.00  0.00     0.031 A 
ATOM     52  C   UNL A   1      41.734  22.588  27.316  1.00  0.00     0.131 A 
ATOM     53  C   UNL A   1      43.630  21.209  25.859  1.00  0.00     0.055 A 
ATOM     54  C   UNL A   1      41.538  21.235  27.023  1.00  0.00     0.041 A 
ATOM     55  F   UNL A   1      40.802  23.146  28.105  1.00  0.00    -0.206 F 
ATOM     56  C   UNL A   1      42.489  20.537  26.301  1.00  0.00     0.022 A 
BRANCH  53  57
ATOM     57  S   UNL A   1      44.883  20.224  24.959  1.00  0.00     0.124 S 
ATOM     58  O   UNL A   1      44.629  18.874  25.447  1.00  0.00    -0.237 OA
ATOM     59  O   UNL A   1      44.553  20.486  23.564  1.00  0.00    -0.237 OA
ATOM     60  O   UNL A   1      46.155  20.801  25.400  1.00  0.00    -0.744 OA
ENDBRANCH  53  57
ENDBRANCH  26  50
BRANCH  38  61
ATOM     61  C   UNL A   1      46.107  28.497  28.600  1.00  0.00     0.023 A 
ATOM     62  C   UNL A   1      47.482  28.482  28.274  1.00  0.00     0.031 A 
ATOM     63  C   UNL A   1      45.233  29.148  27.712  1.00  0.00     0.131 A 
ATOM     64  C   UNL A   1      47.934  29.119  27.101  1.00  0.00     0.055 A 
ATOM     65  C   UNL A   1      45.680  29.758  26.543  1.00  0.00     0.041 A 
ATOM     66  F   UNL A   1      43.911  29.178  27.954  1.00  0.00    -0.206 F 
ATOM     67  C   UNL A   1      47.034  29.751  26.235  1.00  0.00     0.022 A 
BRANCH  64  68
ATOM     68  S   UNL A   1      49.709  29.164  26.688  1.00  0.00     0.124 S 
ATOM     69  O   UNL A   1      50.021  30.587  26.659  1.00  0.00    -0.237 OA
ATOM     70  O   UNL A   1      50.311  28.402  27.780  1.00  0.00    -0.237 OA
ATOM     71  O   UNL A   1      49.771  28.501  25.383  1.00  0.00    -0.744 OA
ENDBRANCH  64  68
ENDBRANCH  38  61
ENDBRANCH  12  13
ENDBRANCH   5   7
ENDBRANCH   2   3
ENDBRANCH   1   2
BRANCH   1  72
ATOM     72  C   UNL A   1      31.758  29.541  25.508  1.00  0.00     0.118 C 
BRANCH  72  73
ATOM     73  N   UNL A   1      30.905  30.101  24.490  1.00  0.00    -0.351 N 
ATOM     74  C   UNL A   1      30.299  29.349  23.483  1.00  0.00     0.261 C 
ATOM     75  H   UNL A   1      30.742  31.072  24.505  1.00  0.00     0.163 HD
ATOM     76  O   UNL A   1      29.495  29.917  22.747  1.00  0.00    -0.268 OA
BRANCH  74  77
ATOM     77  C   UNL A   1      30.674  27.944  23.321  1.00  0.00     0.093 A 
ATOM     78  C   UNL A   1      31.807  27.353  22.768  1.00  0.00     0.040 A 
ATOM     79  S   UNL A   1      29.612  26.762  23.971  1.00  0.00    -0.137 S 
ATOM     80  C   UNL A   1      31.769  25.919  22.834  1.00  0.00     0.019 A 
ATOM     81  C   UNL A   1      30.625  25.482  23.469  1.00  0.00     0.080 A 
BRANCH  80  82
ATOM     82  S   UNL A   1      33.011  24.755  22.343  1.00  0.00    -0.123 SA
BRANCH  82  83
ATOM     83  C   UNL A   1      33.231  23.534  23.684  1.00  0.00     0.098 C 
BRANCH  83  84
ATOM     84  C   UNL A   1      34.497  23.657  24.550  1.00  0.00     0.155 C 
BRANCH  84  85
ATOM     85  N   UNL A   1      35.345  22.499  24.362  1.00  0.00    -0.272 N 
ATOM     86  C   UNL A   1      35.106  21.242  24.849  1.00  0.00     0.108 A 
ATOM     87  N   UNL A   1      36.627  22.702  24.030  1.00  0.00    -0.182 NA
ATOM     88  C   UNL A   1      36.347  20.688  25.054  1.00  0.00     0.042 A 
ATOM     89  C   UNL A   1      37.232  21.607  24.472  1.00  0.00     0.135 A 
ENDBRANCH  84  85
ENDBRANCH  83  84
ENDBRANCH  82  83
ENDBRANCH  80  82
ENDBRANCH  74  77
ENDBRANCH  72  73
ENDBRANCH   1  72
TORSDOF 17
ENDMDL
MODEL 2
REMARK VINA RESULT:     -11.6      4.580     10.364
REMARK SMILES O=C(NCCCNC(=O)c1cc(SCCn2cccn2)cs1)c1ccc(-c2c3nc(c(-c4cc(S(=O)(=O)[O-])ccc4F)c4ccc([nH]4)c(-c4cc(S(=O)(=O)[O-])ccc4F)c4nc(c(-c5cc(S(=O)(=O)[O-])ccc5F)c5ccc2[nH]5)C=C4)C=C3)cc1
REMARK SMILES IDX 5 1 4 2 3 3 1 4 2 5 23 7 24 8 85 9 25 10 84 11 26 12 27 13
REMARK SMILES IDX 28 14 78 15 29 16 83 17 77 18 79 19 30 20 82 21 76 22 75 23
REMARK SMILES IDX 31 25 63 26 43 27 62 28 44 29 47 30 61 31 80 32 45 33 46 34
REMARK SMILES IDX 60 36 81 37 48 38 32 39 33 40 41 41 34 42 40 43 42 44 39 45
REMARK SMILES IDX 35 46 36 47 37 48 38 49 64 50 65 51 73 52 66 53 72 54 74 55
REMARK SMILES IDX 71 56 67 57 68 58 69 59 70 60 49 61 50 62 58 63 51 64 57 65
REMARK SMILES IDX 59 66 56 67 52 68 53 69 54 70 55 71 6 72 7 73 8 74 9 76
REMARK SMILES IDX 10 77 11 78 22 79 12 80 21 81 13 82 14 83 15 84 16 85 17 86
REMARK SMILES IDX 20 87 18 88 19 89
REMARK H PARENT 3 6 79 24 47 35 7 75
REMARK Flexibility Score: inf
ROOT
ATOM      1  C   UNL A   1      36.916  23.356  24.548  1.00  0.00     0.042 C 
ENDROOT
BRANCH   1   2
ATOM      2  C   UNL A   1      37.571  22.763  25.795  1.00  0.00     0.118 C 
BRANCH   2   3
ATOM      3  N   UNL A   1      39.021  22.855  25.808  1.00  0.00    -0.352 N 
ATOM      4  O   UNL A   1      40.395  22.137  27.426  1.00  0.00    -0.269 OA
ATOM      5  C   UNL A   1      39.764  23.078  26.949  1.00  0.00     0.251 C 
ATOM      6  H   UNL A   1      39.500  22.755  24.954  1.00  0.00     0.163 HD
BRANCH   5   7
ATOM      7  C   UNL A   1      39.997  24.470  27.434  1.00  0.00     0.039 A 
ATOM      8  C   UNL A   1      41.089  24.871  28.208  1.00  0.00     0.014 A 
ATOM      9  C   UNL A   1      38.982  25.404  27.153  1.00  0.00     0.014 A 
ATOM     10  C   UNL A   1      41.131  26.172  28.732  1.00  0.00     0.010 A 
ATOM     11  C   UNL A   1      39.010  26.686  27.697  1.00  0.00     0.010 A 
ATOM     12  C   UNL A   1      40.072  27.070  28.515  1.00  0.00    -0.014 A 
BRANCH  12  13
ATOM     13  C   UNL A   1      40.186  28.471  28.958  1.00  0.00     0.031 A 
ATOM     14  C   UNL A   1      41.398  29.161  28.429  1.00  0.00     0.074 A 
ATOM     15  C   UNL A   1      39.223  29.173  29.602  1.00  0.00     0.049 A 
ATOM     16  N   UNL A   1      42.414  29.610  29.091  1.00  0.00    -0.248 NA
ATOM     17  C   UNL A   1      41.575  29.222  26.968  1.00  0.00     0.031 C 
ATOM     18  C   UNL A   1      37.873  28.718  29.942  1.00  0.00     0.029 A 
ATOM     19  N   UNL A   1      39.203  30.485  30.007  1.00  0.00    -0.354 N 
ATOM     20  C   UNL A   1      43.232  30.239  28.154  1.00  0.00     0.074 A 
ATOM     21  C   UNL A   1      42.786  29.770  26.872  1.00  0.00     0.031 C 
ATOM     22  C   UNL A   1      37.110  29.779  30.293  1.00  0.00     0.029 A 
ATOM     23  C   UNL A   1      37.930  30.982  30.313  1.00  0.00     0.049 A 
ATOM     24  H   UNL A   1      40.018  31.032  30.077  1.00  0.00     0.167 HD
ATOM     25  C   UNL A   1      44.013  31.301  28.500  1.00  0.00     0.034 A 
ATOM     26  C   UNL A   1      37.552  32.281  30.522  1.00  0.00     0.034 A 
ATOM     27  C   UNL A   1      44.199  31.357  29.937  1.00  0.00     0.049 A 
ATOM     28  C   UNL A   1      38.774  33.033  30.890  1.00  0.00     0.074 A 
ATOM     29  C   UNL A   1      44.671  30.476  30.892  1.00  0.00     0.029 A 
ATOM     30  N   UNL A   1      43.534  32.332  30.649  1.00  0.00    -0.354 N 
ATOM     31  N   UNL A   1      39.427  32.836  31.999  1.00  0.00    -0.248 NA
ATOM     32  C   UNL A   1      39.538  33.657  29.821  1.00  0.00     0.031 C 
ATOM     33  C   UNL A   1      43.831  30.678  32.027  1.00  0.00     0.029 A 
ATOM     34  C   UNL A   1      42.960  31.727  31.736  1.00  0.00     0.049 A 
ATOM     35  H   UNL A   1      43.480  33.288  30.419  1.00  0.00     0.167 HD
ATOM     36  C   UNL A   1      40.763  32.873  31.633  1.00  0.00     0.074 A 
ATOM     37  C   UNL A   1      40.772  33.477  30.300  1.00  0.00     0.031 C 
ATOM     38  C   UNL A   1      41.703  32.155  32.316  1.00  0.00     0.034 A 
BRANCH  25  39
ATOM     39  C   UNL A   1      44.227  32.528  27.619  1.00  0.00     0.023 A 
ATOM     40  C   UNL A   1      43.746  33.749  28.130  1.00  0.00     0.031 A 
ATOM     41  C   UNL A   1      44.525  32.530  26.237  1.00  0.00     0.131 A 
ATOM     42  C   UNL A   1      43.372  34.795  27.272  1.00  0.00     0.055 A 
ATOM     43  C   UNL A   1      44.225  33.607  25.397  1.00  0.00     0.041 A 
ATOM     44  F   UNL A   1      45.052  31.482  25.600  1.00  0.00    -0.206 F 
ATOM     45  C   UNL A   1      43.593  34.729  25.902  1.00  0.00     0.022 A 
BRANCH  42  46
ATOM     46  S   UNL A   1      42.358  36.128  27.960  1.00  0.00     0.124 S 
ATOM     47  O   UNL A   1      42.924  37.286  27.268  1.00  0.00    -0.237 OA
ATOM     48  O   UNL A   1      41.016  35.726  27.540  1.00  0.00    -0.237 OA
ATOM     49  O   UNL A   1      42.618  36.054  29.386  1.00  0.00    -0.744 OA
ENDBRANCH  42  46
ENDBRANCH  25  39
BRANCH  26  50
ATOM     50  C   UNL A   1      36.272  32.960  30.125  1.00  0.00     0.023 A 
ATOM     51  C   UNL A   1      35.491  33.762  30.999  1.00  0.00     0.031 A 
ATOM     52  C   UNL A   1      35.932  33.025  28.756  1.00  0.00     0.131 A 
ATOM     53  C   UNL A   1      34.434  34.565  30.489  1.00  0.00     0.055 A 
ATOM     54  C   UNL A   1      34.893  33.818  28.262  1.00  0.00     0.041 A 
ATOM     55  F   UNL A   1      36.658  32.384  27.827  1.00  0.00    -0.206 F 
ATOM     56  C   UNL A   1      34.144  34.599  29.124  1.00  0.00     0.022 A 
BRANCH  53  57
ATOM     57  S   UNL A   1      33.453  35.662  31.578  1.00  0.00     0.124 S 
ATOM     58  O   UNL A   1      32.763  36.517  30.620  1.00  0.00    -0.237 OA
ATOM     59  O   UNL A   1      32.628  34.718  32.322  1.00  0.00    -0.237 OA
ATOM     60  O   UNL A   1      34.469  36.345  32.382  1.00  0.00    -0.744 OA
ENDBRANCH  53  57
ENDBRANCH  26  50
BRANCH  38  61
ATOM     61  C   UNL A   1      41.346  31.595  33.677  1.00  0.00     0.023 A 
ATOM     62  C   UNL A   1      41.474  32.286  34.903  1.00  0.00     0.031 A 
ATOM     63  C   UNL A   1      40.746  30.324  33.703  1.00  0.00     0.131 A 
ATOM     64  C   UNL A   1      41.021  31.690  36.097  1.00  0.00     0.055 A 
ATOM     65  C   UNL A   1      40.278  29.748  34.881  1.00  0.00     0.041 A 
ATOM     66  F   UNL A   1      40.574  29.627  32.567  1.00  0.00    -0.206 F 
ATOM     67  C   UNL A   1      40.420  30.427  36.084  1.00  0.00     0.022 A 
BRANCH  64  68
ATOM     68  S   UNL A   1      41.227  32.536  37.699  1.00  0.00     0.124 S 
ATOM     69  O   UNL A   1      42.139  31.667  38.432  1.00  0.00    -0.237 OA
ATOM     70  O   UNL A   1      41.763  33.837  37.308  1.00  0.00    -0.237 OA
ATOM     71  O   UNL A   1      39.866  32.580  38.237  1.00  0.00    -0.744 OA
ENDBRANCH  64  68
ENDBRANCH  38  61
ENDBRANCH  12  13
ENDBRANCH   5   7
ENDBRANCH   2   3
ENDBRANCH   1   2
BRANCH   1  72
ATOM     72  C   UNL A   1      35.452  23.798  24.622  1.00  0.00     0.118 C 
BRANCH  72  73
ATOM     73  N   UNL A   1      34.635  23.433  25.752  1.00  0.00    -0.351 N 
ATOM     74  C   UNL A   1      33.409  24.029  26.050  1.00  0.00     0.261 C 
ATOM     75  H   UNL A   1      34.962  22.722  26.351  1.00  0.00     0.163 HD
ATOM     76  O   UNL A   1      32.745  23.550  26.967  1.00  0.00    -0.268 OA
BRANCH  74  77
ATOM     77  C   UNL A   1      32.991  25.211  25.296  1.00  0.00     0.093 A 
ATOM     78  C   UNL A   1      32.061  25.365  24.271  1.00  0.00     0.040 A 
ATOM     79  S   UNL A   1      33.671  26.720  25.749  1.00  0.00    -0.137 S 
ATOM     80  C   UNL A   1      31.952  26.727  23.825  1.00  0.00     0.019 A 
ATOM     81  C   UNL A   1      32.778  27.555  24.557  1.00  0.00     0.080 A 
BRANCH  80  82
ATOM     82  S   UNL A   1      30.851  27.412  22.620  1.00  0.00    -0.123 SA
BRANCH  82  83
ATOM     83  C   UNL A   1      29.556  28.367  23.486  1.00  0.00     0.098 C 
BRANCH  83  84
ATOM     84  C   UNL A   1      28.180  28.467  22.806  1.00  0.00     0.155 C 
BRANCH  84  85
ATOM     85  N   UNL A   1      27.863  29.850  22.522  1.00  0.00    -0.272 N 
ATOM     86  C   UNL A   1      28.402  30.607  21.517  1.00  0.00     0.108 A 
ATOM     87  N   UNL A   1      27.308  30.584  23.496  1.00  0.00    -0.182 NA
ATOM     88  C   UNL A   1      28.395  31.899  21.988  1.00  0.00     0.042 A 
ATOM     89  C   UNL A   1      27.653  31.825  23.176  1.00  0.00     0.135 A 
ENDBRANCH  84  85
ENDBRANCH  83  84
ENDBRANCH  82  83
ENDBRANCH  80  82
ENDBRANCH  74  77
ENDBRANCH  72  73
ENDBRANCH   1  72
TORSDOF 17
ENDMDL
MODEL 3
REMARK VINA RESULT:     -11.6      2.763      7.169
REMARK SMILES O=C(NCCCNC(=O)c1cc(SCCn2cccn2)cs1)c1ccc(-c2c3nc(c(-c4cc(S(=O)(=O)[O-])ccc4F)c4ccc([nH]4)c(-c4cc(S(=O)(=O)[O-])ccc4F)c4nc(c(-c5cc(S(=O)(=O)[O-])ccc5F)c5ccc2[nH]5)C=C4)C=C3)cc1
REMARK SMILES IDX 5 1 4 2 3 3 1 4 2 5 23 7 24 8 85 9 25 10 84 11 26 12 27 13
REMARK SMILES IDX 28 14 78 15 29 16 83 17 77 18 79 19 30 20 82 21 76 22 75 23
REMARK SMILES IDX 31 25 63 26 43 27 62 28 44 29 47 30 61 31 80 32 45 33 46 34
REMARK SMILES IDX 60 36 81 37 48 38 32 39 33 40 41 41 34 42 40 43 42 44 39 45
REMARK SMILES IDX 35 46 36 47 37 48 38 49 64 50 65 51 73 52 66 53 72 54 74 55
REMARK SMILES IDX 71 56 67 57 68 58 69 59 70 60 49 61 50 62 58 63 51 64 57 65
REMARK SMILES IDX 59 66 56 67 52 68 53 69 54 70 55 71 6 72 7 73 8 74 9 76
REMARK SMILES IDX 10 77 11 78 22 79 12 80 21 81 13 82 14 83 15 84 16 85 17 86
REMARK SMILES IDX 20 87 18 88 19 89
REMARK H PARENT 3 6 79 24 47 35 7 75
REMARK Flexibility Score: inf
ROOT
ATOM      1  C   UNL A   1      33.639  28.711  26.417  1.00  0.00     0.042 C 
ENDROOT
BRANCH   1   2
ATOM      2  C   UNL A   1      34.737  29.600  27.000  1.00  0.00     0.118 C 
BRANCH   2   3
ATOM      3  N   UNL A   1      35.167  29.221  28.335  1.00  0.00    -0.352 N 
ATOM      4  O   UNL A   1      35.886  30.597  29.952  1.00  0.00    -0.269 OA
ATOM      5  C   UNL A   1      36.184  29.853  29.020  1.00  0.00     0.251 C 
ATOM      6  H   UNL A   1      34.707  28.471  28.775  1.00  0.00     0.163 HD
BRANCH   5   7
ATOM      7  C   UNL A   1      37.603  29.444  28.801  1.00  0.00     0.039 A 
ATOM      8  C   UNL A   1      38.340  29.709  27.643  1.00  0.00     0.014 A 
ATOM      9  C   UNL A   1      38.185  28.658  29.814  1.00  0.00     0.014 A 
ATOM     10  C   UNL A   1      39.617  29.149  27.487  1.00  0.00     0.010 A 
ATOM     11  C   UNL A   1      39.442  28.080  29.645  1.00  0.00     0.010 A 
ATOM     12  C   UNL A   1      40.155  28.299  28.467  1.00  0.00    -0.014 A 
BRANCH  12  13
ATOM     13  C   UNL A   1      41.545  27.824  28.353  1.00  0.00     0.031 A 
ATOM     14  C   UNL A   1      41.666  26.516  27.646  1.00  0.00     0.074 A 
ATOM     15  C   UNL A   1      42.651  28.547  28.652  1.00  0.00     0.049 A 
ATOM     16  N   UNL A   1      42.065  25.383  28.124  1.00  0.00    -0.248 NA
ATOM     17  C   UNL A   1      41.132  26.421  26.276  1.00  0.00     0.031 C 
ATOM     18  C   UNL A   1      42.703  29.944  29.092  1.00  0.00     0.029 A 
ATOM     19  N   UNL A   1      43.981  28.225  28.532  1.00  0.00    -0.354 N 
ATOM     20  C   UNL A   1      42.077  24.498  27.049  1.00  0.00     0.074 A 
ATOM     21  C   UNL A   1      41.288  25.122  26.023  1.00  0.00     0.031 C 
ATOM     22  C   UNL A   1      43.971  30.405  28.990  1.00  0.00     0.029 A 
ATOM     23  C   UNL A   1      44.853  29.321  28.584  1.00  0.00     0.049 A 
ATOM     24  H   UNL A   1      44.295  27.301  28.419  1.00  0.00     0.167 HD
ATOM     25  C   UNL A   1      42.963  23.463  26.995  1.00  0.00     0.034 A 
ATOM     26  C   UNL A   1      46.186  29.361  28.275  1.00  0.00     0.034 A 
ATOM     27  C   UNL A   1      43.504  23.181  28.311  1.00  0.00     0.049 A 
ATOM     28  C   UNL A   1      46.695  27.973  28.374  1.00  0.00     0.074 A 
ATOM     29  C   UNL A   1      42.956  22.877  29.543  1.00  0.00     0.029 A 
ATOM     30  N   UNL A   1      44.806  23.547  28.579  1.00  0.00    -0.354 N 
ATOM     31  N   UNL A   1      46.772  27.319  29.498  1.00  0.00    -0.248 NA
ATOM     32  C   UNL A   1      46.665  27.149  27.176  1.00  0.00     0.031 C 
ATOM     33  C   UNL A   1      43.767  23.572  30.489  1.00  0.00     0.029 A 
ATOM     34  C   UNL A   1      44.811  24.181  29.793  1.00  0.00     0.049 A 
ATOM     35  H   UNL A   1      45.588  23.383  28.004  1.00  0.00     0.167 HD
ATOM     36  C   UNL A   1      46.340  26.039  29.191  1.00  0.00     0.074 A 
ATOM     37  C   UNL A   1      46.380  25.967  27.730  1.00  0.00     0.031 C 
ATOM     38  C   UNL A   1      45.720  25.259  30.126  1.00  0.00     0.034 A 
BRANCH  25  39
ATOM     39  C   UNL A   1      43.679  23.016  25.725  1.00  0.00     0.023 A 
ATOM     40  C   UNL A   1      43.732  21.627  25.499  1.00  0.00     0.031 A 
ATOM     41  C   UNL A   1      44.577  23.786  24.951  1.00  0.00     0.131 A 
ATOM     42  C   UNL A   1      44.766  21.056  24.742  1.00  0.00     0.055 A 
ATOM     43  C   UNL A   1      45.556  23.214  24.131  1.00  0.00     0.041 A 
ATOM     44  F   UNL A   1      44.617  25.120  24.985  1.00  0.00    -0.206 F 
ATOM     45  C   UNL A   1      45.693  21.840  24.065  1.00  0.00     0.022 A 
BRANCH  42  46
ATOM     46  S   UNL A   1      45.021  19.269  24.874  1.00  0.00     0.124 S 
ATOM     47  O   UNL A   1      45.099  18.899  23.460  1.00  0.00    -0.237 OA
ATOM     48  O   UNL A   1      46.276  19.203  25.622  1.00  0.00    -0.237 OA
ATOM     49  O   UNL A   1      43.842  18.807  25.584  1.00  0.00    -0.744 OA
ENDBRANCH  42  46
ENDBRANCH  25  39
BRANCH  26  50
ATOM     50  C   UNL A   1      46.960  30.461  27.607  1.00  0.00     0.023 A 
ATOM     51  C   UNL A   1      46.370  31.631  27.057  1.00  0.00     0.031 A 
ATOM     52  C   UNL A   1      48.366  30.479  27.733  1.00  0.00     0.131 A 
ATOM     53  C   UNL A   1      47.181  32.731  26.666  1.00  0.00     0.055 A 
ATOM     54  C   UNL A   1      49.157  31.565  27.349  1.00  0.00     0.041 A 
ATOM     55  F   UNL A   1      49.024  29.469  28.324  1.00  0.00    -0.206 F 
ATOM     56  C   UNL A   1      48.568  32.700  26.821  1.00  0.00     0.022 A 
BRANCH  53  57
ATOM     57  S   UNL A   1      46.448  34.280  26.019  1.00  0.00     0.124 S 
ATOM     58  O   UNL A   1      47.588  34.919  25.374  1.00  0.00    -0.237 OA
ATOM     59  O   UNL A   1      45.392  33.790  25.141  1.00  0.00    -0.237 OA
ATOM     60  O   UNL A   1      45.968  34.961  27.223  1.00  0.00    -0.744 OA
ENDBRANCH  53  57
ENDBRANCH  26  50
BRANCH  38  61
ATOM     61  C   UNL A   1      45.816  25.655  31.584  1.00  0.00     0.023 A 
ATOM     62  C   UNL A   1      46.890  25.342  32.447  1.00  0.00     0.031 A 
ATOM     63  C   UNL A   1      44.798  26.487  32.084  1.00  0.00     0.131 A 
ATOM     64  C   UNL A   1      46.906  25.848  33.762  1.00  0.00     0.055 A 
ATOM     65  C   UNL A   1      44.828  27.003  33.377  1.00  0.00     0.041 A 
ATOM     66  F   UNL A   1      43.761  26.841  31.306  1.00  0.00    -0.206 F 
ATOM     67  C   UNL A   1      45.881  26.680  34.224  1.00  0.00     0.022 A 
BRANCH  64  68
ATOM     68  S   UNL A   1      48.252  25.411  34.913  1.00  0.00     0.124 S 
ATOM     69  O   UNL A   1      49.195  26.514  34.775  1.00  0.00    -0.237 OA
ATOM     70  O   UNL A   1      47.560  25.322  36.196  1.00  0.00    -0.237 OA
ATOM     71  O   UNL A   1      48.737  24.129  34.398  1.00  0.00    -0.744 OA
ENDBRANCH  64  68
ENDBRANCH  38  61
ENDBRANCH  12  13
ENDBRANCH   5   7
ENDBRANCH   2   3
ENDBRANCH   1   2
BRANCH   1  72
ATOM     72  C   UNL A   1      33.017  29.092  25.071  1.00  0.00     0.118 C 
BRANCH  72  73
ATOM     73  N   UNL A   1      33.818  29.105  23.874  1.00  0.00    -0.351 N 
ATOM     74  C   UNL A   1      33.731  28.140  22.869  1.00  0.00     0.261 C 
ATOM     75  H   UNL A   1      34.467  29.837  23.758  1.00  0.00     0.163 HD
ATOM     76  O   UNL A   1      34.375  28.324  21.839  1.00  0.00    -0.268 OA
BRANCH  74  77
ATOM     77  C   UNL A   1      32.920  26.944  23.100  1.00  0.00     0.093 A 
ATOM     78  C   UNL A   1      33.153  25.812  23.876  1.00  0.00     0.040 A 
ATOM     79  S   UNL A   1      31.363  26.893  22.378  1.00  0.00    -0.137 S 
ATOM     80  C   UNL A   1      32.063  24.877  23.829  1.00  0.00     0.019 A 
ATOM     81  C   UNL A   1      31.032  25.357  23.048  1.00  0.00     0.080 A 
BRANCH  80  82
ATOM     82  S   UNL A   1      31.872  23.355  24.713  1.00  0.00    -0.123 SA
BRANCH  82  83
ATOM     83  C   UNL A   1      32.671  22.018  23.758  1.00  0.00     0.098 C 
BRANCH  83  84
ATOM     84  C   UNL A   1      33.724  21.164  24.485  1.00  0.00     0.155 C 
BRANCH  84  85
ATOM     85  N   UNL A   1      35.006  21.834  24.472  1.00  0.00    -0.272 N 
ATOM     86  C   UNL A   1      35.377  22.841  23.621  1.00  0.00     0.108 A 
ATOM     87  N   UNL A   1      36.048  21.216  25.045  1.00  0.00    -0.182 NA
ATOM     88  C   UNL A   1      36.736  22.706  23.467  1.00  0.00     0.042 A 
ATOM     89  C   UNL A   1      37.094  21.736  24.415  1.00  0.00     0.135 A 
ENDBRANCH  84  85
ENDBRANCH  83  84
ENDBRANCH  82  83
ENDBRANCH  80  82
ENDBRANCH  74  77
ENDBRANCH  72  73
ENDBRANCH   1  72
TORSDOF 17
ENDMDL
