MODEL 1
REMARK VINA RESULT:     -12.5      0.000      0.000
REMARK SMILES C[C@@H]1CCCN(C(=O)c2ccc(=O)n([C@H](C)C(=O)NCCCNC(=O)c3ccc(-c4c5nc(c(-c6cc(S(=O)(=O)[O-])ccc6F)c6ccc([nH]6)c(-c6cc(S(=O)(=O)[O-])ccc6F)c6nc(c(-c7cc(S(=O)(=O)[O-])ccc7F)c7ccc4[nH]7)C=C6)C=C5)cc3)n2)C1
REMARK SMILES IDX 21 1 20 2 19 3 17 4 18 5 15 7 16 8 14 9 9 10 10 11 89 12
REMARK SMILES IDX 11 13 12 14 13 15 7 16 8 17 6 18 1 19 2 20 3 21 90 22 4 23
REMARK SMILES IDX 5 24 22 25 23 26 24 27 25 29 26 30 27 31 88 32 28 33 87 34
REMARK SMILES IDX 29 35 30 36 31 37 81 38 32 39 86 40 80 41 82 42 33 43 85 44
REMARK SMILES IDX 79 45 78 46 34 48 66 49 46 50 65 51 47 52 50 53 64 54 83 55
REMARK SMILES IDX 48 56 49 57 63 59 84 60 51 61 35 62 36 63 44 64 37 65 43 66
REMARK SMILES IDX 45 67 42 68 38 69 39 70 40 71 41 72 67 73 68 74 76 75 69 76
REMARK SMILES IDX 75 77 77 78 74 79 70 80 71 81 72 82 73 83 52 84 53 85 61 86
REMARK SMILES IDX 54 87 60 88 62 89 59 90 55 91 56 92 57 93 58 94
REMARK H PARENT 19 6 23 28 82 47 50 58
REMARK Flexibility Score: inf
ROOT
ATOM      1  C   UNL A   1      31.781  28.291  26.503  1.00  0.00     0.042 C 
ENDROOT
BRANCH   1   2
ATOM      2  C   UNL A   1      32.405  26.906  26.559  1.00  0.00     0.117 C 
BRANCH   2   3
ATOM      3  N   UNL A   1      31.451  25.883  26.924  1.00  0.00    -0.354 N 
ATOM      4  C   UNL A   1      31.045  24.788  26.222  1.00  0.00     0.244 C 
ATOM      5  O   UNL A   1      30.134  24.120  26.723  1.00  0.00    -0.273 OA
ATOM      6  H   UNL A   1      31.036  25.994  27.808  1.00  0.00     0.163 HD
BRANCH   4   7
ATOM      7  C   UNL A   1      31.616  24.441  24.831  1.00  0.00     0.197 C 
ATOM      8  C   UNL A   1      31.058  23.110  24.316  1.00  0.00     0.044 C 
BRANCH   7   9
ATOM      9  N   UNL A   1      31.536  25.584  23.898  1.00  0.00    -0.217 N 
ATOM     10  C   UNL A   1      30.360  27.390  23.090  1.00  0.00     0.149 A 
ATOM     11  C   UNL A   1      31.397  27.718  22.099  1.00  0.00     0.042 A 
ATOM     12  N   UNL A   1      30.407  26.397  23.923  1.00  0.00    -0.164 NA
ATOM     13  C   UNL A   1      32.467  26.925  22.082  1.00  0.00     0.076 A 
ATOM     14  C   UNL A   1      32.593  25.780  23.011  1.00  0.00     0.267 A 
ATOM     15  O   UNL A   1      33.603  25.086  22.945  1.00  0.00    -0.268 OA
BRANCH  10  16
ATOM     16  C   UNL A   1      29.145  28.305  23.086  1.00  0.00     0.274 C 
ATOM     17  O   UNL A   1      28.052  27.769  23.228  1.00  0.00    -0.267 OA
BRANCH  16  18
ATOM     18  N   UNL A   1      29.346  29.664  22.860  1.00  0.00    -0.337 N 
ATOM     19  C   UNL A   1      27.936  31.996  20.180  1.00  0.00     0.009 C 
ATOM     20  C   UNL A   1      28.095  31.350  21.554  1.00  0.00     0.005 C 
ATOM     21  C   UNL A   1      28.478  32.408  22.600  1.00  0.00     0.007 C 
ATOM     22  C   UNL A   1      29.134  30.216  21.522  1.00  0.00     0.123 C 
ATOM     23  C   UNL A   1      28.714  31.756  23.958  1.00  0.00     0.022 C 
ATOM     24  C   UNL A   1      29.743  30.635  23.873  1.00  0.00     0.120 C 
ENDBRANCH  16  18
ENDBRANCH  10  16
ENDBRANCH   7   9
ENDBRANCH   4   7
ENDBRANCH   2   3
ENDBRANCH   1   2
BRANCH   1  25
ATOM     25  C   UNL A   1      32.686  29.332  25.864  1.00  0.00     0.118 C 
BRANCH  25  26
ATOM     26  N   UNL A   1      32.381  30.699  26.288  1.00  0.00    -0.352 N 
ATOM     27  C   UNL A   1      33.042  31.576  27.118  1.00  0.00     0.251 C 
ATOM     28  H   UNL A   1      31.546  31.058  25.909  1.00  0.00     0.163 HD
ATOM     29  O   UNL A   1      32.462  32.601  27.476  1.00  0.00    -0.269 OA
BRANCH  27  30
ATOM     30  C   UNL A   1      34.406  31.286  27.617  1.00  0.00     0.039 A 
ATOM     31  C   UNL A   1      34.765  29.998  27.998  1.00  0.00     0.014 A 
ATOM     32  C   UNL A   1      35.355  32.312  27.697  1.00  0.00     0.014 A 
ATOM     33  C   UNL A   1      35.950  29.787  28.688  1.00  0.00     0.010 A 
ATOM     34  C   UNL A   1      36.616  32.061  28.258  1.00  0.00     0.010 A 
ATOM     35  C   UNL A   1      36.903  30.811  28.823  1.00  0.00    -0.014 A 
BRANCH  35  36
ATOM     36  C   UNL A   1      38.171  30.510  29.549  1.00  0.00     0.031 A 
ATOM     37  C   UNL A   1      38.383  30.956  30.972  1.00  0.00     0.074 A 
ATOM     38  C   UNL A   1      39.083  29.713  28.951  1.00  0.00     0.049 A 
ATOM     39  N   UNL A   1      39.358  30.649  31.790  1.00  0.00    -0.248 NA
ATOM     40  C   UNL A   1      37.384  31.865  31.557  1.00  0.00     0.031 C 
ATOM     41  C   UNL A   1      38.986  29.224  27.574  1.00  0.00     0.029 A 
ATOM     42  N   UNL A   1      40.225  29.118  29.429  1.00  0.00    -0.354 N 
ATOM     43  C   UNL A   1      39.097  31.330  32.975  1.00  0.00     0.074 A 
ATOM     44  C   UNL A   1      37.896  32.103  32.758  1.00  0.00     0.031 C 
ATOM     45  C   UNL A   1      39.949  28.318  27.358  1.00  0.00     0.029 A 
ATOM     46  C   UNL A   1      40.792  28.225  28.546  1.00  0.00     0.049 A 
ATOM     47  H   UNL A   1      40.603  29.311  30.319  1.00  0.00     0.167 HD
ATOM     48  C   UNL A   1      39.785  31.297  34.142  1.00  0.00     0.034 A 
ATOM     49  C   UNL A   1      41.861  27.413  28.673  1.00  0.00     0.034 A 
ATOM     50  C   UNL A   1      40.970  30.503  34.354  1.00  0.00     0.049 A 
ATOM     51  C   UNL A   1      42.617  27.414  29.976  1.00  0.00     0.074 A 
ATOM     52  C   UNL A   1      41.736  30.403  35.503  1.00  0.00     0.029 A 
ATOM     53  N   UNL A   1      41.553  29.666  33.413  1.00  0.00    -0.354 N 
ATOM     54  N   UNL A   1      42.337  28.046  31.090  1.00  0.00    -0.248 NA
ATOM     55  C   UNL A   1      43.836  26.597  30.039  1.00  0.00     0.031 C 
ATOM     56  C   UNL A   1      42.809  29.551  35.240  1.00  0.00     0.029 A 
ATOM     57  C   UNL A   1      42.678  29.062  33.950  1.00  0.00     0.049 A 
ATOM     58  H   UNL A   1      41.216  29.522  32.499  1.00  0.00     0.167 HD
ATOM     59  C   UNL A   1      43.337  27.694  31.991  1.00  0.00     0.074 A 
ATOM     60  C   UNL A   1      44.204  26.760  31.303  1.00  0.00     0.031 C 
ATOM     61  C   UNL A   1      43.529  28.120  33.265  1.00  0.00     0.034 A 
BRANCH  48  62
ATOM     62  C   UNL A   1      39.283  32.116  35.306  1.00  0.00     0.023 A 
ATOM     63  C   UNL A   1      39.731  33.440  35.484  1.00  0.00     0.031 A 
ATOM     64  C   UNL A   1      38.484  31.545  36.312  1.00  0.00     0.131 A 
ATOM     65  C   UNL A   1      39.417  34.130  36.662  1.00  0.00     0.055 A 
ATOM     66  C   UNL A   1      38.137  32.252  37.465  1.00  0.00     0.041 A 
ATOM     67  F   UNL A   1      38.029  30.288  36.189  1.00  0.00    -0.206 F 
ATOM     68  C   UNL A   1      38.617  33.546  37.649  1.00  0.00     0.022 A 
BRANCH  65  69
ATOM     69  S   UNL A   1      40.085  35.784  36.989  1.00  0.00     0.124 S 
ATOM     70  O   UNL A   1      39.456  36.115  38.266  1.00  0.00    -0.237 OA
ATOM     71  O   UNL A   1      41.520  35.526  37.047  1.00  0.00    -0.237 OA
ATOM     72  O   UNL A   1      39.630  36.576  35.851  1.00  0.00    -0.744 OA
ENDBRANCH  65  69
ENDBRANCH  48  62
BRANCH  49  73
ATOM     73  C   UNL A   1      42.236  26.502  27.549  1.00  0.00     0.023 A 
ATOM     74  C   UNL A   1      41.725  25.194  27.470  1.00  0.00     0.031 A 
ATOM     75  C   UNL A   1      43.182  26.896  26.587  1.00  0.00     0.131 A 
ATOM     76  C   UNL A   1      42.217  24.307  26.505  1.00  0.00     0.055 A 
ATOM     77  C   UNL A   1      43.610  26.034  25.576  1.00  0.00     0.041 A 
ATOM     78  F   UNL A   1      43.711  28.129  26.624  1.00  0.00    -0.206 F 
ATOM     79  C   UNL A   1      43.142  24.724  25.544  1.00  0.00     0.022 A 
BRANCH  76  80
ATOM     80  S   UNL A   1      41.787  22.544  26.563  1.00  0.00     0.124 S 
ATOM     81  O   UNL A   1      40.329  22.588  26.594  1.00  0.00    -0.237 OA
ATOM     82  O   UNL A   1      42.379  22.051  25.321  1.00  0.00    -0.237 OA
ATOM     83  O   UNL A   1      42.433  22.073  27.783  1.00  0.00    -0.744 OA
ENDBRANCH  76  80
ENDBRANCH  49  73
BRANCH  61  84
ATOM     84  C   UNL A   1      44.722  27.591  34.025  1.00  0.00     0.023 A 
ATOM     85  C   UNL A   1      44.624  26.387  34.747  1.00  0.00     0.031 A 
ATOM     86  C   UNL A   1      45.905  28.343  34.144  1.00  0.00     0.131 A 
ATOM     87  C   UNL A   1      45.674  25.987  35.582  1.00  0.00     0.055 A 
ATOM     88  C   UNL A   1      46.968  27.915  34.938  1.00  0.00     0.041 A 
ATOM     89  F   UNL A   1      46.042  29.506  33.486  1.00  0.00    -0.206 F 
ATOM     90  C   UNL A   1      46.850  26.738  35.672  1.00  0.00     0.022 A 
BRANCH  87  91
ATOM     91  S   UNL A   1      45.520  24.527  36.648  1.00  0.00     0.124 S 
ATOM     92  O   UNL A   1      45.484  25.130  37.979  1.00  0.00    -0.237 OA
ATOM     93  O   UNL A   1      44.259  23.946  36.193  1.00  0.00    -0.237 OA
ATOM     94  O   UNL A   1      46.715  23.745  36.350  1.00  0.00    -0.744 OA
ENDBRANCH  87  91
ENDBRANCH  61  84
ENDBRANCH  35  36
ENDBRANCH  27  30
ENDBRANCH  25  26
ENDBRANCH   1  25
TORSDOF 16
ENDMDL
MODEL 2
REMARK VINA RESULT:     -12.2      4.736      9.772
REMARK SMILES C[C@@H]1CCCN(C(=O)c2ccc(=O)n([C@H](C)C(=O)NCCCNC(=O)c3ccc(-c4c5nc(c(-c6cc(S(=O)(=O)[O-])ccc6F)c6ccc([nH]6)c(-c6cc(S(=O)(=O)[O-])ccc6F)c6nc(c(-c7cc(S(=O)(=O)[O-])ccc7F)c7ccc4[nH]7)C=C6)C=C5)cc3)n2)C1
REMARK SMILES IDX 21 1 20 2 19 3 17 4 18 5 15 7 16 8 14 9 9 10 10 11 89 12
REMARK SMILES IDX 11 13 12 14 13 15 7 16 8 17 6 18 1 19 2 20 3 21 90 22 4 23
REMARK SMILES IDX 5 24 22 25 23 26 24 27 25 29 26 30 27 31 88 32 28 33 87 34
REMARK SMILES IDX 29 35 30 36 31 37 81 38 32 39 86 40 80 41 82 42 33 43 85 44
REMARK SMILES IDX 79 45 78 46 34 48 66 49 46 50 65 51 47 52 50 53 64 54 83 55
REMARK SMILES IDX 48 56 49 57 63 59 84 60 51 61 35 62 36 63 44 64 37 65 43 66
REMARK SMILES IDX 45 67 42 68 38 69 39 70 40 71 41 72 67 73 68 74 76 75 69 76
REMARK SMILES IDX 75 77 77 78 74 79 70 80 71 81 72 82 73 83 52 84 53 85 61 86
REMARK SMILES IDX 54 87 60 88 62 89 59 90 55 91 56 92 57 93 58 94
REMARK H PARENT 19 6 23 28 82 47 50 58
REMARK Flexibility Score: inf
ROOT
ATOM      1  C   UNL A   1      35.735  20.701  25.018  1.00  0.00     0.042 C 
ENDROOT
BRANCH   1   2
ATOM      2  C   UNL A   1      34.917  21.616  25.913  1.00  0.00     0.117 C 
BRANCH   2   3
ATOM      3  N   UNL A   1      33.528  21.222  25.987  1.00  0.00    -0.354 N 
ATOM      4  C   UNL A   1      32.570  21.239  25.020  1.00  0.00     0.244 C 
ATOM      5  O   UNL A   1      31.424  20.942  25.374  1.00  0.00    -0.273 OA
ATOM      6  H   UNL A   1      33.233  20.892  26.866  1.00  0.00     0.163 HD
BRANCH   4   7
ATOM      7  C   UNL A   1      32.865  21.695  23.575  1.00  0.00     0.197 C 
ATOM      8  C   UNL A   1      32.022  20.914  22.561  1.00  0.00     0.044 C 
BRANCH   7   9
ATOM      9  N   UNL A   1      32.843  23.167  23.442  1.00  0.00    -0.217 N 
ATOM     10  C   UNL A   1      31.681  25.145  23.628  1.00  0.00     0.149 A 
ATOM     11  C   UNL A   1      32.818  25.946  23.150  1.00  0.00     0.042 A 
ATOM     12  N   UNL A   1      31.674  23.854  23.758  1.00  0.00    -0.164 NA
ATOM     13  C   UNL A   1      33.926  25.272  22.843  1.00  0.00     0.076 A 
ATOM     14  C   UNL A   1      33.994  23.800  22.979  1.00  0.00     0.267 A 
ATOM     15  O   UNL A   1      35.043  23.237  22.679  1.00  0.00    -0.268 OA
BRANCH  10  16
ATOM     16  C   UNL A   1      30.426  25.936  23.964  1.00  0.00     0.274 C 
ATOM     17  O   UNL A   1      29.354  25.428  23.650  1.00  0.00    -0.267 OA
BRANCH  16  18
ATOM     18  N   UNL A   1      30.576  27.193  24.541  1.00  0.00    -0.337 N 
ATOM     19  C   UNL A   1      32.711  28.362  27.488  1.00  0.00     0.009 C 
ATOM     20  C   UNL A   1      32.294  28.160  26.034  1.00  0.00     0.005 C 
ATOM     21  C   UNL A   1      32.094  29.517  25.342  1.00  0.00     0.007 C 
ATOM     22  C   UNL A   1      31.019  27.305  25.931  1.00  0.00     0.123 C 
ATOM     23  C   UNL A   1      31.603  29.322  23.913  1.00  0.00     0.022 C 
ATOM     24  C   UNL A   1      30.345  28.464  23.862  1.00  0.00     0.120 C 
ENDBRANCH  16  18
ENDBRANCH  10  16
ENDBRANCH   7   9
ENDBRANCH   4   7
ENDBRANCH   2   3
ENDBRANCH   1   2
BRANCH   1  25
ATOM     25  C   UNL A   1      37.176  21.156  24.849  1.00  0.00     0.118 C 
BRANCH  25  26
ATOM     26  N   UNL A   1      38.151  20.119  25.187  1.00  0.00    -0.352 N 
ATOM     27  C   UNL A   1      39.389  20.177  25.788  1.00  0.00     0.251 C 
ATOM     28  H   UNL A   1      37.870  19.209  24.937  1.00  0.00     0.163 HD
ATOM     29  O   UNL A   1      40.102  19.174  25.770  1.00  0.00    -0.269 OA
BRANCH  27  30
ATOM     30  C   UNL A   1      39.886  21.426  26.410  1.00  0.00     0.039 A 
ATOM     31  C   UNL A   1      39.444  22.667  25.965  1.00  0.00     0.014 A 
ATOM     32  C   UNL A   1      40.801  21.366  27.467  1.00  0.00     0.014 A 
ATOM     33  C   UNL A   1      40.092  23.821  26.380  1.00  0.00     0.010 A 
ATOM     34  C   UNL A   1      41.346  22.546  27.993  1.00  0.00     0.010 A 
ATOM     35  C   UNL A   1      41.049  23.785  27.408  1.00  0.00    -0.014 A 
BRANCH  35  36
ATOM     36  C   UNL A   1      41.687  25.066  27.829  1.00  0.00     0.031 A 
ATOM     37  C   UNL A   1      43.069  25.442  27.364  1.00  0.00     0.074 A 
ATOM     38  C   UNL A   1      40.951  25.952  28.536  1.00  0.00     0.049 A 
ATOM     39  N   UNL A   1      43.704  26.577  27.515  1.00  0.00    -0.248 NA
ATOM     40  C   UNL A   1      43.847  24.421  26.643  1.00  0.00     0.031 C 
ATOM     41  C   UNL A   1      39.602  25.695  29.044  1.00  0.00     0.029 A 
ATOM     42  N   UNL A   1      41.191  27.257  28.889  1.00  0.00    -0.354 N 
ATOM     43  C   UNL A   1      44.951  26.405  26.921  1.00  0.00     0.074 A 
ATOM     44  C   UNL A   1      45.003  25.042  26.445  1.00  0.00     0.031 C 
ATOM     45  C   UNL A   1      39.091  26.832  29.533  1.00  0.00     0.029 A 
ATOM     46  C   UNL A   1      40.104  27.881  29.462  1.00  0.00     0.049 A 
ATOM     47  H   UNL A   1      42.057  27.705  28.748  1.00  0.00     0.167 HD
ATOM     48  C   UNL A   1      45.950  27.307  26.769  1.00  0.00     0.034 A 
ATOM     49  C   UNL A   1      39.930  29.153  29.876  1.00  0.00     0.034 A 
ATOM     50  C   UNL A   1      45.877  28.672  27.228  1.00  0.00     0.049 A 
ATOM     51  C   UNL A   1      41.067  30.126  29.711  1.00  0.00     0.074 A 
ATOM     52  C   UNL A   1      46.839  29.662  27.118  1.00  0.00     0.029 A 
ATOM     53  N   UNL A   1      44.786  29.246  27.865  1.00  0.00    -0.354 N 
ATOM     54  N   UNL A   1      42.226  29.948  29.124  1.00  0.00    -0.248 NA
ATOM     55  C   UNL A   1      40.877  31.472  30.270  1.00  0.00     0.031 C 
ATOM     56  C   UNL A   1      46.353  30.815  27.736  1.00  0.00     0.029 A 
ATOM     57  C   UNL A   1      45.060  30.569  28.171  1.00  0.00     0.049 A 
ATOM     58  H   UNL A   1      43.943  28.782  28.070  1.00  0.00     0.167 HD
ATOM     59  C   UNL A   1      42.899  31.162  29.231  1.00  0.00     0.074 A 
ATOM     60  C   UNL A   1      41.999  32.076  29.901  1.00  0.00     0.031 C 
ATOM     61  C   UNL A   1      44.154  31.482  28.826  1.00  0.00     0.034 A 
BRANCH  48  62
ATOM     62  C   UNL A   1      47.213  26.881  26.060  1.00  0.00     0.023 A 
ATOM     63  C   UNL A   1      48.245  26.243  26.776  1.00  0.00     0.031 A 
ATOM     64  C   UNL A   1      47.456  27.236  24.722  1.00  0.00     0.131 A 
ATOM     65  C   UNL A   1      49.485  26.023  26.165  1.00  0.00     0.055 A 
ATOM     66  C   UNL A   1      48.680  26.975  24.103  1.00  0.00     0.041 A 
ATOM     67  F   UNL A   1      46.505  27.844  23.995  1.00  0.00    -0.206 F 
ATOM     68  C   UNL A   1      49.706  26.379  24.831  1.00  0.00     0.022 A 
BRANCH  65  69
ATOM     69  S   UNL A   1      50.879  25.326  27.092  1.00  0.00     0.124 S 
ATOM     70  O   UNL A   1      50.218  24.314  27.914  1.00  0.00    -0.237 OA
ATOM     71  O   UNL A   1      51.727  24.807  26.023  1.00  0.00    -0.237 OA
ATOM     72  O   UNL A   1      51.416  26.467  27.827  1.00  0.00    -0.744 OA
ENDBRANCH  65  69
ENDBRANCH  48  62
BRANCH  49  73
ATOM     73  C   UNL A   1      38.609  29.575  30.433  1.00  0.00     0.023 A 
ATOM     74  C   UNL A   1      37.670  30.261  29.641  1.00  0.00     0.031 A 
ATOM     75  C   UNL A   1      38.305  29.380  31.791  1.00  0.00     0.131 A 
ATOM     76  C   UNL A   1      36.514  30.791  30.228  1.00  0.00     0.055 A 
ATOM     77  C   UNL A   1      37.112  29.840  32.355  1.00  0.00     0.041 A 
ATOM     78  F   UNL A   1      39.171  28.744  32.595  1.00  0.00    -0.206 F 
ATOM     79  C   UNL A   1      36.218  30.568  31.575  1.00  0.00     0.022 A 
BRANCH  76  80
ATOM     80  S   UNL A   1      35.436  31.915  29.296  1.00  0.00     0.124 S 
ATOM     81  O   UNL A   1      34.811  31.011  28.336  1.00  0.00    -0.237 OA
ATOM     82  O   UNL A   1      34.558  32.427  30.346  1.00  0.00    -0.237 OA
ATOM     83  O   UNL A   1      36.362  32.893  28.735  1.00  0.00    -0.744 OA
ENDBRANCH  76  80
ENDBRANCH  49  73
BRANCH  61  84
ATOM     84  C   UNL A   1      44.655  32.881  29.086  1.00  0.00     0.023 A 
ATOM     85  C   UNL A   1      44.305  33.932  28.218  1.00  0.00     0.031 A 
ATOM     86  C   UNL A   1      45.583  33.147  30.109  1.00  0.00     0.131 A 
ATOM     87  C   UNL A   1      44.903  35.189  28.365  1.00  0.00     0.055 A 
ATOM     88  C   UNL A   1      46.138  34.415  30.284  1.00  0.00     0.041 A 
ATOM     89  F   UNL A   1      45.961  32.175  30.956  1.00  0.00    -0.206 F 
ATOM     90  C   UNL A   1      45.809  35.439  29.401  1.00  0.00     0.022 A 
BRANCH  87  91
ATOM     91  S   UNL A   1      44.598  36.519  27.170  1.00  0.00     0.124 S 
ATOM     92  O   UNL A   1      44.311  37.651  28.047  1.00  0.00    -0.237 OA
ATOM     93  O   UNL A   1      45.872  36.590  26.458  1.00  0.00    -0.237 OA
ATOM     94  O   UNL A   1      43.467  36.035  26.385  1.00  0.00    -0.744 OA
ENDBRANCH  87  91
ENDBRANCH  61  84
ENDBRANCH  35  36
ENDBRANCH  27  30
ENDBRANCH  25  26
ENDBRANCH   1  25
TORSDOF 16
ENDMDL
MODEL 3
REMARK VINA RESULT:     -12.2      2.471      4.593
REMARK SMILES C[C@@H]1CCCN(C(=O)c2ccc(=O)n([C@H](C)C(=O)NCCCNC(=O)c3ccc(-c4c5nc(c(-c6cc(S(=O)(=O)[O-])ccc6F)c6ccc([nH]6)c(-c6cc(S(=O)(=O)[O-])ccc6F)c6nc(c(-c7cc(S(=O)(=O)[O-])ccc7F)c7ccc4[nH]7)C=C6)C=C5)cc3)n2)C1
REMARK SMILES IDX 21 1 20 2 19 3 17 4 18 5 15 7 16 8 14 9 9 10 10 11 89 12
REMARK SMILES IDX 11 13 12 14 13 15 7 16 8 17 6 18 1 19 2 20 3 21 90 22 4 23
REMARK SMILES IDX 5 24 22 25 23 26 24 27 25 29 26 30 27 31 88 32 28 33 87 34
REMARK SMILES IDX 29 35 30 36 31 37 81 38 32 39 86 40 80 41 82 42 33 43 85 44
REMARK SMILES IDX 79 45 78 46 34 48 66 49 46 50 65 51 47 52 50 53 64 54 83 55
REMARK SMILES IDX 48 56 49 57 63 59 84 60 51 61 35 62 36 63 44 64 37 65 43 66
REMARK SMILES IDX 45 67 42 68 38 69 39 70 40 71 41 72 67 73 68 74 76 75 69 76
REMARK SMILES IDX 75 77 77 78 74 79 70 80 71 81 72 82 73 83 52 84 53 85 61 86
REMARK SMILES IDX 54 87 60 88 62 89 59 90 55 91 56 92 57 93 58 94
REMARK H PARENT 19 6 23 28 82 47 50 58
REMARK Flexibility Score: inf
ROOT
ATOM      1  C   UNL A   1      31.757  31.147  26.547  1.00  0.00     0.042 C 
ENDROOT
BRANCH   1   2
ATOM      2  C   UNL A   1      32.170  29.873  25.829  1.00  0.00     0.117 C 
BRANCH   2   3
ATOM      3  N   UNL A   1      31.829  29.893  24.424  1.00  0.00    -0.354 N 
ATOM      4  C   UNL A   1      31.049  29.035  23.710  1.00  0.00     0.244 C 
ATOM      5  O   UNL A   1      31.000  29.221  22.489  1.00  0.00    -0.273 OA
ATOM      6  H   UNL A   1      32.217  30.636  23.909  1.00  0.00     0.163 HD
BRANCH   4   7
ATOM      7  C   UNL A   1      30.335  27.832  24.362  1.00  0.00     0.197 C 
ATOM      8  C   UNL A   1      29.113  27.400  23.545  1.00  0.00     0.044 C 
BRANCH   7   9
ATOM      9  N   UNL A   1      31.281  26.760  24.734  1.00  0.00    -0.217 N 
ATOM     10  C   UNL A   1      32.841  25.195  24.085  1.00  0.00     0.149 A 
ATOM     11  C   UNL A   1      33.038  24.712  25.460  1.00  0.00     0.042 A 
ATOM     12  N   UNL A   1      32.021  26.137  23.732  1.00  0.00    -0.164 NA
ATOM     13  C   UNL A   1      32.316  25.311  26.405  1.00  0.00     0.076 A 
ATOM     14  C   UNL A   1      31.370  26.401  26.077  1.00  0.00     0.267 A 
ATOM     15  O   UNL A   1      30.733  26.913  26.993  1.00  0.00    -0.268 OA
BRANCH  10  16
ATOM     16  C   UNL A   1      33.671  24.491  23.023  1.00  0.00     0.274 C 
ATOM     17  O   UNL A   1      34.085  25.183  22.099  1.00  0.00    -0.267 OA
BRANCH  16  18
ATOM     18  N   UNL A   1      33.849  23.115  23.133  1.00  0.00    -0.337 N 
ATOM     19  C   UNL A   1      36.367  21.068  25.152  1.00  0.00     0.009 C 
ATOM     20  C   UNL A   1      35.029  21.704  24.785  1.00  0.00     0.005 C 
ATOM     21  C   UNL A   1      33.959  20.620  24.586  1.00  0.00     0.007 C 
ATOM     22  C   UNL A   1      35.153  22.583  23.529  1.00  0.00     0.123 C 
ATOM     23  C   UNL A   1      32.641  21.246  24.145  1.00  0.00     0.022 C 
ATOM     24  C   UNL A   1      32.816  22.112  22.903  1.00  0.00     0.120 C 
ENDBRANCH  16  18
ENDBRANCH  10  16
ENDBRANCH   7   9
ENDBRANCH   4   7
ENDBRANCH   2   3
ENDBRANCH   1   2
BRANCH   1  25
ATOM     25  C   UNL A   1      32.911  31.841  27.252  1.00  0.00     0.118 C 
BRANCH  25  26
ATOM     26  N   UNL A   1      32.641  33.247  27.552  1.00  0.00    -0.352 N 
ATOM     27  C   UNL A   1      33.188  34.115  28.470  1.00  0.00     0.251 C 
ATOM     28  H   UNL A   1      31.937  33.648  26.992  1.00  0.00     0.163 HD
ATOM     29  O   UNL A   1      32.636  35.199  28.660  1.00  0.00    -0.269 OA
BRANCH  27  30
ATOM     30  C   UNL A   1      34.389  33.750  29.256  1.00  0.00     0.039 A 
ATOM     31  C   UNL A   1      35.637  34.268  28.929  1.00  0.00     0.014 A 
ATOM     32  C   UNL A   1      34.274  32.886  30.351  1.00  0.00     0.014 A 
ATOM     33  C   UNL A   1      36.780  33.734  29.508  1.00  0.00     0.010 A 
ATOM     34  C   UNL A   1      35.421  32.463  31.037  1.00  0.00     0.010 A 
ATOM     35  C   UNL A   1      36.694  32.829  30.579  1.00  0.00    -0.014 A 
BRANCH  35  36
ATOM     36  C   UNL A   1      37.961  32.317  31.178  1.00  0.00     0.031 A 
ATOM     37  C   UNL A   1      38.415  32.760  32.544  1.00  0.00     0.074 A 
ATOM     38  C   UNL A   1      38.638  31.346  30.526  1.00  0.00     0.049 A 
ATOM     39  N   UNL A   1      39.406  32.301  33.266  1.00  0.00    -0.248 NA
ATOM     40  C   UNL A   1      37.674  33.857  33.187  1.00  0.00     0.031 C 
ATOM     41  C   UNL A   1      38.294  30.842  29.195  1.00  0.00     0.029 A 
ATOM     42  N   UNL A   1      39.699  30.563  30.908  1.00  0.00    -0.354 N 
ATOM     43  C   UNL A   1      39.414  33.056  34.436  1.00  0.00     0.074 A 
ATOM     44  C   UNL A   1      38.357  34.033  34.310  1.00  0.00     0.031 C 
ATOM     45  C   UNL A   1      39.043  29.765  28.924  1.00  0.00     0.029 A 
ATOM     46  C   UNL A   1      39.987  29.552  30.017  1.00  0.00     0.049 A 
ATOM     47  H   UNL A   1      40.206  30.709  31.740  1.00  0.00     0.167 HD
ATOM     48  C   UNL A   1      40.215  32.930  35.521  1.00  0.00     0.034 A 
ATOM     49  C   UNL A   1      40.897  28.559  30.069  1.00  0.00     0.034 A 
ATOM     50  C   UNL A   1      41.252  31.935  35.644  1.00  0.00     0.049 A 
ATOM     51  C   UNL A   1      41.786  28.458  31.280  1.00  0.00     0.074 A 
ATOM     52  C   UNL A   1      42.114  31.728  36.707  1.00  0.00     0.029 A 
ATOM     53  N   UNL A   1      41.558  30.975  34.691  1.00  0.00    -0.354 N 
ATOM     54  N   UNL A   1      41.758  29.166  32.384  1.00  0.00    -0.248 NA
ATOM     55  C   UNL A   1      42.835  27.430  31.253  1.00  0.00     0.031 C 
ATOM     56  C   UNL A   1      42.977  30.683  36.374  1.00  0.00     0.029 A 
ATOM     57  C   UNL A   1      42.609  30.188  35.134  1.00  0.00     0.049 A 
ATOM     58  H   UNL A   1      41.098  30.869  33.827  1.00  0.00     0.167 HD
ATOM     59  C   UNL A   1      42.775  28.661  33.188  1.00  0.00     0.074 A 
ATOM     60  C   UNL A   1      43.371  27.560  32.459  1.00  0.00     0.031 C 
ATOM     61  C   UNL A   1      43.189  29.082  34.410  1.00  0.00     0.034 A 
BRANCH  48  62
ATOM     62  C   UNL A   1      40.010  33.864  36.689  1.00  0.00     0.023 A 
ATOM     63  C   UNL A   1      39.388  33.400  37.865  1.00  0.00     0.031 A 
ATOM     64  C   UNL A   1      40.291  35.238  36.586  1.00  0.00     0.131 A 
ATOM     65  C   UNL A   1      39.027  34.308  38.868  1.00  0.00     0.055 A 
ATOM     66  C   UNL A   1      39.968  36.133  37.607  1.00  0.00     0.041 A 
ATOM     67  F   UNL A   1      40.885  35.731  35.487  1.00  0.00    -0.206 F 
ATOM     68  C   UNL A   1      39.319  35.670  38.749  1.00  0.00     0.022 A 
BRANCH  65  69
ATOM     69  S   UNL A   1      38.108  33.769  40.335  1.00  0.00     0.124 S 
ATOM     70  O   UNL A   1      37.737  35.046  40.943  1.00  0.00    -0.237 OA
ATOM     71  O   UNL A   1      37.006  33.015  39.745  1.00  0.00    -0.237 OA
ATOM     72  O   UNL A   1      39.080  32.984  41.089  1.00  0.00    -0.744 OA
ENDBRANCH  65  69
ENDBRANCH  48  62
BRANCH  49  73
ATOM     73  C   UNL A   1      40.966  27.559  28.960  1.00  0.00     0.023 A 
ATOM     74  C   UNL A   1      41.936  27.662  27.946  1.00  0.00     0.031 A 
ATOM     75  C   UNL A   1      40.006  26.539  28.849  1.00  0.00     0.131 A 
ATOM     76  C   UNL A   1      41.877  26.815  26.832  1.00  0.00     0.055 A 
ATOM     77  C   UNL A   1      40.000  25.644  27.777  1.00  0.00     0.041 A 
ATOM     78  F   UNL A   1      39.051  26.404  29.781  1.00  0.00    -0.206 F 
ATOM     79  C   UNL A   1      40.928  25.793  26.750  1.00  0.00     0.022 A 
BRANCH  76  80
ATOM     80  S   UNL A   1      42.934  27.112  25.387  1.00  0.00     0.124 S 
ATOM     81  O   UNL A   1      44.201  27.480  26.008  1.00  0.00    -0.237 OA
ATOM     82  O   UNL A   1      42.909  25.809  24.725  1.00  0.00    -0.237 OA
ATOM     83  O   UNL A   1      42.244  28.180  24.671  1.00  0.00    -0.744 OA
ENDBRANCH  76  80
ENDBRANCH  49  73
BRANCH  61  84
ATOM     84  C   UNL A   1      44.345  28.363  35.062  1.00  0.00     0.023 A 
ATOM     85  C   UNL A   1      44.112  27.461  36.117  1.00  0.00     0.031 A 
ATOM     86  C   UNL A   1      45.677  28.671  34.733  1.00  0.00     0.131 A 
ATOM     87  C   UNL A   1      45.193  26.925  36.828  1.00  0.00     0.055 A 
ATOM     88  C   UNL A   1      46.751  28.096  35.411  1.00  0.00     0.041 A 
ATOM     89  F   UNL A   1      45.951  29.537  33.743  1.00  0.00    -0.206 F 
ATOM     90  C   UNL A   1      46.511  27.228  36.473  1.00  0.00     0.022 A 
BRANCH  87  91
ATOM     91  S   UNL A   1      44.930  25.886  38.292  1.00  0.00     0.124 S 
ATOM     92  O   UNL A   1      46.204  26.028  38.993  1.00  0.00    -0.237 OA
ATOM     93  O   UNL A   1      43.791  26.540  38.932  1.00  0.00    -0.237 OA
ATOM     94  O   UNL A   1      44.665  24.562  37.741  1.00  0.00    -0.744 OA
ENDBRANCH  87  91
ENDBRANCH  61  84
ENDBRANCH  35  36
ENDBRANCH  27  30
ENDBRANCH  25  26
ENDBRANCH   1  25
TORSDOF 16
ENDMDL
