MODEL 1
REMARK VINA RESULT:     -13.0      0.000      0.000
REMARK SMILES Cc1cccc(O[C@H]2CC[C@@]([NH2+]C(C)C)(C(=O)NCCCNC(=O)c3ccc(-c4c5nc(c(-c6cc(S(=O)(=O)[O-])ccc6F)c6ccc([nH]6)c(-c6cc(S(=O)(=O)[O-])ccc6F)c6nc(c(-c7cc(S(=O)(=O)[O-])ccc7F)c7ccc4[nH]7)C=C6)C=C5)cc3)C2)c1
REMARK SMILES IDX 20 1 19 2 18 3 16 4 17 5 11 7 8 8 9 9 88 10 10 11 7 12 6 13
REMARK SMILES IDX 1 14 2 15 3 16 89 17 4 18 5 19 12 20 13 23 14 24 15 25 21 26
REMARK SMILES IDX 22 27 23 28 24 30 25 31 26 32 87 33 27 34 86 35 28 36 29 37
REMARK SMILES IDX 30 38 80 39 31 40 85 41 79 42 81 43 32 44 84 45 78 46 77 47
REMARK SMILES IDX 33 49 65 50 45 51 64 52 46 53 49 54 63 55 82 56 47 57 48 58
REMARK SMILES IDX 62 60 83 61 50 62 34 63 35 64 43 65 36 66 42 67 44 68 41 69
REMARK SMILES IDX 37 70 38 71 39 72 40 73 66 74 67 75 75 76 68 77 74 78 76 79
REMARK SMILES IDX 73 80 69 81 70 82 71 83 72 84 51 85 52 86 60 87 53 88 59 89
REMARK SMILES IDX 61 90 58 91 54 92 55 93 56 94 57 95
REMARK H PARENT 18 6 12 21 12 22 22 29 81 48 49 59
REMARK Flexibility Score: inf
ROOT
ATOM      1  C   UNL A   1      38.079  21.757  25.543  1.00  0.00     0.042 C 
ENDROOT
BRANCH   1   2
ATOM      2  C   UNL A   1      36.579  21.711  25.280  1.00  0.00     0.118 C 
BRANCH   2   3
ATOM      3  N   UNL A   1      35.798  21.464  26.486  1.00  0.00    -0.351 N 
ATOM      4  C   UNL A   1      34.517  21.833  26.812  1.00  0.00     0.281 C 
ATOM      5  O   UNL A   1      34.044  21.404  27.869  1.00  0.00    -0.268 OA
ATOM      6  H   UNL A   1      36.266  20.948  27.181  1.00  0.00     0.163 HD
BRANCH   4   7
ATOM      7  C   UNL A   1      33.680  22.754  25.860  1.00  0.00     0.179 C 
ATOM      8  C   UNL A   1      32.070  21.561  24.410  1.00  0.00     0.180 C 
ATOM      9  C   UNL A   1      31.301  22.575  25.246  1.00  0.00     0.052 C 
ATOM     10  C   UNL A   1      33.487  22.142  24.441  1.00  0.00     0.124 C 
ATOM     11  C   UNL A   1      32.237  22.853  26.414  1.00  0.00     0.083 C 
BRANCH   8  12
ATOM     12  O   UNL A   1      32.104  20.276  25.024  1.00  0.00    -0.490 OA
BRANCH  12  13
ATOM     13  C   UNL A   1      32.569  19.209  24.311  1.00  0.00     0.119 A 
ATOM     14  C   UNL A   1      34.769  16.241  25.254  1.00  0.00     0.044 C 
ATOM     15  C   UNL A   1      33.907  17.176  24.459  1.00  0.00    -0.047 A 
ATOM     16  C   UNL A   1      33.587  16.883  23.129  1.00  0.00     0.003 A 
ATOM     17  C   UNL A   1      33.381  18.337  25.042  1.00  0.00     0.049 A 
ATOM     18  C   UNL A   1      32.782  17.752  22.392  1.00  0.00     0.004 A 
ATOM     19  C   UNL A   1      32.280  18.918  22.979  1.00  0.00     0.046 A 
ENDBRANCH  12  13
ENDBRANCH   8  12
BRANCH   7  20
ATOM     20  N   UNL A   1      34.269  24.116  25.747  1.00  0.00    -0.332 N 
ATOM     21  H   UNL A   1      35.103  24.045  25.162  1.00  0.00     0.347 HD
ATOM     22  H   UNL A   1      34.445  24.413  26.706  1.00  0.00     0.347 HD
BRANCH  20  23
ATOM     23  C   UNL A   1      33.410  25.162  25.172  1.00  0.00     0.176 C 
ATOM     24  C   UNL A   1      33.333  26.408  26.052  1.00  0.00     0.075 C 
ATOM     25  C   UNL A   1      34.000  25.534  23.807  1.00  0.00     0.075 C 
ENDBRANCH  20  23
ENDBRANCH   7  20
ENDBRANCH   4   7
ENDBRANCH   2   3
ENDBRANCH   1   2
BRANCH   1  26
ATOM     26  C   UNL A   1      38.544  23.081  26.134  1.00  0.00     0.118 C 
BRANCH  26  27
ATOM     27  N   UNL A   1      39.975  23.095  26.447  1.00  0.00    -0.352 N 
ATOM     28  C   UNL A   1      40.750  24.150  26.897  1.00  0.00     0.251 C 
ATOM     29  H   UNL A   1      40.448  22.241  26.322  1.00  0.00     0.163 HD
ATOM     30  O   UNL A   1      41.946  24.032  27.116  1.00  0.00    -0.269 OA
BRANCH  28  31
ATOM     31  C   UNL A   1      40.059  25.413  27.232  1.00  0.00     0.039 A 
ATOM     32  C   UNL A   1      40.437  26.554  26.519  1.00  0.00     0.014 A 
ATOM     33  C   UNL A   1      39.293  25.509  28.391  1.00  0.00     0.014 A 
ATOM     34  C   UNL A   1      40.246  27.805  27.095  1.00  0.00     0.010 A 
ATOM     35  C   UNL A   1      39.187  26.743  29.005  1.00  0.00     0.010 A 
ATOM     36  C   UNL A   1      39.724  27.880  28.388  1.00  0.00    -0.014 A 
BRANCH  36  37
ATOM     37  C   UNL A   1      39.865  29.075  29.216  1.00  0.00     0.031 A 
ATOM     38  C   UNL A   1      38.827  30.124  29.226  1.00  0.00     0.074 A 
ATOM     39  C   UNL A   1      40.960  29.224  29.994  1.00  0.00     0.049 A 
ATOM     40  N   UNL A   1      39.051  31.370  29.482  1.00  0.00    -0.248 NA
ATOM     41  C   UNL A   1      37.436  29.845  28.894  1.00  0.00     0.031 C 
ATOM     42  C   UNL A   1      41.184  30.224  31.034  1.00  0.00     0.029 A 
ATOM     43  N   UNL A   1      42.210  28.635  29.801  1.00  0.00    -0.354 N 
ATOM     44  C   UNL A   1      37.834  31.991  29.632  1.00  0.00     0.074 A 
ATOM     45  C   UNL A   1      36.862  31.016  29.190  1.00  0.00     0.031 C 
ATOM     46  C   UNL A   1      42.505  30.380  31.204  1.00  0.00     0.029 A 
ATOM     47  C   UNL A   1      43.173  29.580  30.193  1.00  0.00     0.049 A 
ATOM     48  H   UNL A   1      42.384  27.730  29.457  1.00  0.00     0.167 HD
ATOM     49  C   UNL A   1      37.763  33.209  30.244  1.00  0.00     0.034 A 
ATOM     50  C   UNL A   1      44.114  30.036  29.317  1.00  0.00     0.034 A 
ATOM     51  C   UNL A   1      39.086  33.718  30.599  1.00  0.00     0.049 A 
ATOM     52  C   UNL A   1      44.061  31.532  29.103  1.00  0.00     0.074 A 
ATOM     53  C   UNL A   1      39.796  33.736  31.790  1.00  0.00     0.029 A 
ATOM     54  N   UNL A   1      39.990  34.063  29.598  1.00  0.00    -0.354 N 
ATOM     55  N   UNL A   1      43.042  32.282  29.422  1.00  0.00    -0.248 NA
ATOM     56  C   UNL A   1      45.149  32.294  28.500  1.00  0.00     0.031 C 
ATOM     57  C   UNL A   1      41.151  34.029  31.489  1.00  0.00     0.029 A 
ATOM     58  C   UNL A   1      41.259  34.224  30.122  1.00  0.00     0.049 A 
ATOM     59  H   UNL A   1      39.757  34.177  28.649  1.00  0.00     0.167 HD
ATOM     60  C   UNL A   1      43.303  33.583  29.075  1.00  0.00     0.074 A 
ATOM     61  C   UNL A   1      44.647  33.541  28.523  1.00  0.00     0.031 C 
ATOM     62  C   UNL A   1      42.386  34.580  29.268  1.00  0.00     0.034 A 
BRANCH  49  63
ATOM     63  C   UNL A   1      36.475  33.770  30.809  1.00  0.00     0.023 A 
ATOM     64  C   UNL A   1      35.517  34.332  29.938  1.00  0.00     0.031 A 
ATOM     65  C   UNL A   1      36.153  33.831  32.178  1.00  0.00     0.131 A 
ATOM     66  C   UNL A   1      34.390  35.019  30.429  1.00  0.00     0.055 A 
ATOM     67  C   UNL A   1      35.073  34.575  32.672  1.00  0.00     0.041 A 
ATOM     68  F   UNL A   1      36.843  33.133  33.091  1.00  0.00    -0.206 F 
ATOM     69  C   UNL A   1      34.193  35.191  31.795  1.00  0.00     0.022 A 
BRANCH  66  70
ATOM     70  S   UNL A   1      33.174  35.681  29.256  1.00  0.00     0.124 S 
ATOM     71  O   UNL A   1      32.717  34.479  28.566  1.00  0.00    -0.237 OA
ATOM     72  O   UNL A   1      32.210  36.324  30.143  1.00  0.00    -0.237 OA
ATOM     73  O   UNL A   1      33.961  36.601  28.434  1.00  0.00    -0.744 OA
ENDBRANCH  66  70
ENDBRANCH  49  63
BRANCH  50  74
ATOM     74  C   UNL A   1      44.523  29.022  28.305  1.00  0.00     0.023 A 
ATOM     75  C   UNL A   1      45.339  27.963  28.758  1.00  0.00     0.031 A 
ATOM     76  C   UNL A   1      43.850  28.855  27.089  1.00  0.00     0.131 A 
ATOM     77  C   UNL A   1      45.321  26.724  28.103  1.00  0.00     0.055 A 
ATOM     78  C   UNL A   1      43.900  27.639  26.392  1.00  0.00     0.041 A 
ATOM     79  F   UNL A   1      43.038  29.812  26.619  1.00  0.00    -0.206 F 
ATOM     80  C   UNL A   1      44.599  26.551  26.923  1.00  0.00     0.022 A 
BRANCH  77  81
ATOM     81  S   UNL A   1      45.999  25.276  28.972  1.00  0.00     0.124 S 
ATOM     82  O   UNL A   1      44.982  24.262  28.719  1.00  0.00    -0.237 OA
ATOM     83  O   UNL A   1      47.284  25.071  28.306  1.00  0.00    -0.237 OA
ATOM     84  O   UNL A   1      46.115  25.726  30.357  1.00  0.00    -0.744 OA
ENDBRANCH  77  81
ENDBRANCH  50  74
BRANCH  62  85
ATOM     85  C   UNL A   1      42.508  36.005  28.764  1.00  0.00     0.023 A 
ATOM     86  C   UNL A   1      43.080  37.045  29.512  1.00  0.00     0.031 A 
ATOM     87  C   UNL A   1      42.105  36.350  27.449  1.00  0.00     0.131 A 
ATOM     88  C   UNL A   1      43.144  38.358  29.008  1.00  0.00     0.055 A 
ATOM     89  C   UNL A   1      42.243  37.637  26.921  1.00  0.00     0.041 A 
ATOM     90  F   UNL A   1      41.564  35.448  26.616  1.00  0.00    -0.206 F 
ATOM     91  C   UNL A   1      42.747  38.659  27.708  1.00  0.00     0.022 A 
BRANCH  88  92
ATOM     92  S   UNL A   1      43.699  39.679  30.118  1.00  0.00     0.124 S 
ATOM     93  O   UNL A   1      44.743  40.320  29.323  1.00  0.00    -0.237 OA
ATOM     94  O   UNL A   1      42.482  40.460  30.312  1.00  0.00    -0.237 OA
ATOM     95  O   UNL A   1      44.172  38.961  31.300  1.00  0.00    -0.744 OA
ENDBRANCH  88  92
ENDBRANCH  62  85
ENDBRANCH  36  37
ENDBRANCH  28  31
ENDBRANCH  26  27
ENDBRANCH   1  26
TORSDOF 17
ENDMDL
MODEL 2
REMARK VINA RESULT:     -12.9      0.867      3.195
REMARK SMILES Cc1cccc(O[C@H]2CC[C@@]([NH2+]C(C)C)(C(=O)NCCCNC(=O)c3ccc(-c4c5nc(c(-c6cc(S(=O)(=O)[O-])ccc6F)c6ccc([nH]6)c(-c6cc(S(=O)(=O)[O-])ccc6F)c6nc(c(-c7cc(S(=O)(=O)[O-])ccc7F)c7ccc4[nH]7)C=C6)C=C5)cc3)C2)c1
REMARK SMILES IDX 20 1 19 2 18 3 16 4 17 5 11 7 8 8 9 9 88 10 10 11 7 12 6 13
REMARK SMILES IDX 1 14 2 15 3 16 89 17 4 18 5 19 12 20 13 23 14 24 15 25 21 26
REMARK SMILES IDX 22 27 23 28 24 30 25 31 26 32 87 33 27 34 86 35 28 36 29 37
REMARK SMILES IDX 30 38 80 39 31 40 85 41 79 42 81 43 32 44 84 45 78 46 77 47
REMARK SMILES IDX 33 49 65 50 45 51 64 52 46 53 49 54 63 55 82 56 47 57 48 58
REMARK SMILES IDX 62 60 83 61 50 62 34 63 35 64 43 65 36 66 42 67 44 68 41 69
REMARK SMILES IDX 37 70 38 71 39 72 40 73 66 74 67 75 75 76 68 77 74 78 76 79
REMARK SMILES IDX 73 80 69 81 70 82 71 83 72 84 51 85 52 86 60 87 53 88 59 89
REMARK SMILES IDX 61 90 58 91 54 92 55 93 56 94 57 95
REMARK H PARENT 18 6 12 21 12 22 22 29 81 48 49 59
REMARK Flexibility Score: inf
ROOT
ATOM      1  C   UNL A   1      38.315  21.549  25.321  1.00  0.00     0.042 C 
ENDROOT
BRANCH   1   2
ATOM      2  C   UNL A   1      36.815  21.509  25.057  1.00  0.00     0.118 C 
BRANCH   2   3
ATOM      3  N   UNL A   1      36.020  21.621  26.274  1.00  0.00    -0.351 N 
ATOM      4  C   UNL A   1      34.671  21.483  26.475  1.00  0.00     0.281 C 
ATOM      5  O   UNL A   1      34.253  21.524  27.636  1.00  0.00    -0.268 OA
ATOM      6  H   UNL A   1      36.538  21.830  27.085  1.00  0.00     0.163 HD
BRANCH   4   7
ATOM      7  C   UNL A   1      33.697  21.263  25.267  1.00  0.00     0.179 C 
ATOM      8  C   UNL A   1      31.873  22.923  25.085  1.00  0.00     0.180 C 
ATOM      9  C   UNL A   1      32.672  22.946  23.789  1.00  0.00     0.052 C 
ATOM     10  C   UNL A   1      32.208  21.532  25.633  1.00  0.00     0.124 C 
ATOM     11  C   UNL A   1      34.006  22.327  24.185  1.00  0.00     0.083 C 
BRANCH   8  12
ATOM     12  O   UNL A   1      32.339  23.892  26.020  1.00  0.00    -0.490 OA
BRANCH  12  13
ATOM     13  C   UNL A   1      32.046  25.209  25.817  1.00  0.00     0.119 A 
ATOM     14  C   UNL A   1      34.071  28.404  26.296  1.00  0.00     0.044 C 
ATOM     15  C   UNL A   1      32.948  27.469  25.954  1.00  0.00    -0.047 A 
ATOM     16  C   UNL A   1      31.758  27.965  25.411  1.00  0.00     0.003 A 
ATOM     17  C   UNL A   1      33.084  26.088  26.141  1.00  0.00     0.049 A 
ATOM     18  C   UNL A   1      30.716  27.095  25.091  1.00  0.00     0.004 A 
ATOM     19  C   UNL A   1      30.856  25.719  25.301  1.00  0.00     0.046 A 
ENDBRANCH  12  13
ENDBRANCH   8  12
BRANCH   7  20
ATOM     20  N   UNL A   1      33.835  19.900  24.685  1.00  0.00    -0.332 N 
ATOM     21  H   UNL A   1      34.434  19.357  25.308  1.00  0.00     0.347 HD
ATOM     22  H   UNL A   1      34.213  20.045  23.749  1.00  0.00     0.347 HD
BRANCH  20  23
ATOM     23  C   UNL A   1      32.594  19.137  24.485  1.00  0.00     0.176 C 
ATOM     24  C   UNL A   1      32.397  18.706  23.033  1.00  0.00     0.075 C 
ATOM     25  C   UNL A   1      32.675  17.897  25.382  1.00  0.00     0.075 C 
ENDBRANCH  20  23
ENDBRANCH   7  20
ENDBRANCH   4   7
ENDBRANCH   2   3
ENDBRANCH   1   2
BRANCH   1  26
ATOM     26  C   UNL A   1      38.741  22.729  26.184  1.00  0.00     0.118 C 
BRANCH  26  27
ATOM     27  N   UNL A   1      40.194  22.831  26.335  1.00  0.00    -0.352 N 
ATOM     28  C   UNL A   1      40.955  23.947  26.636  1.00  0.00     0.251 C 
ATOM     29  H   UNL A   1      40.696  21.994  26.206  1.00  0.00     0.163 HD
ATOM     30  O   UNL A   1      42.172  23.900  26.728  1.00  0.00    -0.269 OA
BRANCH  28  31
ATOM     31  C   UNL A   1      40.236  25.194  26.974  1.00  0.00     0.039 A 
ATOM     32  C   UNL A   1      40.636  26.358  26.312  1.00  0.00     0.014 A 
ATOM     33  C   UNL A   1      39.416  25.251  28.097  1.00  0.00     0.014 A 
ATOM     34  C   UNL A   1      40.407  27.590  26.914  1.00  0.00     0.010 A 
ATOM     35  C   UNL A   1      39.269  26.465  28.741  1.00  0.00     0.010 A 
ATOM     36  C   UNL A   1      39.823  27.624  28.183  1.00  0.00    -0.014 A 
BRANCH  36  37
ATOM     37  C   UNL A   1      39.914  28.796  29.050  1.00  0.00     0.031 A 
ATOM     38  C   UNL A   1      38.863  29.832  29.046  1.00  0.00     0.074 A 
ATOM     39  C   UNL A   1      40.973  28.934  29.878  1.00  0.00     0.049 A 
ATOM     40  N   UNL A   1      39.060  31.072  29.347  1.00  0.00    -0.248 NA
ATOM     41  C   UNL A   1      37.491  29.547  28.647  1.00  0.00     0.031 C 
ATOM     42  C   UNL A   1      41.140  29.906  30.954  1.00  0.00     0.029 A 
ATOM     43  N   UNL A   1      42.238  28.366  29.722  1.00  0.00    -0.354 N 
ATOM     44  C   UNL A   1      37.830  31.675  29.462  1.00  0.00     0.074 A 
ATOM     45  C   UNL A   1      36.890  30.701  28.952  1.00  0.00     0.031 C 
ATOM     46  C   UNL A   1      42.451  30.072  31.186  1.00  0.00     0.029 A 
ATOM     47  C   UNL A   1      43.171  29.310  30.181  1.00  0.00     0.049 A 
ATOM     48  H   UNL A   1      42.437  27.473  29.359  1.00  0.00     0.167 HD
ATOM     49  C   UNL A   1      37.718  32.873  30.106  1.00  0.00     0.034 A 
ATOM     50  C   UNL A   1      44.142  29.803  29.360  1.00  0.00     0.034 A 
ATOM     51  C   UNL A   1      39.018  33.387  30.532  1.00  0.00     0.049 A 
ATOM     52  C   UNL A   1      44.080  31.303  29.187  1.00  0.00     0.074 A 
ATOM     53  C   UNL A   1      39.677  33.378  31.751  1.00  0.00     0.029 A 
ATOM     54  N   UNL A   1      39.959  33.771  29.581  1.00  0.00    -0.354 N 
ATOM     55  N   UNL A   1      43.038  32.031  29.484  1.00  0.00    -0.248 NA
ATOM     56  C   UNL A   1      45.182  32.095  28.653  1.00  0.00     0.031 C 
ATOM     57  C   UNL A   1      41.039  33.695  31.517  1.00  0.00     0.029 A 
ATOM     58  C   UNL A   1      41.203  33.932  30.162  1.00  0.00     0.049 A 
ATOM     59  H   UNL A   1      39.765  33.910  28.626  1.00  0.00     0.167 HD
ATOM     60  C   UNL A   1      43.297  33.345  29.185  1.00  0.00     0.074 A 
ATOM     61  C   UNL A   1      44.663  33.335  28.691  1.00  0.00     0.031 C 
ATOM     62  C   UNL A   1      42.360  34.326  29.367  1.00  0.00     0.034 A 
BRANCH  49  63
ATOM     63  C   UNL A   1      36.400  33.402  30.631  1.00  0.00     0.023 A 
ATOM     64  C   UNL A   1      35.532  34.100  29.763  1.00  0.00     0.031 A 
ATOM     65  C   UNL A   1      35.965  33.304  31.966  1.00  0.00     0.131 A 
ATOM     66  C   UNL A   1      34.384  34.758  30.244  1.00  0.00     0.055 A 
ATOM     67  C   UNL A   1      34.865  34.016  32.461  1.00  0.00     0.041 A 
ATOM     68  F   UNL A   1      36.560  32.476  32.836  1.00  0.00    -0.206 F 
ATOM     69  C   UNL A   1      34.075  34.765  31.600  1.00  0.00     0.022 A 
BRANCH  66  70
ATOM     70  S   UNL A   1      33.286  35.599  29.069  1.00  0.00     0.124 S 
ATOM     71  O   UNL A   1      34.230  36.290  28.197  1.00  0.00    -0.237 OA
ATOM     72  O   UNL A   1      32.556  34.482  28.477  1.00  0.00    -0.237 OA
ATOM     73  O   UNL A   1      32.482  36.474  29.923  1.00  0.00    -0.744 OA
ENDBRANCH  66  70
ENDBRANCH  49  63
BRANCH  50  74
ATOM     74  C   UNL A   1      44.607  28.823  28.338  1.00  0.00     0.023 A 
ATOM     75  C   UNL A   1      45.412  27.757  28.795  1.00  0.00     0.031 A 
ATOM     76  C   UNL A   1      43.991  28.688  27.087  1.00  0.00     0.131 A 
ATOM     77  C   UNL A   1      45.436  26.539  28.103  1.00  0.00     0.055 A 
ATOM     78  C   UNL A   1      44.085  27.494  26.357  1.00  0.00     0.041 A 
ATOM     79  F   UNL A   1      43.192  29.652  26.610  1.00  0.00    -0.206 F 
ATOM     80  C   UNL A   1      44.769  26.397  26.887  1.00  0.00     0.022 A 
BRANCH  77  81
ATOM     81  S   UNL A   1      46.087  25.071  28.958  1.00  0.00     0.124 S 
ATOM     82  O   UNL A   1      47.297  24.783  28.196  1.00  0.00    -0.237 OA
ATOM     83  O   UNL A   1      46.291  25.554  30.323  1.00  0.00    -0.237 OA
ATOM     84  O   UNL A   1      45.011  24.091  28.831  1.00  0.00    -0.744 OA
ENDBRANCH  77  81
ENDBRANCH  50  74
BRANCH  62  85
ATOM     85  C   UNL A   1      42.485  35.766  28.911  1.00  0.00     0.023 A 
ATOM     86  C   UNL A   1      43.169  36.753  29.636  1.00  0.00     0.031 A 
ATOM     87  C   UNL A   1      41.964  36.181  27.659  1.00  0.00     0.131 A 
ATOM     88  C   UNL A   1      43.232  38.084  29.181  1.00  0.00     0.055 A 
ATOM     89  C   UNL A   1      42.097  37.485  27.171  1.00  0.00     0.041 A 
ATOM     90  F   UNL A   1      41.308  35.335  26.851  1.00  0.00    -0.206 F 
ATOM     91  C   UNL A   1      42.717  38.453  27.942  1.00  0.00     0.022 A 
BRANCH  88  92
ATOM     92  S   UNL A   1      43.946  39.336  30.280  1.00  0.00     0.124 S 
ATOM     93  O   UNL A   1      45.183  39.676  29.581  1.00  0.00    -0.237 OA
ATOM     94  O   UNL A   1      42.918  40.371  30.289  1.00  0.00    -0.237 OA
ATOM     95  O   UNL A   1      44.124  38.624  31.544  1.00  0.00    -0.744 OA
ENDBRANCH  88  92
ENDBRANCH  62  85
ENDBRANCH  36  37
ENDBRANCH  28  31
ENDBRANCH  26  27
ENDBRANCH   1  26
TORSDOF 17
ENDMDL
MODEL 3
REMARK VINA RESULT:     -12.7      4.347     10.622
REMARK SMILES Cc1cccc(O[C@H]2CC[C@@]([NH2+]C(C)C)(C(=O)NCCCNC(=O)c3ccc(-c4c5nc(c(-c6cc(S(=O)(=O)[O-])ccc6F)c6ccc([nH]6)c(-c6cc(S(=O)(=O)[O-])ccc6F)c6nc(c(-c7cc(S(=O)(=O)[O-])ccc7F)c7ccc4[nH]7)C=C6)C=C5)cc3)C2)c1
REMARK SMILES IDX 20 1 19 2 18 3 16 4 17 5 11 7 8 8 9 9 88 10 10 11 7 12 6 13
REMARK SMILES IDX 1 14 2 15 3 16 89 17 4 18 5 19 12 20 13 23 14 24 15 25 21 26
REMARK SMILES IDX 22 27 23 28 24 30 25 31 26 32 87 33 27 34 86 35 28 36 29 37
REMARK SMILES IDX 30 38 80 39 31 40 85 41 79 42 81 43 32 44 84 45 78 46 77 47
REMARK SMILES IDX 33 49 65 50 45 51 64 52 46 53 49 54 63 55 82 56 47 57 48 58
REMARK SMILES IDX 62 60 83 61 50 62 34 63 35 64 43 65 36 66 42 67 44 68 41 69
REMARK SMILES IDX 37 70 38 71 39 72 40 73 66 74 67 75 75 76 68 77 74 78 76 79
REMARK SMILES IDX 73 80 69 81 70 82 71 83 72 84 51 85 52 86 60 87 53 88 59 89
REMARK SMILES IDX 61 90 58 91 54 92 55 93 56 94 57 95
REMARK H PARENT 18 6 12 21 12 22 22 29 81 48 49 59
REMARK Flexibility Score: inf
ROOT
ATOM      1  C   UNL A   1      33.124  31.386  27.258  1.00  0.00     0.042 C 
ENDROOT
BRANCH   1   2
ATOM      2  C   UNL A   1      32.451  30.551  26.176  1.00  0.00     0.118 C 
BRANCH   2   3
ATOM      3  N   UNL A   1      31.870  29.316  26.690  1.00  0.00    -0.351 N 
ATOM      4  C   UNL A   1      31.457  28.184  26.035  1.00  0.00     0.281 C 
ATOM      5  O   UNL A   1      31.092  27.222  26.720  1.00  0.00    -0.268 OA
ATOM      6  H   UNL A   1      31.755  29.291  27.667  1.00  0.00     0.163 HD
BRANCH   4   7
ATOM      7  C   UNL A   1      31.469  28.111  24.471  1.00  0.00     0.179 C 
ATOM      8  C   UNL A   1      32.507  26.072  23.532  1.00  0.00     0.180 C 
ATOM      9  C   UNL A   1      31.077  26.161  23.018  1.00  0.00     0.052 C 
ATOM     10  C   UNL A   1      32.797  27.530  23.901  1.00  0.00     0.124 C 
ATOM     11  C   UNL A   1      30.398  27.087  24.016  1.00  0.00     0.083 C 
BRANCH   8  12
ATOM     12  O   UNL A   1      32.603  25.287  24.716  1.00  0.00    -0.490 OA
BRANCH  12  13
ATOM     13  C   UNL A   1      33.419  24.193  24.727  1.00  0.00     0.119 A 
ATOM     14  C   UNL A   1      37.161  23.775  25.333  1.00  0.00     0.044 C 
ATOM     15  C   UNL A   1      35.721  23.459  25.055  1.00  0.00    -0.047 A 
ATOM     16  C   UNL A   1      35.307  22.132  24.902  1.00  0.00     0.003 A 
ATOM     17  C   UNL A   1      34.765  24.480  24.978  1.00  0.00     0.049 A 
ATOM     18  C   UNL A   1      33.968  21.839  24.646  1.00  0.00     0.004 A 
ATOM     19  C   UNL A   1      33.026  22.868  24.550  1.00  0.00     0.046 A 
ENDBRANCH  12  13
ENDBRANCH   8  12
BRANCH   7  20
ATOM     20  N   UNL A   1      31.191  29.436  23.852  1.00  0.00    -0.332 N 
ATOM     21  H   UNL A   1      31.842  29.557  23.075  1.00  0.00     0.347 HD
ATOM     22  H   UNL A   1      31.298  30.112  24.607  1.00  0.00     0.347 HD
BRANCH  20  23
ATOM     23  C   UNL A   1      29.832  29.651  23.332  1.00  0.00     0.176 C 
ATOM     24  C   UNL A   1      29.199  30.937  23.859  1.00  0.00     0.075 C 
ATOM     25  C   UNL A   1      29.937  29.719  21.804  1.00  0.00     0.075 C 
ENDBRANCH  20  23
ENDBRANCH   7  20
ENDBRANCH   4   7
ENDBRANCH   2   3
ENDBRANCH   1   2
BRANCH   1  26
ATOM     26  C   UNL A   1      34.260  30.655  27.960  1.00  0.00     0.118 C 
BRANCH  26  27
ATOM     27  N   UNL A   1      34.954  31.488  28.943  1.00  0.00    -0.352 N 
ATOM     28  C   UNL A   1      36.148  31.239  29.598  1.00  0.00     0.251 C 
ATOM     29  H   UNL A   1      34.513  32.339  29.169  1.00  0.00     0.163 HD
ATOM     30  O   UNL A   1      36.622  32.021  30.409  1.00  0.00    -0.269 OA
BRANCH  28  31
ATOM     31  C   UNL A   1      36.915  30.043  29.191  1.00  0.00     0.039 A 
ATOM     32  C   UNL A   1      37.146  29.072  30.170  1.00  0.00     0.014 A 
ATOM     33  C   UNL A   1      37.612  30.030  27.986  1.00  0.00     0.014 A 
ATOM     34  C   UNL A   1      38.243  28.228  30.038  1.00  0.00     0.010 A 
ATOM     35  C   UNL A   1      38.754  29.257  27.898  1.00  0.00     0.010 A 
ATOM     36  C   UNL A   1      39.105  28.406  28.954  1.00  0.00    -0.014 A 
BRANCH  36  37
ATOM     37  C   UNL A   1      40.463  27.867  28.944  1.00  0.00     0.031 A 
ATOM     38  C   UNL A   1      40.734  26.486  28.498  1.00  0.00     0.074 A 
ATOM     39  C   UNL A   1      41.494  28.646  29.341  1.00  0.00     0.049 A 
ATOM     40  N   UNL A   1      41.729  25.771  28.904  1.00  0.00    -0.248 NA
ATOM     41  C   UNL A   1      39.855  25.780  27.576  1.00  0.00     0.031 C 
ATOM     42  C   UNL A   1      42.921  28.370  29.205  1.00  0.00     0.029 A 
ATOM     43  N   UNL A   1      41.431  29.746  30.196  1.00  0.00    -0.354 N 
ATOM     44  C   UNL A   1      41.791  24.652  28.109  1.00  0.00     0.074 A 
ATOM     45  C   UNL A   1      40.564  24.672  27.343  1.00  0.00     0.031 C 
ATOM     46  C   UNL A   1      43.586  29.075  30.132  1.00  0.00     0.029 A 
ATOM     47  C   UNL A   1      42.600  29.727  30.975  1.00  0.00     0.049 A 
ATOM     48  H   UNL A   1      40.706  30.409  30.244  1.00  0.00     0.167 HD
ATOM     49  C   UNL A   1      42.931  23.903  28.077  1.00  0.00     0.034 A 
ATOM     50  C   UNL A   1      42.543  29.644  32.336  1.00  0.00     0.034 A 
ATOM     51  C   UNL A   1      43.940  24.406  29.007  1.00  0.00     0.049 A 
ATOM     52  C   UNL A   1      43.245  28.428  32.894  1.00  0.00     0.074 A 
ATOM     53  C   UNL A   1      45.067  25.194  28.833  1.00  0.00     0.029 A 
ATOM     54  N   UNL A   1      43.713  24.344  30.379  1.00  0.00    -0.354 N 
ATOM     55  N   UNL A   1      43.574  27.383  32.185  1.00  0.00    -0.248 NA
ATOM     56  C   UNL A   1      43.618  28.291  34.298  1.00  0.00     0.031 C 
ATOM     57  C   UNL A   1      45.477  25.662  30.107  1.00  0.00     0.029 A 
ATOM     58  C   UNL A   1      44.623  25.130  31.060  1.00  0.00     0.049 A 
ATOM     59  H   UNL A   1      43.003  23.812  30.805  1.00  0.00     0.167 HD
ATOM     60  C   UNL A   1      44.171  26.449  32.994  1.00  0.00     0.074 A 
ATOM     61  C   UNL A   1      44.196  27.077  34.304  1.00  0.00     0.031 C 
ATOM     62  C   UNL A   1      44.586  25.237  32.514  1.00  0.00     0.034 A 
BRANCH  49  63
ATOM     63  C   UNL A   1      43.239  22.924  26.963  1.00  0.00     0.023 A 
ATOM     64  C   UNL A   1      42.719  21.612  27.024  1.00  0.00     0.031 A 
ATOM     65  C   UNL A   1      44.067  23.193  25.857  1.00  0.00     0.131 A 
ATOM     66  C   UNL A   1      43.119  20.620  26.107  1.00  0.00     0.055 A 
ATOM     67  C   UNL A   1      44.522  22.192  24.988  1.00  0.00     0.041 A 
ATOM     68  F   UNL A   1      44.431  24.444  25.544  1.00  0.00    -0.206 F 
ATOM     69  C   UNL A   1      44.062  20.891  25.121  1.00  0.00     0.022 A 
BRANCH  66  70
ATOM     70  S   UNL A   1      42.380  18.966  26.213  1.00  0.00     0.124 S 
ATOM     71  O   UNL A   1      42.525  18.647  27.629  1.00  0.00    -0.237 OA
ATOM     72  O   UNL A   1      41.020  19.207  25.740  1.00  0.00    -0.237 OA
ATOM     73  O   UNL A   1      43.209  18.165  25.313  1.00  0.00    -0.744 OA
ENDBRANCH  66  70
ENDBRANCH  49  63
BRANCH  50  74
ATOM     74  C   UNL A   1      41.342  30.307  32.920  1.00  0.00     0.023 A 
ATOM     75  C   UNL A   1      41.366  31.715  33.000  1.00  0.00     0.031 A 
ATOM     76  C   UNL A   1      40.101  29.666  33.018  1.00  0.00     0.131 A 
ATOM     77  C   UNL A   1      40.172  32.447  32.987  1.00  0.00     0.055 A 
ATOM     78  C   UNL A   1      38.909  30.402  33.088  1.00  0.00     0.041 A 
ATOM     79  F   UNL A   1      40.008  28.333  32.921  1.00  0.00    -0.206 F 
ATOM     80  C   UNL A   1      38.938  31.798  33.025  1.00  0.00     0.022 A 
BRANCH  77  81
ATOM     81  S   UNL A   1      40.249  34.226  32.616  1.00  0.00     0.124 S 
ATOM     82  O   UNL A   1      40.207  34.821  33.947  1.00  0.00    -0.237 OA
ATOM     83  O   UNL A   1      41.518  34.353  31.900  1.00  0.00    -0.237 OA
ATOM     84  O   UNL A   1      39.073  34.457  31.781  1.00  0.00    -0.744 OA
ENDBRANCH  77  81
ENDBRANCH  50  74
BRANCH  62  85
ATOM     85  C   UNL A   1      45.093  24.079  33.351  1.00  0.00     0.023 A 
ATOM     86  C   UNL A   1      46.379  24.032  33.912  1.00  0.00     0.031 A 
ATOM     87  C   UNL A   1      44.246  22.990  33.678  1.00  0.00     0.131 A 
ATOM     88  C   UNL A   1      46.810  22.920  34.659  1.00  0.00     0.055 A 
ATOM     89  C   UNL A   1      44.650  21.924  34.487  1.00  0.00     0.041 A 
ATOM     90  F   UNL A   1      42.984  22.917  33.229  1.00  0.00    -0.206 F 
ATOM     91  C   UNL A   1      45.948  21.872  34.968  1.00  0.00     0.022 A 
BRANCH  88  92
ATOM     92  S   UNL A   1      48.550  22.845  35.163  1.00  0.00     0.124 S 
ATOM     93  O   UNL A   1      48.981  24.224  34.954  1.00  0.00    -0.237 OA
ATOM     94  O   UNL A   1      48.457  22.414  36.553  1.00  0.00    -0.237 OA
ATOM     95  O   UNL A   1      49.134  21.867  34.246  1.00  0.00    -0.744 OA
ENDBRANCH  88  92
ENDBRANCH  62  85
ENDBRANCH  36  37
ENDBRANCH  28  31
ENDBRANCH  26  27
ENDBRANCH   1  26
TORSDOF 17
ENDMDL
