MODEL 1
REMARK VINA RESULT:     -12.0      0.000      0.000
REMARK SMILES O=C(NCCCNC(=O)[C@H](Cc1ccccc1)SCc1nccs1)c1ccc(-c2c3nc(c(-c4cc(S(=O)(=O)[O-])ccc4F)c4ccc([nH]4)c(-c4cc(S(=O)(=O)[O-])ccc4F)c4nc(c(-c5cc(S(=O)(=O)[O-])ccc5F)c5ccc2[nH]5)C=C4)C=C3)cc1
REMARK SMILES IDX 5 1 4 2 3 3 1 4 2 5 25 7 26 8 87 9 27 10 86 11 28 12 29 13
REMARK SMILES IDX 30 14 80 15 31 16 85 17 79 18 81 19 32 20 84 21 78 22 77 23
REMARK SMILES IDX 33 25 65 26 45 27 64 28 46 29 49 30 63 31 82 32 47 33 48 34
REMARK SMILES IDX 62 36 83 37 50 38 34 39 35 40 43 41 36 42 42 43 44 44 41 45
REMARK SMILES IDX 37 46 38 47 39 48 40 49 66 50 67 51 75 52 68 53 74 54 76 55
REMARK SMILES IDX 73 56 69 57 70 58 71 59 72 60 51 61 52 62 60 63 53 64 59 65
REMARK SMILES IDX 61 66 58 67 54 68 55 69 56 70 57 71 6 72 7 73 8 74 9 76
REMARK SMILES IDX 10 77 18 78 19 79 20 80 21 81 24 82 22 83 23 84 11 85 12 86
REMARK SMILES IDX 13 87 17 88 14 89 16 90 15 91
REMARK H PARENT 3 6 81 24 49 35 7 75
REMARK Flexibility Score: inf
ROOT
ATOM      1  C   UNL A   1      35.533  22.066  25.383  1.00  0.00     0.042 C 
ENDROOT
BRANCH   1   2
ATOM      2  C   UNL A   1      37.217  21.987  24.975  1.00  0.00     0.118 C 
BRANCH   2   3
ATOM      3  N   UNL A   1      38.035  20.894  25.526  1.00  0.00    -0.352 N 
ATOM      4  O   UNL A   1      39.936  19.881  26.202  1.00  0.00    -0.269 OA
ATOM      5  C   UNL A   1      39.297  20.915  26.049  1.00  0.00     0.251 C 
ATOM      6  H   UNL A   1      37.606  20.008  25.516  1.00  0.00     0.163 HD
BRANCH   5   7
ATOM      7  C   UNL A   1      39.826  22.208  26.484  1.00  0.00     0.039 A 
ATOM      8  C   UNL A   1      40.923  22.202  27.349  1.00  0.00     0.014 A 
ATOM      9  C   UNL A   1      39.249  23.397  26.040  1.00  0.00     0.014 A 
ATOM     10  C   UNL A   1      41.372  23.391  27.875  1.00  0.00     0.010 A 
ATOM     11  C   UNL A   1      39.777  24.604  26.488  1.00  0.00     0.010 A 
ATOM     12  C   UNL A   1      40.838  24.600  27.407  1.00  0.00    -0.014 A 
BRANCH  12  13
ATOM     13  C   UNL A   1      41.516  25.840  27.821  1.00  0.00     0.031 A 
ATOM     14  C   UNL A   1      42.911  26.132  27.377  1.00  0.00     0.074 A 
ATOM     15  C   UNL A   1      40.787  26.721  28.531  1.00  0.00     0.049 A 
ATOM     16  N   UNL A   1      43.644  27.183  27.624  1.00  0.00    -0.248 NA
ATOM     17  C   UNL A   1      43.577  25.108  26.557  1.00  0.00     0.031 C 
ATOM     18  C   UNL A   1      39.404  26.495  28.977  1.00  0.00     0.029 A 
ATOM     19  N   UNL A   1      41.066  27.986  28.964  1.00  0.00    -0.354 N 
ATOM     20  C   UNL A   1      44.862  26.950  27.001  1.00  0.00     0.074 A 
ATOM     21  C   UNL A   1      44.781  25.638  26.392  1.00  0.00     0.031 C 
ATOM     22  C   UNL A   1      38.938  27.609  29.552  1.00  0.00     0.029 A 
ATOM     23  C   UNL A   1      40.013  28.587  29.612  1.00  0.00     0.049 A 
ATOM     24  H   UNL A   1      41.938  28.424  28.826  1.00  0.00     0.167 HD
ATOM     25  C   UNL A   1      45.940  27.770  26.949  1.00  0.00     0.034 A 
ATOM     26  C   UNL A   1      39.939  29.784  30.219  1.00  0.00     0.034 A 
ATOM     27  C   UNL A   1      45.973  29.064  27.591  1.00  0.00     0.049 A 
ATOM     28  C   UNL A   1      41.169  30.648  30.187  1.00  0.00     0.074 A 
ATOM     29  C   UNL A   1      47.010  29.976  27.651  1.00  0.00     0.029 A 
ATOM     30  N   UNL A   1      44.909  29.629  28.291  1.00  0.00    -0.354 N 
ATOM     31  N   UNL A   1      42.330  30.403  29.620  1.00  0.00    -0.248 NA
ATOM     32  C   UNL A   1      41.084  31.939  30.869  1.00  0.00     0.031 C 
ATOM     33  C   UNL A   1      46.596  31.060  28.434  1.00  0.00     0.029 A 
ATOM     34  C   UNL A   1      45.272  30.867  28.799  1.00  0.00     0.049 A 
ATOM     35  H   UNL A   1      44.025  29.210  28.408  1.00  0.00     0.167 HD
ATOM     36  C   UNL A   1      43.115  31.521  29.873  1.00  0.00     0.074 A 
ATOM     37  C   UNL A   1      42.277  32.451  30.606  1.00  0.00     0.031 C 
ATOM     38  C   UNL A   1      44.410  31.758  29.543  1.00  0.00     0.034 A 
BRANCH  25  39
ATOM     39  C   UNL A   1      47.164  27.262  26.229  1.00  0.00     0.023 A 
ATOM     40  C   UNL A   1      48.134  26.477  26.879  1.00  0.00     0.031 A 
ATOM     41  C   UNL A   1      47.391  27.597  24.882  1.00  0.00     0.131 A 
ATOM     42  C   UNL A   1      49.311  26.113  26.207  1.00  0.00     0.055 A 
ATOM     43  C   UNL A   1      48.527  27.166  24.195  1.00  0.00     0.041 A 
ATOM     44  F   UNL A   1      46.518  28.369  24.214  1.00  0.00    -0.206 F 
ATOM     45  C   UNL A   1      49.501  26.429  24.860  1.00  0.00     0.022 A 
BRANCH  42  46
ATOM     46  S   UNL A   1      50.649  25.337  27.156  1.00  0.00     0.124 S 
ATOM     47  O   UNL A   1      51.084  26.440  28.010  1.00  0.00    -0.237 OA
ATOM     48  O   UNL A   1      49.966  24.240  27.830  1.00  0.00    -0.237 OA
ATOM     49  O   UNL A   1      51.611  24.938  26.129  1.00  0.00    -0.744 OA
ENDBRANCH  42  46
ENDBRANCH  25  39
BRANCH  26  50
ATOM     50  C   UNL A   1      38.700  30.193  30.941  1.00  0.00     0.023 A 
ATOM     51  C   UNL A   1      37.694  30.931  30.302  1.00  0.00     0.031 A 
ATOM     52  C   UNL A   1      38.517  29.871  32.300  1.00  0.00     0.131 A 
ATOM     53  C   UNL A   1      36.575  31.365  31.031  1.00  0.00     0.055 A 
ATOM     54  C   UNL A   1      37.371  30.244  33.001  1.00  0.00     0.041 A 
ATOM     55  F   UNL A   1      39.446  29.166  32.964  1.00  0.00    -0.206 F 
ATOM     56  C   UNL A   1      36.398  31.011  32.371  1.00  0.00     0.022 A 
BRANCH  53  57
ATOM     57  S   UNL A   1      35.405  32.496  30.231  1.00  0.00     0.124 S 
ATOM     58  O   UNL A   1      36.224  33.687  30.043  1.00  0.00    -0.237 OA
ATOM     59  O   UNL A   1      35.054  31.759  29.021  1.00  0.00    -0.237 OA
ATOM     60  O   UNL A   1      34.331  32.624  31.215  1.00  0.00    -0.744 OA
ENDBRANCH  53  57
ENDBRANCH  26  50
BRANCH  38  61
ATOM     61  C   UNL A   1      44.962  33.097  29.958  1.00  0.00     0.023 A 
ATOM     62  C   UNL A   1      45.552  33.288  31.218  1.00  0.00     0.031 A 
ATOM     63  C   UNL A   1      44.850  34.204  29.100  1.00  0.00     0.131 A 
ATOM     64  C   UNL A   1      45.939  34.574  31.618  1.00  0.00     0.055 A 
ATOM     65  C   UNL A   1      45.303  35.468  29.475  1.00  0.00     0.041 A 
ATOM     66  F   UNL A   1      44.291  34.075  27.885  1.00  0.00    -0.206 F 
ATOM     67  C   UNL A   1      45.835  35.662  30.747  1.00  0.00     0.022 A 
BRANCH  64  68
ATOM     68  S   UNL A   1      46.464  34.826  33.334  1.00  0.00     0.124 S 
ATOM     69  O   UNL A   1      46.402  33.470  33.871  1.00  0.00    -0.237 OA
ATOM     70  O   UNL A   1      47.801  35.388  33.172  1.00  0.00    -0.237 OA
ATOM     71  O   UNL A   1      45.463  35.750  33.866  1.00  0.00    -0.744 OA
ENDBRANCH  64  68
ENDBRANCH  38  61
ENDBRANCH  12  13
ENDBRANCH   5   7
ENDBRANCH   2   3
ENDBRANCH   1   2
BRANCH   1  72
ATOM     72  C   UNL A   1      34.398  22.606  27.176  1.00  0.00     0.117 C 
BRANCH  72  73
ATOM     73  N   UNL A   1      32.824  22.761  27.424  1.00  0.00    -0.355 N 
ATOM     74  C   UNL A   1      31.815  23.306  26.676  1.00  0.00     0.233 C 
ATOM     75  H   UNL A   1      32.521  22.390  28.285  1.00  0.00     0.163 HD
ATOM     76  O   UNL A   1      30.701  23.307  27.211  1.00  0.00    -0.274 OA
BRANCH  74  77
ATOM     77  C   UNL A   1      32.057  23.795  25.217  1.00  0.00     0.140 C 
BRANCH  77  78
ATOM     78  S   UNL A   1      31.236  22.648  23.995  1.00  0.00    -0.141 SA
BRANCH  78  79
ATOM     79  C   UNL A   1      32.524  21.448  23.513  1.00  0.00     0.137 C 
BRANCH  79  80
ATOM     80  C   UNL A   1      32.473  20.101  24.167  1.00  0.00     0.102 A 
ATOM     81  N   UNL A   1      32.595  19.874  25.460  1.00  0.00    -0.249 NA
ATOM     82  S   UNL A   1      32.456  18.679  23.184  1.00  0.00    -0.126 S 
ATOM     83  C   UNL A   1      32.640  18.515  25.703  1.00  0.00     0.123 A 
ATOM     84  C   UNL A   1      32.555  17.708  24.591  1.00  0.00     0.087 A 
ENDBRANCH  79  80
ENDBRANCH  78  79
ENDBRANCH  77  78
BRANCH  77  85
ATOM     85  C   UNL A   1      31.979  25.287  24.839  1.00  0.00     0.060 C 
BRANCH  85  86
ATOM     86  C   UNL A   1      32.489  26.192  25.925  1.00  0.00    -0.046 A 
ATOM     87  C   UNL A   1      34.136  26.920  25.720  1.00  0.00     0.004 A 
ATOM     88  C   UNL A   1      31.233  27.049  26.898  1.00  0.00     0.004 A 
ATOM     89  C   UNL A   1      34.420  28.615  26.278  1.00  0.00     0.000 A 
ATOM     90  C   UNL A   1      31.542  28.717  27.485  1.00  0.00     0.000 A 
ATOM     91  C   UNL A   1      33.141  29.485  27.218  1.00  0.00     0.000 A 
ENDBRANCH  85  86
ENDBRANCH  77  85
ENDBRANCH  74  77
ENDBRANCH  72  73
ENDBRANCH   1  72
TORSDOF 18
ENDMDL
MODEL 2
REMARK VINA RESULT:     -12.0      3.809      9.242
REMARK SMILES O=C(NCCCNC(=O)[C@H](Cc1ccccc1)SCc1nccs1)c1ccc(-c2c3nc(c(-c4cc(S(=O)(=O)[O-])ccc4F)c4ccc([nH]4)c(-c4cc(S(=O)(=O)[O-])ccc4F)c4nc(c(-c5cc(S(=O)(=O)[O-])ccc5F)c5ccc2[nH]5)C=C4)C=C3)cc1
REMARK SMILES IDX 5 1 4 2 3 3 1 4 2 5 25 7 26 8 87 9 27 10 86 11 28 12 29 13
REMARK SMILES IDX 30 14 80 15 31 16 85 17 79 18 81 19 32 20 84 21 78 22 77 23
REMARK SMILES IDX 33 25 65 26 45 27 64 28 46 29 49 30 63 31 82 32 47 33 48 34
REMARK SMILES IDX 62 36 83 37 50 38 34 39 35 40 43 41 36 42 42 43 44 44 41 45
REMARK SMILES IDX 37 46 38 47 39 48 40 49 66 50 67 51 75 52 68 53 74 54 76 55
REMARK SMILES IDX 73 56 69 57 70 58 71 59 72 60 51 61 52 62 60 63 53 64 59 65
REMARK SMILES IDX 61 66 58 67 54 68 55 69 56 70 57 71 6 72 7 73 8 74 9 76
REMARK SMILES IDX 10 77 18 78 19 79 20 80 21 81 24 82 22 83 23 84 11 85 12 86
REMARK SMILES IDX 13 87 17 88 14 89 16 90 15 91
REMARK H PARENT 3 6 81 24 49 35 7 75
REMARK Flexibility Score: inf
ROOT
ATOM      1  C   UNL A   1      33.005  27.391  24.819  1.00  0.00     0.042 C 
ENDROOT
BRANCH   1   2
ATOM      2  C   UNL A   1      33.926  28.708  25.471  1.00  0.00     0.118 C 
BRANCH   2   3
ATOM      3  N   UNL A   1      33.237  29.968  25.800  1.00  0.00    -0.352 N 
ATOM      4  O   UNL A   1      32.567  31.663  27.132  1.00  0.00    -0.269 OA
ATOM      5  C   UNL A   1      33.407  30.814  26.859  1.00  0.00     0.251 C 
ATOM      6  H   UNL A   1      32.546  30.243  25.156  1.00  0.00     0.163 HD
BRANCH   5   7
ATOM      7  C   UNL A   1      34.660  30.714  27.610  1.00  0.00     0.039 A 
ATOM      8  C   UNL A   1      34.919  29.516  28.280  1.00  0.00     0.014 A 
ATOM      9  C   UNL A   1      35.554  31.782  27.643  1.00  0.00     0.014 A 
ATOM     10  C   UNL A   1      36.025  29.426  29.094  1.00  0.00     0.010 A 
ATOM     11  C   UNL A   1      36.728  31.648  28.379  1.00  0.00     0.010 A 
ATOM     12  C   UNL A   1      36.962  30.469  29.105  1.00  0.00    -0.014 A 
BRANCH  12  13
ATOM     13  C   UNL A   1      38.237  30.222  29.800  1.00  0.00     0.031 A 
ATOM     14  C   UNL A   1      38.461  30.733  31.185  1.00  0.00     0.074 A 
ATOM     15  C   UNL A   1      39.134  29.445  29.164  1.00  0.00     0.049 A 
ATOM     16  N   UNL A   1      39.507  30.583  31.951  1.00  0.00    -0.248 NA
ATOM     17  C   UNL A   1      37.377  31.522  31.788  1.00  0.00     0.031 C 
ATOM     18  C   UNL A   1      38.956  28.899  27.811  1.00  0.00     0.029 A 
ATOM     19  N   UNL A   1      40.337  28.940  29.565  1.00  0.00    -0.354 N 
ATOM     20  C   UNL A   1      39.217  31.266  33.125  1.00  0.00     0.074 A 
ATOM     21  C   UNL A   1      37.908  31.860  32.954  1.00  0.00     0.031 C 
ATOM     22  C   UNL A   1      39.975  28.079  27.528  1.00  0.00     0.029 A 
ATOM     23  C   UNL A   1      40.925  28.123  28.628  1.00  0.00     0.049 A 
ATOM     24  H   UNL A   1      40.743  29.140  30.440  1.00  0.00     0.167 HD
ATOM     25  C   UNL A   1      39.986  31.373  34.236  1.00  0.00     0.034 A 
ATOM     26  C   UNL A   1      42.120  27.507  28.645  1.00  0.00     0.034 A 
ATOM     27  C   UNL A   1      41.296  30.773  34.344  1.00  0.00     0.049 A 
ATOM     28  C   UNL A   1      42.970  27.689  29.872  1.00  0.00     0.074 A 
ATOM     29  C   UNL A   1      42.194  30.836  35.393  1.00  0.00     0.029 A 
ATOM     30  N   UNL A   1      41.896  29.994  33.357  1.00  0.00    -0.354 N 
ATOM     31  N   UNL A   1      42.698  28.365  30.966  1.00  0.00    -0.248 NA
ATOM     32  C   UNL A   1      44.277  27.031  29.869  1.00  0.00     0.031 C 
ATOM     33  C   UNL A   1      43.355  30.150  35.018  1.00  0.00     0.029 A 
ATOM     34  C   UNL A   1      43.157  29.588  33.766  1.00  0.00     0.049 A 
ATOM     35  H   UNL A   1      41.483  29.765  32.492  1.00  0.00     0.167 HD
ATOM     36  C   UNL A   1      43.805  28.206  31.790  1.00  0.00     0.074 A 
ATOM     37  C   UNL A   1      44.724  27.336  31.078  1.00  0.00     0.031 C 
ATOM     38  C   UNL A   1      44.051  28.734  33.017  1.00  0.00     0.034 A 
BRANCH  25  39
ATOM     39  C   UNL A   1      39.449  32.207  35.373  1.00  0.00     0.023 A 
ATOM     40  C   UNL A   1      39.810  33.557  35.535  1.00  0.00     0.031 A 
ATOM     41  C   UNL A   1      38.595  31.638  36.334  1.00  0.00     0.131 A 
ATOM     42  C   UNL A   1      39.376  34.270  36.664  1.00  0.00     0.055 A 
ATOM     43  C   UNL A   1      38.103  32.374  37.413  1.00  0.00     0.041 A 
ATOM     44  F   UNL A   1      38.238  30.346  36.251  1.00  0.00    -0.206 F 
ATOM     45  C   UNL A   1      38.503  33.695  37.590  1.00  0.00     0.022 A 
BRANCH  42  46
ATOM     46  S   UNL A   1      40.077  35.913  36.976  1.00  0.00     0.124 S 
ATOM     47  O   UNL A   1      41.497  35.604  37.136  1.00  0.00    -0.237 OA
ATOM     48  O   UNL A   1      39.716  36.647  35.770  1.00  0.00    -0.237 OA
ATOM     49  O   UNL A   1      39.402  36.349  38.198  1.00  0.00    -0.744 OA
ENDBRANCH  42  46
ENDBRANCH  25  39
BRANCH  26  50
ATOM     50  C   UNL A   1      42.590  26.731  27.462  1.00  0.00     0.023 A 
ATOM     51  C   UNL A   1      42.541  25.330  27.442  1.00  0.00     0.031 A 
ATOM     52  C   UNL A   1      43.123  27.386  26.334  1.00  0.00     0.131 A 
ATOM     53  C   UNL A   1      43.061  24.629  26.342  1.00  0.00     0.055 A 
ATOM     54  C   UNL A   1      43.574  26.687  25.215  1.00  0.00     0.041 A 
ATOM     55  F   UNL A   1      43.195  28.726  26.296  1.00  0.00    -0.206 F 
ATOM     56  C   UNL A   1      43.560  25.298  25.222  1.00  0.00     0.022 A 
BRANCH  53  57
ATOM     57  S   UNL A   1      43.178  22.822  26.444  1.00  0.00     0.124 S 
ATOM     58  O   UNL A   1      44.618  22.611  26.349  1.00  0.00    -0.237 OA
ATOM     59  O   UNL A   1      42.574  22.554  27.745  1.00  0.00    -0.237 OA
ATOM     60  O   UNL A   1      42.403  22.366  25.292  1.00  0.00    -0.744 OA
ENDBRANCH  53  57
ENDBRANCH  26  50
BRANCH  38  61
ATOM     61  C   UNL A   1      45.358  28.342  33.654  1.00  0.00     0.023 A 
ATOM     62  C   UNL A   1      46.517  29.119  33.487  1.00  0.00     0.031 A 
ATOM     63  C   UNL A   1      45.455  27.152  34.394  1.00  0.00     0.131 A 
ATOM     64  C   UNL A   1      47.741  28.658  33.988  1.00  0.00     0.055 A 
ATOM     65  C   UNL A   1      46.662  26.735  34.953  1.00  0.00     0.041 A 
ATOM     66  F   UNL A   1      44.377  26.372  34.580  1.00  0.00    -0.206 F 
ATOM     67  C   UNL A   1      47.818  27.480  34.735  1.00  0.00     0.022 A 
BRANCH  64  68
ATOM     68  S   UNL A   1      49.252  29.556  33.543  1.00  0.00     0.124 S 
ATOM     69  O   UNL A   1      49.835  29.833  34.852  1.00  0.00    -0.237 OA
ATOM     70  O   UNL A   1      49.963  28.581  32.721  1.00  0.00    -0.237 OA
ATOM     71  O   UNL A   1      48.754  30.728  32.824  1.00  0.00    -0.744 OA
ENDBRANCH  64  68
ENDBRANCH  38  61
ENDBRANCH  12  13
ENDBRANCH   5   7
ENDBRANCH   2   3
ENDBRANCH   1   2
BRANCH   1  72
ATOM     72  C   UNL A   1      33.442  25.693  23.509  1.00  0.00     0.117 C 
BRANCH  72  73
ATOM     73  N   UNL A   1      32.533  24.465  23.030  1.00  0.00    -0.355 N 
ATOM     74  C   UNL A   1      32.611  23.114  23.240  1.00  0.00     0.233 C 
ATOM     75  H   UNL A   1      31.765  24.735  22.476  1.00  0.00     0.163 HD
ATOM     76  O   UNL A   1      31.756  22.438  22.660  1.00  0.00    -0.274 OA
BRANCH  74  77
ATOM     77  C   UNL A   1      33.656  22.504  24.221  1.00  0.00     0.140 C 
BRANCH  77  78
ATOM     78  S   UNL A   1      32.930  21.039  25.123  1.00  0.00    -0.141 SA
BRANCH  78  79
ATOM     79  C   UNL A   1      32.771  19.724  23.867  1.00  0.00     0.137 C 
BRANCH  79  80
ATOM     80  C   UNL A   1      32.794  18.310  24.361  1.00  0.00     0.102 A 
ATOM     81  N   UNL A   1      32.343  17.902  25.530  1.00  0.00    -0.249 NA
ATOM     82  S   UNL A   1      33.646  17.108  23.456  1.00  0.00    -0.126 S 
ATOM     83  C   UNL A   1      32.646  16.567  25.718  1.00  0.00     0.123 A 
ATOM     84  C   UNL A   1      33.331  15.962  24.689  1.00  0.00     0.087 A 
ENDBRANCH  79  80
ENDBRANCH  78  79
ENDBRANCH  77  78
BRANCH  77  85
ATOM     85  C   UNL A   1      35.137  22.338  23.829  1.00  0.00     0.060 C 
BRANCH  85  86
ATOM     86  C   UNL A   1      36.057  22.319  25.018  1.00  0.00    -0.046 A 
ATOM     87  C   UNL A   1      37.269  20.977  25.132  1.00  0.00     0.004 A 
ATOM     88  C   UNL A   1      36.399  23.920  25.780  1.00  0.00     0.004 A 
ATOM     89  C   UNL A   1      38.914  21.337  25.787  1.00  0.00     0.000 A 
ATOM     90  C   UNL A   1      38.024  24.252  26.466  1.00  0.00     0.000 A 
ATOM     91  C   UNL A   1      39.265  22.957  26.513  1.00  0.00     0.000 A 
ENDBRANCH  85  86
ENDBRANCH  77  85
ENDBRANCH  74  77
ENDBRANCH  72  73
ENDBRANCH   1  72
TORSDOF 18
ENDMDL
MODEL 3
REMARK VINA RESULT:     -11.9      2.150      7.959
REMARK SMILES O=C(NCCCNC(=O)[C@H](Cc1ccccc1)SCc1nccs1)c1ccc(-c2c3nc(c(-c4cc(S(=O)(=O)[O-])ccc4F)c4ccc([nH]4)c(-c4cc(S(=O)(=O)[O-])ccc4F)c4nc(c(-c5cc(S(=O)(=O)[O-])ccc5F)c5ccc2[nH]5)C=C4)C=C3)cc1
REMARK SMILES IDX 5 1 4 2 3 3 1 4 2 5 25 7 26 8 87 9 27 10 86 11 28 12 29 13
REMARK SMILES IDX 30 14 80 15 31 16 85 17 79 18 81 19 32 20 84 21 78 22 77 23
REMARK SMILES IDX 33 25 65 26 45 27 64 28 46 29 49 30 63 31 82 32 47 33 48 34
REMARK SMILES IDX 62 36 83 37 50 38 34 39 35 40 43 41 36 42 42 43 44 44 41 45
REMARK SMILES IDX 37 46 38 47 39 48 40 49 66 50 67 51 75 52 68 53 74 54 76 55
REMARK SMILES IDX 73 56 69 57 70 58 71 59 72 60 51 61 52 62 60 63 53 64 59 65
REMARK SMILES IDX 61 66 58 67 54 68 55 69 56 70 57 71 6 72 7 73 8 74 9 76
REMARK SMILES IDX 10 77 18 78 19 79 20 80 21 81 24 82 22 83 23 84 11 85 12 86
REMARK SMILES IDX 13 87 17 88 14 89 16 90 15 91
REMARK H PARENT 3 6 81 24 49 35 7 75
REMARK Flexibility Score: inf
ROOT
ATOM      1  C   UNL A   1      35.487  23.021  26.501  1.00  0.00     0.042 C 
ENDROOT
BRANCH   1   2
ATOM      2  C   UNL A   1      36.786  22.494  25.480  1.00  0.00     0.118 C 
BRANCH   2   3
ATOM      3  N   UNL A   1      37.582  21.322  25.884  1.00  0.00    -0.352 N 
ATOM      4  O   UNL A   1      39.468  20.130  26.225  1.00  0.00    -0.269 OA
ATOM      5  C   UNL A   1      38.910  21.220  26.183  1.00  0.00     0.251 C 
ATOM      6  H   UNL A   1      37.077  20.480  25.948  1.00  0.00     0.163 HD
BRANCH   5   7
ATOM      7  C   UNL A   1      39.623  22.453  26.520  1.00  0.00     0.039 A 
ATOM      8  C   UNL A   1      39.260  23.619  25.841  1.00  0.00     0.014 A 
ATOM      9  C   UNL A   1      40.626  22.451  27.488  1.00  0.00     0.014 A 
ATOM     10  C   UNL A   1      39.987  24.769  26.041  1.00  0.00     0.010 A 
ATOM     11  C   UNL A   1      41.287  23.644  27.769  1.00  0.00     0.010 A 
ATOM     12  C   UNL A   1      40.966  24.802  27.043  1.00  0.00    -0.014 A 
BRANCH  12  13
ATOM     13  C   UNL A   1      41.543  26.116  27.378  1.00  0.00     0.031 A 
ATOM     14  C   UNL A   1      40.794  27.081  28.237  1.00  0.00     0.074 A 
ATOM     15  C   UNL A   1      42.797  26.354  26.952  1.00  0.00     0.049 A 
ATOM     16  N   UNL A   1      41.163  28.262  28.650  1.00  0.00    -0.248 NA
ATOM     17  C   UNL A   1      39.453  26.674  28.682  1.00  0.00     0.031 C 
ATOM     18  C   UNL A   1      43.588  25.432  26.123  1.00  0.00     0.029 A 
ATOM     19  N   UNL A   1      43.648  27.397  27.181  1.00  0.00    -0.354 N 
ATOM     20  C   UNL A   1      40.100  28.750  29.398  1.00  0.00     0.074 A 
ATOM     21  C   UNL A   1      39.056  27.747  29.351  1.00  0.00     0.031 C 
ATOM     22  C   UNL A   1      44.826  25.918  25.979  1.00  0.00     0.029 A 
ATOM     23  C   UNL A   1      44.887  27.227  26.609  1.00  0.00     0.049 A 
ATOM     24  H   UNL A   1      43.398  28.193  27.705  1.00  0.00     0.167 HD
ATOM     25  C   UNL A   1      40.021  29.930  30.061  1.00  0.00     0.034 A 
ATOM     26  C   UNL A   1      45.943  28.058  26.571  1.00  0.00     0.034 A 
ATOM     27  C   UNL A   1      41.089  30.903  30.058  1.00  0.00     0.049 A 
ATOM     28  C   UNL A   1      45.804  29.380  27.272  1.00  0.00     0.074 A 
ATOM     29  C   UNL A   1      41.125  32.151  30.652  1.00  0.00     0.029 A 
ATOM     30  N   UNL A   1      42.317  30.732  29.424  1.00  0.00    -0.354 N 
ATOM     31  N   UNL A   1      44.779  29.846  27.951  1.00  0.00    -0.248 NA
ATOM     32  C   UNL A   1      46.953  30.284  27.204  1.00  0.00     0.031 C 
ATOM     33  C   UNL A   1      42.346  32.755  30.327  1.00  0.00     0.029 A 
ATOM     34  C   UNL A   1      43.108  31.857  29.597  1.00  0.00     0.049 A 
ATOM     35  H   UNL A   1      42.585  29.927  28.923  1.00  0.00     0.167 HD
ATOM     36  C   UNL A   1      45.166  31.102  28.401  1.00  0.00     0.074 A 
ATOM     37  C   UNL A   1      46.531  31.296  27.949  1.00  0.00     0.031 C 
ATOM     38  C   UNL A   1      44.461  32.018  29.112  1.00  0.00     0.034 A 
BRANCH  25  39
ATOM     39  C   UNL A   1      38.730  30.238  30.777  1.00  0.00     0.023 A 
ATOM     40  C   UNL A   1      37.684  30.940  30.150  1.00  0.00     0.031 A 
ATOM     41  C   UNL A   1      38.551  29.862  32.120  1.00  0.00     0.131 A 
ATOM     42  C   UNL A   1      36.542  31.302  30.882  1.00  0.00     0.055 A 
ATOM     43  C   UNL A   1      37.380  30.155  32.820  1.00  0.00     0.041 A 
ATOM     44  F   UNL A   1      39.524  29.215  32.783  1.00  0.00    -0.206 F 
ATOM     45  C   UNL A   1      36.371  30.891  32.206  1.00  0.00     0.022 A 
BRANCH  42  46
ATOM     46  S   UNL A   1      35.345  32.433  30.121  1.00  0.00     0.124 S 
ATOM     47  O   UNL A   1      34.376  32.610  31.201  1.00  0.00    -0.237 OA
ATOM     48  O   UNL A   1      36.164  33.596  29.803  1.00  0.00    -0.237 OA
ATOM     49  O   UNL A   1      34.849  31.684  28.968  1.00  0.00    -0.744 OA
ENDBRANCH  42  46
ENDBRANCH  25  39
BRANCH  26  50
ATOM     50  C   UNL A   1      47.170  27.690  25.807  1.00  0.00     0.023 A 
ATOM     51  C   UNL A   1      47.283  27.958  24.436  1.00  0.00     0.031 A 
ATOM     52  C   UNL A   1      48.245  27.035  26.440  1.00  0.00     0.131 A 
ATOM     53  C   UNL A   1      48.421  27.530  23.732  1.00  0.00     0.055 A 
ATOM     54  C   UNL A   1      49.402  26.675  25.750  1.00  0.00     0.041 A 
ATOM     55  F   UNL A   1      48.193  26.753  27.751  1.00  0.00    -0.206 F 
ATOM     56  C   UNL A   1      49.488  26.908  24.383  1.00  0.00     0.022 A 
BRANCH  53  57
ATOM     57  S   UNL A   1      48.437  27.701  21.927  1.00  0.00     0.124 S 
ATOM     58  O   UNL A   1      49.550  28.620  21.725  1.00  0.00    -0.237 OA
ATOM     59  O   UNL A   1      48.655  26.323  21.496  1.00  0.00    -0.237 OA
ATOM     60  O   UNL A   1      47.114  28.245  21.626  1.00  0.00    -0.744 OA
ENDBRANCH  53  57
ENDBRANCH  26  50
BRANCH  38  61
ATOM     61  C   UNL A   1      45.191  33.290  29.457  1.00  0.00     0.023 A 
ATOM     62  C   UNL A   1      45.209  34.386  28.578  1.00  0.00     0.031 A 
ATOM     63  C   UNL A   1      45.917  33.385  30.656  1.00  0.00     0.131 A 
ATOM     64  C   UNL A   1      46.002  35.502  28.875  1.00  0.00     0.055 A 
ATOM     65  C   UNL A   1      46.646  34.529  30.980  1.00  0.00     0.041 A 
ATOM     66  F   UNL A   1      45.935  32.364  31.529  1.00  0.00    -0.206 F 
ATOM     67  C   UNL A   1      46.706  35.588  30.079  1.00  0.00     0.022 A 
BRANCH  64  68
ATOM     68  S   UNL A   1      46.198  36.786  27.611  1.00  0.00     0.124 S 
ATOM     69  O   UNL A   1      47.650  36.886  27.504  1.00  0.00    -0.237 OA
ATOM     70  O   UNL A   1      45.514  36.199  26.462  1.00  0.00    -0.237 OA
ATOM     71  O   UNL A   1      45.537  37.949  28.198  1.00  0.00    -0.744 OA
ENDBRANCH  64  68
ENDBRANCH  38  61
ENDBRANCH  12  13
ENDBRANCH   5   7
ENDBRANCH   2   3
ENDBRANCH   1   2
BRANCH   1  72
ATOM     72  C   UNL A   1      33.869  22.024  27.588  1.00  0.00     0.117 C 
BRANCH  72  73
ATOM     73  N   UNL A   1      32.328  22.415  27.785  1.00  0.00    -0.355 N 
ATOM     74  C   UNL A   1      31.438  23.102  27.005  1.00  0.00     0.233 C 
ATOM     75  H   UNL A   1      31.946  22.098  28.635  1.00  0.00     0.163 HD
ATOM     76  O   UNL A   1      30.320  23.274  27.503  1.00  0.00    -0.274 OA
BRANCH  74  77
ATOM     77  C   UNL A   1      31.799  23.544  25.555  1.00  0.00     0.140 C 
BRANCH  77  78
ATOM     78  S   UNL A   1      31.609  22.115  24.369  1.00  0.00    -0.141 SA
BRANCH  78  79
ATOM     79  C   UNL A   1      33.297  21.466  24.115  1.00  0.00     0.137 C 
BRANCH  79  80
ATOM     80  C   UNL A   1      33.456  19.976  24.117  1.00  0.00     0.102 A 
ATOM     81  N   UNL A   1      34.444  19.314  24.686  1.00  0.00    -0.249 NA
ATOM     82  S   UNL A   1      32.404  19.008  23.146  1.00  0.00    -0.126 S 
ATOM     83  C   UNL A   1      34.356  17.971  24.379  1.00  0.00     0.123 A 
ATOM     84  C   UNL A   1      33.300  17.613  23.571  1.00  0.00     0.087 A 
ENDBRANCH  79  80
ENDBRANCH  78  79
ENDBRANCH  77  78
BRANCH  77  85
ATOM     85  C   UNL A   1      31.352  24.905  24.987  1.00  0.00     0.060 C 
BRANCH  85  86
ATOM     86  C   UNL A   1      32.199  26.047  25.473  1.00  0.00    -0.046 A 
ATOM     87  C   UNL A   1      33.512  26.654  24.381  1.00  0.00     0.004 A 
ATOM     88  C   UNL A   1      31.424  27.159  26.665  1.00  0.00     0.004 A 
ATOM     89  C   UNL A   1      33.851  28.427  24.322  1.00  0.00     0.000 A 
ATOM     90  C   UNL A   1      31.800  28.913  26.626  1.00  0.00     0.000 A 
ATOM     91  C   UNL A   1      33.040  29.544  25.493  1.00  0.00     0.000 A 
ENDBRANCH  85  86
ENDBRANCH  77  85
ENDBRANCH  74  77
ENDBRANCH  72  73
ENDBRANCH   1  72
TORSDOF 18
ENDMDL
