MODEL 1
REMARK VINA RESULT:     -10.3      0.000      0.000
REMARK SMILES COc1ccc(-c2nc(NCC(=O)NCCCNC(=O)c3ccc(-c4c5nc(c(-c6cc(S(=O)(=O)[O-])ccc6F)c6ccc([nH]6)c(-c6cc(S(=O)(=O)[O-])ccc6F)c6nc(c(-c7cc(S(=O)(=O)[O-])ccc7F)c7ccc4[nH]7)C=C6)C=C5)cc3)sc2-c2ccc(OC)cc2)cc1
REMARK SMILES IDX 15 1 14 2 12 3 13 4 11 6 10 7 9 9 7 10 8 11 85 12 84 13 6 14
REMARK SMILES IDX 3 15 4 16 95 17 5 18 94 19 2 20 1 21 86 22 87 23 93 24 88 25
REMARK SMILES IDX 92 26 89 27 90 28 91 29 16 30 17 31 18 32 19 33 20 35 21 36
REMARK SMILES IDX 22 37 83 38 23 39 82 40 24 41 25 42 26 43 76 44 27 45 81 46
REMARK SMILES IDX 75 47 77 48 28 49 80 50 74 51 73 52 29 54 61 55 41 56 60 57
REMARK SMILES IDX 42 58 45 59 59 60 78 61 43 62 44 63 58 65 79 66 46 67 30 68
REMARK SMILES IDX 31 69 39 70 32 71 38 72 40 73 37 74 33 75 34 76 35 77 36 78
REMARK SMILES IDX 62 79 63 80 71 81 64 82 70 83 72 84 69 85 65 86 66 87 67 88
REMARK SMILES IDX 68 89 47 90 48 91 56 92 49 93 55 94 57 95 54 96 50 97 51 98
REMARK SMILES IDX 52 99 53 100
REMARK H PARENT 14 5 10 8 18 34 77 53 45 64
REMARK Flexibility Score: inf
ROOT
ATOM      1  C   UNL A   1      33.929  34.569  30.077  1.00  0.00     0.117 C 
ENDROOT
BRANCH   1   2
ATOM      2  N   UNL A   1      33.661  35.992  30.185  1.00  0.00    -0.355 N 
ATOM      3  C   UNL A   1      33.178  36.693  31.255  1.00  0.00     0.239 C 
ATOM      4  O   UNL A   1      32.999  37.906  31.126  1.00  0.00    -0.273 OA
ATOM      5  H   UNL A   1      33.853  36.523  29.379  1.00  0.00     0.163 HD
BRANCH   3   6
ATOM      6  C   UNL A   1      32.933  35.986  32.592  1.00  0.00     0.215 C 
BRANCH   6   7
ATOM      7  N   UNL A   1      34.114  35.999  33.437  1.00  0.00    -0.352 N 
ATOM      8  H   UNL A   1      34.175  36.717  34.110  1.00  0.00     0.163 HD
BRANCH   7   9
ATOM      9  C   UNL A   1      35.133  35.117  33.383  1.00  0.00     0.184 A 
ATOM     10  C   UNL A   1      37.109  34.319  32.767  1.00  0.00     0.091 A 
ATOM     11  N   UNL A   1      36.152  35.304  32.577  1.00  0.00    -0.220 NA
ATOM     12  C   UNL A   1      36.846  33.428  33.796  1.00  0.00     0.064 A 
ATOM     13  S   UNL A   1      35.252  33.696  34.355  1.00  0.00    -0.096 S 
BRANCH  10  14
ATOM     14  C   UNL A   1      38.299  34.240  31.931  1.00  0.00     0.002 A 
ATOM     15  C   UNL A   1      40.612  34.200  30.335  1.00  0.00     0.118 A 
ATOM     16  C   UNL A   1      40.693  34.533  31.686  1.00  0.00     0.047 A 
ATOM     17  C   UNL A   1      39.373  33.857  29.786  1.00  0.00     0.047 A 
ATOM     18  C   UNL A   1      39.548  34.557  32.479  1.00  0.00     0.014 A 
ATOM     19  C   UNL A   1      38.220  33.869  30.586  1.00  0.00     0.014 A 
BRANCH  15  20
ATOM     20  O   UNL A   1      41.813  34.206  29.683  1.00  0.00    -0.497 OA
ATOM     21  C   UNL A   1      42.604  35.379  29.822  1.00  0.00     0.278 C 
ENDBRANCH  15  20
ENDBRANCH  10  14
BRANCH  12  22
ATOM     22  C   UNL A   1      37.684  32.401  34.415  1.00  0.00    -0.006 A 
ATOM     23  C   UNL A   1      37.723  31.090  33.928  1.00  0.00     0.013 A 
ATOM     24  C   UNL A   1      38.486  32.735  35.516  1.00  0.00     0.013 A 
ATOM     25  C   UNL A   1      38.557  30.142  34.525  1.00  0.00     0.047 A 
ATOM     26  C   UNL A   1      39.322  31.785  36.110  1.00  0.00     0.047 A 
ATOM     27  C   UNL A   1      39.367  30.485  35.611  1.00  0.00     0.118 A 
BRANCH  27  28
ATOM     28  O   UNL A   1      40.148  29.469  36.090  1.00  0.00    -0.497 OA
ATOM     29  C   UNL A   1      41.147  28.968  35.209  1.00  0.00     0.278 C 
ENDBRANCH  27  28
ENDBRANCH  12  22
ENDBRANCH   7   9
ENDBRANCH   6   7
ENDBRANCH   3   6
ENDBRANCH   1   2
BRANCH   1  30
ATOM     30  C   UNL A   1      34.002  34.105  28.626  1.00  0.00     0.042 C 
BRANCH  30  31
ATOM     31  C   UNL A   1      35.002  32.971  28.404  1.00  0.00     0.118 C 
BRANCH  31  32
ATOM     32  N   UNL A   1      34.347  31.706  28.085  1.00  0.00    -0.352 N 
ATOM     33  C   UNL A   1      34.857  30.433  28.029  1.00  0.00     0.251 C 
ATOM     34  H   UNL A   1      33.387  31.777  27.878  1.00  0.00     0.163 HD
ATOM     35  O   UNL A   1      34.180  29.536  27.531  1.00  0.00    -0.269 OA
BRANCH  33  36
ATOM     36  C   UNL A   1      36.214  30.147  28.538  1.00  0.00     0.039 A 
ATOM     37  C   UNL A   1      36.354  29.513  29.776  1.00  0.00     0.014 A 
ATOM     38  C   UNL A   1      37.347  30.505  27.802  1.00  0.00     0.014 A 
ATOM     39  C   UNL A   1      37.624  29.151  30.229  1.00  0.00     0.010 A 
ATOM     40  C   UNL A   1      38.607  30.084  28.223  1.00  0.00     0.010 A 
ATOM     41  C   UNL A   1      38.755  29.383  29.429  1.00  0.00    -0.014 A 
BRANCH  41  42
ATOM     42  C   UNL A   1      40.090  28.848  29.803  1.00  0.00     0.031 A 
ATOM     43  C   UNL A   1      40.947  29.565  30.807  1.00  0.00     0.074 A 
ATOM     44  C   UNL A   1      40.564  27.760  29.163  1.00  0.00     0.049 A 
ATOM     45  N   UNL A   1      42.184  29.324  31.159  1.00  0.00    -0.248 NA
ATOM     46  C   UNL A   1      40.340  30.719  31.486  1.00  0.00     0.031 C 
ATOM     47  C   UNL A   1      39.840  26.994  28.144  1.00  0.00     0.029 A 
ATOM     48  N   UNL A   1      41.775  27.120  29.256  1.00  0.00    -0.354 N 
ATOM     49  C   UNL A   1      42.510  30.300  32.095  1.00  0.00     0.074 A 
ATOM     50  C   UNL A   1      41.354  31.164  32.215  1.00  0.00     0.031 C 
ATOM     51  C   UNL A   1      40.616  25.986  27.716  1.00  0.00     0.029 A 
ATOM     52  C   UNL A   1      41.911  26.067  28.383  1.00  0.00     0.049 A 
ATOM     53  H   UNL A   1      42.480  27.391  29.888  1.00  0.00     0.167 HD
ATOM     54  C   UNL A   1      43.661  30.449  32.798  1.00  0.00     0.034 A 
ATOM     55  C   UNL A   1      42.970  25.277  28.118  1.00  0.00     0.034 A 
ATOM     56  C   UNL A   1      44.804  29.579  32.663  1.00  0.00     0.049 A 
ATOM     57  C   UNL A   1      44.263  25.511  28.855  1.00  0.00     0.074 A 
ATOM     58  C   UNL A   1      45.993  29.606  33.371  1.00  0.00     0.029 A 
ATOM     59  N   UNL A   1      44.914  28.541  31.748  1.00  0.00    -0.354 N 
ATOM     60  N   UNL A   1      44.538  26.407  29.773  1.00  0.00    -0.248 NA
ATOM     61  C   UNL A   1      45.389  24.630  28.514  1.00  0.00     0.031 C 
ATOM     62  C   UNL A   1      46.851  28.644  32.829  1.00  0.00     0.029 A 
ATOM     63  C   UNL A   1      46.169  27.955  31.839  1.00  0.00     0.049 A 
ATOM     64  H   UNL A   1      44.206  28.261  31.124  1.00  0.00     0.167 HD
ATOM     65  C   UNL A   1      45.864  26.184  30.133  1.00  0.00     0.074 A 
ATOM     66  C   UNL A   1      46.327  25.059  29.346  1.00  0.00     0.031 C 
ATOM     67  C   UNL A   1      46.628  26.849  31.034  1.00  0.00     0.034 A 
BRANCH  54  68
ATOM     68  C   UNL A   1      43.751  31.616  33.752  1.00  0.00     0.023 A 
ATOM     69  C   UNL A   1      43.607  31.448  35.140  1.00  0.00     0.031 A 
ATOM     70  C   UNL A   1      43.977  32.917  33.268  1.00  0.00     0.131 A 
ATOM     71  C   UNL A   1      43.619  32.566  35.986  1.00  0.00     0.055 A 
ATOM     72  C   UNL A   1      44.072  34.015  34.124  1.00  0.00     0.041 A 
ATOM     73  F   UNL A   1      44.103  33.143  31.951  1.00  0.00    -0.206 F 
ATOM     74  C   UNL A   1      43.878  33.846  35.491  1.00  0.00     0.022 A 
BRANCH  71  75
ATOM     75  S   UNL A   1      43.149  32.341  37.723  1.00  0.00     0.124 S 
ATOM     76  O   UNL A   1      44.452  32.299  38.380  1.00  0.00    -0.237 OA
ATOM     77  O   UNL A   1      42.337  33.524  37.986  1.00  0.00    -0.237 OA
ATOM     78  O   UNL A   1      42.421  31.073  37.720  1.00  0.00    -0.744 OA
ENDBRANCH  71  75
ENDBRANCH  54  68
BRANCH  55  79
ATOM     79  C   UNL A   1      42.889  24.231  27.063  1.00  0.00     0.023 A 
ATOM     80  C   UNL A   1      42.244  23.009  27.304  1.00  0.00     0.031 A 
ATOM     81  C   UNL A   1      43.526  24.414  25.824  1.00  0.00     0.131 A 
ATOM     82  C   UNL A   1      42.295  21.994  26.337  1.00  0.00     0.055 A 
ATOM     83  C   UNL A   1      43.538  23.417  24.850  1.00  0.00     0.041 A 
ATOM     84  F   UNL A   1      44.145  25.571  25.541  1.00  0.00    -0.206 F 
ATOM     85  C   UNL A   1      42.928  22.193  25.108  1.00  0.00     0.022 A 
BRANCH  82  86
ATOM     86  S   UNL A   1      41.594  20.371  26.741  1.00  0.00     0.124 S 
ATOM     87  O   UNL A   1      42.522  19.895  27.760  1.00  0.00    -0.237 OA
ATOM     88  O   UNL A   1      40.256  20.727  27.204  1.00  0.00    -0.237 OA
ATOM     89  O   UNL A   1      41.638  19.659  25.466  1.00  0.00    -0.744 OA
ENDBRANCH  82  86
ENDBRANCH  55  79
BRANCH  67  90
ATOM     90  C   UNL A   1      48.040  26.355  31.238  1.00  0.00     0.023 A 
ATOM     91  C   UNL A   1      48.358  25.424  32.242  1.00  0.00     0.031 A 
ATOM     92  C   UNL A   1      49.078  26.818  30.410  1.00  0.00     0.131 A 
ATOM     93  C   UNL A   1      49.688  25.015  32.419  1.00  0.00     0.055 A 
ATOM     94  C   UNL A   1      50.388  26.362  30.552  1.00  0.00     0.041 A 
ATOM     95  F   UNL A   1      48.832  27.714  29.441  1.00  0.00    -0.206 F 
ATOM     96  C   UNL A   1      50.701  25.461  31.566  1.00  0.00     0.022 A 
BRANCH  93  97
ATOM     97  S   UNL A   1      50.092  23.943  33.825  1.00  0.00     0.124 S 
ATOM     98  O   UNL A   1      50.063  22.619  33.213  1.00  0.00    -0.237 OA
ATOM     99  O   UNL A   1      51.408  24.432  34.223  1.00  0.00    -0.237 OA
ATOM    100  O   UNL A   1      49.019  24.211  34.780  1.00  0.00    -0.744 OA
ENDBRANCH  93  97
ENDBRANCH  67  90
ENDBRANCH  41  42
ENDBRANCH  33  36
ENDBRANCH  31  32
ENDBRANCH  30  31
ENDBRANCH   1  30
TORSDOF 19
ENDMDL
MODEL 2
REMARK VINA RESULT:     -10.1      5.631     10.726
REMARK SMILES COc1ccc(-c2nc(NCC(=O)NCCCNC(=O)c3ccc(-c4c5nc(c(-c6cc(S(=O)(=O)[O-])ccc6F)c6ccc([nH]6)c(-c6cc(S(=O)(=O)[O-])ccc6F)c6nc(c(-c7cc(S(=O)(=O)[O-])ccc7F)c7ccc4[nH]7)C=C6)C=C5)cc3)sc2-c2ccc(OC)cc2)cc1
REMARK SMILES IDX 15 1 14 2 12 3 13 4 11 6 10 7 9 9 7 10 8 11 85 12 84 13 6 14
REMARK SMILES IDX 3 15 4 16 95 17 5 18 94 19 2 20 1 21 86 22 87 23 93 24 88 25
REMARK SMILES IDX 92 26 89 27 90 28 91 29 16 30 17 31 18 32 19 33 20 35 21 36
REMARK SMILES IDX 22 37 83 38 23 39 82 40 24 41 25 42 26 43 76 44 27 45 81 46
REMARK SMILES IDX 75 47 77 48 28 49 80 50 74 51 73 52 29 54 61 55 41 56 60 57
REMARK SMILES IDX 42 58 45 59 59 60 78 61 43 62 44 63 58 65 79 66 46 67 30 68
REMARK SMILES IDX 31 69 39 70 32 71 38 72 40 73 37 74 33 75 34 76 35 77 36 78
REMARK SMILES IDX 62 79 63 80 71 81 64 82 70 83 72 84 69 85 65 86 66 87 67 88
REMARK SMILES IDX 68 89 47 90 48 91 56 92 49 93 55 94 57 95 54 96 50 97 51 98
REMARK SMILES IDX 52 99 53 100
REMARK H PARENT 14 5 10 8 18 34 77 53 45 64
REMARK Flexibility Score: inf
ROOT
ATOM      1  C   UNL A   1      36.393  21.250  25.580  1.00  0.00     0.117 C 
ENDROOT
BRANCH   1   2
ATOM      2  N   UNL A   1      35.357  20.416  24.999  1.00  0.00    -0.355 N 
ATOM      3  C   UNL A   1      34.015  20.662  24.901  1.00  0.00     0.239 C 
ATOM      4  O   UNL A   1      33.299  19.799  24.388  1.00  0.00    -0.273 OA
ATOM      5  H   UNL A   1      35.661  19.558  24.626  1.00  0.00     0.163 HD
BRANCH   3   6
ATOM      6  C   UNL A   1      33.442  22.006  25.364  1.00  0.00     0.215 C 
BRANCH   6   7
ATOM      7  N   UNL A   1      32.768  22.707  24.285  1.00  0.00    -0.352 N 
ATOM      8  H   UNL A   1      32.715  22.247  23.416  1.00  0.00     0.163 HD
BRANCH   7   9
ATOM      9  C   UNL A   1      32.209  23.933  24.369  1.00  0.00     0.184 A 
ATOM     10  C   UNL A   1      32.078  26.082  24.902  1.00  0.00     0.091 A 
ATOM     11  N   UNL A   1      32.791  24.901  25.038  1.00  0.00    -0.220 NA
ATOM     12  C   UNL A   1      30.991  26.022  24.043  1.00  0.00     0.064 A 
ATOM     13  S   UNL A   1      30.730  24.390  23.606  1.00  0.00    -0.096 S 
BRANCH  10  14
ATOM     14  C   UNL A   1      32.456  27.290  25.622  1.00  0.00     0.002 A 
ATOM     15  C   UNL A   1      33.092  29.672  26.970  1.00  0.00     0.118 A 
ATOM     16  C   UNL A   1      31.920  28.982  27.274  1.00  0.00     0.047 A 
ATOM     17  C   UNL A   1      33.965  29.155  26.008  1.00  0.00     0.047 A 
ATOM     18  C   UNL A   1      31.600  27.802  26.605  1.00  0.00     0.014 A 
ATOM     19  C   UNL A   1      33.651  27.960  25.342  1.00  0.00     0.014 A 
BRANCH  15  20
ATOM     20  O   UNL A   1      33.283  30.805  27.711  1.00  0.00    -0.497 OA
ATOM     21  C   UNL A   1      34.631  31.209  27.915  1.00  0.00     0.278 C 
ENDBRANCH  15  20
ENDBRANCH  10  14
BRANCH  12  22
ATOM     22  C   UNL A   1      30.135  27.078  23.502  1.00  0.00    -0.006 A 
ATOM     23  C   UNL A   1      28.752  27.082  23.706  1.00  0.00     0.013 A 
ATOM     24  C   UNL A   1      30.711  28.127  22.770  1.00  0.00     0.013 A 
ATOM     25  C   UNL A   1      27.968  28.122  23.200  1.00  0.00     0.047 A 
ATOM     26  C   UNL A   1      29.925  29.168  22.267  1.00  0.00     0.047 A 
ATOM     27  C   UNL A   1      28.550  29.174  22.488  1.00  0.00     0.118 A 
BRANCH  27  28
ATOM     28  O   UNL A   1      27.674  30.135  22.062  1.00  0.00    -0.497 OA
ATOM     29  C   UNL A   1      28.178  31.082  21.126  1.00  0.00     0.278 C 
ENDBRANCH  27  28
ENDBRANCH  12  22
ENDBRANCH   7   9
ENDBRANCH   6   7
ENDBRANCH   3   6
ENDBRANCH   1   2
BRANCH   1  30
ATOM     30  C   UNL A   1      37.765  20.969  24.976  1.00  0.00     0.042 C 
BRANCH  30  31
ATOM     31  C   UNL A   1      38.909  21.119  25.979  1.00  0.00     0.118 C 
BRANCH  31  32
ATOM     32  N   UNL A   1      39.801  19.965  25.981  1.00  0.00    -0.352 N 
ATOM     33  C   UNL A   1      41.170  19.902  26.071  1.00  0.00     0.251 C 
ATOM     34  H   UNL A   1      39.351  19.092  25.905  1.00  0.00     0.163 HD
ATOM     35  O   UNL A   1      41.740  18.838  25.837  1.00  0.00    -0.269 OA
BRANCH  33  36
ATOM     36  C   UNL A   1      41.953  21.105  26.419  1.00  0.00     0.039 A 
ATOM     37  C   UNL A   1      42.329  21.986  25.401  1.00  0.00     0.014 A 
ATOM     38  C   UNL A   1      42.321  21.365  27.741  1.00  0.00     0.014 A 
ATOM     39  C   UNL A   1      42.988  23.175  25.721  1.00  0.00     0.010 A 
ATOM     40  C   UNL A   1      42.919  22.581  28.067  1.00  0.00     0.010 A 
ATOM     41  C   UNL A   1      43.237  23.507  27.063  1.00  0.00    -0.014 A 
BRANCH  41  42
ATOM     42  C   UNL A   1      43.771  24.841  27.443  1.00  0.00     0.031 A 
ATOM     43  C   UNL A   1      42.858  25.903  27.987  1.00  0.00     0.074 A 
ATOM     44  C   UNL A   1      45.069  25.120  27.209  1.00  0.00     0.049 A 
ATOM     45  N   UNL A   1      43.115  27.159  28.249  1.00  0.00    -0.248 NA
ATOM     46  C   UNL A   1      41.468  25.504  28.249  1.00  0.00     0.031 C 
ATOM     47  C   UNL A   1      46.050  24.184  26.653  1.00  0.00     0.029 A 
ATOM     48  N   UNL A   1      45.785  26.278  27.387  1.00  0.00    -0.354 N 
ATOM     49  C   UNL A   1      41.918  27.706  28.698  1.00  0.00     0.074 A 
ATOM     50  C   UNL A   1      40.925  26.654  28.624  1.00  0.00     0.031 C 
ATOM     51  C   UNL A   1      47.237  24.800  26.546  1.00  0.00     0.029 A 
ATOM     52  C   UNL A   1      47.091  26.189  26.967  1.00  0.00     0.049 A 
ATOM     53  H   UNL A   1      45.398  27.096  27.777  1.00  0.00     0.167 HD
ATOM     54  C   UNL A   1      41.677  28.965  29.145  1.00  0.00     0.034 A 
ATOM     55  C   UNL A   1      48.055  27.128  26.893  1.00  0.00     0.034 A 
ATOM     56  C   UNL A   1      42.678  30.001  29.209  1.00  0.00     0.049 A 
ATOM     57  C   UNL A   1      47.742  28.538  27.321  1.00  0.00     0.074 A 
ATOM     58  C   UNL A   1      42.553  31.289  29.702  1.00  0.00     0.029 A 
ATOM     59  N   UNL A   1      43.983  29.881  28.748  1.00  0.00    -0.354 N 
ATOM     60  N   UNL A   1      46.618  29.026  27.790  1.00  0.00    -0.248 NA
ATOM     61  C   UNL A   1      48.826  29.522  27.202  1.00  0.00     0.031 C 
ATOM     62  C   UNL A   1      43.751  31.970  29.462  1.00  0.00     0.029 A 
ATOM     63  C   UNL A   1      44.655  31.086  28.898  1.00  0.00     0.049 A 
ATOM     64  H   UNL A   1      44.374  29.061  28.369  1.00  0.00     0.167 HD
ATOM     65  C   UNL A   1      46.868  30.373  28.041  1.00  0.00     0.074 A 
ATOM     66  C   UNL A   1      48.252  30.613  27.688  1.00  0.00     0.031 C 
ATOM     67  C   UNL A   1      46.028  31.322  28.522  1.00  0.00     0.034 A 
BRANCH  54  68
ATOM     68  C   UNL A   1      40.267  29.297  29.567  1.00  0.00     0.023 A 
ATOM     69  C   UNL A   1      39.912  29.426  30.922  1.00  0.00     0.031 A 
ATOM     70  C   UNL A   1      39.259  29.483  28.604  1.00  0.00     0.131 A 
ATOM     71  C   UNL A   1      38.576  29.659  31.277  1.00  0.00     0.055 A 
ATOM     72  C   UNL A   1      37.946  29.798  28.962  1.00  0.00     0.041 A 
ATOM     73  F   UNL A   1      39.531  29.354  27.296  1.00  0.00    -0.206 F 
ATOM     74  C   UNL A   1      37.595  29.873  30.306  1.00  0.00     0.022 A 
BRANCH  71  75
ATOM     75  S   UNL A   1      38.112  29.535  33.026  1.00  0.00     0.124 S 
ATOM     76  O   UNL A   1      37.112  28.471  32.993  1.00  0.00    -0.237 OA
ATOM     77  O   UNL A   1      39.380  29.200  33.665  1.00  0.00    -0.237 OA
ATOM     78  O   UNL A   1      37.588  30.863  33.337  1.00  0.00    -0.744 OA
ENDBRANCH  71  75
ENDBRANCH  54  68
BRANCH  55  79
ATOM     79  C   UNL A   1      49.392  26.796  26.330  1.00  0.00     0.023 A 
ATOM     80  C   UNL A   1      49.766  27.232  25.050  1.00  0.00     0.031 A 
ATOM     81  C   UNL A   1      50.283  25.974  27.039  1.00  0.00     0.131 A 
ATOM     82  C   UNL A   1      50.979  26.797  24.495  1.00  0.00     0.055 A 
ATOM     83  C   UNL A   1      51.507  25.580  26.501  1.00  0.00     0.041 A 
ATOM     84  F   UNL A   1      49.977  25.544  28.274  1.00  0.00    -0.206 F 
ATOM     85  C   UNL A   1      51.857  25.983  25.216  1.00  0.00     0.022 A 
BRANCH  82  86
ATOM     86  S   UNL A   1      51.360  27.242  22.779  1.00  0.00     0.124 S 
ATOM     87  O   UNL A   1      50.079  27.007  22.123  1.00  0.00    -0.237 OA
ATOM     88  O   UNL A   1      51.770  28.636  22.912  1.00  0.00    -0.237 OA
ATOM     89  O   UNL A   1      52.430  26.313  22.421  1.00  0.00    -0.744 OA
ENDBRANCH  82  86
ENDBRANCH  55  79
BRANCH  67  90
ATOM     90  C   UNL A   1      46.595  32.706  28.722  1.00  0.00     0.023 A 
ATOM     91  C   UNL A   1      46.504  33.692  27.724  1.00  0.00     0.031 A 
ATOM     92  C   UNL A   1      47.229  33.043  29.931  1.00  0.00     0.131 A 
ATOM     93  C   UNL A   1      47.073  34.957  27.939  1.00  0.00     0.055 A 
ATOM     94  C   UNL A   1      47.739  34.321  30.161  1.00  0.00     0.041 A 
ATOM     95  F   UNL A   1      47.352  32.137  30.915  1.00  0.00    -0.206 F 
ATOM     96  C   UNL A   1      47.671  35.284  29.159  1.00  0.00     0.022 A 
BRANCH  93  97
ATOM     97  S   UNL A   1      47.085  36.151  26.574  1.00  0.00     0.124 S 
ATOM     98  O   UNL A   1      48.509  36.254  26.276  1.00  0.00    -0.237 OA
ATOM     99  O   UNL A   1      46.269  35.482  25.565  1.00  0.00    -0.237 OA
ATOM    100  O   UNL A   1      46.484  37.348  27.160  1.00  0.00    -0.744 OA
ENDBRANCH  93  97
ENDBRANCH  67  90
ENDBRANCH  41  42
ENDBRANCH  33  36
ENDBRANCH  31  32
ENDBRANCH  30  31
ENDBRANCH   1  30
TORSDOF 19
ENDMDL
MODEL 3
REMARK VINA RESULT:     -10.0      5.656     11.759
REMARK SMILES COc1ccc(-c2nc(NCC(=O)NCCCNC(=O)c3ccc(-c4c5nc(c(-c6cc(S(=O)(=O)[O-])ccc6F)c6ccc([nH]6)c(-c6cc(S(=O)(=O)[O-])ccc6F)c6nc(c(-c7cc(S(=O)(=O)[O-])ccc7F)c7ccc4[nH]7)C=C6)C=C5)cc3)sc2-c2ccc(OC)cc2)cc1
REMARK SMILES IDX 15 1 14 2 12 3 13 4 11 6 10 7 9 9 7 10 8 11 85 12 84 13 6 14
REMARK SMILES IDX 3 15 4 16 95 17 5 18 94 19 2 20 1 21 86 22 87 23 93 24 88 25
REMARK SMILES IDX 92 26 89 27 90 28 91 29 16 30 17 31 18 32 19 33 20 35 21 36
REMARK SMILES IDX 22 37 83 38 23 39 82 40 24 41 25 42 26 43 76 44 27 45 81 46
REMARK SMILES IDX 75 47 77 48 28 49 80 50 74 51 73 52 29 54 61 55 41 56 60 57
REMARK SMILES IDX 42 58 45 59 59 60 78 61 43 62 44 63 58 65 79 66 46 67 30 68
REMARK SMILES IDX 31 69 39 70 32 71 38 72 40 73 37 74 33 75 34 76 35 77 36 78
REMARK SMILES IDX 62 79 63 80 71 81 64 82 70 83 72 84 69 85 65 86 66 87 67 88
REMARK SMILES IDX 68 89 47 90 48 91 56 92 49 93 55 94 57 95 54 96 50 97 51 98
REMARK SMILES IDX 52 99 53 100
REMARK H PARENT 14 5 10 8 18 34 77 53 45 64
REMARK Flexibility Score: inf
ROOT
ATOM      1  C   UNL A   1      34.657  22.166  24.111  1.00  0.00     0.117 C 
ENDROOT
BRANCH   1   2
ATOM      2  N   UNL A   1      33.916  20.939  24.341  1.00  0.00    -0.355 N 
ATOM      3  C   UNL A   1      32.674  20.781  24.893  1.00  0.00     0.239 C 
ATOM      4  O   UNL A   1      32.234  19.637  25.021  1.00  0.00    -0.273 OA
ATOM      5  H   UNL A   1      34.367  20.111  24.061  1.00  0.00     0.163 HD
BRANCH   3   6
ATOM      6  C   UNL A   1      31.840  22.007  25.278  1.00  0.00     0.215 C 
BRANCH   6   7
ATOM      7  N   UNL A   1      31.602  22.879  24.141  1.00  0.00    -0.352 N 
ATOM      8  H   UNL A   1      31.684  22.479  23.244  1.00  0.00     0.163 HD
BRANCH   7   9
ATOM      9  C   UNL A   1      31.278  24.188  24.203  1.00  0.00     0.184 A 
ATOM     10  C   UNL A   1      31.543  26.331  24.709  1.00  0.00     0.091 A 
ATOM     11  N   UNL A   1      32.023  25.041  24.867  1.00  0.00    -0.220 NA
ATOM     12  C   UNL A   1      30.471  26.461  23.840  1.00  0.00     0.064 A 
ATOM     13  S   UNL A   1      29.915  24.900  23.420  1.00  0.00    -0.096 S 
BRANCH  10  14
ATOM     14  C   UNL A   1      32.132  27.458  25.419  1.00  0.00     0.002 A 
ATOM     15  C   UNL A   1      33.173  29.693  26.769  1.00  0.00     0.118 A 
ATOM     16  C   UNL A   1      32.038  29.043  27.252  1.00  0.00     0.047 A 
ATOM     17  C   UNL A   1      33.807  29.206  25.623  1.00  0.00     0.047 A 
ATOM     18  C   UNL A   1      31.517  27.937  26.582  1.00  0.00     0.014 A 
ATOM     19  C   UNL A   1      33.292  28.084  24.954  1.00  0.00     0.014 A 
BRANCH  15  20
ATOM     20  O   UNL A   1      33.577  30.753  27.531  1.00  0.00    -0.497 OA
ATOM     21  C   UNL A   1      34.949  30.778  27.903  1.00  0.00     0.278 C 
ENDBRANCH  15  20
ENDBRANCH  10  14
BRANCH  12  22
ATOM     22  C   UNL A   1      29.829  27.650  23.277  1.00  0.00    -0.006 A 
ATOM     23  C   UNL A   1      30.559  28.619  22.579  1.00  0.00     0.013 A 
ATOM     24  C   UNL A   1      28.445  27.824  23.423  1.00  0.00     0.013 A 
ATOM     25  C   UNL A   1      29.909  29.728  22.029  1.00  0.00     0.047 A 
ATOM     26  C   UNL A   1      27.798  28.933  22.870  1.00  0.00     0.047 A 
ATOM     27  C   UNL A   1      28.527  29.886  22.162  1.00  0.00     0.118 A 
BRANCH  27  28
ATOM     28  O   UNL A   1      28.016  31.004  21.563  1.00  0.00    -0.497 OA
ATOM     29  C   UNL A   1      28.594  32.248  21.945  1.00  0.00     0.278 C 
ENDBRANCH  27  28
ENDBRANCH  12  22
ENDBRANCH   7   9
ENDBRANCH   6   7
ENDBRANCH   3   6
ENDBRANCH   1   2
BRANCH   1  30
ATOM     30  C   UNL A   1      36.163  21.964  24.254  1.00  0.00     0.042 C 
BRANCH  30  31
ATOM     31  C   UNL A   1      36.612  21.775  25.703  1.00  0.00     0.118 C 
BRANCH  31  32
ATOM     32  N   UNL A   1      37.733  20.849  25.821  1.00  0.00    -0.352 N 
ATOM     33  C   UNL A   1      39.059  21.091  26.082  1.00  0.00     0.251 C 
ATOM     34  H   UNL A   1      37.503  19.901  25.693  1.00  0.00     0.163 HD
ATOM     35  O   UNL A   1      39.877  20.187  25.926  1.00  0.00    -0.269 OA
BRANCH  33  36
ATOM     36  C   UNL A   1      39.504  22.430  26.520  1.00  0.00     0.039 A 
ATOM     37  C   UNL A   1      40.597  22.531  27.386  1.00  0.00     0.014 A 
ATOM     38  C   UNL A   1      38.846  23.583  26.085  1.00  0.00     0.014 A 
ATOM     39  C   UNL A   1      41.090  23.789  27.736  1.00  0.00     0.010 A 
ATOM     40  C   UNL A   1      39.379  24.837  26.381  1.00  0.00     0.010 A 
ATOM     41  C   UNL A   1      40.519  24.951  27.190  1.00  0.00    -0.014 A 
BRANCH  41  42
ATOM     42  C   UNL A   1      41.133  26.287  27.401  1.00  0.00     0.031 A 
ATOM     43  C   UNL A   1      42.517  26.581  26.896  1.00  0.00     0.074 A 
ATOM     44  C   UNL A   1      40.470  27.208  28.130  1.00  0.00     0.049 A 
ATOM     45  N   UNL A   1      43.264  27.636  27.098  1.00  0.00    -0.248 NA
ATOM     46  C   UNL A   1      43.153  25.538  26.077  1.00  0.00     0.031 C 
ATOM     47  C   UNL A   1      39.133  27.031  28.703  1.00  0.00     0.029 A 
ATOM     48  N   UNL A   1      40.838  28.467  28.535  1.00  0.00    -0.354 N 
ATOM     49  C   UNL A   1      44.463  27.385  26.439  1.00  0.00     0.074 A 
ATOM     50  C   UNL A   1      44.358  26.054  25.876  1.00  0.00     0.031 C 
ATOM     51  C   UNL A   1      38.790  28.141  29.375  1.00  0.00     0.029 A 
ATOM     52  C   UNL A   1      39.903  29.085  29.332  1.00  0.00     0.049 A 
ATOM     53  H   UNL A   1      41.691  28.887  28.280  1.00  0.00     0.167 HD
ATOM     54  C   UNL A   1      45.542  28.196  26.305  1.00  0.00     0.034 A 
ATOM     55  C   UNL A   1      39.948  30.260  29.988  1.00  0.00     0.034 A 
ATOM     56  C   UNL A   1      45.630  29.518  26.876  1.00  0.00     0.049 A 
ATOM     57  C   UNL A   1      41.188  31.110  29.889  1.00  0.00     0.074 A 
ATOM     58  C   UNL A   1      46.652  30.444  26.749  1.00  0.00     0.029 A 
ATOM     59  N   UNL A   1      44.675  30.097  27.700  1.00  0.00    -0.354 N 
ATOM     60  N   UNL A   1      42.293  30.880  29.220  1.00  0.00    -0.248 NA
ATOM     61  C   UNL A   1      41.187  32.374  30.637  1.00  0.00     0.031 C 
ATOM     62  C   UNL A   1      46.354  31.543  27.561  1.00  0.00     0.029 A 
ATOM     63  C   UNL A   1      45.107  31.344  28.129  1.00  0.00     0.049 A 
ATOM     64  H   UNL A   1      43.816  29.683  27.946  1.00  0.00     0.167 HD
ATOM     65  C   UNL A   1      43.112  31.981  29.454  1.00  0.00     0.074 A 
ATOM     66  C   UNL A   1      42.366  32.881  30.309  1.00  0.00     0.031 C 
ATOM     67  C   UNL A   1      44.366  32.225  29.000  1.00  0.00     0.034 A 
BRANCH  54  68
ATOM     68  C   UNL A   1      46.727  27.661  25.538  1.00  0.00     0.023 A 
ATOM     69  C   UNL A   1      46.974  28.034  24.205  1.00  0.00     0.031 A 
ATOM     70  C   UNL A   1      47.622  26.761  26.144  1.00  0.00     0.131 A 
ATOM     71  C   UNL A   1      48.040  27.456  23.502  1.00  0.00     0.055 A 
ATOM     72  C   UNL A   1      48.730  26.253  25.464  1.00  0.00     0.041 A 
ATOM     73  F   UNL A   1      47.428  26.352  27.408  1.00  0.00    -0.206 F 
ATOM     74  C   UNL A   1      48.937  26.589  24.130  1.00  0.00     0.022 A 
BRANCH  71  75
ATOM     75  S   UNL A   1      48.153  27.743  21.715  1.00  0.00     0.124 S 
ATOM     76  O   UNL A   1      48.511  26.415  21.223  1.00  0.00    -0.237 OA
ATOM     77  O   UNL A   1      46.811  28.207  21.384  1.00  0.00    -0.237 OA
ATOM     78  O   UNL A   1      49.208  28.748  21.595  1.00  0.00    -0.744 OA
ENDBRANCH  71  75
ENDBRANCH  54  68
BRANCH  55  79
ATOM     79  C   UNL A   1      38.817  30.687  30.856  1.00  0.00     0.023 A 
ATOM     80  C   UNL A   1      37.856  31.600  30.396  1.00  0.00     0.031 A 
ATOM     81  C   UNL A   1      38.729  30.242  32.186  1.00  0.00     0.131 A 
ATOM     82  C   UNL A   1      36.877  32.082  31.278  1.00  0.00     0.055 A 
ATOM     83  C   UNL A   1      37.728  30.691  33.046  1.00  0.00     0.041 A 
ATOM     84  F   UNL A   1      39.615  29.357  32.668  1.00  0.00    -0.206 F 
ATOM     85  C   UNL A   1      36.800  31.626  32.596  1.00  0.00     0.022 A 
BRANCH  82  86
ATOM     86  S   UNL A   1      35.752  33.382  30.703  1.00  0.00     0.124 S 
ATOM     87  O   UNL A   1      36.282  33.663  29.374  1.00  0.00    -0.237 OA
ATOM     88  O   UNL A   1      34.459  32.707  30.752  1.00  0.00    -0.237 OA
ATOM     89  O   UNL A   1      35.934  34.444  31.691  1.00  0.00    -0.744 OA
ENDBRANCH  82  86
ENDBRANCH  55  79
BRANCH  67  90
ATOM     90  C   UNL A   1      45.000  33.536  29.398  1.00  0.00     0.023 A 
ATOM     91  C   UNL A   1      44.798  34.709  28.651  1.00  0.00     0.031 A 
ATOM     92  C   UNL A   1      45.810  33.610  30.545  1.00  0.00     0.131 A 
ATOM     93  C   UNL A   1      45.432  35.900  29.038  1.00  0.00     0.055 A 
ATOM     94  C   UNL A   1      46.388  34.810  30.958  1.00  0.00     0.041 A 
ATOM     95  F   UNL A   1      46.043  32.517  31.289  1.00  0.00    -0.206 F 
ATOM     96  C   UNL A   1      46.208  35.963  30.199  1.00  0.00     0.022 A 
BRANCH  93  97
ATOM     97  S   UNL A   1      45.286  37.355  27.964  1.00  0.00     0.124 S 
ATOM     98  O   UNL A   1      43.874  37.322  27.602  1.00  0.00    -0.237 OA
ATOM     99  O   UNL A   1      45.693  38.440  28.851  1.00  0.00    -0.237 OA
ATOM    100  O   UNL A   1      46.215  37.069  26.873  1.00  0.00    -0.744 OA
ENDBRANCH  93  97
ENDBRANCH  67  90
ENDBRANCH  41  42
ENDBRANCH  33  36
ENDBRANCH  31  32
ENDBRANCH  30  31
ENDBRANCH   1  30
TORSDOF 19
ENDMDL
