MODEL 1
REMARK VINA RESULT:     -11.8      0.000      0.000
REMARK SMILES O=C(CNC(=O)c1cccs1)N[C@@H]1C=C[C@H](C(=O)NCCCNC(=O)c2ccc(-c3c4nc(c(-c5cc(S(=O)(=O)[O-])ccc5F)c5ccc([nH]5)c(-c5cc(S(=O)(=O)[O-])ccc5F)c5nc(c(-c6cc(S(=O)(=O)[O-])ccc6F)c6ccc3[nH]6)C=C5)C=C4)cc2)C1
REMARK SMILES IDX 20 1 19 2 17 3 18 4 16 6 13 7 14 8 89 9 15 10 12 11 1 12
REMARK SMILES IDX 2 13 3 15 4 16 5 17 6 19 7 20 8 21 11 22 9 23 10 24 21 25
REMARK SMILES IDX 22 26 23 27 24 28 25 30 26 31 27 32 88 33 28 34 87 35 29 36
REMARK SMILES IDX 30 37 31 38 81 39 32 40 86 41 80 42 82 43 33 44 85 45 79 46
REMARK SMILES IDX 78 47 34 49 66 50 46 51 65 52 47 53 50 54 64 55 83 56 48 57
REMARK SMILES IDX 49 58 63 60 84 61 51 62 35 63 36 64 44 65 37 66 43 67 45 68
REMARK SMILES IDX 42 69 38 70 39 71 40 72 41 73 67 74 68 75 76 76 69 77 75 78
REMARK SMILES IDX 77 79 74 80 70 81 71 82 72 83 73 84 52 85 53 86 61 87 54 88
REMARK SMILES IDX 60 89 62 90 59 91 55 92 56 93 57 94 58 95
REMARK H PARENT 19 5 12 14 4 18 23 29 82 48 50 59
REMARK Flexibility Score: inf
ROOT
ATOM      1  C   UNL A   1      31.391  30.835  25.632  1.00  0.00     0.117 C 
ENDROOT
BRANCH   1   2
ATOM      2  N   UNL A   1      32.592  30.045  25.507  1.00  0.00    -0.356 N 
ATOM      3  C   UNL A   1      32.756  28.742  25.153  1.00  0.00     0.227 C 
ATOM      4  O   UNL A   1      33.915  28.355  24.968  1.00  0.00    -0.274 OA
ATOM      5  H   UNL A   1      33.427  30.526  25.709  1.00  0.00     0.163 HD
BRANCH   3   6
ATOM      6  C   UNL A   1      31.591  27.749  25.015  1.00  0.00     0.103 C 
ATOM      7  C   UNL A   1      31.240  25.378  25.666  1.00  0.00     0.106 C 
ATOM      8  C   UNL A   1      31.551  25.544  24.213  1.00  0.00    -0.006 C 
ATOM      9  C   UNL A   1      31.285  26.827  26.208  1.00  0.00     0.047 C 
ATOM     10  C   UNL A   1      31.753  26.817  23.859  1.00  0.00    -0.016 C 
BRANCH   7  11
ATOM     11  N   UNL A   1      32.248  24.528  26.261  1.00  0.00    -0.348 N 
ATOM     12  O   UNL A   1      30.850  23.222  27.525  1.00  0.00    -0.273 OA
ATOM     13  C   UNL A   1      31.970  23.457  27.081  1.00  0.00     0.239 C 
ATOM     14  H   UNL A   1      33.193  24.727  26.065  1.00  0.00     0.164 HD
BRANCH  13  15
ATOM     15  C   UNL A   1      33.204  22.630  27.491  1.00  0.00     0.216 C 
BRANCH  15  16
ATOM     16  N   UNL A   1      33.135  21.270  26.961  1.00  0.00    -0.342 N 
ATOM     17  C   UNL A   1      33.487  20.813  25.714  1.00  0.00     0.261 C 
ATOM     18  H   UNL A   1      32.789  20.588  27.582  1.00  0.00     0.164 HD
ATOM     19  O   UNL A   1      32.820  19.873  25.272  1.00  0.00    -0.268 OA
BRANCH  17  20
ATOM     20  C   UNL A   1      34.549  21.481  24.990  1.00  0.00     0.092 A 
ATOM     21  C   UNL A   1      35.920  21.321  25.090  1.00  0.00     0.025 A 
ATOM     22  S   UNL A   1      34.144  22.601  23.757  1.00  0.00    -0.139 S 
ATOM     23  C   UNL A   1      36.635  22.149  24.176  1.00  0.00     0.012 A 
ATOM     24  C   UNL A   1      35.787  22.895  23.389  1.00  0.00     0.065 A 
ENDBRANCH  17  20
ENDBRANCH  15  16
ENDBRANCH  13  15
ENDBRANCH   7  11
ENDBRANCH   3   6
ENDBRANCH   1   2
BRANCH   1  25
ATOM     25  C   UNL A   1      31.366  31.742  26.854  1.00  0.00     0.042 C 
BRANCH  25  26
ATOM     26  C   UNL A   1      32.681  32.487  27.062  1.00  0.00     0.118 C 
BRANCH  26  27
ATOM     27  N   UNL A   1      32.498  33.810  27.656  1.00  0.00    -0.352 N 
ATOM     28  C   UNL A   1      33.194  34.478  28.634  1.00  0.00     0.251 C 
ATOM     29  H   UNL A   1      31.737  34.313  27.288  1.00  0.00     0.163 HD
ATOM     30  O   UNL A   1      32.756  35.553  29.044  1.00  0.00    -0.269 OA
BRANCH  28  31
ATOM     31  C   UNL A   1      34.410  33.910  29.253  1.00  0.00     0.039 A 
ATOM     32  C   UNL A   1      35.654  34.372  28.807  1.00  0.00     0.014 A 
ATOM     33  C   UNL A   1      34.353  32.924  30.237  1.00  0.00     0.014 A 
ATOM     34  C   UNL A   1      36.831  33.906  29.396  1.00  0.00     0.010 A 
ATOM     35  C   UNL A   1      35.517  32.527  30.887  1.00  0.00     0.010 A 
ATOM     36  C   UNL A   1      36.768  33.011  30.471  1.00  0.00    -0.014 A 
BRANCH  36  37
ATOM     37  C   UNL A   1      37.986  32.516  31.158  1.00  0.00     0.031 A 
ATOM     38  C   UNL A   1      38.756  31.378  30.548  1.00  0.00     0.074 A 
ATOM     39  C   UNL A   1      38.326  33.007  32.366  1.00  0.00     0.049 A 
ATOM     40  N   UNL A   1      39.672  30.614  31.079  1.00  0.00    -0.248 NA
ATOM     41  C   UNL A   1      38.398  31.024  29.167  1.00  0.00     0.031 C 
ATOM     42  C   UNL A   1      37.640  34.096  33.065  1.00  0.00     0.029 A 
ATOM     43  N   UNL A   1      39.320  32.631  33.233  1.00  0.00    -0.354 N 
ATOM     44  C   UNL A   1      39.956  29.647  30.119  1.00  0.00     0.074 A 
ATOM     45  C   UNL A   1      39.087  29.909  28.991  1.00  0.00     0.031 C 
ATOM     46  C   UNL A   1      38.237  34.303  34.249  1.00  0.00     0.029 A 
ATOM     47  C   UNL A   1      39.310  33.330  34.418  1.00  0.00     0.049 A 
ATOM     48  H   UNL A   1      39.978  31.929  33.027  1.00  0.00     0.167 HD
ATOM     49  C   UNL A   1      40.863  28.639  30.177  1.00  0.00     0.034 A 
ATOM     50  C   UNL A   1      40.063  33.179  35.524  1.00  0.00     0.034 A 
ATOM     51  C   UNL A   1      41.748  28.433  31.297  1.00  0.00     0.049 A 
ATOM     52  C   UNL A   1      41.104  32.092  35.545  1.00  0.00     0.074 A 
ATOM     53  C   UNL A   1      42.735  27.477  31.460  1.00  0.00     0.029 A 
ATOM     54  N   UNL A   1      41.761  29.215  32.446  1.00  0.00    -0.354 N 
ATOM     55  N   UNL A   1      41.358  31.175  34.639  1.00  0.00    -0.248 NA
ATOM     56  C   UNL A   1      41.965  32.023  36.733  1.00  0.00     0.031 C 
ATOM     57  C   UNL A   1      43.319  27.659  32.719  1.00  0.00     0.029 A 
ATOM     58  C   UNL A   1      42.735  28.763  33.321  1.00  0.00     0.049 A 
ATOM     59  H   UNL A   1      41.164  29.980  32.615  1.00  0.00     0.167 HD
ATOM     60  C   UNL A   1      42.421  30.433  35.139  1.00  0.00     0.074 A 
ATOM     61  C   UNL A   1      42.768  31.017  36.420  1.00  0.00     0.031 C 
ATOM     62  C   UNL A   1      43.057  29.366  34.592  1.00  0.00     0.034 A 
BRANCH  49  63
ATOM     63  C   UNL A   1      40.897  27.676  29.014  1.00  0.00     0.023 A 
ATOM     64  C   UNL A   1      41.869  27.770  28.003  1.00  0.00     0.031 A 
ATOM     65  C   UNL A   1      39.897  26.696  28.874  1.00  0.00     0.131 A 
ATOM     66  C   UNL A   1      41.761  26.976  26.851  1.00  0.00     0.055 A 
ATOM     67  C   UNL A   1      39.850  25.844  27.768  1.00  0.00     0.041 A 
ATOM     68  F   UNL A   1      38.930  26.569  29.796  1.00  0.00    -0.206 F 
ATOM     69  C   UNL A   1      40.774  25.996  26.736  1.00  0.00     0.022 A 
BRANCH  66  70
ATOM     70  S   UNL A   1      42.826  27.362  25.434  1.00  0.00     0.124 S 
ATOM     71  O   UNL A   1      42.080  28.444  24.795  1.00  0.00    -0.237 OA
ATOM     72  O   UNL A   1      44.079  27.744  26.075  1.00  0.00    -0.237 OA
ATOM     73  O   UNL A   1      42.864  26.110  24.682  1.00  0.00    -0.744 OA
ENDBRANCH  66  70
ENDBRANCH  49  63
BRANCH  50  74
ATOM     74  C   UNL A   1      39.853  34.063  36.703  1.00  0.00     0.023 A 
ATOM     75  C   UNL A   1      39.253  33.571  37.872  1.00  0.00     0.031 A 
ATOM     76  C   UNL A   1      40.239  35.414  36.674  1.00  0.00     0.131 A 
ATOM     77  C   UNL A   1      39.023  34.433  38.955  1.00  0.00     0.055 A 
ATOM     78  C   UNL A   1      40.044  36.259  37.769  1.00  0.00     0.041 A 
ATOM     79  F   UNL A   1      40.831  35.928  35.584  1.00  0.00    -0.206 F 
ATOM     80  C   UNL A   1      39.423  35.770  38.915  1.00  0.00     0.022 A 
BRANCH  77  81
ATOM     81  S   UNL A   1      38.142  33.789  40.404  1.00  0.00     0.124 S 
ATOM     82  O   UNL A   1      39.157  32.940  41.018  1.00  0.00    -0.237 OA
ATOM     83  O   UNL A   1      37.810  35.015  41.124  1.00  0.00    -0.237 OA
ATOM     84  O   UNL A   1      37.003  33.083  39.823  1.00  0.00    -0.744 OA
ENDBRANCH  77  81
ENDBRANCH  50  74
BRANCH  62  85
ATOM     85  C   UNL A   1      44.222  28.809  35.363  1.00  0.00     0.023 A 
ATOM     86  C   UNL A   1      44.051  27.818  36.343  1.00  0.00     0.031 A 
ATOM     87  C   UNL A   1      45.520  29.292  35.118  1.00  0.00     0.131 A 
ATOM     88  C   UNL A   1      45.157  27.371  37.079  1.00  0.00     0.055 A 
ATOM     89  C   UNL A   1      46.623  28.811  35.824  1.00  0.00     0.041 A 
ATOM     90  F   UNL A   1      45.732  30.240  34.192  1.00  0.00    -0.206 F 
ATOM     91  C   UNL A   1      46.444  27.853  36.818  1.00  0.00     0.022 A 
BRANCH  88  92
ATOM     92  S   UNL A   1      44.885  26.198  38.435  1.00  0.00     0.124 S 
ATOM     93  O   UNL A   1      43.551  26.572  38.897  1.00  0.00    -0.237 OA
ATOM     94  O   UNL A   1      44.987  24.909  37.759  1.00  0.00    -0.237 OA
ATOM     95  O   UNL A   1      45.970  26.495  39.368  1.00  0.00    -0.744 OA
ENDBRANCH  88  92
ENDBRANCH  62  85
ENDBRANCH  36  37
ENDBRANCH  28  31
ENDBRANCH  26  27
ENDBRANCH  25  26
ENDBRANCH   1  25
TORSDOF 17
ENDMDL
MODEL 2
REMARK VINA RESULT:     -11.6      5.745     10.757
REMARK SMILES O=C(CNC(=O)c1cccs1)N[C@@H]1C=C[C@H](C(=O)NCCCNC(=O)c2ccc(-c3c4nc(c(-c5cc(S(=O)(=O)[O-])ccc5F)c5ccc([nH]5)c(-c5cc(S(=O)(=O)[O-])ccc5F)c5nc(c(-c6cc(S(=O)(=O)[O-])ccc6F)c6ccc3[nH]6)C=C5)C=C4)cc2)C1
REMARK SMILES IDX 20 1 19 2 17 3 18 4 16 6 13 7 14 8 89 9 15 10 12 11 1 12
REMARK SMILES IDX 2 13 3 15 4 16 5 17 6 19 7 20 8 21 11 22 9 23 10 24 21 25
REMARK SMILES IDX 22 26 23 27 24 28 25 30 26 31 27 32 88 33 28 34 87 35 29 36
REMARK SMILES IDX 30 37 31 38 81 39 32 40 86 41 80 42 82 43 33 44 85 45 79 46
REMARK SMILES IDX 78 47 34 49 66 50 46 51 65 52 47 53 50 54 64 55 83 56 48 57
REMARK SMILES IDX 49 58 63 60 84 61 51 62 35 63 36 64 44 65 37 66 43 67 45 68
REMARK SMILES IDX 42 69 38 70 39 71 40 72 41 73 67 74 68 75 76 76 69 77 75 78
REMARK SMILES IDX 77 79 74 80 70 81 71 82 72 83 73 84 52 85 53 86 61 87 54 88
REMARK SMILES IDX 60 89 62 90 59 91 55 92 56 93 57 94 58 95
REMARK H PARENT 19 5 12 14 4 18 23 29 82 48 50 59
REMARK Flexibility Score: inf
ROOT
ATOM      1  C   UNL A   1      35.261  23.045  26.405  1.00  0.00     0.117 C 
ENDROOT
BRANCH   1   2
ATOM      2  N   UNL A   1      33.964  23.143  27.031  1.00  0.00    -0.356 N 
ATOM      3  C   UNL A   1      32.718  22.997  26.503  1.00  0.00     0.227 C 
ATOM      4  O   UNL A   1      31.774  22.974  27.300  1.00  0.00    -0.274 OA
ATOM      5  H   UNL A   1      33.983  23.348  27.994  1.00  0.00     0.163 HD
BRANCH   3   6
ATOM      6  C   UNL A   1      32.444  22.899  24.994  1.00  0.00     0.103 C 
ATOM      7  C   UNL A   1      32.657  24.470  23.082  1.00  0.00     0.106 C 
ATOM      8  C   UNL A   1      31.249  24.325  23.564  1.00  0.00    -0.006 C 
ATOM      9  C   UNL A   1      33.456  23.549  24.034  1.00  0.00     0.047 C 
ATOM     10  C   UNL A   1      31.130  23.490  24.601  1.00  0.00    -0.016 C 
BRANCH   7  11
ATOM     11  N   UNL A   1      33.043  25.859  23.196  1.00  0.00    -0.348 N 
ATOM     12  O   UNL A   1      33.366  26.277  20.964  1.00  0.00    -0.273 OA
ATOM     13  C   UNL A   1      33.287  26.684  22.119  1.00  0.00     0.239 C 
ATOM     14  H   UNL A   1      33.137  26.240  24.100  1.00  0.00     0.164 HD
BRANCH  13  15
ATOM     15  C   UNL A   1      33.563  28.154  22.491  1.00  0.00     0.216 C 
BRANCH  15  16
ATOM     16  N   UNL A   1      32.359  28.971  22.363  1.00  0.00    -0.342 N 
ATOM     17  C   UNL A   1      31.261  29.023  23.188  1.00  0.00     0.261 C 
ATOM     18  H   UNL A   1      32.330  29.567  21.579  1.00  0.00     0.164 HD
ATOM     19  O   UNL A   1      30.180  29.250  22.638  1.00  0.00    -0.268 OA
BRANCH  17  20
ATOM     20  C   UNL A   1      31.426  28.757  24.602  1.00  0.00     0.092 A 
ATOM     21  C   UNL A   1      31.095  27.629  25.331  1.00  0.00     0.025 A 
ATOM     22  S   UNL A   1      32.200  29.927  25.587  1.00  0.00    -0.139 S 
ATOM     23  C   UNL A   1      31.446  27.745  26.707  1.00  0.00     0.012 A 
ATOM     24  C   UNL A   1      32.059  28.947  26.980  1.00  0.00     0.065 A 
ENDBRANCH  17  20
ENDBRANCH  15  16
ENDBRANCH  13  15
ENDBRANCH   7  11
ENDBRANCH   3   6
ENDBRANCH   1   2
BRANCH   1  25
ATOM     25  C   UNL A   1      35.672  21.624  26.044  1.00  0.00     0.042 C 
BRANCH  25  26
ATOM     26  C   UNL A   1      36.785  21.580  25.001  1.00  0.00     0.118 C 
BRANCH  26  27
ATOM     27  N   UNL A   1      37.744  20.504  25.238  1.00  0.00    -0.352 N 
ATOM     28  C   UNL A   1      39.014  20.510  25.761  1.00  0.00     0.251 C 
ATOM     29  H   UNL A   1      37.421  19.613  24.975  1.00  0.00     0.163 HD
ATOM     30  O   UNL A   1      39.668  19.468  25.744  1.00  0.00    -0.269 OA
BRANCH  28  31
ATOM     31  C   UNL A   1      39.640  21.745  26.278  1.00  0.00     0.039 A 
ATOM     32  C   UNL A   1      40.632  21.621  27.259  1.00  0.00     0.014 A 
ATOM     33  C   UNL A   1      39.258  23.013  25.840  1.00  0.00     0.014 A 
ATOM     34  C   UNL A   1      41.291  22.754  27.741  1.00  0.00     0.010 A 
ATOM     35  C   UNL A   1      39.975  24.132  26.252  1.00  0.00     0.010 A 
ATOM     36  C   UNL A   1      40.996  24.014  27.209  1.00  0.00    -0.014 A 
BRANCH  36  37
ATOM     37  C   UNL A   1      41.694  25.244  27.657  1.00  0.00     0.031 A 
ATOM     38  C   UNL A   1      40.920  26.289  28.411  1.00  0.00     0.074 A 
ATOM     39  C   UNL A   1      42.972  25.466  27.293  1.00  0.00     0.049 A 
ATOM     40  N   UNL A   1      41.230  27.531  28.668  1.00  0.00    -0.248 NA
ATOM     41  C   UNL A   1      39.590  25.885  28.891  1.00  0.00     0.031 C 
ATOM     42  C   UNL A   1      43.816  24.533  26.542  1.00  0.00     0.029 A 
ATOM     43  N   UNL A   1      43.776  26.561  27.482  1.00  0.00    -0.354 N 
ATOM     44  C   UNL A   1      40.107  28.078  29.283  1.00  0.00     0.074 A 
ATOM     45  C   UNL A   1      39.104  27.035  29.327  1.00  0.00     0.031 C 
ATOM     46  C   UNL A   1      45.019  25.094  26.340  1.00  0.00     0.029 A 
ATOM     47  C   UNL A   1      45.015  26.442  26.896  1.00  0.00     0.049 A 
ATOM     48  H   UNL A   1      43.493  27.356  27.988  1.00  0.00     0.167 HD
ATOM     49  C   UNL A   1      39.937  29.334  29.770  1.00  0.00     0.034 A 
ATOM     50  C   UNL A   1      46.020  27.333  26.795  1.00  0.00     0.034 A 
ATOM     51  C   UNL A   1      40.974  30.336  29.754  1.00  0.00     0.049 A 
ATOM     52  C   UNL A   1      45.833  28.701  27.394  1.00  0.00     0.074 A 
ATOM     53  C   UNL A   1      40.941  31.628  30.249  1.00  0.00     0.029 A 
ATOM     54  N   UNL A   1      42.245  30.148  29.223  1.00  0.00    -0.354 N 
ATOM     55  N   UNL A   1      44.765  29.214  27.963  1.00  0.00    -0.248 NA
ATOM     56  C   UNL A   1      46.986  29.609  27.344  1.00  0.00     0.031 C 
ATOM     57  C   UNL A   1      42.177  32.230  29.987  1.00  0.00     0.029 A 
ATOM     58  C   UNL A   1      43.002  31.298  29.377  1.00  0.00     0.049 A 
ATOM     59  H   UNL A   1      42.562  29.318  28.798  1.00  0.00     0.167 HD
ATOM     60  C   UNL A   1      45.125  30.497  28.357  1.00  0.00     0.074 A 
ATOM     61  C   UNL A   1      46.511  30.675  27.971  1.00  0.00     0.031 C 
ATOM     62  C   UNL A   1      44.382  31.445  28.981  1.00  0.00     0.034 A 
BRANCH  49  63
ATOM     63  C   UNL A   1      38.572  29.682  30.312  1.00  0.00     0.023 A 
ATOM     64  C   UNL A   1      37.600  30.318  29.519  1.00  0.00     0.031 A 
ATOM     65  C   UNL A   1      38.261  29.442  31.663  1.00  0.00     0.131 A 
ATOM     66  C   UNL A   1      36.415  30.786  30.105  1.00  0.00     0.055 A 
ATOM     67  C   UNL A   1      37.038  29.827  32.218  1.00  0.00     0.041 A 
ATOM     68  F   UNL A   1      39.153  28.854  32.476  1.00  0.00    -0.206 F 
ATOM     69  C   UNL A   1      36.114  30.523  31.443  1.00  0.00     0.022 A 
BRANCH  66  70
ATOM     70  S   UNL A   1      35.351  31.891  29.135  1.00  0.00     0.124 S 
ATOM     71  O   UNL A   1      34.713  30.949  28.219  1.00  0.00    -0.237 OA
ATOM     72  O   UNL A   1      34.487  32.473  30.155  1.00  0.00    -0.237 OA
ATOM     73  O   UNL A   1      36.294  32.816  28.512  1.00  0.00    -0.744 OA
ENDBRANCH  66  70
ENDBRANCH  49  63
BRANCH  50  74
ATOM     74  C   UNL A   1      47.279  26.969  26.091  1.00  0.00     0.023 A 
ATOM     75  C   UNL A   1      48.327  26.334  26.775  1.00  0.00     0.031 A 
ATOM     76  C   UNL A   1      47.458  27.261  24.728  1.00  0.00     0.131 A 
ATOM     77  C   UNL A   1      49.523  26.041  26.102  1.00  0.00     0.055 A 
ATOM     78  C   UNL A   1      48.635  26.932  24.053  1.00  0.00     0.041 A 
ATOM     79  F   UNL A   1      46.478  27.854  24.027  1.00  0.00    -0.206 F 
ATOM     80  C   UNL A   1      49.681  26.327  24.745  1.00  0.00     0.022 A 
BRANCH  77  81
ATOM     81  S   UNL A   1      50.896  25.325  27.047  1.00  0.00     0.124 S 
ATOM     82  O   UNL A   1      51.404  26.489  27.765  1.00  0.00    -0.237 OA
ATOM     83  O   UNL A   1      50.214  24.320  27.856  1.00  0.00    -0.237 OA
ATOM     84  O   UNL A   1      51.780  24.793  26.013  1.00  0.00    -0.744 OA
ENDBRANCH  77  81
ENDBRANCH  50  74
BRANCH  62  85
ATOM     85  C   UNL A   1      45.082  32.730  29.328  1.00  0.00     0.023 A 
ATOM     86  C   UNL A   1      45.065  33.836  28.461  1.00  0.00     0.031 A 
ATOM     87  C   UNL A   1      45.789  32.840  30.538  1.00  0.00     0.131 A 
ATOM     88  C   UNL A   1      45.782  34.992  28.797  1.00  0.00     0.055 A 
ATOM     89  C   UNL A   1      46.464  34.010  30.886  1.00  0.00     0.041 A 
ATOM     90  F   UNL A   1      45.835  31.809  31.397  1.00  0.00    -0.206 F 
ATOM     91  C   UNL A   1      46.472  35.091  30.009  1.00  0.00     0.022 A 
BRANCH  88  92
ATOM     92  S   UNL A   1      45.860  36.348  27.595  1.00  0.00     0.124 S 
ATOM     93  O   UNL A   1      45.580  35.657  26.339  1.00  0.00    -0.237 OA
ATOM     94  O   UNL A   1      44.817  37.249  28.072  1.00  0.00    -0.237 OA
ATOM     95  O   UNL A   1      47.224  36.852  27.735  1.00  0.00    -0.744 OA
ENDBRANCH  88  92
ENDBRANCH  62  85
ENDBRANCH  36  37
ENDBRANCH  28  31
ENDBRANCH  26  27
ENDBRANCH  25  26
ENDBRANCH   1  25
TORSDOF 17
ENDMDL
MODEL 3
REMARK VINA RESULT:     -11.5      5.814     11.825
REMARK SMILES O=C(CNC(=O)c1cccs1)N[C@@H]1C=C[C@H](C(=O)NCCCNC(=O)c2ccc(-c3c4nc(c(-c5cc(S(=O)(=O)[O-])ccc5F)c5ccc([nH]5)c(-c5cc(S(=O)(=O)[O-])ccc5F)c5nc(c(-c6cc(S(=O)(=O)[O-])ccc6F)c6ccc3[nH]6)C=C5)C=C4)cc2)C1
REMARK SMILES IDX 20 1 19 2 17 3 18 4 16 6 13 7 14 8 89 9 15 10 12 11 1 12
REMARK SMILES IDX 2 13 3 15 4 16 5 17 6 19 7 20 8 21 11 22 9 23 10 24 21 25
REMARK SMILES IDX 22 26 23 27 24 28 25 30 26 31 27 32 88 33 28 34 87 35 29 36
REMARK SMILES IDX 30 37 31 38 81 39 32 40 86 41 80 42 82 43 33 44 85 45 79 46
REMARK SMILES IDX 78 47 34 49 66 50 46 51 65 52 47 53 50 54 64 55 83 56 48 57
REMARK SMILES IDX 49 58 63 60 84 61 51 62 35 63 36 64 44 65 37 66 43 67 45 68
REMARK SMILES IDX 42 69 38 70 39 71 40 72 41 73 67 74 68 75 76 76 69 77 75 78
REMARK SMILES IDX 77 79 74 80 70 81 71 82 72 83 73 84 52 85 53 86 61 87 54 88
REMARK SMILES IDX 60 89 62 90 59 91 55 92 56 93 57 94 58 95
REMARK H PARENT 19 5 12 14 4 18 23 29 82 48 50 59
REMARK Flexibility Score: inf
ROOT
ATOM      1  C   UNL A   1      37.360  20.834  24.649  1.00  0.00     0.117 C 
ENDROOT
BRANCH   1   2
ATOM      2  N   UNL A   1      36.459  21.346  25.652  1.00  0.00    -0.356 N 
ATOM      3  C   UNL A   1      35.137  21.658  25.572  1.00  0.00     0.227 C 
ATOM      4  O   UNL A   1      34.562  21.928  26.632  1.00  0.00    -0.274 OA
ATOM      5  H   UNL A   1      36.864  21.493  26.538  1.00  0.00     0.163 HD
BRANCH   3   6
ATOM      6  C   UNL A   1      34.360  21.720  24.246  1.00  0.00     0.103 C 
ATOM      7  C   UNL A   1      33.392  23.557  22.883  1.00  0.00     0.106 C 
ATOM      8  C   UNL A   1      32.368  22.829  23.695  1.00  0.00    -0.006 C 
ATOM      9  C   UNL A   1      34.714  22.845  23.257  1.00  0.00     0.047 C 
ATOM     10  C   UNL A   1      32.886  21.848  24.440  1.00  0.00    -0.016 C 
BRANCH   7  11
ATOM     11  N   UNL A   1      33.381  24.951  23.268  1.00  0.00    -0.348 N 
ATOM     12  O   UNL A   1      33.502  25.856  21.164  1.00  0.00    -0.273 OA
ATOM     13  C   UNL A   1      33.351  25.999  22.374  1.00  0.00     0.239 C 
ATOM     14  H   UNL A   1      33.395  25.165  24.229  1.00  0.00     0.164 HD
BRANCH  13  15
ATOM     15  C   UNL A   1      33.220  27.390  23.024  1.00  0.00     0.216 C 
BRANCH  15  16
ATOM     16  N   UNL A   1      31.865  27.918  22.884  1.00  0.00    -0.342 N 
ATOM     17  C   UNL A   1      30.903  28.090  23.850  1.00  0.00     0.261 C 
ATOM     18  H   UNL A   1      31.606  28.189  21.973  1.00  0.00     0.164 HD
ATOM     19  O   UNL A   1      29.734  27.944  23.483  1.00  0.00    -0.268 OA
BRANCH  17  20
ATOM     20  C   UNL A   1      31.311  28.366  25.212  1.00  0.00     0.092 A 
ATOM     21  C   UNL A   1      31.395  27.513  26.297  1.00  0.00     0.025 A 
ATOM     22  S   UNL A   1      31.854  29.941  25.619  1.00  0.00    -0.139 S 
ATOM     23  C   UNL A   1      31.871  28.166  27.471  1.00  0.00     0.012 A 
ATOM     24  C   UNL A   1      32.161  29.491  27.239  1.00  0.00     0.065 A 
ENDBRANCH  17  20
ENDBRANCH  15  16
ENDBRANCH  13  15
ENDBRANCH   7  11
ENDBRANCH   3   6
ENDBRANCH   1   2
BRANCH   1  25
ATOM     25  C   UNL A   1      38.202  19.653  25.113  1.00  0.00     0.042 C 
BRANCH  25  26
ATOM     26  C   UNL A   1      39.340  20.069  26.039  1.00  0.00     0.118 C 
BRANCH  26  27
ATOM     27  N   UNL A   1      40.527  19.229  25.894  1.00  0.00    -0.352 N 
ATOM     28  C   UNL A   1      41.868  19.516  25.983  1.00  0.00     0.251 C 
ATOM     29  H   UNL A   1      40.330  18.285  25.696  1.00  0.00     0.163 HD
ATOM     30  O   UNL A   1      42.683  18.640  25.697  1.00  0.00    -0.269 OA
BRANCH  28  31
ATOM     31  C   UNL A   1      42.355  20.864  26.344  1.00  0.00     0.039 A 
ATOM     32  C   UNL A   1      42.475  21.180  27.703  1.00  0.00     0.014 A 
ATOM     33  C   UNL A   1      42.669  21.824  25.383  1.00  0.00     0.014 A 
ATOM     34  C   UNL A   1      42.980  22.421  28.096  1.00  0.00     0.010 A 
ATOM     35  C   UNL A   1      43.257  23.024  25.770  1.00  0.00     0.010 A 
ATOM     36  C   UNL A   1      43.415  23.336  27.130  1.00  0.00    -0.014 A 
BRANCH  36  37
ATOM     37  C   UNL A   1      43.996  24.651  27.494  1.00  0.00     0.031 A 
ATOM     38  C   UNL A   1      43.095  25.716  28.055  1.00  0.00     0.074 A 
ATOM     39  C   UNL A   1      45.287  24.919  27.219  1.00  0.00     0.049 A 
ATOM     40  N   UNL A   1      43.307  26.998  28.194  1.00  0.00    -0.248 NA
ATOM     41  C   UNL A   1      41.752  25.277  28.461  1.00  0.00     0.031 C 
ATOM     42  C   UNL A   1      46.250  23.970  26.655  1.00  0.00     0.029 A 
ATOM     43  N   UNL A   1      46.005  26.080  27.351  1.00  0.00    -0.354 N 
ATOM     44  C   UNL A   1      42.103  27.530  28.644  1.00  0.00     0.074 A 
ATOM     45  C   UNL A   1      41.162  26.432  28.720  1.00  0.00     0.031 C 
ATOM     46  C   UNL A   1      47.432  24.586  26.495  1.00  0.00     0.029 A 
ATOM     47  C   UNL A   1      47.298  25.983  26.892  1.00  0.00     0.049 A 
ATOM     48  H   UNL A   1      45.631  26.904  27.737  1.00  0.00     0.167 HD
ATOM     49  C   UNL A   1      41.815  28.817  28.969  1.00  0.00     0.034 A 
ATOM     50  C   UNL A   1      48.255  26.924  26.778  1.00  0.00     0.034 A 
ATOM     51  C   UNL A   1      42.789  29.879  28.928  1.00  0.00     0.049 A 
ATOM     52  C   UNL A   1      47.934  28.333  27.198  1.00  0.00     0.074 A 
ATOM     53  C   UNL A   1      42.635  31.212  29.269  1.00  0.00     0.029 A 
ATOM     54  N   UNL A   1      44.113  29.722  28.534  1.00  0.00    -0.354 N 
ATOM     55  N   UNL A   1      46.789  28.831  27.611  1.00  0.00    -0.248 NA
ATOM     56  C   UNL A   1      49.032  29.306  27.145  1.00  0.00     0.031 C 
ATOM     57  C   UNL A   1      43.854  31.865  29.048  1.00  0.00     0.029 A 
ATOM     58  C   UNL A   1      44.784  30.931  28.621  1.00  0.00     0.049 A 
ATOM     59  H   UNL A   1      44.516  28.875  28.236  1.00  0.00     0.167 HD
ATOM     60  C   UNL A   1      47.037  30.170  27.886  1.00  0.00     0.074 A 
ATOM     61  C   UNL A   1      48.440  30.400  27.604  1.00  0.00     0.031 C 
ATOM     62  C   UNL A   1      46.184  31.128  28.332  1.00  0.00     0.034 A 
BRANCH  49  63
ATOM     63  C   UNL A   1      40.387  29.128  29.347  1.00  0.00     0.023 A 
ATOM     64  C   UNL A   1      39.955  29.108  30.685  1.00  0.00     0.031 A 
ATOM     65  C   UNL A   1      39.426  29.375  28.351  1.00  0.00     0.131 A 
ATOM     66  C   UNL A   1      38.589  29.225  30.981  1.00  0.00     0.055 A 
ATOM     67  C   UNL A   1      38.079  29.584  28.660  1.00  0.00     0.041 A 
ATOM     68  F   UNL A   1      39.772  29.389  27.054  1.00  0.00    -0.206 F 
ATOM     69  C   UNL A   1      37.650  29.488  29.982  1.00  0.00     0.022 A 
BRANCH  66  70
ATOM     70  S   UNL A   1      38.037  28.857  32.670  1.00  0.00     0.124 S 
ATOM     71  O   UNL A   1      36.684  29.407  32.661  1.00  0.00    -0.237 OA
ATOM     72  O   UNL A   1      38.134  27.403  32.725  1.00  0.00    -0.237 OA
ATOM     73  O   UNL A   1      38.992  29.579  33.508  1.00  0.00    -0.744 OA
ENDBRANCH  66  70
ENDBRANCH  49  63
BRANCH  50  74
ATOM     74  C   UNL A   1      49.593  26.573  26.231  1.00  0.00     0.023 A 
ATOM     75  C   UNL A   1      49.984  27.003  24.954  1.00  0.00     0.031 A 
ATOM     76  C   UNL A   1      50.498  25.794  26.973  1.00  0.00     0.131 A 
ATOM     77  C   UNL A   1      51.233  26.623  24.440  1.00  0.00     0.055 A 
ATOM     78  C   UNL A   1      51.756  25.450  26.474  1.00  0.00     0.041 A 
ATOM     79  F   UNL A   1      50.177  25.370  28.207  1.00  0.00    -0.206 F 
ATOM     80  C   UNL A   1      52.125  25.857  25.194  1.00  0.00     0.022 A 
BRANCH  77  81
ATOM     81  S   UNL A   1      51.655  27.101  22.742  1.00  0.00     0.124 S 
ATOM     82  O   UNL A   1      52.081  28.485  22.919  1.00  0.00    -0.237 OA
ATOM     83  O   UNL A   1      52.706  26.144  22.411  1.00  0.00    -0.237 OA
ATOM     84  O   UNL A   1      50.400  26.921  22.016  1.00  0.00    -0.744 OA
ENDBRANCH  77  81
ENDBRANCH  50  74
BRANCH  62  85
ATOM     85  C   UNL A   1      46.774  32.487  28.589  1.00  0.00     0.023 A 
ATOM     86  C   UNL A   1      46.778  33.487  27.602  1.00  0.00     0.031 A 
ATOM     87  C   UNL A   1      47.352  32.776  29.838  1.00  0.00     0.131 A 
ATOM     88  C   UNL A   1      47.393  34.719  27.865  1.00  0.00     0.055 A 
ATOM     89  C   UNL A   1      47.922  34.021  30.108  1.00  0.00     0.041 A 
ATOM     90  F   UNL A   1      47.372  31.852  30.811  1.00  0.00    -0.206 F 
ATOM     91  C   UNL A   1      47.954  34.996  29.116  1.00  0.00     0.022 A 
BRANCH  88  92
ATOM     92  S   UNL A   1      47.511  35.936  26.526  1.00  0.00     0.124 S 
ATOM     93  O   UNL A   1      47.453  37.199  27.258  1.00  0.00    -0.237 OA
ATOM     94  O   UNL A   1      48.797  35.610  25.920  1.00  0.00    -0.237 OA
ATOM     95  O   UNL A   1      46.344  35.647  25.696  1.00  0.00    -0.744 OA
ENDBRANCH  88  92
ENDBRANCH  62  85
ENDBRANCH  36  37
ENDBRANCH  28  31
ENDBRANCH  26  27
ENDBRANCH  25  26
ENDBRANCH   1  25
TORSDOF 17
ENDMDL
