MODEL 1
REMARK VINA RESULT:     -12.5      0.000      0.000
REMARK SMILES COc1cc(Cl)c2c(c1)C=C(C(=O)NCCCNC(=O)c1ccc(-c3c4nc(c(-c5cc(S(=O)(=O)[O-])ccc5F)c5ccc([nH]5)c(-c5cc(S(=O)(=O)[O-])ccc5F)c5nc(c(-c6cc(S(=O)(=O)[O-])ccc6F)c6ccc3[nH]6)C=C5)C=C4)cc1)[C@@H](C(F)(F)F)O2
REMARK SMILES IDX 17 1 16 2 15 3 14 4 12 5 13 6 11 8 3 9 4 10 9 11 5 12 8 13
REMARK SMILES IDX 6 14 7 15 10 16 89 17 84 18 2 19 1 20 85 21 86 22 87 23
REMARK SMILES IDX 88 24 18 25 19 26 20 28 21 29 22 30 83 31 23 32 82 33 24 34
REMARK SMILES IDX 25 35 26 36 76 37 27 38 81 39 75 40 77 41 28 42 80 43 74 44
REMARK SMILES IDX 73 45 29 47 61 48 41 49 60 50 42 51 45 52 59 53 78 54 43 55
REMARK SMILES IDX 44 56 58 58 79 59 46 60 30 61 31 62 39 63 32 64 38 65 40 66
REMARK SMILES IDX 37 67 33 68 34 69 35 70 36 71 62 72 63 73 71 74 64 75 70 76
REMARK SMILES IDX 72 77 69 78 65 79 66 80 67 81 68 82 47 83 48 84 56 85 49 86
REMARK SMILES IDX 55 87 57 88 54 89 50 90 51 91 52 92 53 93
REMARK H PARENT 14 7 18 27 77 46 45 57
REMARK Flexibility Score: inf
ROOT
ATOM      1  C   UNL A   1      35.909  22.523  26.011  1.00  0.00     0.118 C 
ENDROOT
BRANCH   1   2
ATOM      2  C   UNL A   1      34.791  22.235  27.003  1.00  0.00     0.042 C 
BRANCH   2   3
ATOM      3  C   UNL A   1      33.571  21.628  26.328  1.00  0.00     0.118 C 
BRANCH   3   4
ATOM      4  N   UNL A   1      32.328  22.202  26.820  1.00  0.00    -0.352 N 
ATOM      5  C   UNL A   1      31.638  23.354  26.657  1.00  0.00     0.251 C 
ATOM      6  O   UNL A   1      30.559  23.412  27.254  1.00  0.00    -0.270 OA
ATOM      7  H   UNL A   1      31.866  21.588  27.435  1.00  0.00     0.163 HD
BRANCH   5   8
ATOM      8  C   UNL A   1      32.082  24.506  25.820  1.00  0.00     0.067 C 
ATOM      9  C   UNL A   1      33.243  29.189  25.590  1.00  0.00     0.121 A 
ATOM     10  C   UNL A   1      33.602  29.048  24.249  1.00  0.00     0.070 A 
ATOM     11  C   UNL A   1      32.865  28.070  26.335  1.00  0.00     0.058 A 
ATOM     12  C   UNL A   1      33.534  27.794  23.645  1.00  0.00     0.087 A 
ATOM     13  C   UNL A   1      32.782  26.814  25.727  1.00  0.00     0.022 A 
ATOM     14  Cl  UNL A   1      33.963  27.660  21.977  1.00  0.00    -0.080 Cl
ATOM     15  C   UNL A   1      33.106  26.681  24.375  1.00  0.00     0.146 A 
ATOM     16  C   UNL A   1      32.380  25.636  26.488  1.00  0.00     0.025 C 
ATOM     17  O   UNL A   1      33.062  25.469  23.746  1.00  0.00    -0.474 OA
ATOM     18  C   UNL A   1      32.171  24.477  24.321  1.00  0.00     0.314 C 
BRANCH   9  19
ATOM     19  O   UNL A   1      33.285  30.377  26.267  1.00  0.00    -0.497 OA
ATOM     20  C   UNL A   1      32.030  30.766  26.822  1.00  0.00     0.278 C 
ENDBRANCH   9  19
BRANCH  18  21
ATOM     21  C   UNL A   1      30.788  24.583  23.649  1.00  0.00     0.429 C 
ATOM     22  F   UNL A   1      30.293  23.352  23.370  1.00  0.00    -0.167 F 
ATOM     23  F   UNL A   1      29.869  25.197  24.434  1.00  0.00    -0.167 F 
ATOM     24  F   UNL A   1      30.826  25.276  22.487  1.00  0.00    -0.167 F 
ENDBRANCH  18  21
ENDBRANCH   5   8
ENDBRANCH   3   4
ENDBRANCH   2   3
ENDBRANCH   1   2
BRANCH   1  25
ATOM     25  N   UNL A   1      36.787  21.365  25.844  1.00  0.00    -0.352 N 
ATOM     26  C   UNL A   1      38.157  21.313  25.798  1.00  0.00     0.251 C 
ATOM     27  H   UNL A   1      36.329  20.499  25.750  1.00  0.00     0.163 HD
ATOM     28  O   UNL A   1      38.722  20.308  25.373  1.00  0.00    -0.269 OA
BRANCH  26  29
ATOM     29  C   UNL A   1      38.939  22.467  26.273  1.00  0.00     0.039 A 
ATOM     30  C   UNL A   1      39.998  22.270  27.163  1.00  0.00     0.014 A 
ATOM     31  C   UNL A   1      38.601  23.751  25.836  1.00  0.00     0.014 A 
ATOM     32  C   UNL A   1      40.757  23.366  27.577  1.00  0.00     0.010 A 
ATOM     33  C   UNL A   1      39.401  24.826  26.188  1.00  0.00     0.010 A 
ATOM     34  C   UNL A   1      40.473  24.646  27.074  1.00  0.00    -0.014 A 
BRANCH  34  35
ATOM     35  C   UNL A   1      41.229  25.845  27.493  1.00  0.00     0.031 A 
ATOM     36  C   UNL A   1      40.534  26.882  28.326  1.00  0.00     0.074 A 
ATOM     37  C   UNL A   1      42.478  26.046  27.035  1.00  0.00     0.049 A 
ATOM     38  N   UNL A   1      40.938  28.077  28.659  1.00  0.00    -0.248 NA
ATOM     39  C   UNL A   1      39.189  26.540  28.826  1.00  0.00     0.031 C 
ATOM     40  C   UNL A   1      43.230  25.110  26.197  1.00  0.00     0.029 A 
ATOM     41  N   UNL A   1      43.325  27.114  27.185  1.00  0.00    -0.354 N 
ATOM     42  C   UNL A   1      39.896  28.635  29.388  1.00  0.00     0.074 A 
ATOM     43  C   UNL A   1      38.820  27.671  29.408  1.00  0.00     0.031 C 
ATOM     44  C   UNL A   1      44.427  25.647  25.910  1.00  0.00     0.029 A 
ATOM     45  C   UNL A   1      44.511  26.979  26.504  1.00  0.00     0.049 A 
ATOM     46  H   UNL A   1      43.104  27.905  27.730  1.00  0.00     0.167 HD
ATOM     47  C   UNL A   1      39.856  29.836  30.006  1.00  0.00     0.034 A 
ATOM     48  C   UNL A   1      45.540  27.838  26.362  1.00  0.00     0.034 A 
ATOM     49  C   UNL A   1      40.949  30.767  30.002  1.00  0.00     0.049 A 
ATOM     50  C   UNL A   1      45.469  29.178  27.054  1.00  0.00     0.074 A 
ATOM     51  C   UNL A   1      41.031  31.990  30.640  1.00  0.00     0.029 A 
ATOM     52  N   UNL A   1      42.153  30.575  29.340  1.00  0.00    -0.354 N 
ATOM     53  N   UNL A   1      44.503  29.668  27.795  1.00  0.00    -0.248 NA
ATOM     54  C   UNL A   1      46.620  30.078  26.902  1.00  0.00     0.031 C 
ATOM     55  C   UNL A   1      42.266  32.558  30.330  1.00  0.00     0.029 A 
ATOM     56  C   UNL A   1      42.978  31.664  29.546  1.00  0.00     0.049 A 
ATOM     57  H   UNL A   1      42.385  29.782  28.804  1.00  0.00     0.167 HD
ATOM     58  C   UNL A   1      44.945  30.914  28.228  1.00  0.00     0.074 A 
ATOM     59  C   UNL A   1      46.267  31.102  27.668  1.00  0.00     0.031 C 
ATOM     60  C   UNL A   1      44.313  31.815  29.019  1.00  0.00     0.034 A 
BRANCH  47  61
ATOM     61  C   UNL A   1      38.618  30.214  30.773  1.00  0.00     0.023 A 
ATOM     62  C   UNL A   1      37.610  30.974  30.154  1.00  0.00     0.031 A 
ATOM     63  C   UNL A   1      38.504  29.939  32.147  1.00  0.00     0.131 A 
ATOM     64  C   UNL A   1      36.549  31.468  30.920  1.00  0.00     0.055 A 
ATOM     65  C   UNL A   1      37.423  30.403  32.898  1.00  0.00     0.041 A 
ATOM     66  F   UNL A   1      39.441  29.212  32.778  1.00  0.00    -0.206 F 
ATOM     67  C   UNL A   1      36.446  31.182  32.286  1.00  0.00     0.022 A 
BRANCH  64  68
ATOM     68  S   UNL A   1      35.284  32.538  30.182  1.00  0.00     0.124 S 
ATOM     69  O   UNL A   1      34.303  32.637  31.261  1.00  0.00    -0.237 OA
ATOM     70  O   UNL A   1      36.039  33.757  29.910  1.00  0.00    -0.237 OA
ATOM     71  O   UNL A   1      34.837  31.792  29.010  1.00  0.00    -0.744 OA
ENDBRANCH  64  68
ENDBRANCH  47  61
BRANCH  48  72
ATOM     72  C   UNL A   1      46.741  27.419  25.586  1.00  0.00     0.023 A 
ATOM     73  C   UNL A   1      46.963  27.883  24.277  1.00  0.00     0.031 A 
ATOM     74  C   UNL A   1      47.631  26.468  26.111  1.00  0.00     0.131 A 
ATOM     75  C   UNL A   1      48.021  27.356  23.522  1.00  0.00     0.055 A 
ATOM     76  C   UNL A   1      48.717  25.989  25.377  1.00  0.00     0.041 A 
ATOM     77  F   UNL A   1      47.450  25.988  27.352  1.00  0.00    -0.206 F 
ATOM     78  C   UNL A   1      48.908  26.424  24.070  1.00  0.00     0.022 A 
BRANCH  75  79
ATOM     79  S   UNL A   1      48.223  27.790  21.772  1.00  0.00     0.124 S 
ATOM     80  O   UNL A   1      49.306  28.766  21.821  1.00  0.00    -0.237 OA
ATOM     81  O   UNL A   1      48.565  26.496  21.185  1.00  0.00    -0.237 OA
ATOM     82  O   UNL A   1      46.917  28.319  21.394  1.00  0.00    -0.744 OA
ENDBRANCH  75  79
ENDBRANCH  48  72
BRANCH  60  83
ATOM     83  C   UNL A   1      45.025  33.089  29.389  1.00  0.00     0.023 A 
ATOM     84  C   UNL A   1      44.941  34.201  28.529  1.00  0.00     0.031 A 
ATOM     85  C   UNL A   1      45.942  33.129  30.451  1.00  0.00     0.131 A 
ATOM     86  C   UNL A   1      45.807  35.284  28.709  1.00  0.00     0.055 A 
ATOM     87  C   UNL A   1      46.771  34.232  30.653  1.00  0.00     0.041 A 
ATOM     88  F   UNL A   1      46.063  32.086  31.287  1.00  0.00    -0.206 F 
ATOM     89  C   UNL A   1      46.718  35.309  29.770  1.00  0.00     0.022 A 
BRANCH  86  90
ATOM     90  S   UNL A   1      45.843  36.655  27.522  1.00  0.00     0.124 S 
ATOM     91  O   UNL A   1      46.818  36.184  26.541  1.00  0.00    -0.237 OA
ATOM     92  O   UNL A   1      44.460  36.694  27.058  1.00  0.00    -0.237 OA
ATOM     93  O   UNL A   1      46.274  37.799  28.320  1.00  0.00    -0.744 OA
ENDBRANCH  86  90
ENDBRANCH  60  83
ENDBRANCH  34  35
ENDBRANCH  26  29
ENDBRANCH   1  25
TORSDOF 15
ENDMDL
MODEL 2
REMARK VINA RESULT:     -12.4      5.170     10.106
REMARK SMILES COc1cc(Cl)c2c(c1)C=C(C(=O)NCCCNC(=O)c1ccc(-c3c4nc(c(-c5cc(S(=O)(=O)[O-])ccc5F)c5ccc([nH]5)c(-c5cc(S(=O)(=O)[O-])ccc5F)c5nc(c(-c6cc(S(=O)(=O)[O-])ccc6F)c6ccc3[nH]6)C=C5)C=C4)cc1)[C@@H](C(F)(F)F)O2
REMARK SMILES IDX 17 1 16 2 15 3 14 4 12 5 13 6 11 8 3 9 4 10 9 11 5 12 8 13
REMARK SMILES IDX 6 14 7 15 10 16 89 17 84 18 2 19 1 20 85 21 86 22 87 23
REMARK SMILES IDX 88 24 18 25 19 26 20 28 21 29 22 30 83 31 23 32 82 33 24 34
REMARK SMILES IDX 25 35 26 36 76 37 27 38 81 39 75 40 77 41 28 42 80 43 74 44
REMARK SMILES IDX 73 45 29 47 61 48 41 49 60 50 42 51 45 52 59 53 78 54 43 55
REMARK SMILES IDX 44 56 58 58 79 59 46 60 30 61 31 62 39 63 32 64 38 65 40 66
REMARK SMILES IDX 37 67 33 68 34 69 35 70 36 71 62 72 63 73 71 74 64 75 70 76
REMARK SMILES IDX 72 77 69 78 65 79 66 80 67 81 68 82 47 83 48 84 56 85 49 86
REMARK SMILES IDX 55 87 57 88 54 89 50 90 51 91 52 92 53 93
REMARK H PARENT 14 7 18 27 77 46 45 57
REMARK Flexibility Score: inf
ROOT
ATOM      1  C   UNL A   1      33.488  28.907  25.186  1.00  0.00     0.118 C 
ENDROOT
BRANCH   1   2
ATOM      2  C   UNL A   1      33.508  28.795  23.667  1.00  0.00     0.042 C 
BRANCH   2   3
ATOM      3  C   UNL A   1      32.216  28.208  23.121  1.00  0.00     0.118 C 
BRANCH   3   4
ATOM      4  N   UNL A   1      32.453  27.284  22.023  1.00  0.00    -0.352 N 
ATOM      5  C   UNL A   1      32.830  25.993  21.881  1.00  0.00     0.251 C 
ATOM      6  O   UNL A   1      32.865  25.578  20.718  1.00  0.00    -0.270 OA
ATOM      7  H   UNL A   1      32.297  27.713  21.151  1.00  0.00     0.163 HD
BRANCH   5   8
ATOM      8  C   UNL A   1      33.178  25.074  23.003  1.00  0.00     0.067 C 
ATOM      9  C   UNL A   1      36.297  21.894  24.871  1.00  0.00     0.121 A 
ATOM     10  C   UNL A   1      35.541  21.819  26.041  1.00  0.00     0.070 A 
ATOM     11  C   UNL A   1      35.942  22.795  23.864  1.00  0.00     0.058 A 
ATOM     12  C   UNL A   1      34.403  22.612  26.179  1.00  0.00     0.087 A 
ATOM     13  C   UNL A   1      34.794  23.581  23.994  1.00  0.00     0.022 A 
ATOM     14  Cl  UNL A   1      33.476  22.476  27.631  1.00  0.00    -0.080 Cl
ATOM     15  C   UNL A   1      34.017  23.477  25.152  1.00  0.00     0.146 A 
ATOM     16  C   UNL A   1      34.404  24.521  22.950  1.00  0.00     0.025 C 
ATOM     17  O   UNL A   1      32.899  24.243  25.331  1.00  0.00    -0.474 OA
ATOM     18  C   UNL A   1      32.246  24.722  24.126  1.00  0.00     0.314 C 
BRANCH   9  19
ATOM     19  O   UNL A   1      37.430  21.160  24.650  1.00  0.00    -0.497 OA
ATOM     20  C   UNL A   1      37.299  19.783  25.001  1.00  0.00     0.278 C 
ENDBRANCH   9  19
BRANCH  18  21
ATOM     21  C   UNL A   1      31.164  23.710  23.696  1.00  0.00     0.429 C 
ATOM     22  F   UNL A   1      31.662  22.826  22.797  1.00  0.00    -0.167 F 
ATOM     23  F   UNL A   1      30.691  22.977  24.734  1.00  0.00    -0.167 F 
ATOM     24  F   UNL A   1      30.092  24.307  23.126  1.00  0.00    -0.167 F 
ENDBRANCH  18  21
ENDBRANCH   5   8
ENDBRANCH   3   4
ENDBRANCH   2   3
ENDBRANCH   1   2
BRANCH   1  25
ATOM     25  N   UNL A   1      32.850  30.149  25.622  1.00  0.00    -0.352 N 
ATOM     26  C   UNL A   1      33.106  30.915  26.730  1.00  0.00     0.251 C 
ATOM     27  H   UNL A   1      32.132  30.481  25.036  1.00  0.00     0.163 HD
ATOM     28  O   UNL A   1      32.298  31.764  27.093  1.00  0.00    -0.269 OA
BRANCH  26  29
ATOM     29  C   UNL A   1      34.365  30.715  27.469  1.00  0.00     0.039 A 
ATOM     30  C   UNL A   1      35.255  31.780  27.627  1.00  0.00     0.014 A 
ATOM     31  C   UNL A   1      34.660  29.454  27.993  1.00  0.00     0.014 A 
ATOM     32  C   UNL A   1      36.426  31.590  28.362  1.00  0.00     0.010 A 
ATOM     33  C   UNL A   1      35.785  29.287  28.785  1.00  0.00     0.010 A 
ATOM     34  C   UNL A   1      36.685  30.347  28.961  1.00  0.00    -0.014 A 
BRANCH  34  35
ATOM     35  C   UNL A   1      37.918  30.083  29.732  1.00  0.00     0.031 A 
ATOM     36  C   UNL A   1      38.936  29.139  29.163  1.00  0.00     0.074 A 
ATOM     37  C   UNL A   1      38.059  30.594  30.969  1.00  0.00     0.049 A 
ATOM     38  N   UNL A   1      39.995  28.630  29.731  1.00  0.00    -0.248 NA
ATOM     39  C   UNL A   1      38.717  28.680  27.779  1.00  0.00     0.031 C 
ATOM     40  C   UNL A   1      37.113  31.499  31.621  1.00  0.00     0.029 A 
ATOM     41  N   UNL A   1      39.041  30.402  31.908  1.00  0.00    -0.354 N 
ATOM     42  C   UNL A   1      40.556  27.782  28.784  1.00  0.00     0.074 A 
ATOM     43  C   UNL A   1      39.696  27.801  27.624  1.00  0.00     0.031 C 
ATOM     44  C   UNL A   1      37.561  31.786  32.854  1.00  0.00     0.029 A 
ATOM     45  C   UNL A   1      38.801  31.052  33.096  1.00  0.00     0.049 A 
ATOM     46  H   UNL A   1      39.841  29.852  31.747  1.00  0.00     0.167 HD
ATOM     47  C   UNL A   1      41.702  27.070  28.873  1.00  0.00     0.034 A 
ATOM     48  C   UNL A   1      39.495  31.042  34.253  1.00  0.00     0.034 A 
ATOM     49  C   UNL A   1      42.561  27.089  30.024  1.00  0.00     0.049 A 
ATOM     50  C   UNL A   1      40.766  30.233  34.330  1.00  0.00     0.074 A 
ATOM     51  C   UNL A   1      43.771  26.445  30.195  1.00  0.00     0.029 A 
ATOM     52  N   UNL A   1      42.309  27.796  31.191  1.00  0.00    -0.354 N 
ATOM     53  N   UNL A   1      41.320  29.485  33.405  1.00  0.00    -0.248 NA
ATOM     54  C   UNL A   1      41.512  30.267  35.596  1.00  0.00     0.031 C 
ATOM     55  C   UNL A   1      44.232  26.726  31.481  1.00  0.00     0.029 A 
ATOM     56  C   UNL A   1      43.337  27.593  32.091  1.00  0.00     0.049 A 
ATOM     57  H   UNL A   1      41.517  28.357  31.353  1.00  0.00     0.167 HD
ATOM     58  C   UNL A   1      42.497  28.993  33.962  1.00  0.00     0.074 A 
ATOM     59  C   UNL A   1      42.576  29.530  35.304  1.00  0.00     0.031 C 
ATOM     60  C   UNL A   1      43.424  28.174  33.409  1.00  0.00     0.034 A 
BRANCH  47  61
ATOM     61  C   UNL A   1      42.130  26.240  27.694  1.00  0.00     0.023 A 
ATOM     62  C   UNL A   1      41.757  24.886  27.614  1.00  0.00     0.031 A 
ATOM     63  C   UNL A   1      43.015  26.751  26.728  1.00  0.00     0.131 A 
ATOM     64  C   UNL A   1      42.302  24.078  26.610  1.00  0.00     0.055 A 
ATOM     65  C   UNL A   1      43.525  25.949  25.707  1.00  0.00     0.041 A 
ATOM     66  F   UNL A   1      43.393  28.039  26.764  1.00  0.00    -0.206 F 
ATOM     67  C   UNL A   1      43.178  24.603  25.653  1.00  0.00     0.022 A 
BRANCH  64  68
ATOM     68  S   UNL A   1      41.929  22.306  26.534  1.00  0.00     0.124 S 
ATOM     69  O   UNL A   1      42.654  21.893  25.334  1.00  0.00    -0.237 OA
ATOM     70  O   UNL A   1      42.483  21.824  27.796  1.00  0.00    -0.237 OA
ATOM     71  O   UNL A   1      40.474  22.259  26.420  1.00  0.00    -0.744 OA
ENDBRANCH  64  68
ENDBRANCH  47  61
BRANCH  48  72
ATOM     72  C   UNL A   1      39.025  31.876  35.394  1.00  0.00     0.023 A 
ATOM     73  C   UNL A   1      38.412  31.297  36.519  1.00  0.00     0.031 A 
ATOM     74  C   UNL A   1      39.095  33.277  35.326  1.00  0.00     0.131 A 
ATOM     75  C   UNL A   1      37.850  32.120  37.506  1.00  0.00     0.055 A 
ATOM     76  C   UNL A   1      38.586  34.091  36.339  1.00  0.00     0.041 A 
ATOM     77  F   UNL A   1      39.660  33.874  34.264  1.00  0.00    -0.206 F 
ATOM     78  C   UNL A   1      37.947  33.512  37.430  1.00  0.00     0.022 A 
BRANCH  75  79
ATOM     79  S   UNL A   1      36.888  31.411  38.872  1.00  0.00     0.124 S 
ATOM     80  O   UNL A   1      37.793  31.578  40.003  1.00  0.00    -0.237 OA
ATOM     81  O   UNL A   1      35.706  32.271  38.877  1.00  0.00    -0.237 OA
ATOM     82  O   UNL A   1      36.653  30.034  38.451  1.00  0.00    -0.744 OA
ENDBRANCH  75  79
ENDBRANCH  48  72
BRANCH  60  83
ATOM     83  C   UNL A   1      44.649  27.814  34.206  1.00  0.00     0.023 A 
ATOM     84  C   UNL A   1      44.603  26.713  35.084  1.00  0.00     0.031 A 
ATOM     85  C   UNL A   1      45.761  28.669  34.261  1.00  0.00     0.131 A 
ATOM     86  C   UNL A   1      45.620  26.533  36.025  1.00  0.00     0.055 A 
ATOM     87  C   UNL A   1      46.796  28.458  35.172  1.00  0.00     0.041 A 
ATOM     88  F   UNL A   1      45.839  29.737  33.451  1.00  0.00    -0.206 F 
ATOM     89  C   UNL A   1      46.720  27.396  36.071  1.00  0.00     0.022 A 
BRANCH  86  90
ATOM     90  S   UNL A   1      45.508  25.228  37.280  1.00  0.00     0.124 S 
ATOM     91  O   UNL A   1      45.545  24.016  36.464  1.00  0.00    -0.237 OA
ATOM     92  O   UNL A   1      46.700  25.475  38.085  1.00  0.00    -0.237 OA
ATOM     93  O   UNL A   1      44.233  25.486  37.943  1.00  0.00    -0.744 OA
ENDBRANCH  86  90
ENDBRANCH  60  83
ENDBRANCH  34  35
ENDBRANCH  26  29
ENDBRANCH   1  25
TORSDOF 15
ENDMDL
MODEL 3
REMARK VINA RESULT:     -12.4      5.079      9.895
REMARK SMILES COc1cc(Cl)c2c(c1)C=C(C(=O)NCCCNC(=O)c1ccc(-c3c4nc(c(-c5cc(S(=O)(=O)[O-])ccc5F)c5ccc([nH]5)c(-c5cc(S(=O)(=O)[O-])ccc5F)c5nc(c(-c6cc(S(=O)(=O)[O-])ccc6F)c6ccc3[nH]6)C=C5)C=C4)cc1)[C@@H](C(F)(F)F)O2
REMARK SMILES IDX 17 1 16 2 15 3 14 4 12 5 13 6 11 8 3 9 4 10 9 11 5 12 8 13
REMARK SMILES IDX 6 14 7 15 10 16 89 17 84 18 2 19 1 20 85 21 86 22 87 23
REMARK SMILES IDX 88 24 18 25 19 26 20 28 21 29 22 30 83 31 23 32 82 33 24 34
REMARK SMILES IDX 25 35 26 36 76 37 27 38 81 39 75 40 77 41 28 42 80 43 74 44
REMARK SMILES IDX 73 45 29 47 61 48 41 49 60 50 42 51 45 52 59 53 78 54 43 55
REMARK SMILES IDX 44 56 58 58 79 59 46 60 30 61 31 62 39 63 32 64 38 65 40 66
REMARK SMILES IDX 37 67 33 68 34 69 35 70 36 71 62 72 63 73 71 74 64 75 70 76
REMARK SMILES IDX 72 77 69 78 65 79 66 80 67 81 68 82 47 83 48 84 56 85 49 86
REMARK SMILES IDX 55 87 57 88 54 89 50 90 51 91 52 92 53 93
REMARK H PARENT 14 7 18 27 77 46 45 57
REMARK Flexibility Score: inf
ROOT
ATOM      1  C   UNL A   1      33.681  29.006  25.047  1.00  0.00     0.118 C 
ENDROOT
BRANCH   1   2
ATOM      2  C   UNL A   1      33.557  28.892  23.533  1.00  0.00     0.042 C 
BRANCH   2   3
ATOM      3  C   UNL A   1      32.261  28.214  23.116  1.00  0.00     0.118 C 
BRANCH   3   4
ATOM      4  N   UNL A   1      32.458  27.282  22.017  1.00  0.00    -0.352 N 
ATOM      5  C   UNL A   1      32.811  25.984  21.873  1.00  0.00     0.251 C 
ATOM      6  O   UNL A   1      32.812  25.563  20.713  1.00  0.00    -0.270 OA
ATOM      7  H   UNL A   1      32.287  27.709  21.147  1.00  0.00     0.163 HD
BRANCH   5   8
ATOM      8  C   UNL A   1      33.171  25.066  22.992  1.00  0.00     0.067 C 
ATOM      9  C   UNL A   1      36.324  21.906  24.839  1.00  0.00     0.121 A 
ATOM     10  C   UNL A   1      35.574  21.823  26.012  1.00  0.00     0.070 A 
ATOM     11  C   UNL A   1      35.958  22.807  23.836  1.00  0.00     0.058 A 
ATOM     12  C   UNL A   1      34.430  22.607  26.157  1.00  0.00     0.087 A 
ATOM     13  C   UNL A   1      34.803  23.583  23.973  1.00  0.00     0.022 A 
ATOM     14  Cl  UNL A   1      33.511  22.460  27.613  1.00  0.00    -0.080 Cl
ATOM     15  C   UNL A   1      34.032  23.471  25.133  1.00  0.00     0.146 A 
ATOM     16  C   UNL A   1      34.401  24.522  22.932  1.00  0.00     0.025 C 
ATOM     17  O   UNL A   1      32.909  24.227  25.320  1.00  0.00    -0.474 OA
ATOM     18  C   UNL A   1      32.247  24.703  24.119  1.00  0.00     0.314 C 
BRANCH   9  19
ATOM     19  O   UNL A   1      37.462  21.182  24.612  1.00  0.00    -0.497 OA
ATOM     20  C   UNL A   1      37.358  19.814  25.003  1.00  0.00     0.278 C 
ENDBRANCH   9  19
BRANCH  18  21
ATOM     21  C   UNL A   1      31.172  23.684  23.691  1.00  0.00     0.429 C 
ATOM     22  F   UNL A   1      30.708  22.996  24.762  1.00  0.00    -0.167 F 
ATOM     23  F   UNL A   1      30.094  24.270  23.115  1.00  0.00    -0.167 F 
ATOM     24  F   UNL A   1      31.639  22.778  22.800  1.00  0.00    -0.167 F 
ENDBRANCH  18  21
ENDBRANCH   5   8
ENDBRANCH   3   4
ENDBRANCH   2   3
ENDBRANCH   1   2
BRANCH   1  25
ATOM     25  N   UNL A   1      32.976  30.183  25.554  1.00  0.00    -0.352 N 
ATOM     26  C   UNL A   1      33.182  30.887  26.712  1.00  0.00     0.251 C 
ATOM     27  H   UNL A   1      32.249  30.517  24.981  1.00  0.00     0.163 HD
ATOM     28  O   UNL A   1      32.328  31.670  27.119  1.00  0.00    -0.269 OA
BRANCH  26  29
ATOM     29  C   UNL A   1      34.442  30.702  27.454  1.00  0.00     0.039 A 
ATOM     30  C   UNL A   1      35.307  31.784  27.635  1.00  0.00     0.014 A 
ATOM     31  C   UNL A   1      34.763  29.438  27.956  1.00  0.00     0.014 A 
ATOM     32  C   UNL A   1      36.479  31.608  28.372  1.00  0.00     0.010 A 
ATOM     33  C   UNL A   1      35.888  29.283  28.750  1.00  0.00     0.010 A 
ATOM     34  C   UNL A   1      36.763  30.360  28.949  1.00  0.00    -0.014 A 
BRANCH  34  35
ATOM     35  C   UNL A   1      37.998  30.109  29.722  1.00  0.00     0.031 A 
ATOM     36  C   UNL A   1      39.009  29.146  29.173  1.00  0.00     0.074 A 
ATOM     37  C   UNL A   1      38.148  30.652  30.944  1.00  0.00     0.049 A 
ATOM     38  N   UNL A   1      40.068  28.646  29.749  1.00  0.00    -0.248 NA
ATOM     39  C   UNL A   1      38.781  28.652  27.802  1.00  0.00     0.031 C 
ATOM     40  C   UNL A   1      37.209  31.578  31.577  1.00  0.00     0.029 A 
ATOM     41  N   UNL A   1      39.132  30.480  31.884  1.00  0.00    -0.354 N 
ATOM     42  C   UNL A   1      40.621  27.771  28.822  1.00  0.00     0.074 A 
ATOM     43  C   UNL A   1      39.755  27.765  27.666  1.00  0.00     0.031 C 
ATOM     44  C   UNL A   1      37.664  31.894  32.800  1.00  0.00     0.029 A 
ATOM     45  C   UNL A   1      38.902  31.161  33.056  1.00  0.00     0.049 A 
ATOM     46  H   UNL A   1      39.930  29.921  31.734  1.00  0.00     0.167 HD
ATOM     47  C   UNL A   1      41.763  27.057  28.924  1.00  0.00     0.034 A 
ATOM     48  C   UNL A   1      39.600  31.177  34.209  1.00  0.00     0.034 A 
ATOM     49  C   UNL A   1      42.628  27.101  30.071  1.00  0.00     0.049 A 
ATOM     50  C   UNL A   1      40.868  30.364  34.302  1.00  0.00     0.074 A 
ATOM     51  C   UNL A   1      43.836  26.456  30.253  1.00  0.00     0.029 A 
ATOM     52  N   UNL A   1      42.385  27.839  31.220  1.00  0.00    -0.354 N 
ATOM     53  N   UNL A   1      41.415  29.590  33.394  1.00  0.00    -0.248 NA
ATOM     54  C   UNL A   1      41.620  30.428  35.563  1.00  0.00     0.031 C 
ATOM     55  C   UNL A   1      44.304  26.768  31.529  1.00  0.00     0.029 A 
ATOM     56  C   UNL A   1      43.416  27.654  32.120  1.00  0.00     0.049 A 
ATOM     57  H   UNL A   1      41.596  28.409  31.371  1.00  0.00     0.167 HD
ATOM     58  C   UNL A   1      42.591  29.106  33.958  1.00  0.00     0.074 A 
ATOM     59  C   UNL A   1      42.679  29.677  35.286  1.00  0.00     0.031 C 
ATOM     60  C   UNL A   1      43.512  28.269  33.422  1.00  0.00     0.034 A 
BRANCH  47  61
ATOM     61  C   UNL A   1      42.182  26.194  27.765  1.00  0.00     0.023 A 
ATOM     62  C   UNL A   1      41.739  24.862  27.683  1.00  0.00     0.031 A 
ATOM     63  C   UNL A   1      43.123  26.647  26.824  1.00  0.00     0.131 A 
ATOM     64  C   UNL A   1      42.270  24.016  26.703  1.00  0.00     0.055 A 
ATOM     65  C   UNL A   1      43.620  25.810  25.825  1.00  0.00     0.041 A 
ATOM     66  F   UNL A   1      43.569  27.914  26.862  1.00  0.00    -0.206 F 
ATOM     67  C   UNL A   1      43.202  24.484  25.770  1.00  0.00     0.022 A 
BRANCH  64  68
ATOM     68  S   UNL A   1      41.803  22.266  26.628  1.00  0.00     0.124 S 
ATOM     69  O   UNL A   1      40.343  22.342  26.612  1.00  0.00    -0.237 OA
ATOM     70  O   UNL A   1      42.420  21.840  25.376  1.00  0.00    -0.237 OA
ATOM     71  O   UNL A   1      42.377  21.698  27.844  1.00  0.00    -0.744 OA
ENDBRANCH  64  68
ENDBRANCH  47  61
BRANCH  48  72
ATOM     72  C   UNL A   1      39.140  32.044  35.330  1.00  0.00     0.023 A 
ATOM     73  C   UNL A   1      39.610  33.362  35.475  1.00  0.00     0.031 A 
ATOM     74  C   UNL A   1      38.297  31.527  36.327  1.00  0.00     0.131 A 
ATOM     75  C   UNL A   1      39.272  34.098  36.619  1.00  0.00     0.055 A 
ATOM     76  C   UNL A   1      37.916  32.285  37.436  1.00  0.00     0.041 A 
ATOM     77  F   UNL A   1      37.835  30.270  36.236  1.00  0.00    -0.206 F 
ATOM     78  C   UNL A   1      38.415  33.573  37.592  1.00  0.00     0.022 A 
BRANCH  75  79
ATOM     79  S   UNL A   1      40.011  35.726  36.931  1.00  0.00     0.124 S 
ATOM     80  O   UNL A   1      39.668  36.456  35.715  1.00  0.00    -0.237 OA
ATOM     81  O   UNL A   1      39.303  36.145  38.139  1.00  0.00    -0.237 OA
ATOM     82  O   UNL A   1      41.428  35.433  37.110  1.00  0.00    -0.744 OA
ENDBRANCH  75  79
ENDBRANCH  48  72
BRANCH  60  83
ATOM     83  C   UNL A   1      44.739  27.923  34.223  1.00  0.00     0.023 A 
ATOM     84  C   UNL A   1      44.698  26.831  35.111  1.00  0.00     0.031 A 
ATOM     85  C   UNL A   1      45.846  28.785  34.270  1.00  0.00     0.131 A 
ATOM     86  C   UNL A   1      45.717  26.666  36.055  1.00  0.00     0.055 A 
ATOM     87  C   UNL A   1      46.882  28.589  35.183  1.00  0.00     0.041 A 
ATOM     88  F   UNL A   1      45.918  29.846  33.450  1.00  0.00    -0.206 F 
ATOM     89  C   UNL A   1      46.812  27.535  36.092  1.00  0.00     0.022 A 
BRANCH  86  90
ATOM     90  S   UNL A   1      45.612  25.372  37.322  1.00  0.00     0.124 S 
ATOM     91  O   UNL A   1      46.896  24.692  37.170  1.00  0.00    -0.237 OA
ATOM     92  O   UNL A   1      45.460  26.155  38.545  1.00  0.00    -0.237 OA
ATOM     93  O   UNL A   1      44.446  24.587  36.927  1.00  0.00    -0.744 OA
ENDBRANCH  86  90
ENDBRANCH  60  83
ENDBRANCH  34  35
ENDBRANCH  26  29
ENDBRANCH   1  25
TORSDOF 15
ENDMDL
