MODEL 1
REMARK VINA RESULT:     -12.8      0.000      0.000
REMARK SMILES CCOC(=O)[C@H]1CCCN(c2cc(C(=O)NCCCNC(=O)c3ccc(-c4c5nc(c(-c6cc(S(=O)(=O)[O-])ccc6F)c6ccc([nH]6)c(-c6cc(S(=O)(=O)[O-])ccc6F)c6nc(c(-c7cc(S(=O)(=O)[O-])ccc7F)c7ccc4[nH]7)C=C6)C=C5)cc3)c3cc(NC(=O)c4ccc(Cl)cc4)ccc3n2)C1
REMARK SMILES IDX 17 1 16 2 14 3 15 4 13 6 11 7 12 8 102 9 101 10 86 11 100 12
REMARK SMILES IDX 87 13 99 14 88 15 10 16 6 17 7 18 103 19 8 20 9 21 4 22 5 23
REMARK SMILES IDX 3 24 2 25 1 26 89 27 90 28 91 30 92 31 93 32 98 33 94 34
REMARK SMILES IDX 97 35 95 36 96 37 18 38 19 39 20 40 21 41 22 43 23 44 24 45
REMARK SMILES IDX 85 46 25 47 84 48 26 49 27 50 28 51 78 52 29 53 83 54 77 55
REMARK SMILES IDX 79 56 30 57 82 58 76 59 75 60 31 62 63 63 43 64 62 65 44 66
REMARK SMILES IDX 47 67 61 68 80 69 45 70 46 71 60 73 81 74 48 75 32 76 33 77
REMARK SMILES IDX 41 78 34 79 40 80 42 81 39 82 35 83 36 84 37 85 38 86 64 87
REMARK SMILES IDX 65 88 73 89 66 90 72 91 74 92 71 93 67 94 68 95 69 96 70 97
REMARK SMILES IDX 49 98 50 99 58 100 51 101 57 102 59 103 56 104 52 105 53 106
REMARK SMILES IDX 54 107 55 108
REMARK H PARENT 16 5 89 29 20 42 79 61 47 72
REMARK Flexibility Score: inf
ROOT
ATOM      1  C   UNL A   1      31.530  30.677  26.090  1.00  0.00     0.118 C 
ENDROOT
BRANCH   1   2
ATOM      2  N   UNL A   1      32.771  29.918  26.158  1.00  0.00    -0.352 N 
ATOM      3  C   UNL A   1      33.337  28.961  25.346  1.00  0.00     0.252 C 
ATOM      4  O   UNL A   1      34.464  28.569  25.663  1.00  0.00    -0.269 OA
ATOM      5  H   UNL A   1      33.318  30.133  26.948  1.00  0.00     0.163 HD
BRANCH   3   6
ATOM      6  C   UNL A   1      32.692  28.326  24.154  1.00  0.00     0.052 A 
ATOM      7  C   UNL A   1      30.767  28.422  22.687  1.00  0.00     0.130 A 
ATOM      8  C   UNL A   1      31.544  28.983  23.692  1.00  0.00     0.061 A 
ATOM      9  N   UNL A   1      31.179  27.317  22.038  1.00  0.00    -0.231 NA
ATOM     10  C   UNL A   1      32.275  26.670  22.456  1.00  0.00     0.074 A 
ATOM     11  C   UNL A   1      33.009  27.080  23.580  1.00  0.00     0.015 A 
ATOM     12  C   UNL A   1      32.654  25.506  21.796  1.00  0.00     0.031 A 
ATOM     13  C   UNL A   1      33.932  26.167  24.112  1.00  0.00     0.037 A 
ATOM     14  C   UNL A   1      33.647  24.657  22.297  1.00  0.00     0.028 A 
ATOM     15  C   UNL A   1      34.225  24.942  23.524  1.00  0.00     0.042 A 
BRANCH   7  16
ATOM     16  N   UNL A   1      29.505  28.908  22.426  1.00  0.00    -0.356 N 
ATOM     17  C   UNL A   1      28.277  31.007  22.258  1.00  0.00     0.118 C 
ATOM     18  C   UNL A   1      26.997  30.233  22.628  1.00  0.00     0.019 C 
ATOM     19  C   UNL A   1      29.294  30.080  21.588  1.00  0.00     0.133 C 
ATOM     20  C   UNL A   1      27.312  28.977  23.443  1.00  0.00     0.022 C 
ATOM     21  C   UNL A   1      28.345  28.088  22.742  1.00  0.00     0.118 C 
BRANCH  17  22
ATOM     22  C   UNL A   1      28.053  32.179  21.323  1.00  0.00     0.310 C 
ATOM     23  O   UNL A   1      27.792  32.048  20.134  1.00  0.00    -0.252 OA
BRANCH  22  24
ATOM     24  O   UNL A   1      28.190  33.377  21.951  1.00  0.00    -0.466 OA
BRANCH  24  25
ATOM     25  C   UNL A   1      28.642  33.319  23.311  1.00  0.00     0.229 C 
ATOM     26  C   UNL A   1      29.953  34.067  23.459  1.00  0.00     0.049 C 
ENDBRANCH  24  25
ENDBRANCH  22  24
ENDBRANCH  17  22
ENDBRANCH   7  16
BRANCH  15  27
ATOM     27  N   UNL A   1      35.062  23.986  24.123  1.00  0.00    -0.322 N 
ATOM     28  C   UNL A   1      34.859  23.121  25.184  1.00  0.00     0.255 C 
ATOM     29  H   UNL A   1      35.954  23.918  23.712  1.00  0.00     0.170 HD
ATOM     30  O   UNL A   1      35.823  22.524  25.663  1.00  0.00    -0.269 OA
BRANCH  28  31
ATOM     31  C   UNL A   1      33.506  22.849  25.740  1.00  0.00     0.040 A 
ATOM     32  C   UNL A   1      33.123  23.516  26.906  1.00  0.00     0.015 A 
ATOM     33  C   UNL A   1      32.592  21.994  25.107  1.00  0.00     0.015 A 
ATOM     34  C   UNL A   1      31.804  23.432  27.368  1.00  0.00     0.021 A 
ATOM     35  C   UNL A   1      31.262  21.949  25.540  1.00  0.00     0.021 A 
ATOM     36  C   UNL A   1      30.869  22.685  26.656  1.00  0.00     0.041 A 
ATOM     37  Cl  UNL A   1      29.221  22.686  27.146  1.00  0.00    -0.084 Cl
ENDBRANCH  28  31
ENDBRANCH  15  27
ENDBRANCH   3   6
ENDBRANCH   1   2
BRANCH   1  38
ATOM     38  C   UNL A   1      31.583  32.072  26.697  1.00  0.00     0.042 C 
BRANCH  38  39
ATOM     39  C   UNL A   1      32.729  32.311  27.679  1.00  0.00     0.118 C 
BRANCH  39  40
ATOM     40  N   UNL A   1      33.292  33.663  27.665  1.00  0.00    -0.352 N 
ATOM     41  C   UNL A   1      34.557  34.144  27.931  1.00  0.00     0.251 C 
ATOM     42  H   UNL A   1      32.644  34.361  27.418  1.00  0.00     0.163 HD
ATOM     43  O   UNL A   1      34.791  35.348  27.864  1.00  0.00    -0.269 OA
BRANCH  41  44
ATOM     44  C   UNL A   1      35.628  33.221  28.322  1.00  0.00     0.039 A 
ATOM     45  C   UNL A   1      36.921  33.696  28.572  1.00  0.00     0.014 A 
ATOM     46  C   UNL A   1      35.327  31.875  28.470  1.00  0.00     0.014 A 
ATOM     47  C   UNL A   1      37.880  32.831  29.107  1.00  0.00     0.010 A 
ATOM     48  C   UNL A   1      36.231  31.056  29.116  1.00  0.00     0.010 A 
ATOM     49  C   UNL A   1      37.515  31.523  29.450  1.00  0.00    -0.014 A 
BRANCH  49  50
ATOM     50  C   UNL A   1      38.400  30.556  30.149  1.00  0.00     0.031 A 
ATOM     51  C   UNL A   1      38.693  30.813  31.600  1.00  0.00     0.074 A 
ATOM     52  C   UNL A   1      39.108  29.657  29.441  1.00  0.00     0.049 A 
ATOM     53  N   UNL A   1      39.746  30.503  32.305  1.00  0.00    -0.248 NA
ATOM     54  C   UNL A   1      37.709  31.647  32.310  1.00  0.00     0.031 C 
ATOM     55  C   UNL A   1      38.931  29.352  28.019  1.00  0.00     0.029 A 
ATOM     56  N   UNL A   1      40.169  28.871  29.816  1.00  0.00    -0.354 N 
ATOM     57  C   UNL A   1      39.600  31.189  33.509  1.00  0.00     0.074 A 
ATOM     58  C   UNL A   1      38.382  31.965  33.404  1.00  0.00     0.031 C 
ATOM     59  C   UNL A   1      39.850  28.449  27.642  1.00  0.00     0.029 A 
ATOM     60  C   UNL A   1      40.724  28.163  28.773  1.00  0.00     0.049 A 
ATOM     61  H   UNL A   1      40.500  28.817  30.741  1.00  0.00     0.167 HD
ATOM     62  C   UNL A   1      40.414  31.163  34.592  1.00  0.00     0.034 A 
ATOM     63  C   UNL A   1      41.837  27.405  28.732  1.00  0.00     0.034 A 
ATOM     64  C   UNL A   1      41.569  30.302  34.670  1.00  0.00     0.049 A 
ATOM     65  C   UNL A   1      42.665  27.292  29.987  1.00  0.00     0.074 A 
ATOM     66  C   UNL A   1      42.423  30.089  35.737  1.00  0.00     0.029 A 
ATOM     67  N   UNL A   1      42.013  29.487  33.634  1.00  0.00    -0.354 N 
ATOM     68  N   UNL A   1      42.522  27.931  31.126  1.00  0.00    -0.248 NA
ATOM     69  C   UNL A   1      43.794  26.355  29.956  1.00  0.00     0.031 C 
ATOM     70  C   UNL A   1      43.399  29.169  35.337  1.00  0.00     0.029 A 
ATOM     71  C   UNL A   1      43.122  28.764  34.039  1.00  0.00     0.049 A 
ATOM     72  H   UNL A   1      41.599  29.431  32.743  1.00  0.00     0.167 HD
ATOM     73  C   UNL A   1      43.524  27.445  31.961  1.00  0.00     0.074 A 
ATOM     74  C   UNL A   1      44.259  26.459  31.193  1.00  0.00     0.031 C 
ATOM     75  C   UNL A   1      43.813  27.777  33.245  1.00  0.00     0.034 A 
BRANCH  62  76
ATOM     76  C   UNL A   1      40.086  32.086  35.744  1.00  0.00     0.023 A 
ATOM     77  C   UNL A   1      39.110  31.760  36.701  1.00  0.00     0.031 A 
ATOM     78  C   UNL A   1      40.712  33.341  35.858  1.00  0.00     0.131 A 
ATOM     79  C   UNL A   1      38.704  32.712  37.649  1.00  0.00     0.055 A 
ATOM     80  C   UNL A   1      40.379  34.246  36.871  1.00  0.00     0.041 A 
ATOM     81  F   UNL A   1      41.642  33.727  34.969  1.00  0.00    -0.206 F 
ATOM     82  C   UNL A   1      39.352  33.942  37.760  1.00  0.00     0.022 A 
BRANCH  79  83
ATOM     83  S   UNL A   1      37.204  32.380  38.611  1.00  0.00     0.124 S 
ATOM     84  O   UNL A   1      36.188  33.061  37.810  1.00  0.00    -0.237 OA
ATOM     85  O   UNL A   1      37.143  30.922  38.610  1.00  0.00    -0.237 OA
ATOM     86  O   UNL A   1      37.484  32.994  39.907  1.00  0.00    -0.744 OA
ENDBRANCH  79  83
ENDBRANCH  62  76
BRANCH  63  87
ATOM     87  C   UNL A   1      42.221  26.691  27.482  1.00  0.00     0.023 A 
ATOM     88  C   UNL A   1      42.002  25.310  27.359  1.00  0.00     0.031 A 
ATOM     89  C   UNL A   1      42.806  27.364  26.395  1.00  0.00     0.131 A 
ATOM     90  C   UNL A   1      42.399  24.636  26.193  1.00  0.00     0.055 A 
ATOM     91  C   UNL A   1      43.158  26.697  25.218  1.00  0.00     0.041 A 
ATOM     92  F   UNL A   1      43.021  28.688  26.452  1.00  0.00    -0.206 F 
ATOM     93  C   UNL A   1      42.965  25.322  25.117  1.00  0.00     0.022 A 
BRANCH  90  94
ATOM     94  S   UNL A   1      42.220  22.833  26.134  1.00  0.00     0.124 S 
ATOM     95  O   UNL A   1      43.004  22.417  27.292  1.00  0.00    -0.237 OA
ATOM     96  O   UNL A   1      40.774  22.669  26.245  1.00  0.00    -0.237 OA
ATOM     97  O   UNL A   1      42.788  22.478  24.835  1.00  0.00    -0.744 OA
ENDBRANCH  90  94
ENDBRANCH  63  87
BRANCH  75  98
ATOM     98  C   UNL A   1      44.921  27.010  33.912  1.00  0.00     0.023 A 
ATOM     99  C   UNL A   1      46.248  27.467  33.898  1.00  0.00     0.031 A 
ATOM    100  C   UNL A   1      44.630  25.814  34.593  1.00  0.00     0.131 A 
ATOM    101  C   UNL A   1      47.247  26.711  34.525  1.00  0.00     0.055 A 
ATOM    102  C   UNL A   1      45.620  25.092  35.258  1.00  0.00     0.041 A 
ATOM    103  F   UNL A   1      43.374  25.340  34.634  1.00  0.00    -0.206 F 
ATOM    104  C   UNL A   1      46.939  25.536  35.219  1.00  0.00     0.022 A 
BRANCH 101 105
ATOM    105  S   UNL A   1      48.970  27.255  34.381  1.00  0.00     0.124 S 
ATOM    106  O   UNL A   1      49.057  27.610  32.967  1.00  0.00    -0.237 OA
ATOM    107  O   UNL A   1      49.027  28.370  35.321  1.00  0.00    -0.237 OA
ATOM    108  O   UNL A   1      49.737  26.076  34.774  1.00  0.00    -0.744 OA
ENDBRANCH 101 105
ENDBRANCH  75  98
ENDBRANCH  49  50
ENDBRANCH  41  44
ENDBRANCH  39  40
ENDBRANCH  38  39
ENDBRANCH   1  38
TORSDOF 19
ENDMDL
MODEL 2
REMARK VINA RESULT:     -12.7      6.247     11.828
REMARK SMILES CCOC(=O)[C@H]1CCCN(c2cc(C(=O)NCCCNC(=O)c3ccc(-c4c5nc(c(-c6cc(S(=O)(=O)[O-])ccc6F)c6ccc([nH]6)c(-c6cc(S(=O)(=O)[O-])ccc6F)c6nc(c(-c7cc(S(=O)(=O)[O-])ccc7F)c7ccc4[nH]7)C=C6)C=C5)cc3)c3cc(NC(=O)c4ccc(Cl)cc4)ccc3n2)C1
REMARK SMILES IDX 17 1 16 2 14 3 15 4 13 6 11 7 12 8 102 9 101 10 86 11 100 12
REMARK SMILES IDX 87 13 99 14 88 15 10 16 6 17 7 18 103 19 8 20 9 21 4 22 5 23
REMARK SMILES IDX 3 24 2 25 1 26 89 27 90 28 91 30 92 31 93 32 98 33 94 34
REMARK SMILES IDX 97 35 95 36 96 37 18 38 19 39 20 40 21 41 22 43 23 44 24 45
REMARK SMILES IDX 85 46 25 47 84 48 26 49 27 50 28 51 78 52 29 53 83 54 77 55
REMARK SMILES IDX 79 56 30 57 82 58 76 59 75 60 31 62 63 63 43 64 62 65 44 66
REMARK SMILES IDX 47 67 61 68 80 69 45 70 46 71 60 73 81 74 48 75 32 76 33 77
REMARK SMILES IDX 41 78 34 79 40 80 42 81 39 82 35 83 36 84 37 85 38 86 64 87
REMARK SMILES IDX 65 88 73 89 66 90 72 91 74 92 71 93 67 94 68 95 69 96 70 97
REMARK SMILES IDX 49 98 50 99 58 100 51 101 57 102 59 103 56 104 52 105 53 106
REMARK SMILES IDX 54 107 55 108
REMARK H PARENT 16 5 89 29 20 42 79 61 47 72
REMARK Flexibility Score: inf
ROOT
ATOM      1  C   UNL A   1      45.571  27.956  26.588  1.00  0.00     0.118 C 
ENDROOT
BRANCH   1   2
ATOM      2  N   UNL A   1      44.519  28.072  25.588  1.00  0.00    -0.352 N 
ATOM      3  C   UNL A   1      43.232  27.590  25.512  1.00  0.00     0.252 C 
ATOM      4  O   UNL A   1      42.568  27.949  24.535  1.00  0.00    -0.269 OA
ATOM      5  H   UNL A   1      44.783  28.604  24.803  1.00  0.00     0.163 HD
BRANCH   3   6
ATOM      6  C   UNL A   1      42.590  26.640  26.475  1.00  0.00     0.052 A 
ATOM      7  C   UNL A   1      42.511  24.325  27.180  1.00  0.00     0.130 A 
ATOM      8  C   UNL A   1      43.110  25.340  26.445  1.00  0.00     0.061 A 
ATOM      9  N   UNL A   1      41.517  24.600  28.045  1.00  0.00    -0.231 NA
ATOM     10  C   UNL A   1      41.003  25.835  28.097  1.00  0.00     0.074 A 
ATOM     11  C   UNL A   1      41.439  26.867  27.253  1.00  0.00     0.015 A 
ATOM     12  C   UNL A   1      39.946  26.081  28.967  1.00  0.00     0.031 A 
ATOM     13  C   UNL A   1      40.630  28.012  27.167  1.00  0.00     0.037 A 
ATOM     14  C   UNL A   1      39.214  27.272  28.928  1.00  0.00     0.028 A 
ATOM     15  C   UNL A   1      39.497  28.210  27.948  1.00  0.00     0.042 A 
BRANCH   7  16
ATOM     16  N   UNL A   1      42.833  23.007  26.943  1.00  0.00    -0.356 N 
ATOM     17  C   UNL A   1      44.010  21.599  25.337  1.00  0.00     0.118 C 
ATOM     18  C   UNL A   1      43.097  20.434  25.761  1.00  0.00     0.019 C 
ATOM     19  C   UNL A   1      44.155  22.613  26.475  1.00  0.00     0.133 C 
ATOM     20  C   UNL A   1      41.759  20.934  26.311  1.00  0.00     0.022 C 
ATOM     21  C   UNL A   1      41.954  21.957  27.435  1.00  0.00     0.118 C 
BRANCH  17  22
ATOM     22  C   UNL A   1      45.408  21.184  24.924  1.00  0.00     0.310 C 
ATOM     23  O   UNL A   1      46.410  21.833  25.201  1.00  0.00    -0.252 OA
BRANCH  22  24
ATOM     24  O   UNL A   1      45.416  20.028  24.208  1.00  0.00    -0.466 OA
BRANCH  24  25
ATOM     25  C   UNL A   1      45.268  18.822  24.972  1.00  0.00     0.229 C 
ATOM     26  C   UNL A   1      46.570  18.484  25.671  1.00  0.00     0.049 C 
ENDBRANCH  24  25
ENDBRANCH  22  24
ENDBRANCH  17  22
ENDBRANCH   7  16
BRANCH  15  27
ATOM     27  N   UNL A   1      38.630  29.302  27.776  1.00  0.00    -0.322 N 
ATOM     28  C   UNL A   1      37.866  30.021  28.678  1.00  0.00     0.255 C 
ATOM     29  H   UNL A   1      38.553  29.612  26.845  1.00  0.00     0.170 HD
ATOM     30  O   UNL A   1      37.017  30.804  28.254  1.00  0.00    -0.269 OA
BRANCH  28  31
ATOM     31  C   UNL A   1      38.066  29.917  30.150  1.00  0.00     0.040 A 
ATOM     32  C   UNL A   1      39.222  30.475  30.701  1.00  0.00     0.015 A 
ATOM     33  C   UNL A   1      37.115  29.331  30.997  1.00  0.00     0.015 A 
ATOM     34  C   UNL A   1      39.371  30.562  32.090  1.00  0.00     0.021 A 
ATOM     35  C   UNL A   1      37.241  29.462  32.385  1.00  0.00     0.021 A 
ATOM     36  C   UNL A   1      38.359  30.095  32.924  1.00  0.00     0.041 A 
ATOM     37  Cl  UNL A   1      38.481  30.318  34.625  1.00  0.00    -0.084 Cl
ENDBRANCH  28  31
ENDBRANCH  15  27
ENDBRANCH   3   6
ENDBRANCH   1   2
BRANCH   1  38
ATOM     38  C   UNL A   1      45.432  28.876  27.793  1.00  0.00     0.042 C 
BRANCH  38  39
ATOM     39  C   UNL A   1      46.239  30.172  27.719  1.00  0.00     0.118 C 
BRANCH  39  40
ATOM     40  N   UNL A   1      45.922  31.042  26.585  1.00  0.00    -0.352 N 
ATOM     41  C   UNL A   1      44.993  32.048  26.419  1.00  0.00     0.251 C 
ATOM     42  H   UNL A   1      46.477  30.878  25.789  1.00  0.00     0.163 HD
ATOM     43  O   UNL A   1      44.904  32.642  25.348  1.00  0.00    -0.269 OA
BRANCH  41  44
ATOM     44  C   UNL A   1      44.087  32.401  27.517  1.00  0.00     0.039 A 
ATOM     45  C   UNL A   1      43.381  31.406  28.205  1.00  0.00     0.014 A 
ATOM     46  C   UNL A   1      43.966  33.735  27.880  1.00  0.00     0.014 A 
ATOM     47  C   UNL A   1      42.659  31.745  29.354  1.00  0.00     0.010 A 
ATOM     48  C   UNL A   1      43.361  34.048  29.080  1.00  0.00     0.010 A 
ATOM     49  C   UNL A   1      42.708  33.059  29.836  1.00  0.00    -0.014 A 
BRANCH  49  50
ATOM     50  C   UNL A   1      42.099  33.510  31.114  1.00  0.00     0.031 A 
ATOM     51  C   UNL A   1      42.919  33.348  32.364  1.00  0.00     0.074 A 
ATOM     52  C   UNL A   1      40.786  33.796  31.172  1.00  0.00     0.049 A 
ATOM     53  N   UNL A   1      42.531  33.160  33.595  1.00  0.00    -0.248 NA
ATOM     54  C   UNL A   1      44.374  33.261  32.163  1.00  0.00     0.031 C 
ATOM     55  C   UNL A   1      39.888  33.942  30.023  1.00  0.00     0.029 A 
ATOM     56  N   UNL A   1      39.961  33.958  32.257  1.00  0.00    -0.354 N 
ATOM     57  C   UNL A   1      43.688  32.831  34.300  1.00  0.00     0.074 A 
ATOM     58  C   UNL A   1      44.769  32.799  33.339  1.00  0.00     0.031 C 
ATOM     59  C   UNL A   1      38.640  34.169  30.463  1.00  0.00     0.029 A 
ATOM     60  C   UNL A   1      38.634  34.115  31.920  1.00  0.00     0.049 A 
ATOM     61  H   UNL A   1      40.285  33.962  33.186  1.00  0.00     0.167 HD
ATOM     62  C   UNL A   1      43.818  32.583  35.626  1.00  0.00     0.034 A 
ATOM     63  C   UNL A   1      37.539  34.166  32.702  1.00  0.00     0.034 A 
ATOM     64  C   UNL A   1      42.718  32.716  36.550  1.00  0.00     0.049 A 
ATOM     65  C   UNL A   1      37.722  34.008  34.190  1.00  0.00     0.074 A 
ATOM     66  C   UNL A   1      42.722  32.603  37.928  1.00  0.00     0.029 A 
ATOM     67  N   UNL A   1      41.412  33.022  36.178  1.00  0.00    -0.354 N 
ATOM     68  N   UNL A   1      38.813  33.707  34.857  1.00  0.00    -0.248 NA
ATOM     69  C   UNL A   1      36.535  34.203  35.031  1.00  0.00     0.031 C 
ATOM     70  C   UNL A   1      41.416  32.810  38.386  1.00  0.00     0.029 A 
ATOM     71  C   UNL A   1      40.606  33.110  37.300  1.00  0.00     0.049 A 
ATOM     72  H   UNL A   1      41.107  33.158  35.252  1.00  0.00     0.167 HD
ATOM     73  C   UNL A   1      38.451  33.713  36.200  1.00  0.00     0.074 A 
ATOM     74  C   UNL A   1      37.041  34.049  36.246  1.00  0.00     0.031 C 
ATOM     75  C   UNL A   1      39.208  33.466  37.300  1.00  0.00     0.034 A 
BRANCH  62  76
ATOM     76  C   UNL A   1      45.174  32.142  36.131  1.00  0.00     0.023 A 
ATOM     77  C   UNL A   1      45.498  30.784  36.296  1.00  0.00     0.031 A 
ATOM     78  C   UNL A   1      46.139  33.090  36.516  1.00  0.00     0.131 A 
ATOM     79  C   UNL A   1      46.692  30.415  36.933  1.00  0.00     0.055 A 
ATOM     80  C   UNL A   1      47.374  32.714  37.052  1.00  0.00     0.041 A 
ATOM     81  F   UNL A   1      45.891  34.405  36.402  1.00  0.00    -0.206 F 
ATOM     82  C   UNL A   1      47.647  31.369  37.286  1.00  0.00     0.022 A 
BRANCH  79  83
ATOM     83  S   UNL A   1      46.893  28.689  37.448  1.00  0.00     0.124 S 
ATOM     84  O   UNL A   1      47.921  28.811  38.480  1.00  0.00    -0.237 OA
ATOM     85  O   UNL A   1      45.557  28.341  37.919  1.00  0.00    -0.237 OA
ATOM     86  O   UNL A   1      47.321  28.013  36.226  1.00  0.00    -0.744 OA
ENDBRANCH  79  83
ENDBRANCH  62  76
BRANCH  63  87
ATOM     87  C   UNL A   1      36.192  34.388  32.106  1.00  0.00     0.023 A 
ATOM     88  C   UNL A   1      35.483  35.568  32.376  1.00  0.00     0.031 A 
ATOM     89  C   UNL A   1      35.591  33.439  31.260  1.00  0.00     0.131 A 
ATOM     90  C   UNL A   1      34.199  35.756  31.840  1.00  0.00     0.055 A 
ATOM     91  C   UNL A   1      34.331  33.650  30.692  1.00  0.00     0.041 A 
ATOM     92  F   UNL A   1      36.232  32.299  30.954  1.00  0.00    -0.206 F 
ATOM     93  C   UNL A   1      33.623  34.810  30.991  1.00  0.00     0.022 A 
BRANCH  90  94
ATOM     94  S   UNL A   1      33.267  37.234  32.326  1.00  0.00     0.124 S 
ATOM     95  O   UNL A   1      32.073  36.650  32.927  1.00  0.00    -0.237 OA
ATOM     96  O   UNL A   1      34.194  37.887  33.245  1.00  0.00    -0.237 OA
ATOM     97  O   UNL A   1      33.051  37.932  31.060  1.00  0.00    -0.744 OA
ENDBRANCH  90  94
ENDBRANCH  63  87
BRANCH  75  98
ATOM     98  C   UNL A   1      38.539  33.628  38.636  1.00  0.00     0.023 A 
ATOM     99  C   UNL A   1      37.678  32.649  39.155  1.00  0.00     0.031 A 
ATOM    100  C   UNL A   1      38.794  34.775  39.409  1.00  0.00     0.131 A 
ATOM    101  C   UNL A   1      37.070  32.851  40.401  1.00  0.00     0.055 A 
ATOM    102  C   UNL A   1      38.226  34.948  40.670  1.00  0.00     0.041 A 
ATOM    103  F   UNL A   1      39.613  35.737  38.954  1.00  0.00    -0.206 F 
ATOM    104  C   UNL A   1      37.352  33.986  41.169  1.00  0.00     0.022 A 
BRANCH 101 105
ATOM    105  S   UNL A   1      35.862  31.634  40.987  1.00  0.00     0.124 S 
ATOM    106  O   UNL A   1      35.572  30.886  39.768  1.00  0.00    -0.237 OA
ATOM    107  O   UNL A   1      36.614  30.915  42.012  1.00  0.00    -0.237 OA
ATOM    108  O   UNL A   1      34.763  32.455  41.490  1.00  0.00    -0.744 OA
ENDBRANCH 101 105
ENDBRANCH  75  98
ENDBRANCH  49  50
ENDBRANCH  41  44
ENDBRANCH  39  40
ENDBRANCH  38  39
ENDBRANCH   1  38
TORSDOF 19
ENDMDL
MODEL 3
REMARK VINA RESULT:     -12.7      6.312     11.832
REMARK SMILES CCOC(=O)[C@H]1CCCN(c2cc(C(=O)NCCCNC(=O)c3ccc(-c4c5nc(c(-c6cc(S(=O)(=O)[O-])ccc6F)c6ccc([nH]6)c(-c6cc(S(=O)(=O)[O-])ccc6F)c6nc(c(-c7cc(S(=O)(=O)[O-])ccc7F)c7ccc4[nH]7)C=C6)C=C5)cc3)c3cc(NC(=O)c4ccc(Cl)cc4)ccc3n2)C1
REMARK SMILES IDX 17 1 16 2 14 3 15 4 13 6 11 7 12 8 102 9 101 10 86 11 100 12
REMARK SMILES IDX 87 13 99 14 88 15 10 16 6 17 7 18 103 19 8 20 9 21 4 22 5 23
REMARK SMILES IDX 3 24 2 25 1 26 89 27 90 28 91 30 92 31 93 32 98 33 94 34
REMARK SMILES IDX 97 35 95 36 96 37 18 38 19 39 20 40 21 41 22 43 23 44 24 45
REMARK SMILES IDX 85 46 25 47 84 48 26 49 27 50 28 51 78 52 29 53 83 54 77 55
REMARK SMILES IDX 79 56 30 57 82 58 76 59 75 60 31 62 63 63 43 64 62 65 44 66
REMARK SMILES IDX 47 67 61 68 80 69 45 70 46 71 60 73 81 74 48 75 32 76 33 77
REMARK SMILES IDX 41 78 34 79 40 80 42 81 39 82 35 83 36 84 37 85 38 86 64 87
REMARK SMILES IDX 65 88 73 89 66 90 72 91 74 92 71 93 67 94 68 95 69 96 70 97
REMARK SMILES IDX 49 98 50 99 58 100 51 101 57 102 59 103 56 104 52 105 53 106
REMARK SMILES IDX 54 107 55 108
REMARK H PARENT 16 5 89 29 20 42 79 61 47 72
REMARK Flexibility Score: inf
ROOT
ATOM      1  C   UNL A   1      45.796  28.346  26.633  1.00  0.00     0.118 C 
ENDROOT
BRANCH   1   2
ATOM      2  N   UNL A   1      44.701  28.527  25.689  1.00  0.00    -0.352 N 
ATOM      3  C   UNL A   1      43.565  27.801  25.411  1.00  0.00     0.252 C 
ATOM      4  O   UNL A   1      42.790  28.289  24.584  1.00  0.00    -0.269 OA
ATOM      5  H   UNL A   1      44.793  29.335  25.134  1.00  0.00     0.163 HD
BRANCH   3   6
ATOM      6  C   UNL A   1      43.216  26.462  25.983  1.00  0.00     0.052 A 
ATOM      7  C   UNL A   1      43.661  24.087  25.816  1.00  0.00     0.130 A 
ATOM      8  C   UNL A   1      43.977  25.398  25.482  1.00  0.00     0.061 A 
ATOM      9  N   UNL A   1      42.717  23.824  26.739  1.00  0.00    -0.231 NA
ATOM     10  C   UNL A   1      41.976  24.822  27.236  1.00  0.00     0.074 A 
ATOM     11  C   UNL A   1      42.119  26.151  26.809  1.00  0.00     0.015 A 
ATOM     12  C   UNL A   1      40.977  24.517  28.154  1.00  0.00     0.031 A 
ATOM     13  C   UNL A   1      41.096  27.049  27.150  1.00  0.00     0.037 A 
ATOM     14  C   UNL A   1      40.023  25.459  28.554  1.00  0.00     0.028 A 
ATOM     15  C   UNL A   1      40.024  26.714  27.968  1.00  0.00     0.042 A 
BRANCH   7  16
ATOM     16  N   UNL A   1      44.214  23.036  25.120  1.00  0.00    -0.356 N 
ATOM     17  C   UNL A   1      44.573  20.629  25.282  1.00  0.00     0.118 C 
ATOM     18  C   UNL A   1      45.796  20.797  24.362  1.00  0.00     0.019 C 
ATOM     19  C   UNL A   1      43.552  21.742  25.030  1.00  0.00     0.133 C 
ATOM     20  C   UNL A   1      46.388  22.206  24.459  1.00  0.00     0.022 C 
ATOM     21  C   UNL A   1      45.328  23.285  24.216  1.00  0.00     0.118 C 
BRANCH  17  22
ATOM     22  C   UNL A   1      43.846  19.309  25.126  1.00  0.00     0.310 C 
ATOM     23  O   UNL A   1      44.423  18.241  24.955  1.00  0.00    -0.252 OA
BRANCH  22  24
ATOM     24  O   UNL A   1      42.495  19.449  25.182  1.00  0.00    -0.466 OA
BRANCH  24  25
ATOM     25  C   UNL A   1      41.831  18.672  26.189  1.00  0.00     0.229 C 
ATOM     26  C   UNL A   1      42.018  19.312  27.551  1.00  0.00     0.049 C 
ENDBRANCH  24  25
ENDBRANCH  22  24
ENDBRANCH  17  22
ENDBRANCH   7  16
BRANCH  15  27
ATOM     27  N   UNL A   1      38.946  27.582  28.211  1.00  0.00    -0.322 N 
ATOM     28  C   UNL A   1      38.540  28.248  29.355  1.00  0.00     0.255 C 
ATOM     29  H   UNL A   1      38.376  27.747  27.425  1.00  0.00     0.170 HD
ATOM     30  O   UNL A   1      37.434  28.787  29.374  1.00  0.00    -0.269 OA
BRANCH  28  31
ATOM     31  C   UNL A   1      39.417  28.379  30.551  1.00  0.00     0.040 A 
ATOM     32  C   UNL A   1      40.614  29.087  30.420  1.00  0.00     0.015 A 
ATOM     33  C   UNL A   1      39.056  27.867  31.805  1.00  0.00     0.015 A 
ATOM     34  C   UNL A   1      41.383  29.390  31.550  1.00  0.00     0.021 A 
ATOM     35  C   UNL A   1      39.798  28.212  32.941  1.00  0.00     0.021 A 
ATOM     36  C   UNL A   1      40.947  28.990  32.810  1.00  0.00     0.041 A 
ATOM     37  Cl  UNL A   1      41.819  29.472  34.210  1.00  0.00    -0.084 Cl
ENDBRANCH  28  31
ENDBRANCH  15  27
ENDBRANCH   3   6
ENDBRANCH   1   2
BRANCH   1  38
ATOM     38  C   UNL A   1      45.810  29.311  27.810  1.00  0.00     0.042 C 
BRANCH  38  39
ATOM     39  C   UNL A   1      46.528  30.636  27.557  1.00  0.00     0.118 C 
BRANCH  39  40
ATOM     40  N   UNL A   1      46.050  31.395  26.400  1.00  0.00    -0.352 N 
ATOM     41  C   UNL A   1      44.983  32.251  26.227  1.00  0.00     0.251 C 
ATOM     42  H   UNL A   1      46.595  31.270  25.589  1.00  0.00     0.163 HD
ATOM     43  O   UNL A   1      44.773  32.771  25.135  1.00  0.00    -0.269 OA
BRANCH  41  44
ATOM     44  C   UNL A   1      44.074  32.528  27.345  1.00  0.00     0.039 A 
ATOM     45  C   UNL A   1      43.399  31.484  27.990  1.00  0.00     0.014 A 
ATOM     46  C   UNL A   1      43.921  33.840  27.771  1.00  0.00     0.014 A 
ATOM     47  C   UNL A   1      42.675  31.750  29.156  1.00  0.00     0.010 A 
ATOM     48  C   UNL A   1      43.316  34.080  28.987  1.00  0.00     0.010 A 
ATOM     49  C   UNL A   1      42.693  33.040  29.700  1.00  0.00    -0.014 A 
BRANCH  49  50
ATOM     50  C   UNL A   1      42.081  33.415  31.000  1.00  0.00     0.031 A 
ATOM     51  C   UNL A   1      42.899  33.183  32.240  1.00  0.00     0.074 A 
ATOM     52  C   UNL A   1      40.767  33.694  31.072  1.00  0.00     0.049 A 
ATOM     53  N   UNL A   1      42.509  32.923  33.458  1.00  0.00    -0.248 NA
ATOM     54  C   UNL A   1      44.355  33.111  32.037  1.00  0.00     0.031 C 
ATOM     55  C   UNL A   1      39.871  33.904  29.932  1.00  0.00     0.029 A 
ATOM     56  N   UNL A   1      39.939  33.790  32.163  1.00  0.00    -0.354 N 
ATOM     57  C   UNL A   1      43.665  32.556  34.144  1.00  0.00     0.074 A 
ATOM     58  C   UNL A   1      44.749  32.582  33.185  1.00  0.00     0.031 C 
ATOM     59  C   UNL A   1      38.621  34.102  30.382  1.00  0.00     0.029 A 
ATOM     60  C   UNL A   1      38.613  33.963  31.833  1.00  0.00     0.049 A 
ATOM     61  H   UNL A   1      40.262  33.741  33.091  1.00  0.00     0.167 HD
ATOM     62  C   UNL A   1      43.794  32.231  35.454  1.00  0.00     0.034 A 
ATOM     63  C   UNL A   1      37.516  33.966  32.615  1.00  0.00     0.034 A 
ATOM     64  C   UNL A   1      42.691  32.308  36.382  1.00  0.00     0.049 A 
ATOM     65  C   UNL A   1      37.697  33.723  34.091  1.00  0.00     0.074 A 
ATOM     66  C   UNL A   1      42.694  32.115  37.751  1.00  0.00     0.029 A 
ATOM     67  N   UNL A   1      41.386  32.632  36.026  1.00  0.00    -0.354 N 
ATOM     68  N   UNL A   1      38.788  33.387  34.742  1.00  0.00    -0.248 NA
ATOM     69  C   UNL A   1      36.507  33.866  34.939  1.00  0.00     0.031 C 
ATOM     70  C   UNL A   1      41.386  32.292  38.218  1.00  0.00     0.029 A 
ATOM     71  C   UNL A   1      40.578  32.653  37.149  1.00  0.00     0.049 A 
ATOM     72  H   UNL A   1      41.082  32.821  35.109  1.00  0.00     0.167 HD
ATOM     73  C   UNL A   1      38.423  33.314  36.082  1.00  0.00     0.074 A 
ATOM     74  C   UNL A   1      37.012  33.643  36.145  1.00  0.00     0.031 C 
ATOM     75  C   UNL A   1      39.179  33.005  37.167  1.00  0.00     0.034 A 
BRANCH  62  76
ATOM     76  C   UNL A   1      45.150  31.765  35.936  1.00  0.00     0.023 A 
ATOM     77  C   UNL A   1      45.526  30.411  35.896  1.00  0.00     0.031 A 
ATOM     78  C   UNL A   1      46.061  32.675  36.502  1.00  0.00     0.131 A 
ATOM     79  C   UNL A   1      46.713  29.990  36.513  1.00  0.00     0.055 A 
ATOM     80  C   UNL A   1      47.293  32.263  37.020  1.00  0.00     0.041 A 
ATOM     81  F   UNL A   1      45.762  33.981  36.589  1.00  0.00    -0.206 F 
ATOM     82  C   UNL A   1      47.614  30.909  37.049  1.00  0.00     0.022 A 
BRANCH  79  83
ATOM     83  S   UNL A   1      46.969  28.211  36.756  1.00  0.00     0.124 S 
ATOM     84  O   UNL A   1      45.632  27.776  37.154  1.00  0.00    -0.237 OA
ATOM     85  O   UNL A   1      47.415  27.772  35.437  1.00  0.00    -0.237 OA
ATOM     86  O   UNL A   1      47.979  28.151  37.809  1.00  0.00    -0.744 OA
ENDBRANCH  79  83
ENDBRANCH  62  76
BRANCH  63  87
ATOM     87  C   UNL A   1      36.170  34.219  32.029  1.00  0.00     0.023 A 
ATOM     88  C   UNL A   1      35.466  35.390  32.350  1.00  0.00     0.031 A 
ATOM     89  C   UNL A   1      35.564  33.310  31.145  1.00  0.00     0.131 A 
ATOM     90  C   UNL A   1      34.183  35.606  31.824  1.00  0.00     0.055 A 
ATOM     91  C   UNL A   1      34.305  33.550  30.587  1.00  0.00     0.041 A 
ATOM     92  F   UNL A   1      36.200  32.182  30.789  1.00  0.00    -0.206 F 
ATOM     93  C   UNL A   1      33.602  34.700  30.935  1.00  0.00     0.022 A 
BRANCH  90  94
ATOM     94  S   UNL A   1      33.257  37.066  32.373  1.00  0.00     0.124 S 
ATOM     95  O   UNL A   1      33.226  37.874  31.159  1.00  0.00    -0.237 OA
ATOM     96  O   UNL A   1      31.986  36.479  32.787  1.00  0.00    -0.237 OA
ATOM     97  O   UNL A   1      34.077  37.600  33.458  1.00  0.00    -0.744 OA
ENDBRANCH  90  94
ENDBRANCH  63  87
BRANCH  75  98
ATOM     98  C   UNL A   1      38.506  33.088  38.509  1.00  0.00     0.023 A 
ATOM     99  C   UNL A   1      38.757  34.145  39.397  1.00  0.00     0.031 A 
ATOM    100  C   UNL A   1      37.579  32.100  38.886  1.00  0.00     0.131 A 
ATOM    101  C   UNL A   1      38.113  34.172  40.641  1.00  0.00     0.055 A 
ATOM    102  C   UNL A   1      36.903  32.159  40.104  1.00  0.00     0.041 A 
ATOM    103  F   UNL A   1      37.306  31.071  38.067  1.00  0.00    -0.206 F 
ATOM    104  C   UNL A   1      37.175  33.196  40.993  1.00  0.00     0.022 A 
BRANCH 101 105
ATOM    105  S   UNL A   1      38.552  35.477  41.820  1.00  0.00     0.124 S 
ATOM    106  O   UNL A   1      39.881  35.055  42.254  1.00  0.00    -0.237 OA
ATOM    107  O   UNL A   1      38.503  36.677  40.993  1.00  0.00    -0.237 OA
ATOM    108  O   UNL A   1      37.508  35.385  42.839  1.00  0.00    -0.744 OA
ENDBRANCH 101 105
ENDBRANCH  75  98
ENDBRANCH  49  50
ENDBRANCH  41  44
ENDBRANCH  39  40
ENDBRANCH  38  39
ENDBRANCH   1  38
TORSDOF 19
ENDMDL
