MODEL 1
REMARK VINA RESULT:     -12.3      0.000      0.000
REMARK SMILES COc1nc2c(cc1C(=O)NCc1ccc(C(=O)NCCCNC(=O)c3ccc(-c4c5nc(c(-c6cc(S(=O)(=O)[O-])ccc6F)c6ccc([nH]6)c(-c6cc(S(=O)(=O)[O-])ccc6F)c6nc(c(-c7cc(S(=O)(=O)[O-])ccc7F)c7ccc4[nH]7)C=C6)C=C5)cc3)s1)CCC2
REMARK SMILES IDX 20 1 19 2 17 3 18 4 16 6 13 7 14 8 89 9 15 10 12 11 11 12
REMARK SMILES IDX 9 13 10 14 8 16 3 17 4 18 5 19 7 20 6 21 92 22 90 23 91 24
REMARK SMILES IDX 2 25 1 26 21 27 22 28 23 29 24 30 25 32 26 33 27 34 88 35
REMARK SMILES IDX 28 36 87 37 29 38 30 39 31 40 81 41 32 42 86 43 80 44 82 45
REMARK SMILES IDX 33 46 85 47 79 48 78 49 34 51 66 52 46 53 65 54 47 55 50 56
REMARK SMILES IDX 64 57 83 58 48 59 49 60 63 62 84 63 51 64 35 65 36 66 44 67
REMARK SMILES IDX 37 68 43 69 45 70 42 71 38 72 39 73 40 74 41 75 67 76 68 77
REMARK SMILES IDX 76 78 69 79 75 80 77 81 74 82 70 83 71 84 72 85 73 86 52 87
REMARK SMILES IDX 53 88 61 89 54 90 60 91 62 92 59 93 55 94 56 95 57 96 58 97
REMARK H PARENT 19 5 11 15 23 31 82 50 50 61
REMARK Flexibility Score: inf
ROOT
ATOM      1  C   UNL A   1      31.627  30.280  26.156  1.00  0.00     0.118 C 
ENDROOT
BRANCH   1   2
ATOM      2  N   UNL A   1      32.496  30.069  25.018  1.00  0.00    -0.351 N 
ATOM      3  C   UNL A   1      32.528  29.086  24.060  1.00  0.00     0.261 C 
ATOM      4  O   UNL A   1      33.404  29.229  23.201  1.00  0.00    -0.268 OA
ATOM      5  H   UNL A   1      33.192  30.757  24.911  1.00  0.00     0.163 HD
BRANCH   3   6
ATOM      6  C   UNL A   1      31.554  28.002  24.044  1.00  0.00     0.092 A 
ATOM      7  C   UNL A   1      30.648  25.687  24.071  1.00  0.00     0.025 A 
ATOM      8  C   UNL A   1      29.683  26.618  23.760  1.00  0.00     0.018 A 
ATOM      9  S   UNL A   1      32.133  26.435  24.458  1.00  0.00    -0.133 S 
ATOM     10  C   UNL A   1      30.199  27.950  23.770  1.00  0.00     0.026 A 
BRANCH   7  11
ATOM     11  C   UNL A   1      30.567  24.205  24.007  1.00  0.00     0.163 C 
BRANCH  11  12
ATOM     12  N   UNL A   1      30.568  23.597  25.315  1.00  0.00    -0.347 N 
ATOM     13  C   UNL A   1      31.490  23.058  26.165  1.00  0.00     0.257 C 
ATOM     14  O   UNL A   1      31.115  22.995  27.344  1.00  0.00    -0.269 OA
ATOM     15  H   UNL A   1      29.662  23.562  25.697  1.00  0.00     0.164 HD
BRANCH  13  16
ATOM     16  C   UNL A   1      32.826  22.477  25.850  1.00  0.00     0.102 A 
ATOM     17  C   UNL A   1      33.175  21.174  25.479  1.00  0.00     0.226 A 
ATOM     18  N   UNL A   1      34.453  20.738  25.270  1.00  0.00    -0.218 NA
ATOM     19  C   UNL A   1      35.419  21.658  25.404  1.00  0.00     0.048 A 
ATOM     20  C   UNL A   1      33.889  23.409  25.900  1.00  0.00     0.025 A 
ATOM     21  C   UNL A   1      35.186  22.991  25.670  1.00  0.00    -0.025 A 
ATOM     22  C   UNL A   1      36.889  21.391  25.235  1.00  0.00     0.057 C 
ATOM     23  C   UNL A   1      36.443  23.790  25.615  1.00  0.00     0.038 C 
ATOM     24  C   UNL A   1      37.502  22.692  25.782  1.00  0.00     0.011 C 
BRANCH  17  25
ATOM     25  O   UNL A   1      32.258  20.194  25.248  1.00  0.00    -0.480 OA
ATOM     26  C   UNL A   1      32.312  19.791  23.880  1.00  0.00     0.280 C 
ENDBRANCH  17  25
ENDBRANCH  13  16
ENDBRANCH  11  12
ENDBRANCH   7  11
ENDBRANCH   3   6
ENDBRANCH   1   2
BRANCH   1  27
ATOM     27  C   UNL A   1      31.535  31.761  26.510  1.00  0.00     0.042 C 
BRANCH  27  28
ATOM     28  C   UNL A   1      32.762  32.263  27.269  1.00  0.00     0.118 C 
BRANCH  28  29
ATOM     29  N   UNL A   1      32.650  33.682  27.588  1.00  0.00    -0.352 N 
ATOM     30  C   UNL A   1      33.243  34.383  28.604  1.00  0.00     0.251 C 
ATOM     31  H   UNL A   1      32.068  34.207  26.992  1.00  0.00     0.163 HD
ATOM     32  O   UNL A   1      32.820  35.495  28.915  1.00  0.00    -0.269 OA
BRANCH  30  33
ATOM     33  C   UNL A   1      34.398  33.797  29.308  1.00  0.00     0.039 A 
ATOM     34  C   UNL A   1      35.691  34.176  28.946  1.00  0.00     0.014 A 
ATOM     35  C   UNL A   1      34.188  32.849  30.314  1.00  0.00     0.014 A 
ATOM     36  C   UNL A   1      36.781  33.628  29.623  1.00  0.00     0.010 A 
ATOM     37  C   UNL A   1      35.270  32.351  31.029  1.00  0.00     0.010 A 
ATOM     38  C   UNL A   1      36.574  32.721  30.674  1.00  0.00    -0.014 A 
BRANCH  38  39
ATOM     39  C   UNL A   1      37.714  32.094  31.383  1.00  0.00     0.031 A 
ATOM     40  C   UNL A   1      38.431  30.940  30.741  1.00  0.00     0.074 A 
ATOM     41  C   UNL A   1      38.065  32.530  32.607  1.00  0.00     0.049 A 
ATOM     42  N   UNL A   1      39.423  30.230  31.207  1.00  0.00    -0.248 NA
ATOM     43  C   UNL A   1      37.965  30.517  29.408  1.00  0.00     0.031 C 
ATOM     44  C   UNL A   1      37.418  33.626  33.330  1.00  0.00     0.029 A 
ATOM     45  N   UNL A   1      39.048  32.100  33.463  1.00  0.00    -0.354 N 
ATOM     46  C   UNL A   1      39.695  29.279  30.233  1.00  0.00     0.074 A 
ATOM     47  C   UNL A   1      38.736  29.464  29.170  1.00  0.00     0.031 C 
ATOM     48  C   UNL A   1      38.035  33.796  34.511  1.00  0.00     0.029 A 
ATOM     49  C   UNL A   1      39.097  32.801  34.646  1.00  0.00     0.049 A 
ATOM     50  H   UNL A   1      39.660  31.359  33.252  1.00  0.00     0.167 HD
ATOM     51  C   UNL A   1      40.678  28.352  30.220  1.00  0.00     0.034 A 
ATOM     52  C   UNL A   1      39.908  32.657  35.715  1.00  0.00     0.034 A 
ATOM     53  C   UNL A   1      41.651  28.203  31.268  1.00  0.00     0.049 A 
ATOM     54  C   UNL A   1      40.981  31.597  35.676  1.00  0.00     0.074 A 
ATOM     55  C   UNL A   1      42.724  27.331  31.313  1.00  0.00     0.029 A 
ATOM     56  N   UNL A   1      41.675  28.935  32.443  1.00  0.00    -0.354 N 
ATOM     57  N   UNL A   1      41.286  30.767  34.706  1.00  0.00    -0.248 NA
ATOM     58  C   UNL A   1      41.828  31.456  36.870  1.00  0.00     0.031 C 
ATOM     59  C   UNL A   1      43.365  27.496  32.538  1.00  0.00     0.029 A 
ATOM     60  C   UNL A   1      42.732  28.516  33.232  1.00  0.00     0.049 A 
ATOM     61  H   UNL A   1      41.038  29.646  32.681  1.00  0.00     0.167 HD
ATOM     62  C   UNL A   1      42.383  30.038  35.156  1.00  0.00     0.074 A 
ATOM     63  C   UNL A   1      42.697  30.532  36.479  1.00  0.00     0.031 C 
ATOM     64  C   UNL A   1      43.064  29.047  34.530  1.00  0.00     0.034 A 
BRANCH  51  65
ATOM     65  C   UNL A   1      40.808  27.440  29.031  1.00  0.00     0.023 A 
ATOM     66  C   UNL A   1      41.738  27.741  28.020  1.00  0.00     0.031 A 
ATOM     67  C   UNL A   1      39.890  26.400  28.813  1.00  0.00     0.131 A 
ATOM     68  C   UNL A   1      41.687  27.048  26.806  1.00  0.00     0.055 A 
ATOM     69  C   UNL A   1      39.870  25.684  27.616  1.00  0.00     0.041 A 
ATOM     70  F   UNL A   1      38.989  26.076  29.755  1.00  0.00    -0.206 F 
ATOM     71  C   UNL A   1      40.760  26.019  26.599  1.00  0.00     0.022 A 
BRANCH  68  72
ATOM     72  S   UNL A   1      42.780  27.498  25.432  1.00  0.00     0.124 S 
ATOM     73  O   UNL A   1      44.020  27.838  26.128  1.00  0.00    -0.237 OA
ATOM     74  O   UNL A   1      42.818  26.261  24.658  1.00  0.00    -0.237 OA
ATOM     75  O   UNL A   1      42.100  28.623  24.800  1.00  0.00    -0.744 OA
ENDBRANCH  68  72
ENDBRANCH  51  65
BRANCH  52  76
ATOM     76  C   UNL A   1      39.777  33.582  36.877  1.00  0.00     0.023 A 
ATOM     77  C   UNL A   1      40.698  34.623  37.092  1.00  0.00     0.031 A 
ATOM     78  C   UNL A   1      38.750  33.402  37.819  1.00  0.00     0.131 A 
ATOM     79  C   UNL A   1      40.593  35.418  38.240  1.00  0.00     0.055 A 
ATOM     80  C   UNL A   1      38.614  34.235  38.931  1.00  0.00     0.041 A 
ATOM     81  F   UNL A   1      37.855  32.415  37.662  1.00  0.00    -0.206 F 
ATOM     82  C   UNL A   1      39.546  35.244  39.150  1.00  0.00     0.022 A 
BRANCH  79  83
ATOM     83  S   UNL A   1      41.859  36.657  38.636  1.00  0.00     0.124 S 
ATOM     84  O   UNL A   1      42.668  36.667  37.422  1.00  0.00    -0.237 OA
ATOM     85  O   UNL A   1      41.047  37.849  38.862  1.00  0.00    -0.237 OA
ATOM     86  O   UNL A   1      42.511  36.115  39.823  1.00  0.00    -0.744 OA
ENDBRANCH  79  83
ENDBRANCH  52  76
BRANCH  64  87
ATOM     87  C   UNL A   1      44.249  28.426  35.223  1.00  0.00     0.023 A 
ATOM     88  C   UNL A   1      44.042  27.461  36.228  1.00  0.00     0.031 A 
ATOM     89  C   UNL A   1      45.551  28.914  35.024  1.00  0.00     0.131 A 
ATOM     90  C   UNL A   1      45.111  27.052  37.031  1.00  0.00     0.055 A 
ATOM     91  C   UNL A   1      46.623  28.467  35.795  1.00  0.00     0.041 A 
ATOM     92  F   UNL A   1      45.794  29.843  34.085  1.00  0.00    -0.206 F 
ATOM     93  C   UNL A   1      46.404  27.544  36.815  1.00  0.00     0.022 A 
BRANCH  90  94
ATOM     94  S   UNL A   1      44.852  25.933  38.435  1.00  0.00     0.124 S 
ATOM     95  O   UNL A   1      44.656  24.648  37.767  1.00  0.00    -0.237 OA
ATOM     96  O   UNL A   1      46.107  26.069  39.169  1.00  0.00    -0.237 OA
ATOM     97  O   UNL A   1      43.671  26.472  39.101  1.00  0.00    -0.744 OA
ENDBRANCH  90  94
ENDBRANCH  64  87
ENDBRANCH  38  39
ENDBRANCH  30  33
ENDBRANCH  28  29
ENDBRANCH  27  28
ENDBRANCH   1  27
TORSDOF 17
ENDMDL
MODEL 2
REMARK VINA RESULT:     -12.3      1.705      2.379
REMARK SMILES COc1nc2c(cc1C(=O)NCc1ccc(C(=O)NCCCNC(=O)c3ccc(-c4c5nc(c(-c6cc(S(=O)(=O)[O-])ccc6F)c6ccc([nH]6)c(-c6cc(S(=O)(=O)[O-])ccc6F)c6nc(c(-c7cc(S(=O)(=O)[O-])ccc7F)c7ccc4[nH]7)C=C6)C=C5)cc3)s1)CCC2
REMARK SMILES IDX 20 1 19 2 17 3 18 4 16 6 13 7 14 8 89 9 15 10 12 11 11 12
REMARK SMILES IDX 9 13 10 14 8 16 3 17 4 18 5 19 7 20 6 21 92 22 90 23 91 24
REMARK SMILES IDX 2 25 1 26 21 27 22 28 23 29 24 30 25 32 26 33 27 34 88 35
REMARK SMILES IDX 28 36 87 37 29 38 30 39 31 40 81 41 32 42 86 43 80 44 82 45
REMARK SMILES IDX 33 46 85 47 79 48 78 49 34 51 66 52 46 53 65 54 47 55 50 56
REMARK SMILES IDX 64 57 83 58 48 59 49 60 63 62 84 63 51 64 35 65 36 66 44 67
REMARK SMILES IDX 37 68 43 69 45 70 42 71 38 72 39 73 40 74 41 75 67 76 68 77
REMARK SMILES IDX 76 78 69 79 75 80 77 81 74 82 70 83 71 84 72 85 73 86 52 87
REMARK SMILES IDX 53 88 61 89 54 90 60 91 62 92 59 93 55 94 56 95 57 96 58 97
REMARK H PARENT 19 5 11 15 23 31 82 50 50 61
REMARK Flexibility Score: inf
ROOT
ATOM      1  C   UNL A   1      31.729  30.738  26.043  1.00  0.00     0.118 C 
ENDROOT
BRANCH   1   2
ATOM      2  N   UNL A   1      32.987  30.143  26.443  1.00  0.00    -0.351 N 
ATOM      3  C   UNL A   1      33.393  28.835  26.538  1.00  0.00     0.261 C 
ATOM      4  O   UNL A   1      34.565  28.681  26.896  1.00  0.00    -0.268 OA
ATOM      5  H   UNL A   1      33.678  30.797  26.694  1.00  0.00     0.163 HD
BRANCH   3   6
ATOM      6  C   UNL A   1      32.509  27.733  26.179  1.00  0.00     0.092 A 
ATOM      7  C   UNL A   1      31.456  25.947  24.807  1.00  0.00     0.025 A 
ATOM      8  C   UNL A   1      30.772  26.170  25.980  1.00  0.00     0.018 A 
ATOM      9  S   UNL A   1      32.880  26.885  24.727  1.00  0.00    -0.133 S 
ATOM     10  C   UNL A   1      31.393  27.179  26.779  1.00  0.00     0.026 A 
BRANCH   7  11
ATOM     11  C   UNL A   1      31.060  25.114  23.642  1.00  0.00     0.163 C 
BRANCH  11  12
ATOM     12  N   UNL A   1      32.198  24.618  22.907  1.00  0.00    -0.347 N 
ATOM     13  C   UNL A   1      32.821  23.418  22.723  1.00  0.00     0.257 C 
ATOM     14  O   UNL A   1      33.536  23.369  21.712  1.00  0.00    -0.269 OA
ATOM     15  H   UNL A   1      32.642  25.336  22.403  1.00  0.00     0.164 HD
BRANCH  13  16
ATOM     16  C   UNL A   1      32.815  22.216  23.605  1.00  0.00     0.102 A 
ATOM     17  C   UNL A   1      33.043  22.109  24.981  1.00  0.00     0.226 A 
ATOM     18  N   UNL A   1      33.070  20.935  25.679  1.00  0.00    -0.218 NA
ATOM     19  C   UNL A   1      32.822  19.823  24.972  1.00  0.00     0.048 A 
ATOM     20  C   UNL A   1      32.488  21.012  22.939  1.00  0.00     0.025 A 
ATOM     21  C   UNL A   1      32.489  19.817  23.633  1.00  0.00    -0.025 A 
ATOM     22  C   UNL A   1      32.818  18.429  25.536  1.00  0.00     0.057 C 
ATOM     23  C   UNL A   1      32.129  18.448  23.164  1.00  0.00     0.038 C 
ATOM     24  C   UNL A   1      32.773  17.580  24.253  1.00  0.00     0.011 C 
BRANCH  17  25
ATOM     25  O   UNL A   1      33.231  23.188  25.792  1.00  0.00    -0.480 OA
ATOM     26  C   UNL A   1      34.610  23.299  26.137  1.00  0.00     0.280 C 
ENDBRANCH  17  25
ENDBRANCH  13  16
ENDBRANCH  11  12
ENDBRANCH   7  11
ENDBRANCH   3   6
ENDBRANCH   1   2
BRANCH   1  27
ATOM     27  C   UNL A   1      31.539  32.106  26.689  1.00  0.00     0.042 C 
BRANCH  27  28
ATOM     28  C   UNL A   1      32.838  32.677  27.254  1.00  0.00     0.118 C 
BRANCH  28  29
ATOM     29  N   UNL A   1      32.678  34.069  27.660  1.00  0.00    -0.352 N 
ATOM     30  C   UNL A   1      33.224  34.718  28.735  1.00  0.00     0.251 C 
ATOM     31  H   UNL A   1      32.099  34.616  27.082  1.00  0.00     0.163 HD
ATOM     32  O   UNL A   1      32.762  35.797  29.105  1.00  0.00    -0.269 OA
BRANCH  30  33
ATOM     33  C   UNL A   1      34.375  34.118  29.434  1.00  0.00     0.039 A 
ATOM     34  C   UNL A   1      35.669  34.365  28.970  1.00  0.00     0.014 A 
ATOM     35  C   UNL A   1      34.159  33.287  30.537  1.00  0.00     0.014 A 
ATOM     36  C   UNL A   1      36.755  33.804  29.641  1.00  0.00     0.010 A 
ATOM     37  C   UNL A   1      35.244  32.780  31.241  1.00  0.00     0.010 A 
ATOM     38  C   UNL A   1      36.548  33.017  30.786  1.00  0.00    -0.014 A 
BRANCH  38  39
ATOM     39  C   UNL A   1      37.681  32.378  31.493  1.00  0.00     0.031 A 
ATOM     40  C   UNL A   1      38.403  31.235  30.839  1.00  0.00     0.074 A 
ATOM     41  C   UNL A   1      38.022  32.793  32.728  1.00  0.00     0.049 A 
ATOM     42  N   UNL A   1      39.391  30.516  31.301  1.00  0.00    -0.248 NA
ATOM     43  C   UNL A   1      37.948  30.834  29.494  1.00  0.00     0.031 C 
ATOM     44  C   UNL A   1      37.369  33.877  33.464  1.00  0.00     0.029 A 
ATOM     45  N   UNL A   1      38.997  32.348  33.585  1.00  0.00    -0.354 N 
ATOM     46  C   UNL A   1      39.671  29.581  30.313  1.00  0.00     0.074 A 
ATOM     47  C   UNL A   1      38.721  29.785  29.246  1.00  0.00     0.031 C 
ATOM     48  C   UNL A   1      37.976  34.027  34.653  1.00  0.00     0.029 A 
ATOM     49  C   UNL A   1      39.037  33.029  34.780  1.00  0.00     0.049 A 
ATOM     50  H   UNL A   1      39.611  31.610  33.366  1.00  0.00     0.167 HD
ATOM     51  C   UNL A   1      40.654  28.654  30.293  1.00  0.00     0.034 A 
ATOM     52  C   UNL A   1      39.838  32.866  35.853  1.00  0.00     0.034 A 
ATOM     53  C   UNL A   1      41.617  28.486  31.346  1.00  0.00     0.049 A 
ATOM     54  C   UNL A   1      40.912  31.806  35.805  1.00  0.00     0.074 A 
ATOM     55  C   UNL A   1      42.689  27.613  31.386  1.00  0.00     0.029 A 
ATOM     56  N   UNL A   1      41.632  29.198  32.534  1.00  0.00    -0.354 N 
ATOM     57  N   UNL A   1      41.225  30.993  34.824  1.00  0.00    -0.248 NA
ATOM     58  C   UNL A   1      41.748  31.644  37.004  1.00  0.00     0.031 C 
ATOM     59  C   UNL A   1      43.319  27.757  32.619  1.00  0.00     0.029 A 
ATOM     60  C   UNL A   1      42.681  28.766  33.325  1.00  0.00     0.049 A 
ATOM     61  H   UNL A   1      40.993  29.906  32.778  1.00  0.00     0.167 HD
ATOM     62  C   UNL A   1      42.317  30.255  35.271  1.00  0.00     0.074 A 
ATOM     63  C   UNL A   1      42.620  30.726  36.605  1.00  0.00     0.031 C 
ATOM     64  C   UNL A   1      43.002  29.275  34.635  1.00  0.00     0.034 A 
BRANCH  51  65
ATOM     65  C   UNL A   1      40.793  27.763  29.090  1.00  0.00     0.023 A 
ATOM     66  C   UNL A   1      41.743  28.070  28.100  1.00  0.00     0.031 A 
ATOM     67  C   UNL A   1      39.866  26.737  28.837  1.00  0.00     0.131 A 
ATOM     68  C   UNL A   1      41.705  27.400  26.873  1.00  0.00     0.055 A 
ATOM     69  C   UNL A   1      39.859  26.044  27.627  1.00  0.00     0.041 A 
ATOM     70  F   UNL A   1      38.946  26.408  29.758  1.00  0.00    -0.206 F 
ATOM     71  C   UNL A   1      40.770  26.387  26.632  1.00  0.00     0.022 A 
BRANCH  68  72
ATOM     72  S   UNL A   1      42.827  27.862  25.526  1.00  0.00     0.124 S 
ATOM     73  O   UNL A   1      43.860  28.614  26.235  1.00  0.00    -0.237 OA
ATOM     74  O   UNL A   1      43.241  26.558  25.018  1.00  0.00    -0.237 OA
ATOM     75  O   UNL A   1      41.990  28.656  24.633  1.00  0.00    -0.744 OA
ENDBRANCH  68  72
ENDBRANCH  51  65
BRANCH  52  76
ATOM     76  C   UNL A   1      39.699  33.772  37.029  1.00  0.00     0.023 A 
ATOM     77  C   UNL A   1      39.087  33.340  38.219  1.00  0.00     0.031 A 
ATOM     78  C   UNL A   1      40.135  35.106  36.956  1.00  0.00     0.131 A 
ATOM     79  C   UNL A   1      38.897  34.244  39.272  1.00  0.00     0.055 A 
ATOM     80  C   UNL A   1      39.997  35.988  38.029  1.00  0.00     0.041 A 
ATOM     81  F   UNL A   1      40.714  35.567  35.837  1.00  0.00    -0.206 F 
ATOM     82  C   UNL A   1      39.365  35.559  39.192  1.00  0.00     0.022 A 
BRANCH  79  83
ATOM     83  S   UNL A   1      37.962  33.769  40.753  1.00  0.00     0.124 S 
ATOM     84  O   UNL A   1      37.667  35.064  41.358  1.00  0.00    -0.237 OA
ATOM     85  O   UNL A   1      36.819  33.070  40.171  1.00  0.00    -0.237 OA
ATOM     86  O   UNL A   1      38.894  32.926  41.493  1.00  0.00    -0.744 OA
ENDBRANCH  79  83
ENDBRANCH  52  76
BRANCH  64  87
ATOM     87  C   UNL A   1      44.181  28.641  35.327  1.00  0.00     0.023 A 
ATOM     88  C   UNL A   1      43.968  27.619  36.272  1.00  0.00     0.031 A 
ATOM     89  C   UNL A   1      45.478  29.165  35.191  1.00  0.00     0.131 A 
ATOM     90  C   UNL A   1      45.023  27.189  37.083  1.00  0.00     0.055 A 
ATOM     91  C   UNL A   1      46.538  28.699  35.968  1.00  0.00     0.041 A 
ATOM     92  F   UNL A   1      45.726  30.148  34.311  1.00  0.00    -0.206 F 
ATOM     93  C   UNL A   1      46.310  27.717  36.930  1.00  0.00     0.022 A 
BRANCH  90  94
ATOM     94  S   UNL A   1      44.750  25.990  38.417  1.00  0.00     0.124 S 
ATOM     95  O   UNL A   1      44.221  24.840  37.688  1.00  0.00    -0.237 OA
ATOM     96  O   UNL A   1      46.096  25.822  38.956  1.00  0.00    -0.237 OA
ATOM     97  O   UNL A   1      43.797  26.657  39.298  1.00  0.00    -0.744 OA
ENDBRANCH  90  94
ENDBRANCH  64  87
ENDBRANCH  38  39
ENDBRANCH  30  33
ENDBRANCH  28  29
ENDBRANCH  27  28
ENDBRANCH   1  27
TORSDOF 17
ENDMDL
MODEL 3
REMARK VINA RESULT:     -12.3      0.833      7.433
REMARK SMILES COc1nc2c(cc1C(=O)NCc1ccc(C(=O)NCCCNC(=O)c3ccc(-c4c5nc(c(-c6cc(S(=O)(=O)[O-])ccc6F)c6ccc([nH]6)c(-c6cc(S(=O)(=O)[O-])ccc6F)c6nc(c(-c7cc(S(=O)(=O)[O-])ccc7F)c7ccc4[nH]7)C=C6)C=C5)cc3)s1)CCC2
REMARK SMILES IDX 20 1 19 2 17 3 18 4 16 6 13 7 14 8 89 9 15 10 12 11 11 12
REMARK SMILES IDX 9 13 10 14 8 16 3 17 4 18 5 19 7 20 6 21 92 22 90 23 91 24
REMARK SMILES IDX 2 25 1 26 21 27 22 28 23 29 24 30 25 32 26 33 27 34 88 35
REMARK SMILES IDX 28 36 87 37 29 38 30 39 31 40 81 41 32 42 86 43 80 44 82 45
REMARK SMILES IDX 33 46 85 47 79 48 78 49 34 51 66 52 46 53 65 54 47 55 50 56
REMARK SMILES IDX 64 57 83 58 48 59 49 60 63 62 84 63 51 64 35 65 36 66 44 67
REMARK SMILES IDX 37 68 43 69 45 70 42 71 38 72 39 73 40 74 41 75 67 76 68 77
REMARK SMILES IDX 76 78 69 79 75 80 77 81 74 82 70 83 71 84 72 85 73 86 52 87
REMARK SMILES IDX 53 88 61 89 54 90 60 91 62 92 59 93 55 94 56 95 57 96 58 97
REMARK H PARENT 19 5 11 15 23 31 82 50 50 61
REMARK Flexibility Score: inf
ROOT
ATOM      1  C   UNL A   1      31.638  30.990  26.380  1.00  0.00     0.118 C 
ENDROOT
BRANCH   1   2
ATOM      2  N   UNL A   1      32.761  30.379  27.060  1.00  0.00    -0.351 N 
ATOM      3  C   UNL A   1      33.375  29.162  26.904  1.00  0.00     0.261 C 
ATOM      4  O   UNL A   1      34.340  28.969  27.650  1.00  0.00    -0.268 OA
ATOM      5  H   UNL A   1      33.156  30.940  27.766  1.00  0.00     0.163 HD
BRANCH   3   6
ATOM      6  C   UNL A   1      32.941  28.212  25.886  1.00  0.00     0.092 A 
ATOM      7  C   UNL A   1      31.681  26.348  24.829  1.00  0.00     0.025 A 
ATOM      8  C   UNL A   1      32.735  26.768  24.050  1.00  0.00     0.018 A 
ATOM      9  S   UNL A   1      31.504  27.324  26.218  1.00  0.00    -0.133 S 
ATOM     10  C   UNL A   1      33.443  27.857  24.647  1.00  0.00     0.026 A 
BRANCH   7  11
ATOM     11  C   UNL A   1      30.812  25.156  24.654  1.00  0.00     0.163 C 
BRANCH  11  12
ATOM     12  N   UNL A   1      30.812  24.299  25.814  1.00  0.00    -0.347 N 
ATOM     13  C   UNL A   1      31.713  23.523  26.483  1.00  0.00     0.257 C 
ATOM     14  O   UNL A   1      31.386  23.257  27.648  1.00  0.00    -0.269 OA
ATOM     15  H   UNL A   1      29.924  24.266  26.238  1.00  0.00     0.164 HD
BRANCH  13  16
ATOM     16  C   UNL A   1      32.973  22.906  25.977  1.00  0.00     0.102 A 
ATOM     17  C   UNL A   1      33.177  21.682  25.331  1.00  0.00     0.226 A 
ATOM     18  N   UNL A   1      34.396  21.188  24.961  1.00  0.00    -0.218 NA
ATOM     19  C   UNL A   1      35.453  21.973  25.220  1.00  0.00     0.048 A 
ATOM     20  C   UNL A   1      34.122  23.711  26.149  1.00  0.00     0.025 A 
ATOM     21  C   UNL A   1      35.362  23.238  25.762  1.00  0.00    -0.025 A 
ATOM     22  C   UNL A   1      36.881  21.619  24.912  1.00  0.00     0.057 C 
ATOM     23  C   UNL A   1      36.687  23.918  25.793  1.00  0.00     0.038 C 
ATOM     24  C   UNL A   1      37.640  22.721  25.671  1.00  0.00     0.011 C 
BRANCH  17  25
ATOM     25  O   UNL A   1      32.160  20.854  24.964  1.00  0.00    -0.480 OA
ATOM     26  C   UNL A   1      32.618  19.503  24.943  1.00  0.00     0.280 C 
ENDBRANCH  17  25
ENDBRANCH  13  16
ENDBRANCH  11  12
ENDBRANCH   7  11
ENDBRANCH   3   6
ENDBRANCH   1   2
BRANCH   1  27
ATOM     27  C   UNL A   1      31.548  32.479  26.697  1.00  0.00     0.042 C 
BRANCH  27  28
ATOM     28  C   UNL A   1      32.850  33.041  27.265  1.00  0.00     0.118 C 
BRANCH  28  29
ATOM     29  N   UNL A   1      32.647  34.351  27.873  1.00  0.00    -0.352 N 
ATOM     30  C   UNL A   1      33.175  34.850  29.034  1.00  0.00     0.251 C 
ATOM     31  H   UNL A   1      32.048  34.959  27.382  1.00  0.00     0.163 HD
ATOM     32  O   UNL A   1      32.679  35.846  29.559  1.00  0.00    -0.269 OA
BRANCH  30  33
ATOM     33  C   UNL A   1      34.347  34.190  29.637  1.00  0.00     0.039 A 
ATOM     34  C   UNL A   1      35.620  34.441  29.122  1.00  0.00     0.014 A 
ATOM     35  C   UNL A   1      34.170  33.301  30.701  1.00  0.00     0.014 A 
ATOM     36  C   UNL A   1      36.727  33.824  29.704  1.00  0.00     0.010 A 
ATOM     37  C   UNL A   1      35.278  32.735  31.318  1.00  0.00     0.010 A 
ATOM     38  C   UNL A   1      36.562  32.975  30.811  1.00  0.00    -0.014 A 
BRANCH  38  39
ATOM     39  C   UNL A   1      37.716  32.277  31.421  1.00  0.00     0.031 A 
ATOM     40  C   UNL A   1      38.248  32.756  32.743  1.00  0.00     0.074 A 
ATOM     41  C   UNL A   1      38.305  31.256  30.771  1.00  0.00     0.049 A 
ATOM     42  N   UNL A   1      39.268  32.310  33.426  1.00  0.00    -0.248 NA
ATOM     43  C   UNL A   1      37.555  33.894  33.374  1.00  0.00     0.031 C 
ATOM     44  C   UNL A   1      37.883  30.730  29.471  1.00  0.00     0.029 A 
ATOM     45  N   UNL A   1      39.387  30.483  31.108  1.00  0.00    -0.354 N 
ATOM     46  C   UNL A   1      39.341  33.111  34.558  1.00  0.00     0.074 A 
ATOM     47  C   UNL A   1      38.298  34.103  34.452  1.00  0.00     0.031 C 
ATOM     48  C   UNL A   1      38.684  29.706  29.132  1.00  0.00     0.029 A 
ATOM     49  C   UNL A   1      39.697  29.525  30.171  1.00  0.00     0.049 A 
ATOM     50  H   UNL A   1      39.895  30.602  31.943  1.00  0.00     0.167 HD
ATOM     51  C   UNL A   1      40.190  33.006  35.604  1.00  0.00     0.034 A 
ATOM     52  C   UNL A   1      40.686  28.607  30.153  1.00  0.00     0.034 A 
ATOM     53  C   UNL A   1      41.201  31.990  35.715  1.00  0.00     0.049 A 
ATOM     54  C   UNL A   1      41.630  28.531  31.328  1.00  0.00     0.074 A 
ATOM     55  C   UNL A   1      42.068  31.766  36.769  1.00  0.00     0.029 A 
ATOM     56  N   UNL A   1      41.479  31.034  34.753  1.00  0.00    -0.354 N 
ATOM     57  N   UNL A   1      41.626  29.235  32.435  1.00  0.00    -0.248 NA
ATOM     58  C   UNL A   1      42.707  27.533  31.259  1.00  0.00     0.031 C 
ATOM     59  C   UNL A   1      42.907  30.711  36.422  1.00  0.00     0.029 A 
ATOM     60  C   UNL A   1      42.523  30.232  35.179  1.00  0.00     0.049 A 
ATOM     61  H   UNL A   1      41.005  30.938  33.896  1.00  0.00     0.167 HD
ATOM     62  C   UNL A   1      42.671  28.737  33.209  1.00  0.00     0.074 A 
ATOM     63  C   UNL A   1      43.276  27.664  32.450  1.00  0.00     0.031 C 
ATOM     64  C   UNL A   1      43.090  29.136  34.434  1.00  0.00     0.034 A 
BRANCH  51  65
ATOM     65  C   UNL A   1      40.061  33.971  36.750  1.00  0.00     0.023 A 
ATOM     66  C   UNL A   1      41.046  34.956  36.947  1.00  0.00     0.031 A 
ATOM     67  C   UNL A   1      39.083  33.791  37.742  1.00  0.00     0.131 A 
ATOM     68  C   UNL A   1      41.067  35.684  38.140  1.00  0.00     0.055 A 
ATOM     69  C   UNL A   1      39.084  34.548  38.913  1.00  0.00     0.041 A 
ATOM     70  F   UNL A   1      38.121  32.866  37.592  1.00  0.00    -0.206 F 
ATOM     71  C   UNL A   1      40.090  35.488  39.124  1.00  0.00     0.022 A 
BRANCH  68  72
ATOM     72  S   UNL A   1      42.397  36.866  38.485  1.00  0.00     0.124 S 
ATOM     73  O   UNL A   1      41.683  37.934  39.181  1.00  0.00    -0.237 OA
ATOM     74  O   UNL A   1      43.298  36.073  39.316  1.00  0.00    -0.237 OA
ATOM     75  O   UNL A   1      42.900  37.221  37.162  1.00  0.00    -0.744 OA
ENDBRANCH  68  72
ENDBRANCH  51  65
BRANCH  52  76
ATOM     76  C   UNL A   1      40.786  27.645  29.017  1.00  0.00     0.023 A 
ATOM     77  C   UNL A   1      41.712  27.834  27.976  1.00  0.00     0.031 A 
ATOM     78  C   UNL A   1      39.915  26.545  28.937  1.00  0.00     0.131 A 
ATOM     79  C   UNL A   1      41.719  26.957  26.884  1.00  0.00     0.055 A 
ATOM     80  C   UNL A   1      39.965  25.640  27.876  1.00  0.00     0.041 A 
ATOM     81  F   UNL A   1      39.007  26.330  29.902  1.00  0.00    -0.206 F 
ATOM     82  C   UNL A   1      40.865  25.850  26.837  1.00  0.00     0.022 A 
BRANCH  79  83
ATOM     83  S   UNL A   1      42.780  27.267  25.445  1.00  0.00     0.124 S 
ATOM     84  O   UNL A   1      42.140  28.429  24.837  1.00  0.00    -0.237 OA
ATOM     85  O   UNL A   1      44.072  27.519  26.078  1.00  0.00    -0.237 OA
ATOM     86  O   UNL A   1      42.694  26.029  24.680  1.00  0.00    -0.744 OA
ENDBRANCH  79  83
ENDBRANCH  52  76
BRANCH  64  87
ATOM     87  C   UNL A   1      44.239  28.410  35.085  1.00  0.00     0.023 A 
ATOM     88  C   UNL A   1      43.983  27.465  36.098  1.00  0.00     0.031 A 
ATOM     89  C   UNL A   1      45.572  28.780  34.838  1.00  0.00     0.131 A 
ATOM     90  C   UNL A   1      45.039  26.962  36.863  1.00  0.00     0.055 A 
ATOM     91  C   UNL A   1      46.626  28.238  35.571  1.00  0.00     0.041 A 
ATOM     92  F   UNL A   1      45.863  29.686  33.891  1.00  0.00    -0.206 F 
ATOM     93  C   UNL A   1      46.362  27.336  36.600  1.00  0.00     0.022 A 
BRANCH  90  94
ATOM     94  S   UNL A   1      44.732  25.867  38.276  1.00  0.00     0.124 S 
ATOM     95  O   UNL A   1      45.941  26.055  39.075  1.00  0.00    -0.237 OA
ATOM     96  O   UNL A   1      43.514  26.436  38.844  1.00  0.00    -0.237 OA
ATOM     97  O   UNL A   1      44.588  24.546  37.673  1.00  0.00    -0.744 OA
ENDBRANCH  90  94
ENDBRANCH  64  87
ENDBRANCH  38  39
ENDBRANCH  30  33
ENDBRANCH  28  29
ENDBRANCH  27  28
ENDBRANCH   1  27
TORSDOF 17
ENDMDL
