MODEL 1
REMARK VINA RESULT:     -13.0      0.000      0.000
REMARK SMILES C[C@@H](C(=O)NCCCNC(=O)c1ccc(-c2c3nc(c(-c4cc(S(=O)(=O)[O-])ccc4F)c4ccc([nH]4)c(-c4cc(S(=O)(=O)[O-])ccc4F)c4nc(c(-c5cc(S(=O)(=O)[O-])ccc5F)c5ccc2[nH]5)C=C4)C=C3)cc1)c1cccc(C(=O)c2ccccc2)c1
REMARK SMILES IDX 7 1 6 2 5 3 3 4 4 5 2 7 1 8 75 9 76 10 88 11 77 12 79 13
REMARK SMILES IDX 78 14 80 15 81 16 82 17 83 18 87 19 84 20 86 21 85 22 8 23
REMARK SMILES IDX 9 24 10 25 11 27 12 28 13 29 74 30 14 31 73 32 15 33 16 34
REMARK SMILES IDX 17 35 67 36 18 37 72 38 66 39 68 40 19 41 71 42 65 43 64 44
REMARK SMILES IDX 20 46 52 47 32 48 51 49 33 50 36 51 50 52 69 53 34 54 35 55
REMARK SMILES IDX 49 57 70 58 37 59 21 60 22 61 30 62 23 63 29 64 31 65 28 66
REMARK SMILES IDX 24 67 25 68 26 69 27 70 53 71 54 72 62 73 55 74 61 75 63 76
REMARK SMILES IDX 60 77 56 78 57 79 58 80 59 81 38 82 39 83 47 84 40 85 46 86
REMARK SMILES IDX 48 87 45 88 41 89 42 90 43 91 44 92
REMARK H PARENT 5 6 9 26 68 45 36 56
REMARK Flexibility Score: inf
ROOT
ATOM      1  C   UNL A   1      31.735  28.069  26.493  1.00  0.00     0.042 C 
ENDROOT
BRANCH   1   2
ATOM      2  C   UNL A   1      32.201  26.619  26.415  1.00  0.00     0.117 C 
BRANCH   2   3
ATOM      3  N   UNL A   1      31.186  25.693  26.882  1.00  0.00    -0.356 N 
ATOM      4  C   UNL A   1      30.407  24.799  26.206  1.00  0.00     0.227 C 
ATOM      5  O   UNL A   1      29.591  24.173  26.885  1.00  0.00    -0.274 OA
ATOM      6  H   UNL A   1      31.032  25.714  27.854  1.00  0.00     0.163 HD
BRANCH   4   7
ATOM      7  C   UNL A   1      30.593  24.599  24.692  1.00  0.00     0.105 C 
ATOM      8  C   UNL A   1      31.871  23.827  24.365  1.00  0.00     0.023 C 
BRANCH   7   9
ATOM      9  C   UNL A   1      30.574  25.898  23.885  1.00  0.00    -0.035 A 
ATOM     10  C   UNL A   1      31.666  26.306  23.105  1.00  0.00     0.004 A 
ATOM     11  C   UNL A   1      29.407  26.683  23.865  1.00  0.00     0.016 A 
ATOM     12  C   UNL A   1      31.620  27.491  22.371  1.00  0.00     0.001 A 
ATOM     13  C   UNL A   1      29.354  27.880  23.136  1.00  0.00     0.023 A 
ATOM     14  C   UNL A   1      30.470  28.278  22.390  1.00  0.00     0.012 A 
BRANCH  13  15
ATOM     15  C   UNL A   1      28.128  28.730  23.072  1.00  0.00     0.193 C 
ATOM     16  O   UNL A   1      27.042  28.285  23.439  1.00  0.00    -0.289 OA
BRANCH  15  17
ATOM     17  C   UNL A   1      28.181  30.138  22.625  1.00  0.00     0.022 A 
ATOM     18  C   UNL A   1      28.039  30.403  21.260  1.00  0.00     0.012 A 
ATOM     19  C   UNL A   1      28.387  31.185  23.530  1.00  0.00     0.012 A 
ATOM     20  C   UNL A   1      28.055  31.720  20.802  1.00  0.00     0.001 A 
ATOM     21  C   UNL A   1      28.397  32.503  23.068  1.00  0.00     0.001 A 
ATOM     22  C   UNL A   1      28.225  32.768  21.708  1.00  0.00     0.000 A 
ENDBRANCH  15  17
ENDBRANCH  13  15
ENDBRANCH   7   9
ENDBRANCH   4   7
ENDBRANCH   2   3
ENDBRANCH   1   2
BRANCH   1  23
ATOM     23  C   UNL A   1      32.741  29.086  25.964  1.00  0.00     0.118 C 
BRANCH  23  24
ATOM     24  N   UNL A   1      32.330  30.463  26.197  1.00  0.00    -0.352 N 
ATOM     25  C   UNL A   1      32.926  31.429  26.976  1.00  0.00     0.251 C 
ATOM     26  H   UNL A   1      31.510  30.744  25.730  1.00  0.00     0.163 HD
ATOM     27  O   UNL A   1      32.339  32.486  27.186  1.00  0.00    -0.269 OA
BRANCH  25  28
ATOM     28  C   UNL A   1      34.252  31.173  27.580  1.00  0.00     0.039 A 
ATOM     29  C   UNL A   1      35.090  32.254  27.868  1.00  0.00     0.014 A 
ATOM     30  C   UNL A   1      34.659  29.869  27.877  1.00  0.00     0.014 A 
ATOM     31  C   UNL A   1      36.304  32.035  28.526  1.00  0.00     0.010 A 
ATOM     32  C   UNL A   1      35.833  29.662  28.594  1.00  0.00     0.010 A 
ATOM     33  C   UNL A   1      36.666  30.741  28.931  1.00  0.00    -0.014 A 
BRANCH  33  34
ATOM     34  C   UNL A   1      37.910  30.470  29.698  1.00  0.00     0.031 A 
ATOM     35  C   UNL A   1      38.924  29.506  29.148  1.00  0.00     0.074 A 
ATOM     36  C   UNL A   1      38.066  30.984  30.933  1.00  0.00     0.049 A 
ATOM     37  N   UNL A   1      39.959  28.963  29.733  1.00  0.00    -0.248 NA
ATOM     38  C   UNL A   1      38.709  29.065  27.762  1.00  0.00     0.031 C 
ATOM     39  C   UNL A   1      37.137  31.904  31.591  1.00  0.00     0.029 A 
ATOM     40  N   UNL A   1      39.048  30.775  31.871  1.00  0.00    -0.354 N 
ATOM     41  C   UNL A   1      40.503  28.089  28.797  1.00  0.00     0.074 A 
ATOM     42  C   UNL A   1      39.645  28.139  27.632  1.00  0.00     0.031 C 
ATOM     43  C   UNL A   1      37.585  32.169  32.829  1.00  0.00     0.029 A 
ATOM     44  C   UNL A   1      38.803  31.401  33.071  1.00  0.00     0.049 A 
ATOM     45  H   UNL A   1      39.849  30.230  31.701  1.00  0.00     0.167 HD
ATOM     46  C   UNL A   1      41.623  27.327  28.898  1.00  0.00     0.034 A 
ATOM     47  C   UNL A   1      39.460  31.336  34.246  1.00  0.00     0.034 A 
ATOM     48  C   UNL A   1      42.470  27.303  30.066  1.00  0.00     0.049 A 
ATOM     49  C   UNL A   1      40.693  30.477  34.350  1.00  0.00     0.074 A 
ATOM     50  C   UNL A   1      43.659  26.621  30.258  1.00  0.00     0.029 A 
ATOM     51  N   UNL A   1      42.211  27.987  31.249  1.00  0.00    -0.354 N 
ATOM     52  N   UNL A   1      41.221  29.684  33.447  1.00  0.00    -0.248 NA
ATOM     53  C   UNL A   1      41.422  30.510  35.624  1.00  0.00     0.031 C 
ATOM     54  C   UNL A   1      44.084  26.842  31.572  1.00  0.00     0.029 A 
ATOM     55  C   UNL A   1      43.201  27.719  32.181  1.00  0.00     0.049 A 
ATOM     56  H   UNL A   1      41.437  28.575  31.402  1.00  0.00     0.167 HD
ATOM     57  C   UNL A   1      42.362  29.145  34.036  1.00  0.00     0.074 A 
ATOM     58  C   UNL A   1      42.443  29.702  35.371  1.00  0.00     0.031 C 
ATOM     59  C   UNL A   1      43.266  28.277  33.512  1.00  0.00     0.034 A 
BRANCH  46  60
ATOM     60  C   UNL A   1      41.957  26.438  27.723  1.00  0.00     0.023 A 
ATOM     61  C   UNL A   1      41.547  25.092  27.677  1.00  0.00     0.031 A 
ATOM     62  C   UNL A   1      42.753  26.916  26.667  1.00  0.00     0.131 A 
ATOM     63  C   UNL A   1      42.028  24.247  26.666  1.00  0.00     0.055 A 
ATOM     64  C   UNL A   1      43.146  26.092  25.609  1.00  0.00     0.041 A 
ATOM     65  F   UNL A   1      43.189  28.185  26.660  1.00  0.00    -0.206 F 
ATOM     66  C   UNL A   1      42.804  24.743  25.618  1.00  0.00     0.022 A 
BRANCH  63  67
ATOM     67  S   UNL A   1      41.788  22.459  26.855  1.00  0.00     0.124 S 
ATOM     68  O   UNL A   1      42.906  22.102  27.726  1.00  0.00    -0.237 OA
ATOM     69  O   UNL A   1      40.461  22.381  27.455  1.00  0.00    -0.237 OA
ATOM     70  O   UNL A   1      41.888  21.953  25.488  1.00  0.00    -0.744 OA
ENDBRANCH  63  67
ENDBRANCH  46  60
BRANCH  47  71
ATOM     71  C   UNL A   1      38.941  32.081  35.425  1.00  0.00     0.023 A 
ATOM     72  C   UNL A   1      38.321  31.413  36.492  1.00  0.00     0.031 A 
ATOM     73  C   UNL A   1      39.072  33.479  35.505  1.00  0.00     0.131 A 
ATOM     74  C   UNL A   1      37.832  32.147  37.585  1.00  0.00     0.055 A 
ATOM     75  C   UNL A   1      38.618  34.200  36.610  1.00  0.00     0.041 A 
ATOM     76  F   UNL A   1      39.670  34.161  34.515  1.00  0.00    -0.206 F 
ATOM     77  C   UNL A   1      37.988  33.534  37.656  1.00  0.00     0.022 A 
BRANCH  74  78
ATOM     78  S   UNL A   1      36.956  31.265  38.904  1.00  0.00     0.124 S 
ATOM     79  O   UNL A   1      35.737  32.057  39.032  1.00  0.00    -0.237 OA
ATOM     80  O   UNL A   1      36.800  29.934  38.328  1.00  0.00    -0.237 OA
ATOM     81  O   UNL A   1      37.875  31.347  40.038  1.00  0.00    -0.744 OA
ENDBRANCH  74  78
ENDBRANCH  47  71
BRANCH  59  82
ATOM     82  C   UNL A   1      44.456  27.921  34.366  1.00  0.00     0.023 A 
ATOM     83  C   UNL A   1      44.462  26.793  35.203  1.00  0.00     0.031 A 
ATOM     84  C   UNL A   1      45.614  28.716  34.314  1.00  0.00     0.131 A 
ATOM     85  C   UNL A   1      45.597  26.506  35.978  1.00  0.00     0.055 A 
ATOM     86  C   UNL A   1      46.755  28.402  35.051  1.00  0.00     0.041 A 
ATOM     87  F   UNL A   1      45.659  29.807  33.532  1.00  0.00    -0.206 F 
ATOM     88  C   UNL A   1      46.749  27.294  35.894  1.00  0.00     0.022 A 
BRANCH  85  89
ATOM     89  S   UNL A   1      45.537  25.111  37.135  1.00  0.00     0.124 S 
ATOM     90  O   UNL A   1      45.321  25.785  38.412  1.00  0.00    -0.237 OA
ATOM     91  O   UNL A   1      44.415  24.329  36.629  1.00  0.00    -0.237 OA
ATOM     92  O   UNL A   1      46.848  24.481  36.981  1.00  0.00    -0.744 OA
ENDBRANCH  85  89
ENDBRANCH  59  82
ENDBRANCH  33  34
ENDBRANCH  25  28
ENDBRANCH  23  24
ENDBRANCH   1  23
TORSDOF 16
ENDMDL
MODEL 2
REMARK VINA RESULT:     -12.8      2.115      2.850
REMARK SMILES C[C@@H](C(=O)NCCCNC(=O)c1ccc(-c2c3nc(c(-c4cc(S(=O)(=O)[O-])ccc4F)c4ccc([nH]4)c(-c4cc(S(=O)(=O)[O-])ccc4F)c4nc(c(-c5cc(S(=O)(=O)[O-])ccc5F)c5ccc2[nH]5)C=C4)C=C3)cc1)c1cccc(C(=O)c2ccccc2)c1
REMARK SMILES IDX 7 1 6 2 5 3 3 4 4 5 2 7 1 8 75 9 76 10 88 11 77 12 79 13
REMARK SMILES IDX 78 14 80 15 81 16 82 17 83 18 87 19 84 20 86 21 85 22 8 23
REMARK SMILES IDX 9 24 10 25 11 27 12 28 13 29 74 30 14 31 73 32 15 33 16 34
REMARK SMILES IDX 17 35 67 36 18 37 72 38 66 39 68 40 19 41 71 42 65 43 64 44
REMARK SMILES IDX 20 46 52 47 32 48 51 49 33 50 36 51 50 52 69 53 34 54 35 55
REMARK SMILES IDX 49 57 70 58 37 59 21 60 22 61 30 62 23 63 29 64 31 65 28 66
REMARK SMILES IDX 24 67 25 68 26 69 27 70 53 71 54 72 62 73 55 74 61 75 63 76
REMARK SMILES IDX 60 77 56 78 57 79 58 80 59 81 38 82 39 83 47 84 40 85 46 86
REMARK SMILES IDX 48 87 45 88 41 89 42 90 43 91 44 92
REMARK H PARENT 5 6 9 26 68 45 36 56
REMARK Flexibility Score: inf
ROOT
ATOM      1  C   UNL A   1      32.058  30.890  26.913  1.00  0.00     0.042 C 
ENDROOT
BRANCH   1   2
ATOM      2  C   UNL A   1      32.253  30.104  25.621  1.00  0.00     0.117 C 
BRANCH   2   3
ATOM      3  N   UNL A   1      33.078  28.926  25.817  1.00  0.00    -0.356 N 
ATOM      4  C   UNL A   1      33.259  27.818  25.042  1.00  0.00     0.227 C 
ATOM      5  O   UNL A   1      34.003  26.951  25.504  1.00  0.00    -0.274 OA
ATOM      6  H   UNL A   1      33.595  28.925  26.655  1.00  0.00     0.163 HD
BRANCH   4   7
ATOM      7  C   UNL A   1      32.578  27.716  23.665  1.00  0.00     0.105 C 
ATOM      8  C   UNL A   1      32.691  29.015  22.868  1.00  0.00     0.023 C 
BRANCH   7   9
ATOM      9  C   UNL A   1      31.110  27.293  23.726  1.00  0.00    -0.035 A 
ATOM     10  C   UNL A   1      30.721  26.010  24.139  1.00  0.00     0.004 A 
ATOM     11  C   UNL A   1      30.107  28.230  23.421  1.00  0.00     0.016 A 
ATOM     12  C   UNL A   1      29.375  25.652  24.193  1.00  0.00     0.001 A 
ATOM     13  C   UNL A   1      28.749  27.877  23.466  1.00  0.00     0.023 A 
ATOM     14  C   UNL A   1      28.392  26.580  23.853  1.00  0.00     0.012 A 
BRANCH  13  15
ATOM     15  C   UNL A   1      27.655  28.849  23.172  1.00  0.00     0.193 C 
ATOM     16  O   UNL A   1      26.481  28.542  23.369  1.00  0.00    -0.289 OA
BRANCH  15  17
ATOM     17  C   UNL A   1      27.940  30.218  22.692  1.00  0.00     0.022 A 
ATOM     18  C   UNL A   1      28.006  30.433  21.312  1.00  0.00     0.012 A 
ATOM     19  C   UNL A   1      28.158  31.274  23.583  1.00  0.00     0.012 A 
ATOM     20  C   UNL A   1      28.244  31.716  20.820  1.00  0.00     0.001 A 
ATOM     21  C   UNL A   1      28.391  32.558  23.086  1.00  0.00     0.001 A 
ATOM     22  C   UNL A   1      28.427  32.778  21.707  1.00  0.00     0.000 A 
ENDBRANCH  15  17
ENDBRANCH  13  15
ENDBRANCH   7   9
ENDBRANCH   4   7
ENDBRANCH   2   3
ENDBRANCH   1   2
BRANCH   1  23
ATOM     23  C   UNL A   1      33.234  31.784  27.293  1.00  0.00     0.118 C 
BRANCH  23  24
ATOM     24  N   UNL A   1      32.839  33.162  27.548  1.00  0.00    -0.352 N 
ATOM     25  C   UNL A   1      33.316  34.043  28.492  1.00  0.00     0.251 C 
ATOM     26  H   UNL A   1      32.131  33.514  26.962  1.00  0.00     0.163 HD
ATOM     27  O   UNL A   1      32.741  35.112  28.669  1.00  0.00    -0.269 OA
BRANCH  25  28
ATOM     28  C   UNL A   1      34.496  33.681  29.308  1.00  0.00     0.039 A 
ATOM     29  C   UNL A   1      34.340  32.796  30.378  1.00  0.00     0.014 A 
ATOM     30  C   UNL A   1      35.757  34.204  29.006  1.00  0.00     0.014 A 
ATOM     31  C   UNL A   1      35.462  32.371  31.097  1.00  0.00     0.010 A 
ATOM     32  C   UNL A   1      36.878  33.726  29.677  1.00  0.00     0.010 A 
ATOM     33  C   UNL A   1      36.745  32.801  30.725  1.00  0.00    -0.014 A 
BRANCH  33  34
ATOM     34  C   UNL A   1      37.972  32.319  31.412  1.00  0.00     0.031 A 
ATOM     35  C   UNL A   1      38.784  31.218  30.789  1.00  0.00     0.074 A 
ATOM     36  C   UNL A   1      38.281  32.775  32.640  1.00  0.00     0.049 A 
ATOM     37  N   UNL A   1      39.751  30.505  31.303  1.00  0.00    -0.248 NA
ATOM     38  C   UNL A   1      38.421  30.847  29.414  1.00  0.00     0.031 C 
ATOM     39  C   UNL A   1      37.551  33.817  33.365  1.00  0.00     0.029 A 
ATOM     40  N   UNL A   1      39.269  32.393  33.514  1.00  0.00    -0.354 N 
ATOM     41  C   UNL A   1      40.093  29.575  30.326  1.00  0.00     0.074 A 
ATOM     42  C   UNL A   1      39.187  29.787  29.215  1.00  0.00     0.031 C 
ATOM     43  C   UNL A   1      38.107  33.981  34.576  1.00  0.00     0.029 A 
ATOM     44  C   UNL A   1      39.198  33.023  34.735  1.00  0.00     0.049 A 
ATOM     45  H   UNL A   1      39.961  31.730  33.289  1.00  0.00     0.167 HD
ATOM     46  C   UNL A   1      41.080  28.643  30.348  1.00  0.00     0.034 A 
ATOM     47  C   UNL A   1      39.904  32.829  35.866  1.00  0.00     0.034 A 
ATOM     48  C   UNL A   1      41.978  28.459  31.462  1.00  0.00     0.049 A 
ATOM     49  C   UNL A   1      40.987  31.783  35.884  1.00  0.00     0.074 A 
ATOM     50  C   UNL A   1      43.051  27.592  31.573  1.00  0.00     0.029 A 
ATOM     51  N   UNL A   1      41.902  29.149  32.667  1.00  0.00    -0.354 N 
ATOM     52  N   UNL A   1      41.328  30.935  34.941  1.00  0.00    -0.248 NA
ATOM     53  C   UNL A   1      41.785  31.671  37.111  1.00  0.00     0.031 C 
ATOM     54  C   UNL A   1      43.583  27.714  32.862  1.00  0.00     0.029 A 
ATOM     55  C   UNL A   1      42.889  28.707  33.533  1.00  0.00     0.049 A 
ATOM     56  H   UNL A   1      41.242  29.850  32.874  1.00  0.00     0.167 HD
ATOM     57  C   UNL A   1      42.399  30.208  35.453  1.00  0.00     0.074 A 
ATOM     58  C   UNL A   1      42.646  30.717  36.787  1.00  0.00     0.031 C 
ATOM     59  C   UNL A   1      43.120  29.219  34.865  1.00  0.00     0.034 A 
BRANCH  46  60
ATOM     60  C   UNL A   1      41.197  27.737  29.145  1.00  0.00     0.023 A 
ATOM     61  C   UNL A   1      42.213  27.911  28.188  1.00  0.00     0.031 A 
ATOM     62  C   UNL A   1      40.242  26.731  28.910  1.00  0.00     0.131 A 
ATOM     63  C   UNL A   1      42.185  27.176  26.993  1.00  0.00     0.055 A 
ATOM     64  C   UNL A   1      40.277  25.935  27.764  1.00  0.00     0.041 A 
ATOM     65  F   UNL A   1      39.238  26.526  29.777  1.00  0.00    -0.206 F 
ATOM     66  C   UNL A   1      41.239  26.171  26.785  1.00  0.00     0.022 A 
BRANCH  63  67
ATOM     67  S   UNL A   1      43.278  27.693  25.640  1.00  0.00     0.124 S 
ATOM     68  O   UNL A   1      44.104  26.501  25.457  1.00  0.00    -0.237 OA
ATOM     69  O   UNL A   1      42.334  27.987  24.569  1.00  0.00    -0.237 OA
ATOM     70  O   UNL A   1      43.981  28.849  26.191  1.00  0.00    -0.744 OA
ENDBRANCH  63  67
ENDBRANCH  46  60
BRANCH  47  71
ATOM     71  C   UNL A   1      39.581  33.622  37.084  1.00  0.00     0.023 A 
ATOM     72  C   UNL A   1      38.893  33.048  38.164  1.00  0.00     0.031 A 
ATOM     73  C   UNL A   1      39.970  34.969  37.186  1.00  0.00     0.131 A 
ATOM     74  C   UNL A   1      38.595  33.827  39.293  1.00  0.00     0.055 A 
ATOM     75  C   UNL A   1      39.704  35.729  38.327  1.00  0.00     0.041 A 
ATOM     76  F   UNL A   1      40.642  35.559  36.184  1.00  0.00    -0.206 F 
ATOM     77  C   UNL A   1      39.006  35.159  39.386  1.00  0.00     0.022 A 
BRANCH  74  78
ATOM     78  S   UNL A   1      37.627  33.083  40.633  1.00  0.00     0.124 S 
ATOM     79  O   UNL A   1      36.796  32.130  39.905  1.00  0.00    -0.237 OA
ATOM     80  O   UNL A   1      38.669  32.511  41.479  1.00  0.00    -0.237 OA
ATOM     81  O   UNL A   1      36.913  34.220  41.211  1.00  0.00    -0.744 OA
ENDBRANCH  74  78
ENDBRANCH  47  71
BRANCH  59  82
ATOM     82  C   UNL A   1      44.286  28.660  35.641  1.00  0.00     0.023 A 
ATOM     83  C   UNL A   1      44.132  27.612  36.563  1.00  0.00     0.031 A 
ATOM     84  C   UNL A   1      45.577  29.172  35.424  1.00  0.00     0.131 A 
ATOM     85  C   UNL A   1      45.251  27.128  37.260  1.00  0.00     0.055 A 
ATOM     86  C   UNL A   1      46.692  28.656  36.084  1.00  0.00     0.041 A 
ATOM     87  F   UNL A   1      45.777  30.174  34.554  1.00  0.00    -0.206 F 
ATOM     88  C   UNL A   1      46.531  27.632  37.013  1.00  0.00     0.022 A 
BRANCH  85  89
ATOM     89  S   UNL A   1      45.009  25.855  38.529  1.00  0.00     0.124 S 
ATOM     90  O   UNL A   1      44.256  26.581  39.547  1.00  0.00    -0.237 OA
ATOM     91  O   UNL A   1      44.273  24.824  37.805  1.00  0.00    -0.237 OA
ATOM     92  O   UNL A   1      46.372  25.488  38.910  1.00  0.00    -0.744 OA
ENDBRANCH  85  89
ENDBRANCH  59  82
ENDBRANCH  33  34
ENDBRANCH  25  28
ENDBRANCH  23  24
ENDBRANCH   1  23
TORSDOF 16
ENDMDL
MODEL 3
REMARK VINA RESULT:     -12.8      1.745      3.668
REMARK SMILES C[C@@H](C(=O)NCCCNC(=O)c1ccc(-c2c3nc(c(-c4cc(S(=O)(=O)[O-])ccc4F)c4ccc([nH]4)c(-c4cc(S(=O)(=O)[O-])ccc4F)c4nc(c(-c5cc(S(=O)(=O)[O-])ccc5F)c5ccc2[nH]5)C=C4)C=C3)cc1)c1cccc(C(=O)c2ccccc2)c1
REMARK SMILES IDX 7 1 6 2 5 3 3 4 4 5 2 7 1 8 75 9 76 10 88 11 77 12 79 13
REMARK SMILES IDX 78 14 80 15 81 16 82 17 83 18 87 19 84 20 86 21 85 22 8 23
REMARK SMILES IDX 9 24 10 25 11 27 12 28 13 29 74 30 14 31 73 32 15 33 16 34
REMARK SMILES IDX 17 35 67 36 18 37 72 38 66 39 68 40 19 41 71 42 65 43 64 44
REMARK SMILES IDX 20 46 52 47 32 48 51 49 33 50 36 51 50 52 69 53 34 54 35 55
REMARK SMILES IDX 49 57 70 58 37 59 21 60 22 61 30 62 23 63 29 64 31 65 28 66
REMARK SMILES IDX 24 67 25 68 26 69 27 70 53 71 54 72 62 73 55 74 61 75 63 76
REMARK SMILES IDX 60 77 56 78 57 79 58 80 59 81 38 82 39 83 47 84 40 85 46 86
REMARK SMILES IDX 48 87 45 88 41 89 42 90 43 91 44 92
REMARK H PARENT 5 6 9 26 68 45 36 56
REMARK Flexibility Score: inf
ROOT
ATOM      1  C   UNL A   1      32.238  30.034  25.424  1.00  0.00     0.042 C 
ENDROOT
BRANCH   1   2
ATOM      2  C   UNL A   1      32.771  28.610  25.300  1.00  0.00     0.117 C 
BRANCH   2   3
ATOM      3  N   UNL A   1      31.948  27.654  26.018  1.00  0.00    -0.356 N 
ATOM      4  C   UNL A   1      30.877  26.910  25.616  1.00  0.00     0.227 C 
ATOM      5  O   UNL A   1      30.350  26.209  26.481  1.00  0.00    -0.274 OA
ATOM      6  H   UNL A   1      32.206  27.520  26.959  1.00  0.00     0.163 HD
BRANCH   4   7
ATOM      7  C   UNL A   1      30.410  26.956  24.150  1.00  0.00     0.105 C 
ATOM      8  C   UNL A   1      28.952  26.526  23.995  1.00  0.00     0.023 C 
BRANCH   7   9
ATOM      9  C   UNL A   1      31.277  26.137  23.193  1.00  0.00    -0.035 A 
ATOM     10  C   UNL A   1      31.752  26.664  21.982  1.00  0.00     0.004 A 
ATOM     11  C   UNL A   1      31.670  24.836  23.557  1.00  0.00     0.016 A 
ATOM     12  C   UNL A   1      32.548  25.898  21.132  1.00  0.00     0.001 A 
ATOM     13  C   UNL A   1      32.465  24.056  22.704  1.00  0.00     0.023 A 
ATOM     14  C   UNL A   1      32.899  24.597  21.488  1.00  0.00     0.012 A 
BRANCH  13  15
ATOM     15  C   UNL A   1      32.920  22.680  23.063  1.00  0.00     0.193 C 
ATOM     16  O   UNL A   1      32.213  21.706  22.815  1.00  0.00    -0.289 OA
BRANCH  15  17
ATOM     17  C   UNL A   1      34.245  22.435  23.671  1.00  0.00     0.022 A 
ATOM     18  C   UNL A   1      34.383  21.346  24.537  1.00  0.00     0.012 A 
ATOM     19  C   UNL A   1      35.336  23.272  23.410  1.00  0.00     0.012 A 
ATOM     20  C   UNL A   1      35.624  21.065  25.107  1.00  0.00     0.001 A 
ATOM     21  C   UNL A   1      36.577  22.984  23.979  1.00  0.00     0.001 A 
ATOM     22  C   UNL A   1      36.721  21.879  24.821  1.00  0.00     0.000 A 
ENDBRANCH  15  17
ENDBRANCH  13  15
ENDBRANCH   7   9
ENDBRANCH   4   7
ENDBRANCH   2   3
ENDBRANCH   1   2
BRANCH   1  23
ATOM     23  C   UNL A   1      32.175  30.563  26.853  1.00  0.00     0.118 C 
BRANCH  23  24
ATOM     24  N   UNL A   1      32.097  32.016  26.915  1.00  0.00    -0.352 N 
ATOM     25  C   UNL A   1      32.955  32.907  27.517  1.00  0.00     0.251 C 
ATOM     26  H   UNL A   1      31.322  32.418  26.461  1.00  0.00     0.163 HD
ATOM     27  O   UNL A   1      32.635  34.088  27.612  1.00  0.00    -0.269 OA
BRANCH  25  28
ATOM     28  C   UNL A   1      34.240  32.431  28.075  1.00  0.00     0.039 A 
ATOM     29  C   UNL A   1      35.329  33.307  28.126  1.00  0.00     0.014 A 
ATOM     30  C   UNL A   1      34.365  31.127  28.562  1.00  0.00     0.014 A 
ATOM     31  C   UNL A   1      36.519  32.901  28.738  1.00  0.00     0.010 A 
ATOM     32  C   UNL A   1      35.525  30.750  29.232  1.00  0.00     0.010 A 
ATOM     33  C   UNL A   1      36.611  31.633  29.332  1.00  0.00    -0.014 A 
BRANCH  33  34
ATOM     34  C   UNL A   1      37.830  31.187  30.058  1.00  0.00     0.031 A 
ATOM     35  C   UNL A   1      38.755  30.196  29.410  1.00  0.00     0.074 A 
ATOM     36  C   UNL A   1      38.033  31.569  31.333  1.00  0.00     0.049 A 
ATOM     37  N   UNL A   1      39.742  29.514  29.931  1.00  0.00    -0.248 NA
ATOM     38  C   UNL A   1      38.500  29.906  27.991  1.00  0.00     0.031 C 
ATOM     39  C   UNL A   1      37.188  32.499  32.084  1.00  0.00     0.029 A 
ATOM     40  N   UNL A   1      38.995  31.190  32.237  1.00  0.00    -0.354 N 
ATOM     41  C   UNL A   1      40.207  28.687  28.913  1.00  0.00     0.074 A 
ATOM     42  C   UNL A   1      39.353  28.920  27.766  1.00  0.00     0.031 C 
ATOM     43  C   UNL A   1      37.660  32.608  33.336  1.00  0.00     0.029 A 
ATOM     44  C   UNL A   1      38.808  31.719  33.493  1.00  0.00     0.049 A 
ATOM     45  H   UNL A   1      39.746  30.596  32.009  1.00  0.00     0.167 HD
ATOM     46  C   UNL A   1      41.257  27.827  28.930  1.00  0.00     0.034 A 
ATOM     47  C   UNL A   1      39.460  31.489  34.650  1.00  0.00     0.034 A 
ATOM     48  C   UNL A   1      42.101  27.622  30.082  1.00  0.00     0.049 A 
ATOM     49  C   UNL A   1      40.614  30.522  34.660  1.00  0.00     0.074 A 
ATOM     50  C   UNL A   1      43.228  26.826  30.198  1.00  0.00     0.029 A 
ATOM     51  N   UNL A   1      41.905  28.212  31.326  1.00  0.00    -0.354 N 
ATOM     52  N   UNL A   1      41.071  29.774  33.682  1.00  0.00    -0.248 NA
ATOM     53  C   UNL A   1      41.347  30.373  35.924  1.00  0.00     0.031 C 
ATOM     54  C   UNL A   1      43.674  26.886  31.522  1.00  0.00     0.029 A 
ATOM     55  C   UNL A   1      42.871  27.775  32.219  1.00  0.00     0.049 A 
ATOM     56  H   UNL A   1      41.184  28.847  31.541  1.00  0.00     0.167 HD
ATOM     57  C   UNL A   1      42.162  29.087  34.206  1.00  0.00     0.074 A 
ATOM     58  C   UNL A   1      42.293  29.508  35.587  1.00  0.00     0.031 C 
ATOM     59  C   UNL A   1      42.986  28.198  33.596  1.00  0.00     0.034 A 
BRANCH  46  60
ATOM     60  C   UNL A   1      41.510  27.026  27.674  1.00  0.00     0.023 A 
ATOM     61  C   UNL A   1      41.114  25.680  27.567  1.00  0.00     0.031 A 
ATOM     62  C   UNL A   1      42.217  27.589  26.597  1.00  0.00     0.131 A 
ATOM     63  C   UNL A   1      41.526  24.914  26.466  1.00  0.00     0.055 A 
ATOM     64  C   UNL A   1      42.538  26.847  25.458  1.00  0.00     0.041 A 
ATOM     65  F   UNL A   1      42.636  28.863  26.645  1.00  0.00    -0.206 F 
ATOM     66  C   UNL A   1      42.214  25.494  25.398  1.00  0.00     0.022 A 
BRANCH  63  67
ATOM     67  S   UNL A   1      41.323  23.114  26.548  1.00  0.00     0.124 S 
ATOM     68  O   UNL A   1      42.263  22.664  25.524  1.00  0.00    -0.237 OA
ATOM     69  O   UNL A   1      41.690  22.818  27.928  1.00  0.00    -0.237 OA
ATOM     70  O   UNL A   1      39.913  22.913  26.218  1.00  0.00    -0.744 OA
ENDBRANCH  63  67
ENDBRANCH  46  60
BRANCH  47  71
ATOM     71  C   UNL A   1      39.009  32.162  35.898  1.00  0.00     0.023 A 
ATOM     72  C   UNL A   1      38.257  31.477  36.864  1.00  0.00     0.031 A 
ATOM     73  C   UNL A   1      39.341  33.506  36.148  1.00  0.00     0.131 A 
ATOM     74  C   UNL A   1      37.838  32.145  38.025  1.00  0.00     0.055 A 
ATOM     75  C   UNL A   1      38.955  34.155  37.322  1.00  0.00     0.041 A 
ATOM     76  F   UNL A   1      40.071  34.200  35.260  1.00  0.00    -0.206 F 
ATOM     77  C   UNL A   1      38.193  33.474  38.266  1.00  0.00     0.022 A 
BRANCH  74  78
ATOM     78  S   UNL A   1      36.791  31.258  39.210  1.00  0.00     0.124 S 
ATOM     79  O   UNL A   1      35.627  32.134  39.291  1.00  0.00    -0.237 OA
ATOM     80  O   UNL A   1      36.586  29.979  38.537  1.00  0.00    -0.237 OA
ATOM     81  O   UNL A   1      37.614  31.199  40.416  1.00  0.00    -0.744 OA
ENDBRANCH  74  78
ENDBRANCH  47  71
BRANCH  59  82
ATOM     82  C   UNL A   1      44.144  27.664  34.400  1.00  0.00     0.023 A 
ATOM     83  C   UNL A   1      44.042  26.486  35.159  1.00  0.00     0.031 A 
ATOM     84  C   UNL A   1      45.378  28.337  34.379  1.00  0.00     0.131 A 
ATOM     85  C   UNL A   1      45.151  26.032  35.891  1.00  0.00     0.055 A 
ATOM     86  C   UNL A   1      46.489  27.857  35.071  1.00  0.00     0.041 A 
ATOM     87  F   UNL A   1      45.526  29.469  33.671  1.00  0.00    -0.206 F 
ATOM     88  C   UNL A   1      46.378  26.701  35.838  1.00  0.00     0.022 A 
BRANCH  85  89
ATOM     89  S   UNL A   1      44.961  24.574  36.953  1.00  0.00     0.124 S 
ATOM     90  O   UNL A   1      44.151  25.099  38.047  1.00  0.00    -0.237 OA
ATOM     91  O   UNL A   1      44.298  23.623  36.068  1.00  0.00    -0.237 OA
ATOM     92  O   UNL A   1      46.336  24.229  37.311  1.00  0.00    -0.744 OA
ENDBRANCH  85  89
ENDBRANCH  59  82
ENDBRANCH  33  34
ENDBRANCH  25  28
ENDBRANCH  23  24
ENDBRANCH   1  23
TORSDOF 16
ENDMDL
