MODEL 1
REMARK VINA RESULT:     -11.4      0.000      0.000
REMARK SMILES CC[C@@](C)(NC(=O)N1CCC[C@H]1C1CCCC1)C(=O)NCCCNC(=O)c1ccc(-c2c3nc(c(-c4cc(S(=O)(=O)[O-])ccc4F)c4ccc([nH]4)c(-c4cc(S(=O)(=O)[O-])ccc4F)c4nc(c(-c5cc(S(=O)(=O)[O-])ccc5F)c5ccc2[nH]5)C=C4)C=C3)cc1
REMARK SMILES IDX 22 1 21 2 20 3 18 4 19 5 3 7 4 8 2 9 1 10 5 11 6 12 7 14
REMARK SMILES IDX 8 15 9 16 12 17 10 18 11 19 13 20 14 21 17 22 15 23 16 24
REMARK SMILES IDX 23 25 24 26 25 27 26 29 27 30 28 31 89 32 29 33 88 34 30 35
REMARK SMILES IDX 31 36 32 37 82 38 33 39 87 40 81 41 83 42 34 43 86 44 80 45
REMARK SMILES IDX 79 46 35 48 67 49 47 50 66 51 48 52 51 53 65 54 84 55 49 56
REMARK SMILES IDX 50 57 64 59 85 60 52 61 36 62 37 63 45 64 38 65 44 66 46 67
REMARK SMILES IDX 43 68 39 69 40 70 41 71 42 72 68 73 69 74 77 75 70 76 76 77
REMARK SMILES IDX 78 78 75 79 71 80 72 81 73 82 74 83 53 84 54 85 62 86 55 87
REMARK SMILES IDX 61 88 63 89 60 90 56 91 57 92 58 93 59 94
REMARK H PARENT 20 6 5 13 24 28 83 47 51 58
REMARK Flexibility Score: inf
ROOT
ATOM      1  C   UNL A   1      33.375  29.043  23.471  1.00  0.00     0.042 C 
ENDROOT
BRANCH   1   2
ATOM      2  C   UNL A   1      32.389  28.107  22.779  1.00  0.00     0.117 C 
BRANCH   2   3
ATOM      3  N   UNL A   1      32.922  27.216  21.760  1.00  0.00    -0.354 N 
ATOM      4  C   UNL A   1      33.060  25.856  21.683  1.00  0.00     0.245 C 
ATOM      5  O   UNL A   1      33.231  25.414  20.541  1.00  0.00    -0.272 OA
ATOM      6  H   UNL A   1      33.250  27.688  20.961  1.00  0.00     0.163 HD
BRANCH   4   7
ATOM      7  C   UNL A   1      32.912  24.899  22.908  1.00  0.00     0.117 C 
ATOM      8  C   UNL A   1      31.388  24.635  23.051  1.00  0.00     0.045 C 
BRANCH   7   9
ATOM      9  C   UNL A   1      33.598  23.505  22.713  1.00  0.00     0.035 C 
ATOM     10  C   UNL A   1      32.709  22.265  22.634  1.00  0.00     0.007 C 
ENDBRANCH   7   9
BRANCH   7  11
ATOM     11  N   UNL A   1      33.410  25.465  24.200  1.00  0.00    -0.324 N 
ATOM     12  C   UNL A   1      33.066  25.211  25.490  1.00  0.00     0.318 C 
ATOM     13  H   UNL A   1      34.114  26.146  24.098  1.00  0.00     0.166 HD
ATOM     14  O   UNL A   1      32.709  26.205  26.129  1.00  0.00    -0.249 OA
BRANCH  12  15
ATOM     15  N   UNL A   1      33.171  23.984  26.068  1.00  0.00    -0.322 N 
ATOM     16  C   UNL A   1      32.162  22.990  26.330  1.00  0.00     0.122 C 
ATOM     17  C   UNL A   1      34.450  23.507  26.641  1.00  0.00     0.090 C 
ATOM     18  C   UNL A   1      32.523  22.428  27.681  1.00  0.00     0.024 C 
ATOM     19  C   UNL A   1      34.037  22.386  27.633  1.00  0.00     0.027 C 
BRANCH  17  20
ATOM     20  C   UNL A   1      35.497  22.935  25.643  1.00  0.00     0.012 C 
ATOM     21  C   UNL A   1      36.966  23.110  26.027  1.00  0.00     0.006 C 
ATOM     22  C   UNL A   1      35.441  21.434  25.363  1.00  0.00     0.006 C 
ATOM     23  C   UNL A   1      37.725  22.228  25.042  1.00  0.00     0.000 C 
ATOM     24  C   UNL A   1      36.746  21.134  24.626  1.00  0.00     0.000 C 
ENDBRANCH  17  20
ENDBRANCH  12  15
ENDBRANCH   7  11
ENDBRANCH   4   7
ENDBRANCH   2   3
ENDBRANCH   1   2
BRANCH   1  25
ATOM     25  C   UNL A   1      33.388  29.052  24.998  1.00  0.00     0.118 C 
BRANCH  25  26
ATOM     26  N   UNL A   1      32.627  30.104  25.631  1.00  0.00    -0.352 N 
ATOM     27  C   UNL A   1      32.974  30.938  26.671  1.00  0.00     0.251 C 
ATOM     28  H   UNL A   1      31.724  30.246  25.264  1.00  0.00     0.163 HD
ATOM     29  O   UNL A   1      32.178  31.806  27.016  1.00  0.00    -0.269 OA
BRANCH  27  30
ATOM     30  C   UNL A   1      34.249  30.773  27.424  1.00  0.00     0.039 A 
ATOM     31  C   UNL A   1      34.498  29.524  28.000  1.00  0.00     0.014 A 
ATOM     32  C   UNL A   1      35.168  31.808  27.626  1.00  0.00     0.014 A 
ATOM     33  C   UNL A   1      35.677  29.293  28.718  1.00  0.00     0.010 A 
ATOM     34  C   UNL A   1      36.374  31.558  28.304  1.00  0.00     0.010 A 
ATOM     35  C   UNL A   1      36.653  30.294  28.852  1.00  0.00    -0.014 A 
BRANCH  35  36
ATOM     36  C   UNL A   1      37.944  30.001  29.556  1.00  0.00     0.031 A 
ATOM     37  C   UNL A   1      38.230  30.557  30.931  1.00  0.00     0.074 A 
ATOM     38  C   UNL A   1      38.873  29.216  28.968  1.00  0.00     0.049 A 
ATOM     39  N   UNL A   1      39.279  30.379  31.697  1.00  0.00    -0.248 NA
ATOM     40  C   UNL A   1      37.213  31.445  31.510  1.00  0.00     0.031 C 
ATOM     41  C   UNL A   1      38.756  28.630  27.632  1.00  0.00     0.029 A 
ATOM     42  N   UNL A   1      40.093  28.763  29.417  1.00  0.00    -0.354 N 
ATOM     43  C   UNL A   1      39.051  31.132  32.846  1.00  0.00     0.074 A 
ATOM     44  C   UNL A   1      37.792  31.819  32.642  1.00  0.00     0.031 C 
ATOM     45  C   UNL A   1      39.833  27.865  27.388  1.00  0.00     0.029 A 
ATOM     46  C   UNL A   1      40.747  27.940  28.525  1.00  0.00     0.049 A 
ATOM     47  H   UNL A   1      40.466  29.004  30.297  1.00  0.00     0.167 HD
ATOM     48  C   UNL A   1      39.802  31.225  33.974  1.00  0.00     0.034 A 
ATOM     49  C   UNL A   1      41.945  27.320  28.600  1.00  0.00     0.034 A 
ATOM     50  C   UNL A   1      41.055  30.535  34.178  1.00  0.00     0.049 A 
ATOM     51  C   UNL A   1      42.785  27.478  29.846  1.00  0.00     0.074 A 
ATOM     52  C   UNL A   1      41.858  30.528  35.307  1.00  0.00     0.029 A 
ATOM     53  N   UNL A   1      41.698  29.743  33.237  1.00  0.00    -0.354 N 
ATOM     54  N   UNL A   1      42.522  28.151  30.941  1.00  0.00    -0.248 NA
ATOM     55  C   UNL A   1      44.080  26.784  29.866  1.00  0.00     0.031 C 
ATOM     56  C   UNL A   1      43.020  29.805  35.021  1.00  0.00     0.029 A 
ATOM     57  C   UNL A   1      42.904  29.278  33.745  1.00  0.00     0.049 A 
ATOM     58  H   UNL A   1      41.349  29.539  32.339  1.00  0.00     0.167 HD
ATOM     59  C   UNL A   1      43.604  27.929  31.792  1.00  0.00     0.074 A 
ATOM     60  C   UNL A   1      44.513  27.050  31.089  1.00  0.00     0.031 C 
ATOM     61  C   UNL A   1      43.820  28.409  33.044  1.00  0.00     0.034 A 
BRANCH  48  62
ATOM     62  C   UNL A   1      39.297  32.134  35.073  1.00  0.00     0.023 A 
ATOM     63  C   UNL A   1      38.742  31.623  36.259  1.00  0.00     0.031 A 
ATOM     64  C   UNL A   1      39.365  33.533  34.930  1.00  0.00     0.131 A 
ATOM     65  C   UNL A   1      38.203  32.498  37.216  1.00  0.00     0.055 A 
ATOM     66  C   UNL A   1      38.908  34.398  35.926  1.00  0.00     0.041 A 
ATOM     67  F   UNL A   1      39.868  34.083  33.814  1.00  0.00    -0.206 F 
ATOM     68  C   UNL A   1      38.308  33.882  37.071  1.00  0.00     0.022 A 
BRANCH  65  69
ATOM     69  S   UNL A   1      37.228  31.797  38.574  1.00  0.00     0.124 S 
ATOM     70  O   UNL A   1      37.023  30.425  38.112  1.00  0.00    -0.237 OA
ATOM     71  O   UNL A   1      38.115  31.960  39.718  1.00  0.00    -0.237 OA
ATOM     72  O   UNL A   1      36.023  32.625  38.592  1.00  0.00    -0.744 OA
ENDBRANCH  65  69
ENDBRANCH  48  62
BRANCH  49  73
ATOM     73  C   UNL A   1      42.451  26.505  27.454  1.00  0.00     0.023 A 
ATOM     74  C   UNL A   1      42.111  25.149  27.317  1.00  0.00     0.031 A 
ATOM     75  C   UNL A   1      43.339  27.057  26.513  1.00  0.00     0.131 A 
ATOM     76  C   UNL A   1      42.695  24.379  26.297  1.00  0.00     0.055 A 
ATOM     77  C   UNL A   1      43.868  26.303  25.464  1.00  0.00     0.041 A 
ATOM     78  F   UNL A   1      43.703  28.346  26.598  1.00  0.00    -0.206 F 
ATOM     79  C   UNL A   1      43.558  24.951  25.361  1.00  0.00     0.022 A 
BRANCH  76  80
ATOM     80  S   UNL A   1      42.392  22.590  26.273  1.00  0.00     0.124 S 
ATOM     81  O   UNL A   1      42.993  22.205  25.001  1.00  0.00    -0.237 OA
ATOM     82  O   UNL A   1      43.093  22.148  27.474  1.00  0.00    -0.237 OA
ATOM     83  O   UNL A   1      40.936  22.490  26.330  1.00  0.00    -0.744 OA
ENDBRANCH  76  80
ENDBRANCH  49  73
BRANCH  61  84
ATOM     84  C   UNL A   1      45.070  27.949  33.761  1.00  0.00     0.023 A 
ATOM     85  C   UNL A   1      46.283  28.656  33.676  1.00  0.00     0.031 A 
ATOM     86  C   UNL A   1      45.047  26.777  34.539  1.00  0.00     0.131 A 
ATOM     87  C   UNL A   1      47.432  28.157  34.309  1.00  0.00     0.055 A 
ATOM     88  C   UNL A   1      46.177  26.320  35.220  1.00  0.00     0.041 A 
ATOM     89  F   UNL A   1      43.921  26.054  34.654  1.00  0.00    -0.206 F 
ATOM     90  C   UNL A   1      47.382  27.004  35.097  1.00  0.00     0.022 A 
BRANCH  87  91
ATOM     91  S   UNL A   1      49.022  28.980  34.012  1.00  0.00     0.124 S 
ATOM     92  O   UNL A   1      49.976  27.945  34.395  1.00  0.00    -0.237 OA
ATOM     93  O   UNL A   1      48.953  29.289  32.588  1.00  0.00    -0.237 OA
ATOM     94  O   UNL A   1      48.979  30.141  34.899  1.00  0.00    -0.744 OA
ENDBRANCH  87  91
ENDBRANCH  61  84
ENDBRANCH  35  36
ENDBRANCH  27  30
ENDBRANCH  25  26
ENDBRANCH   1  25
TORSDOF 17
ENDMDL
MODEL 2
REMARK VINA RESULT:     -11.4      2.636      8.262
REMARK SMILES CC[C@@](C)(NC(=O)N1CCC[C@H]1C1CCCC1)C(=O)NCCCNC(=O)c1ccc(-c2c3nc(c(-c4cc(S(=O)(=O)[O-])ccc4F)c4ccc([nH]4)c(-c4cc(S(=O)(=O)[O-])ccc4F)c4nc(c(-c5cc(S(=O)(=O)[O-])ccc5F)c5ccc2[nH]5)C=C4)C=C3)cc1
REMARK SMILES IDX 22 1 21 2 20 3 18 4 19 5 3 7 4 8 2 9 1 10 5 11 6 12 7 14
REMARK SMILES IDX 8 15 9 16 12 17 10 18 11 19 13 20 14 21 17 22 15 23 16 24
REMARK SMILES IDX 23 25 24 26 25 27 26 29 27 30 28 31 89 32 29 33 88 34 30 35
REMARK SMILES IDX 31 36 32 37 82 38 33 39 87 40 81 41 83 42 34 43 86 44 80 45
REMARK SMILES IDX 79 46 35 48 67 49 47 50 66 51 48 52 51 53 65 54 84 55 49 56
REMARK SMILES IDX 50 57 64 59 85 60 52 61 36 62 37 63 45 64 38 65 44 66 46 67
REMARK SMILES IDX 43 68 39 69 40 70 41 71 42 72 68 73 69 74 77 75 70 76 76 77
REMARK SMILES IDX 78 78 75 79 71 80 72 81 73 82 74 83 53 84 54 85 62 86 55 87
REMARK SMILES IDX 61 88 63 89 60 90 56 91 57 92 58 93 59 94
REMARK H PARENT 20 6 5 13 24 28 83 47 51 58
REMARK Flexibility Score: inf
ROOT
ATOM      1  C   UNL A   1      31.508  31.504  26.359  1.00  0.00     0.042 C 
ENDROOT
BRANCH   1   2
ATOM      2  C   UNL A   1      31.667  30.019  26.054  1.00  0.00     0.117 C 
BRANCH   2   3
ATOM      3  N   UNL A   1      32.746  29.636  25.155  1.00  0.00    -0.354 N 
ATOM      4  C   UNL A   1      32.771  29.036  23.925  1.00  0.00     0.245 C 
ATOM      5  O   UNL A   1      33.830  29.175  23.301  1.00  0.00    -0.272 OA
ATOM      6  H   UNL A   1      33.640  29.853  25.502  1.00  0.00     0.163 HD
BRANCH   4   7
ATOM      7  C   UNL A   1      31.542  28.316  23.285  1.00  0.00     0.117 C 
ATOM      8  C   UNL A   1      30.845  27.563  24.451  1.00  0.00     0.045 C 
BRANCH   7   9
ATOM      9  C   UNL A   1      30.480  29.292  22.675  1.00  0.00     0.035 C 
ATOM     10  C   UNL A   1      29.001  28.993  22.914  1.00  0.00     0.007 C 
ENDBRANCH   7   9
BRANCH   7  11
ATOM     11  N   UNL A   1      31.890  27.317  22.228  1.00  0.00    -0.324 N 
ATOM     12  C   UNL A   1      32.734  26.252  22.234  1.00  0.00     0.318 C 
ATOM     13  H   UNL A   1      31.424  27.457  21.372  1.00  0.00     0.166 HD
ATOM     14  O   UNL A   1      33.594  26.276  21.350  1.00  0.00    -0.249 OA
BRANCH  12  15
ATOM     15  N   UNL A   1      32.609  25.199  23.088  1.00  0.00    -0.322 N 
ATOM     16  C   UNL A   1      31.662  24.115  23.094  1.00  0.00     0.122 C 
ATOM     17  C   UNL A   1      33.462  25.076  24.291  1.00  0.00     0.090 C 
ATOM     18  C   UNL A   1      31.338  23.901  24.551  1.00  0.00     0.024 C 
ATOM     19  C   UNL A   1      32.678  24.116  25.226  1.00  0.00     0.027 C 
BRANCH  17  20
ATOM     20  C   UNL A   1      34.896  24.513  24.080  1.00  0.00     0.012 C 
ATOM     21  C   UNL A   1      35.657  24.103  25.341  1.00  0.00     0.006 C 
ATOM     22  C   UNL A   1      35.027  23.248  23.233  1.00  0.00     0.006 C 
ATOM     23  C   UNL A   1      36.874  23.345  24.824  1.00  0.00     0.000 C 
ATOM     24  C   UNL A   1      36.462  22.776  23.469  1.00  0.00     0.000 C 
ENDBRANCH  17  20
ENDBRANCH  12  15
ENDBRANCH   7  11
ENDBRANCH   4   7
ENDBRANCH   2   3
ENDBRANCH   1   2
BRANCH   1  25
ATOM     25  C   UNL A   1      32.693  32.227  26.995  1.00  0.00     0.118 C 
BRANCH  25  26
ATOM     26  N   UNL A   1      32.437  33.566  27.470  1.00  0.00    -0.352 N 
ATOM     27  C   UNL A   1      33.159  34.340  28.353  1.00  0.00     0.251 C 
ATOM     28  H   UNL A   1      31.624  33.990  27.110  1.00  0.00     0.163 HD
ATOM     29  O   UNL A   1      32.777  35.485  28.574  1.00  0.00    -0.269 OA
BRANCH  27  30
ATOM     30  C   UNL A   1      34.340  33.808  29.087  1.00  0.00     0.039 A 
ATOM     31  C   UNL A   1      34.098  32.891  30.114  1.00  0.00     0.014 A 
ATOM     32  C   UNL A   1      35.655  34.216  28.838  1.00  0.00     0.014 A 
ATOM     33  C   UNL A   1      35.160  32.344  30.845  1.00  0.00     0.010 A 
ATOM     34  C   UNL A   1      36.722  33.627  29.539  1.00  0.00     0.010 A 
ATOM     35  C   UNL A   1      36.492  32.674  30.547  1.00  0.00    -0.014 A 
BRANCH  35  36
ATOM     36  C   UNL A   1      37.617  32.016  31.289  1.00  0.00     0.031 A 
ATOM     37  C   UNL A   1      38.409  30.888  30.670  1.00  0.00     0.074 A 
ATOM     38  C   UNL A   1      37.947  32.436  32.530  1.00  0.00     0.049 A 
ATOM     39  N   UNL A   1      39.431  30.228  31.157  1.00  0.00    -0.248 NA
ATOM     40  C   UNL A   1      37.982  30.432  29.340  1.00  0.00     0.031 C 
ATOM     41  C   UNL A   1      37.257  33.491  33.272  1.00  0.00     0.029 A 
ATOM     42  N   UNL A   1      38.952  32.039  33.384  1.00  0.00    -0.354 N 
ATOM     43  C   UNL A   1      39.770  29.277  30.197  1.00  0.00     0.074 A 
ATOM     44  C   UNL A   1      38.799  29.409  29.130  1.00  0.00     0.031 C 
ATOM     45  C   UNL A   1      37.881  33.687  34.445  1.00  0.00     0.029 A 
ATOM     46  C   UNL A   1      38.987  32.740  34.570  1.00  0.00     0.049 A 
ATOM     47  H   UNL A   1      39.588  31.319  33.167  1.00  0.00     0.167 HD
ATOM     48  C   UNL A   1      40.804  28.396  30.189  1.00  0.00     0.034 A 
ATOM     49  C   UNL A   1      39.802  32.637  35.641  1.00  0.00     0.034 A 
ATOM     50  C   UNL A   1      41.774  28.269  31.251  1.00  0.00     0.049 A 
ATOM     51  C   UNL A   1      40.916  31.616  35.630  1.00  0.00     0.074 A 
ATOM     52  C   UNL A   1      42.885  27.442  31.306  1.00  0.00     0.029 A 
ATOM     53  N   UNL A   1      41.752  28.972  32.448  1.00  0.00    -0.354 N 
ATOM     54  N   UNL A   1      41.250  30.767  34.686  1.00  0.00    -0.248 NA
ATOM     55  C   UNL A   1      41.767  31.547  36.825  1.00  0.00     0.031 C 
ATOM     56  C   UNL A   1      43.481  27.582  32.563  1.00  0.00     0.029 A 
ATOM     57  C   UNL A   1      42.802  28.567  33.261  1.00  0.00     0.049 A 
ATOM     58  H   UNL A   1      41.087  29.658  32.685  1.00  0.00     0.167 HD
ATOM     59  C   UNL A   1      42.371  30.090  35.164  1.00  0.00     0.074 A 
ATOM     60  C   UNL A   1      42.665  30.640  36.469  1.00  0.00     0.031 C 
ATOM     61  C   UNL A   1      43.093  29.105  34.569  1.00  0.00     0.034 A 
BRANCH  48  62
ATOM     62  C   UNL A   1      40.922  27.473  28.995  1.00  0.00     0.023 A 
ATOM     63  C   UNL A   1      41.917  27.650  28.019  1.00  0.00     0.031 A 
ATOM     64  C   UNL A   1      40.022  26.404  28.827  1.00  0.00     0.131 A 
ATOM     65  C   UNL A   1      41.939  26.828  26.881  1.00  0.00     0.055 A 
ATOM     66  C   UNL A   1      40.105  25.535  27.738  1.00  0.00     0.041 A 
ATOM     67  F   UNL A   1      39.038  26.192  29.716  1.00  0.00    -0.206 F 
ATOM     68  C   UNL A   1      41.058  25.754  26.748  1.00  0.00     0.022 A 
BRANCH  65  69
ATOM     69  S   UNL A   1      43.034  27.282  25.509  1.00  0.00     0.124 S 
ATOM     70  O   UNL A   1      42.199  28.223  24.765  1.00  0.00    -0.237 OA
ATOM     71  O   UNL A   1      44.184  27.854  26.198  1.00  0.00    -0.237 OA
ATOM     72  O   UNL A   1      43.279  26.009  24.833  1.00  0.00    -0.744 OA
ENDBRANCH  65  69
ENDBRANCH  48  62
BRANCH  49  73
ATOM     73  C   UNL A   1      39.595  33.504  36.840  1.00  0.00     0.023 A 
ATOM     74  C   UNL A   1      38.958  33.016  37.994  1.00  0.00     0.031 A 
ATOM     75  C   UNL A   1      39.971  34.860  36.824  1.00  0.00     0.131 A 
ATOM     76  C   UNL A   1      38.672  33.886  39.059  1.00  0.00     0.055 A 
ATOM     77  C   UNL A   1      39.741  35.705  37.910  1.00  0.00     0.041 A 
ATOM     78  F   UNL A   1      40.578  35.383  35.746  1.00  0.00    -0.206 F 
ATOM     79  C   UNL A   1      39.073  35.223  39.031  1.00  0.00     0.022 A 
BRANCH  76  80
ATOM     80  S   UNL A   1      37.672  33.271  40.443  1.00  0.00     0.124 S 
ATOM     81  O   UNL A   1      37.595  34.448  41.299  1.00  0.00    -0.237 OA
ATOM     82  O   UNL A   1      36.435  32.882  39.773  1.00  0.00    -0.237 OA
ATOM     83  O   UNL A   1      38.467  32.165  40.972  1.00  0.00    -0.744 OA
ENDBRANCH  76  80
ENDBRANCH  49  73
BRANCH  61  84
ATOM     84  C   UNL A   1      44.310  28.592  35.307  1.00  0.00     0.023 A 
ATOM     85  C   UNL A   1      44.225  27.569  36.268  1.00  0.00     0.031 A 
ATOM     86  C   UNL A   1      45.579  29.142  35.045  1.00  0.00     0.131 A 
ATOM     87  C   UNL A   1      45.372  27.168  36.970  1.00  0.00     0.055 A 
ATOM     88  C   UNL A   1      46.728  28.693  35.699  1.00  0.00     0.041 A 
ATOM     89  F   UNL A   1      45.725  30.125  34.142  1.00  0.00    -0.206 F 
ATOM     90  C   UNL A   1      46.627  27.710  36.677  1.00  0.00     0.022 A 
BRANCH  87  91
ATOM     91  S   UNL A   1      45.193  25.995  38.343  1.00  0.00     0.124 S 
ATOM     92  O   UNL A   1      44.369  26.749  39.281  1.00  0.00    -0.237 OA
ATOM     93  O   UNL A   1      44.547  24.856  37.700  1.00  0.00    -0.237 OA
ATOM     94  O   UNL A   1      46.569  25.760  38.777  1.00  0.00    -0.744 OA
ENDBRANCH  87  91
ENDBRANCH  61  84
ENDBRANCH  35  36
ENDBRANCH  27  30
ENDBRANCH  25  26
ENDBRANCH   1  25
TORSDOF 17
ENDMDL
MODEL 3
REMARK VINA RESULT:     -11.4      2.182      2.960
REMARK SMILES CC[C@@](C)(NC(=O)N1CCC[C@H]1C1CCCC1)C(=O)NCCCNC(=O)c1ccc(-c2c3nc(c(-c4cc(S(=O)(=O)[O-])ccc4F)c4ccc([nH]4)c(-c4cc(S(=O)(=O)[O-])ccc4F)c4nc(c(-c5cc(S(=O)(=O)[O-])ccc5F)c5ccc2[nH]5)C=C4)C=C3)cc1
REMARK SMILES IDX 22 1 21 2 20 3 18 4 19 5 3 7 4 8 2 9 1 10 5 11 6 12 7 14
REMARK SMILES IDX 8 15 9 16 12 17 10 18 11 19 13 20 14 21 17 22 15 23 16 24
REMARK SMILES IDX 23 25 24 26 25 27 26 29 27 30 28 31 89 32 29 33 88 34 30 35
REMARK SMILES IDX 31 36 32 37 82 38 33 39 87 40 81 41 83 42 34 43 86 44 80 45
REMARK SMILES IDX 79 46 35 48 67 49 47 50 66 51 48 52 51 53 65 54 84 55 49 56
REMARK SMILES IDX 50 57 64 59 85 60 52 61 36 62 37 63 45 64 38 65 44 66 46 67
REMARK SMILES IDX 43 68 39 69 40 70 41 71 42 72 68 73 69 74 77 75 70 76 76 77
REMARK SMILES IDX 78 78 75 79 71 80 72 81 73 82 74 83 53 84 54 85 62 86 55 87
REMARK SMILES IDX 61 88 63 89 60 90 56 91 57 92 58 93 59 94
REMARK H PARENT 20 6 5 13 24 28 83 47 51 58
REMARK Flexibility Score: inf
ROOT
ATOM      1  C   UNL A   1      31.351  30.901  26.494  1.00  0.00     0.042 C 
ENDROOT
BRANCH   1   2
ATOM      2  C   UNL A   1      31.231  30.411  25.055  1.00  0.00     0.117 C 
BRANCH   2   3
ATOM      3  N   UNL A   1      32.353  29.660  24.512  1.00  0.00    -0.354 N 
ATOM      4  C   UNL A   1      32.458  28.709  23.533  1.00  0.00     0.245 C 
ATOM      5  O   UNL A   1      33.602  28.538  23.095  1.00  0.00    -0.272 OA
ATOM      6  H   UNL A   1      33.213  29.881  24.936  1.00  0.00     0.163 HD
BRANCH   4   7
ATOM      7  C   UNL A   1      31.234  27.957  22.920  1.00  0.00     0.117 C 
ATOM      8  C   UNL A   1      30.494  27.313  24.123  1.00  0.00     0.045 C 
BRANCH   7   9
ATOM      9  C   UNL A   1      30.205  28.896  22.203  1.00  0.00     0.035 C 
ATOM     10  C   UNL A   1      28.772  28.935  22.731  1.00  0.00     0.007 C 
ENDBRANCH   7   9
BRANCH   7  11
ATOM     11  N   UNL A   1      31.594  26.870  21.957  1.00  0.00    -0.324 N 
ATOM     12  C   UNL A   1      32.489  25.852  22.038  1.00  0.00     0.318 C 
ATOM     13  H   UNL A   1      31.091  26.898  21.111  1.00  0.00     0.166 HD
ATOM     14  O   UNL A   1      33.315  25.823  21.122  1.00  0.00    -0.249 OA
BRANCH  12  15
ATOM     15  N   UNL A   1      32.449  24.890  23.000  1.00  0.00    -0.322 N 
ATOM     16  C   UNL A   1      31.589  23.741  23.130  1.00  0.00     0.122 C 
ATOM     17  C   UNL A   1      33.310  24.962  24.202  1.00  0.00     0.090 C 
ATOM     18  C   UNL A   1      31.285  23.660  24.604  1.00  0.00     0.024 C 
ATOM     19  C   UNL A   1      32.604  24.049  25.240  1.00  0.00     0.027 C 
BRANCH  17  20
ATOM     20  C   UNL A   1      34.783  24.493  24.039  1.00  0.00     0.012 C 
ATOM     21  C   UNL A   1      35.510  24.081  25.318  1.00  0.00     0.006 C 
ATOM     22  C   UNL A   1      35.028  23.271  23.155  1.00  0.00     0.006 C 
ATOM     23  C   UNL A   1      36.793  23.416  24.832  1.00  0.00     0.000 C 
ATOM     24  C   UNL A   1      36.477  22.876  23.441  1.00  0.00     0.000 C 
ENDBRANCH  17  20
ENDBRANCH  12  15
ENDBRANCH   7  11
ENDBRANCH   4   7
ENDBRANCH   2   3
ENDBRANCH   1   2
BRANCH   1  25
ATOM     25  C   UNL A   1      32.625  31.646  26.883  1.00  0.00     0.118 C 
BRANCH  25  26
ATOM     26  N   UNL A   1      32.450  33.011  27.325  1.00  0.00    -0.352 N 
ATOM     27  C   UNL A   1      33.278  33.800  28.093  1.00  0.00     0.251 C 
ATOM     28  H   UNL A   1      31.613  33.441  27.035  1.00  0.00     0.163 HD
ATOM     29  O   UNL A   1      32.948  34.963  28.304  1.00  0.00    -0.269 OA
BRANCH  27  30
ATOM     30  C   UNL A   1      34.520  33.267  28.720  1.00  0.00     0.039 A 
ATOM     31  C   UNL A   1      34.394  32.134  29.530  1.00  0.00     0.014 A 
ATOM     32  C   UNL A   1      35.775  33.867  28.584  1.00  0.00     0.014 A 
ATOM     33  C   UNL A   1      35.518  31.574  30.149  1.00  0.00     0.010 A 
ATOM     34  C   UNL A   1      36.909  33.272  29.165  1.00  0.00     0.010 A 
ATOM     35  C   UNL A   1      36.800  32.111  29.948  1.00  0.00    -0.014 A 
BRANCH  35  36
ATOM     36  C   UNL A   1      38.000  31.447  30.556  1.00  0.00     0.031 A 
ATOM     37  C   UNL A   1      38.429  31.750  31.972  1.00  0.00     0.074 A 
ATOM     38  C   UNL A   1      38.713  30.549  29.840  1.00  0.00     0.049 A 
ATOM     39  N   UNL A   1      39.421  31.244  32.664  1.00  0.00    -0.248 NA
ATOM     40  C   UNL A   1      37.655  32.768  32.694  1.00  0.00     0.031 C 
ATOM     41  C   UNL A   1      38.442  30.175  28.451  1.00  0.00     0.029 A 
ATOM     42  N   UNL A   1      39.802  29.779  30.179  1.00  0.00    -0.354 N 
ATOM     43  C   UNL A   1      39.393  31.882  33.902  1.00  0.00     0.074 A 
ATOM     44  C   UNL A   1      38.323  32.857  33.836  1.00  0.00     0.031 C 
ATOM     45  C   UNL A   1      39.308  29.222  28.073  1.00  0.00     0.029 A 
ATOM     46  C   UNL A   1      40.234  28.946  29.169  1.00  0.00     0.049 A 
ATOM     47  H   UNL A   1      40.235  29.819  31.063  1.00  0.00     0.167 HD
ATOM     48  C   UNL A   1      40.163  31.662  34.999  1.00  0.00     0.034 A 
ATOM     49  C   UNL A   1      41.257  28.066  29.118  1.00  0.00     0.034 A 
ATOM     50  C   UNL A   1      41.226  30.686  35.065  1.00  0.00     0.049 A 
ATOM     51  C   UNL A   1      42.131  27.873  30.335  1.00  0.00     0.074 A 
ATOM     52  C   UNL A   1      42.024  30.357  36.150  1.00  0.00     0.029 A 
ATOM     53  N   UNL A   1      41.653  29.890  34.011  1.00  0.00    -0.354 N 
ATOM     54  N   UNL A   1      42.048  28.448  31.512  1.00  0.00    -0.248 NA
ATOM     55  C   UNL A   1      43.231  26.906  30.217  1.00  0.00     0.031 C 
ATOM     56  C   UNL A   1      42.983  29.430  35.730  1.00  0.00     0.029 A 
ATOM     57  C   UNL A   1      42.727  29.105  34.408  1.00  0.00     0.049 A 
ATOM     58  H   UNL A   1      41.252  29.884  33.112  1.00  0.00     0.167 HD
ATOM     59  C   UNL A   1      43.064  27.883  32.282  1.00  0.00     0.074 A 
ATOM     60  C   UNL A   1      43.734  26.914  31.443  1.00  0.00     0.031 C 
ATOM     61  C   UNL A   1      43.406  28.143  33.571  1.00  0.00     0.034 A 
BRANCH  48  62
ATOM     62  C   UNL A   1      39.900  32.520  36.218  1.00  0.00     0.023 A 
ATOM     63  C   UNL A   1      38.975  32.139  37.204  1.00  0.00     0.031 A 
ATOM     64  C   UNL A   1      40.579  33.741  36.392  1.00  0.00     0.131 A 
ATOM     65  C   UNL A   1      38.694  33.003  38.274  1.00  0.00     0.055 A 
ATOM     66  C   UNL A   1      40.359  34.554  37.505  1.00  0.00     0.041 A 
ATOM     67  F   UNL A   1      41.463  34.169  35.476  1.00  0.00    -0.206 F 
ATOM     68  C   UNL A   1      39.399  34.195  38.447  1.00  0.00     0.022 A 
BRANCH  65  69
ATOM     69  S   UNL A   1      37.283  32.618  39.347  1.00  0.00     0.124 S 
ATOM     70  O   UNL A   1      37.540  31.218  39.679  1.00  0.00    -0.237 OA
ATOM     71  O   UNL A   1      37.444  33.574  40.435  1.00  0.00    -0.237 OA
ATOM     72  O   UNL A   1      36.125  32.842  38.483  1.00  0.00    -0.744 OA
ENDBRANCH  65  69
ENDBRANCH  48  62
BRANCH  49  73
ATOM     73  C   UNL A   1      41.542  27.305  27.864  1.00  0.00     0.023 A 
ATOM     74  C   UNL A   1      41.282  25.927  27.771  1.00  0.00     0.031 A 
ATOM     75  C   UNL A   1      42.143  27.934  26.759  1.00  0.00     0.131 A 
ATOM     76  C   UNL A   1      41.669  25.216  26.623  1.00  0.00     0.055 A 
ATOM     77  C   UNL A   1      42.469  27.235  25.595  1.00  0.00     0.041 A 
ATOM     78  F   UNL A   1      42.419  29.247  26.793  1.00  0.00    -0.206 F 
ATOM     79  C   UNL A   1      42.245  25.864  25.529  1.00  0.00     0.022 A 
BRANCH  76  80
ATOM     80  S   UNL A   1      41.504  23.408  26.619  1.00  0.00     0.124 S 
ATOM     81  O   UNL A   1      40.056  23.243  26.564  1.00  0.00    -0.237 OA
ATOM     82  O   UNL A   1      42.239  23.040  25.414  1.00  0.00    -0.237 OA
ATOM     83  O   UNL A   1      42.130  23.007  27.877  1.00  0.00    -0.744 OA
ENDBRANCH  76  80
ENDBRANCH  49  73
BRANCH  61  84
ATOM     84  C   UNL A   1      44.527  27.326  34.173  1.00  0.00     0.023 A 
ATOM     85  C   UNL A   1      44.315  26.040  34.700  1.00  0.00     0.031 A 
ATOM     86  C   UNL A   1      45.832  27.850  34.226  1.00  0.00     0.131 A 
ATOM     87  C   UNL A   1      45.375  25.345  35.304  1.00  0.00     0.055 A 
ATOM     88  C   UNL A   1      46.897  27.127  34.768  1.00  0.00     0.041 A 
ATOM     89  F   UNL A   1      46.098  29.075  33.745  1.00  0.00    -0.206 F 
ATOM     90  C   UNL A   1      46.669  25.873  35.323  1.00  0.00     0.022 A 
BRANCH  87  91
ATOM     91  S   UNL A   1      45.025  23.780  36.154  1.00  0.00     0.124 S 
ATOM     92  O   UNL A   1      43.788  23.355  35.508  1.00  0.00    -0.237 OA
ATOM     93  O   UNL A   1      46.209  22.986  35.847  1.00  0.00    -0.237 OA
ATOM     94  O   UNL A   1      44.889  24.172  37.555  1.00  0.00    -0.744 OA
ENDBRANCH  87  91
ENDBRANCH  61  84
ENDBRANCH  35  36
ENDBRANCH  27  30
ENDBRANCH  25  26
ENDBRANCH   1  25
TORSDOF 17
ENDMDL
