MODEL 1
REMARK VINA RESULT:     -12.5      0.000      0.000
REMARK SMILES COc1cccc2c(C)cc(S[C@H](C)C(=O)Nc3ccc(C(=O)NCCCNC(=O)c4ccc(-c5c6nc(c(-c7cc(S(=O)(=O)[O-])ccc7F)c7ccc([nH]7)c(-c7cc(S(=O)(=O)[O-])ccc7F)c7nc(c(-c8cc(S(=O)(=O)[O-])ccc8F)c8ccc5[nH]8)C=C7)C=C6)cc4)cc3)nc12
REMARK SMILES IDX 25 1 24 2 22 3 23 4 21 6 18 7 19 8 95 9 20 10 94 11 17 12
REMARK SMILES IDX 15 13 16 14 13 16 14 17 12 18 11 19 3 20 4 21 97 22 5 23
REMARK SMILES IDX 7 24 96 25 6 26 8 27 9 28 10 29 2 30 1 31 26 32 27 33 28 34
REMARK SMILES IDX 29 35 30 37 31 38 32 39 93 40 33 41 92 42 34 43 35 44 36 45
REMARK SMILES IDX 86 46 37 47 91 48 85 49 87 50 38 51 90 52 84 53 83 54 39 56
REMARK SMILES IDX 71 57 51 58 70 59 52 60 55 61 69 62 88 63 53 64 54 65 68 67
REMARK SMILES IDX 89 68 56 69 40 70 41 71 49 72 42 73 48 74 50 75 47 76 43 77
REMARK SMILES IDX 44 78 45 79 46 80 72 81 73 82 81 83 74 84 80 85 82 86 79 87
REMARK SMILES IDX 75 88 76 89 77 90 78 91 57 92 58 93 66 94 59 95 65 96 67 97
REMARK SMILES IDX 64 98 60 99 61 100 62 101 63 102
REMARK H PARENT 24 5 17 15 28 36 87 55 55 66
REMARK Flexibility Score: inf
ROOT
ATOM      1  C   UNL A   1      32.106  30.514  25.805  1.00  0.00     0.118 C 
ENDROOT
BRANCH   1   2
ATOM      2  N   UNL A   1      33.463  30.140  26.179  1.00  0.00    -0.352 N 
ATOM      3  C   UNL A   1      34.040  28.911  26.389  1.00  0.00     0.251 C 
ATOM      4  O   UNL A   1      35.252  28.847  26.584  1.00  0.00    -0.269 OA
ATOM      5  H   UNL A   1      34.074  30.901  26.303  1.00  0.00     0.163 HD
BRANCH   3   6
ATOM      6  C   UNL A   1      33.252  27.656  26.319  1.00  0.00     0.039 A 
ATOM      7  C   UNL A   1      31.705  25.333  26.494  1.00  0.00     0.041 A 
ATOM      8  C   UNL A   1      31.084  26.580  26.535  1.00  0.00     0.027 A 
ATOM      9  C   UNL A   1      33.057  25.253  26.173  1.00  0.00     0.027 A 
ATOM     10  C   UNL A   1      31.861  27.741  26.473  1.00  0.00     0.016 A 
ATOM     11  C   UNL A   1      33.830  26.411  26.079  1.00  0.00     0.016 A 
BRANCH   7  12
ATOM     12  N   UNL A   1      30.944  24.183  26.721  1.00  0.00    -0.325 N 
ATOM     13  C   UNL A   1      30.875  23.032  25.974  1.00  0.00     0.237 C 
ATOM     14  O   UNL A   1      30.053  22.176  26.327  1.00  0.00    -0.273 OA
ATOM     15  H   UNL A   1      30.380  24.201  27.527  1.00  0.00     0.169 HD
BRANCH  13  16
ATOM     16  C   UNL A   1      31.840  22.724  24.801  1.00  0.00     0.139 C 
ATOM     17  C   UNL A   1      32.434  21.325  24.854  1.00  0.00     0.030 C 
BRANCH  16  18
ATOM     18  S   UNL A   1      31.004  23.276  23.239  1.00  0.00    -0.093 SA
BRANCH  18  19
ATOM     19  C   UNL A   1      31.253  25.024  23.074  1.00  0.00     0.098 A 
ATOM     20  C   UNL A   1      28.942  27.848  23.294  1.00  0.00     0.145 A 
ATOM     21  C   UNL A   1      28.918  29.232  23.081  1.00  0.00     0.049 A 
ATOM     22  C   UNL A   1      30.112  27.086  23.097  1.00  0.00     0.114 A 
ATOM     23  C   UNL A   1      30.072  29.899  22.706  1.00  0.00     0.005 A 
ATOM     24  C   UNL A   1      31.291  27.777  22.731  1.00  0.00     0.007 A 
ATOM     25  N   UNL A   1      30.117  25.739  23.231  1.00  0.00    -0.238 NA
ATOM     26  C   UNL A   1      31.249  29.177  22.538  1.00  0.00     0.011 A 
ATOM     27  C   UNL A   1      32.478  27.025  22.575  1.00  0.00    -0.039 A 
ATOM     28  C   UNL A   1      33.776  27.655  22.140  1.00  0.00     0.045 C 
ATOM     29  C   UNL A   1      32.455  25.646  22.812  1.00  0.00     0.039 A 
BRANCH  20  30
ATOM     30  O   UNL A   1      27.708  27.342  23.647  1.00  0.00    -0.494 OA
ATOM     31  C   UNL A   1      26.624  28.256  23.514  1.00  0.00     0.278 C 
ENDBRANCH  20  30
ENDBRANCH  18  19
ENDBRANCH  16  18
ENDBRANCH  13  16
ENDBRANCH   7  12
ENDBRANCH   3   6
ENDBRANCH   1   2
BRANCH   1  32
ATOM     32  C   UNL A   1      31.643  31.763  26.555  1.00  0.00     0.042 C 
BRANCH  32  33
ATOM     33  C   UNL A   1      32.670  32.302  27.547  1.00  0.00     0.118 C 
BRANCH  33  34
ATOM     34  N   UNL A   1      32.551  33.740  27.735  1.00  0.00    -0.352 N 
ATOM     35  C   UNL A   1      33.222  34.578  28.592  1.00  0.00     0.251 C 
ATOM     36  H   UNL A   1      31.885  34.181  27.159  1.00  0.00     0.163 HD
ATOM     37  O   UNL A   1      32.811  35.724  28.746  1.00  0.00    -0.269 OA
BRANCH  35  38
ATOM     38  C   UNL A   1      34.412  34.109  29.341  1.00  0.00     0.039 A 
ATOM     39  C   UNL A   1      34.220  33.435  30.552  1.00  0.00     0.014 A 
ATOM     40  C   UNL A   1      35.710  34.358  28.886  1.00  0.00     0.014 A 
ATOM     41  C   UNL A   1      35.321  32.959  31.269  1.00  0.00     0.010 A 
ATOM     42  C   UNL A   1      36.804  33.820  29.565  1.00  0.00     0.010 A 
ATOM     43  C   UNL A   1      36.622  33.115  30.765  1.00  0.00    -0.014 A 
BRANCH  43  44
ATOM     44  C   UNL A   1      37.798  32.544  31.476  1.00  0.00     0.031 A 
ATOM     45  C   UNL A   1      38.591  31.424  30.858  1.00  0.00     0.074 A 
ATOM     46  C   UNL A   1      38.113  32.996  32.707  1.00  0.00     0.049 A 
ATOM     47  N   UNL A   1      39.595  30.746  31.356  1.00  0.00    -0.248 NA
ATOM     48  C   UNL A   1      38.183  30.993  29.514  1.00  0.00     0.031 C 
ATOM     49  C   UNL A   1      37.401  34.054  33.425  1.00  0.00     0.029 A 
ATOM     50  N   UNL A   1      39.106  32.618  33.577  1.00  0.00    -0.354 N 
ATOM     51  C   UNL A   1      39.930  29.801  30.392  1.00  0.00     0.074 A 
ATOM     52  C   UNL A   1      38.982  29.957  29.309  1.00  0.00     0.031 C 
ATOM     53  C   UNL A   1      37.993  34.256  34.613  1.00  0.00     0.029 A 
ATOM     54  C   UNL A   1      39.092  33.310  34.767  1.00  0.00     0.049 A 
ATOM     55  H   UNL A   1      39.767  31.919  33.368  1.00  0.00     0.167 HD
ATOM     56  C   UNL A   1      40.947  28.902  30.401  1.00  0.00     0.034 A 
ATOM     57  C   UNL A   1      39.865  33.185  35.865  1.00  0.00     0.034 A 
ATOM     58  C   UNL A   1      41.886  28.765  31.489  1.00  0.00     0.049 A 
ATOM     59  C   UNL A   1      40.964  32.153  35.868  1.00  0.00     0.074 A 
ATOM     60  C   UNL A   1      42.983  27.925  31.580  1.00  0.00     0.029 A 
ATOM     61  N   UNL A   1      41.835  29.476  32.682  1.00  0.00    -0.354 N 
ATOM     62  N   UNL A   1      41.300  31.299  34.927  1.00  0.00    -0.248 NA
ATOM     63  C   UNL A   1      41.795  32.075  37.076  1.00  0.00     0.031 C 
ATOM     64  C   UNL A   1      43.547  28.074  32.852  1.00  0.00     0.029 A 
ATOM     65  C   UNL A   1      42.858  29.068  33.527  1.00  0.00     0.049 A 
ATOM     66  H   UNL A   1      41.169  30.169  32.896  1.00  0.00     0.167 HD
ATOM     67  C   UNL A   1      42.401  30.604  35.422  1.00  0.00     0.074 A 
ATOM     68  C   UNL A   1      42.681  31.151  36.734  1.00  0.00     0.031 C 
ATOM     69  C   UNL A   1      43.119  29.610  34.840  1.00  0.00     0.034 A 
BRANCH  56  70
ATOM     70  C   UNL A   1      41.072  27.980  29.210  1.00  0.00     0.023 A 
ATOM     71  C   UNL A   1      42.082  28.148  28.246  1.00  0.00     0.031 A 
ATOM     72  C   UNL A   1      40.154  26.932  29.019  1.00  0.00     0.131 A 
ATOM     73  C   UNL A   1      42.102  27.339  27.101  1.00  0.00     0.055 A 
ATOM     74  C   UNL A   1      40.232  26.073  27.920  1.00  0.00     0.041 A 
ATOM     75  F   UNL A   1      39.155  26.730  29.893  1.00  0.00    -0.206 F 
ATOM     76  C   UNL A   1      41.200  26.285  26.943  1.00  0.00     0.022 A 
BRANCH  73  77
ATOM     77  S   UNL A   1      43.225  27.783  25.747  1.00  0.00     0.124 S 
ATOM     78  O   UNL A   1      44.120  26.628  25.715  1.00  0.00    -0.237 OA
ATOM     79  O   UNL A   1      42.316  27.917  24.614  1.00  0.00    -0.237 OA
ATOM     80  O   UNL A   1      43.841  29.026  26.204  1.00  0.00    -0.744 OA
ENDBRANCH  73  77
ENDBRANCH  56  70
BRANCH  57  81
ATOM     81  C   UNL A   1      39.622  34.045  37.060  1.00  0.00     0.023 A 
ATOM     82  C   UNL A   1      39.020  33.525  38.216  1.00  0.00     0.031 A 
ATOM     83  C   UNL A   1      39.956  35.411  37.048  1.00  0.00     0.131 A 
ATOM     84  C   UNL A   1      38.729  34.374  39.296  1.00  0.00     0.055 A 
ATOM     85  C   UNL A   1      39.715  36.240  38.146  1.00  0.00     0.041 A 
ATOM     86  F   UNL A   1      40.538  35.959  35.970  1.00  0.00    -0.206 F 
ATOM     87  C   UNL A   1      39.086  35.723  39.274  1.00  0.00     0.022 A 
BRANCH  84  88
ATOM     88  S   UNL A   1      37.799  33.703  40.701  1.00  0.00     0.124 S 
ATOM     89  O   UNL A   1      36.688  33.037  40.030  1.00  0.00    -0.237 OA
ATOM     90  O   UNL A   1      38.786  32.831  41.329  1.00  0.00    -0.237 OA
ATOM     91  O   UNL A   1      37.441  34.893  41.470  1.00  0.00    -0.744 OA
ENDBRANCH  84  88
ENDBRANCH  57  81
BRANCH  69  92
ATOM     92  C   UNL A   1      44.307  29.081  35.608  1.00  0.00     0.023 A 
ATOM     93  C   UNL A   1      44.176  28.063  36.569  1.00  0.00     0.031 A 
ATOM     94  C   UNL A   1      45.588  29.612  35.379  1.00  0.00     0.131 A 
ATOM     95  C   UNL A   1      45.298  27.650  37.305  1.00  0.00     0.055 A 
ATOM     96  C   UNL A   1      46.711  29.152  36.069  1.00  0.00     0.041 A 
ATOM     97  F   UNL A   1      45.772  30.589  34.476  1.00  0.00    -0.206 F 
ATOM     98  C   UNL A   1      46.566  28.174  37.048  1.00  0.00     0.022 A 
BRANCH  95  99
ATOM     99  S   UNL A   1      45.058  26.485  38.676  1.00  0.00     0.124 S 
ATOM    100  O   UNL A   1      45.667  25.268  38.149  1.00  0.00    -0.237 OA
ATOM    101  O   UNL A   1      45.774  27.136  39.768  1.00  0.00    -0.237 OA
ATOM    102  O   UNL A   1      43.605  26.433  38.831  1.00  0.00    -0.744 OA
ENDBRANCH  95  99
ENDBRANCH  69  92
ENDBRANCH  43  44
ENDBRANCH  35  38
ENDBRANCH  33  34
ENDBRANCH  32  33
ENDBRANCH   1  32
TORSDOF 18
ENDMDL
MODEL 2
REMARK VINA RESULT:     -11.7      2.420      8.329
REMARK SMILES COc1cccc2c(C)cc(S[C@H](C)C(=O)Nc3ccc(C(=O)NCCCNC(=O)c4ccc(-c5c6nc(c(-c7cc(S(=O)(=O)[O-])ccc7F)c7ccc([nH]7)c(-c7cc(S(=O)(=O)[O-])ccc7F)c7nc(c(-c8cc(S(=O)(=O)[O-])ccc8F)c8ccc5[nH]8)C=C7)C=C6)cc4)cc3)nc12
REMARK SMILES IDX 25 1 24 2 22 3 23 4 21 6 18 7 19 8 95 9 20 10 94 11 17 12
REMARK SMILES IDX 15 13 16 14 13 16 14 17 12 18 11 19 3 20 4 21 97 22 5 23
REMARK SMILES IDX 7 24 96 25 6 26 8 27 9 28 10 29 2 30 1 31 26 32 27 33 28 34
REMARK SMILES IDX 29 35 30 37 31 38 32 39 93 40 33 41 92 42 34 43 35 44 36 45
REMARK SMILES IDX 86 46 37 47 91 48 85 49 87 50 38 51 90 52 84 53 83 54 39 56
REMARK SMILES IDX 71 57 51 58 70 59 52 60 55 61 69 62 88 63 53 64 54 65 68 67
REMARK SMILES IDX 89 68 56 69 40 70 41 71 49 72 42 73 48 74 50 75 47 76 43 77
REMARK SMILES IDX 44 78 45 79 46 80 72 81 73 82 81 83 74 84 80 85 82 86 79 87
REMARK SMILES IDX 75 88 76 89 77 90 78 91 57 92 58 93 66 94 59 95 65 96 67 97
REMARK SMILES IDX 64 98 60 99 61 100 62 101 63 102
REMARK H PARENT 24 5 17 15 28 36 87 55 55 66
REMARK Flexibility Score: inf
ROOT
ATOM      1  C   UNL A   1      31.855  31.161  26.738  1.00  0.00     0.118 C 
ENDROOT
BRANCH   1   2
ATOM      2  N   UNL A   1      33.085  30.641  27.319  1.00  0.00    -0.352 N 
ATOM      3  C   UNL A   1      33.664  29.397  27.256  1.00  0.00     0.251 C 
ATOM      4  O   UNL A   1      34.782  29.234  27.739  1.00  0.00    -0.269 OA
ATOM      5  H   UNL A   1      33.592  31.297  27.850  1.00  0.00     0.163 HD
BRANCH   3   6
ATOM      6  C   UNL A   1      33.003  28.264  26.562  1.00  0.00     0.039 A 
ATOM      7  C   UNL A   1      31.799  26.293  24.986  1.00  0.00     0.041 A 
ATOM      8  C   UNL A   1      33.178  26.477  24.924  1.00  0.00     0.027 A 
ATOM      9  C   UNL A   1      31.064  26.955  25.966  1.00  0.00     0.027 A 
ATOM     10  C   UNL A   1      33.776  27.480  25.694  1.00  0.00     0.016 A 
ATOM     11  C   UNL A   1      31.664  27.933  26.758  1.00  0.00     0.016 A 
BRANCH   7  12
ATOM     12  N   UNL A   1      31.188  25.405  24.097  1.00  0.00    -0.325 N 
ATOM     13  C   UNL A   1      30.933  24.064  24.253  1.00  0.00     0.237 C 
ATOM     14  O   UNL A   1      30.460  23.460  23.282  1.00  0.00    -0.273 OA
ATOM     15  H   UNL A   1      30.901  25.795  23.239  1.00  0.00     0.169 HD
BRANCH  13  16
ATOM     16  C   UNL A   1      31.107  23.321  25.603  1.00  0.00     0.139 C 
ATOM     17  C   UNL A   1      29.935  23.505  26.553  1.00  0.00     0.030 C 
BRANCH  16  18
ATOM     18  S   UNL A   1      31.674  21.597  25.214  1.00  0.00    -0.093 SA
BRANCH  18  19
ATOM     19  C   UNL A   1      33.444  21.614  25.110  1.00  0.00     0.098 A 
ATOM     20  C   UNL A   1      35.893  18.920  24.776  1.00  0.00     0.145 A 
ATOM     21  C   UNL A   1      37.279  18.724  24.801  1.00  0.00     0.049 A 
ATOM     22  C   UNL A   1      35.321  20.199  24.939  1.00  0.00     0.114 A 
ATOM     23  C   UNL A   1      38.134  19.803  24.948  1.00  0.00     0.005 A 
ATOM     24  C   UNL A   1      36.200  21.299  25.071  1.00  0.00     0.007 A 
ATOM     25  N   UNL A   1      33.980  20.380  24.990  1.00  0.00    -0.238 NA
ATOM     26  C   UNL A   1      37.598  21.080  25.077  1.00  0.00     0.011 A 
ATOM     27  C   UNL A   1      35.634  22.589  25.190  1.00  0.00    -0.039 A 
ATOM     28  C   UNL A   1      36.479  23.822  25.385  1.00  0.00     0.045 C 
ATOM     29  C   UNL A   1      34.243  22.736  25.147  1.00  0.00     0.039 A 
BRANCH  20  30
ATOM     30  O   UNL A   1      35.190  17.742  24.639  1.00  0.00    -0.494 OA
ATOM     31  C   UNL A   1      35.740  16.630  25.339  1.00  0.00     0.278 C 
ENDBRANCH  20  30
ENDBRANCH  18  19
ENDBRANCH  16  18
ENDBRANCH  13  16
ENDBRANCH   7  12
ENDBRANCH   3   6
ENDBRANCH   1   2
BRANCH   1  32
ATOM     32  C   UNL A   1      31.734  32.671  26.942  1.00  0.00     0.042 C 
BRANCH  32  33
ATOM     33  C   UNL A   1      33.070  33.369  27.186  1.00  0.00     0.118 C 
BRANCH  33  34
ATOM     34  N   UNL A   1      32.942  34.501  28.091  1.00  0.00    -0.352 N 
ATOM     35  C   UNL A   1      33.551  34.740  29.299  1.00  0.00     0.251 C 
ATOM     36  H   UNL A   1      32.321  35.205  27.792  1.00  0.00     0.163 HD
ATOM     37  O   UNL A   1      33.132  35.653  30.005  1.00  0.00    -0.269 OA
BRANCH  35  38
ATOM     38  C   UNL A   1      34.680  33.899  29.763  1.00  0.00     0.039 A 
ATOM     39  C   UNL A   1      35.970  34.197  29.309  1.00  0.00     0.014 A 
ATOM     40  C   UNL A   1      34.479  32.803  30.606  1.00  0.00     0.014 A 
ATOM     41  C   UNL A   1      37.057  33.438  29.748  1.00  0.00     0.010 A 
ATOM     42  C   UNL A   1      35.573  32.092  31.101  1.00  0.00     0.010 A 
ATOM     43  C   UNL A   1      36.875  32.401  30.678  1.00  0.00    -0.014 A 
BRANCH  43  44
ATOM     44  C   UNL A   1      38.032  31.635  31.215  1.00  0.00     0.031 A 
ATOM     45  C   UNL A   1      38.604  31.972  32.567  1.00  0.00     0.074 A 
ATOM     46  C   UNL A   1      38.605  30.677  30.459  1.00  0.00     0.049 A 
ATOM     47  N   UNL A   1      39.654  31.473  33.169  1.00  0.00    -0.248 NA
ATOM     48  C   UNL A   1      37.919  33.027  33.327  1.00  0.00     0.031 C 
ATOM     49  C   UNL A   1      38.162  30.283  29.120  1.00  0.00     0.029 A 
ATOM     50  N   UNL A   1      39.687  29.867  30.700  1.00  0.00    -0.354 N 
ATOM     51  C   UNL A   1      39.763  32.162  34.373  1.00  0.00     0.074 A 
ATOM     52  C   UNL A   1      38.708  33.152  34.384  1.00  0.00     0.031 C 
ATOM     53  C   UNL A   1      38.949  29.293  28.670  1.00  0.00     0.029 A 
ATOM     54  C   UNL A   1      39.984  29.016  29.660  1.00  0.00     0.049 A 
ATOM     55  H   UNL A   1      40.201  29.893  31.539  1.00  0.00     0.167 HD
ATOM     56  C   UNL A   1      40.649  31.970  35.384  1.00  0.00     0.034 A 
ATOM     57  C   UNL A   1      40.986  28.126  29.512  1.00  0.00     0.034 A 
ATOM     58  C   UNL A   1      41.693  30.973  35.357  1.00  0.00     0.049 A 
ATOM     59  C   UNL A   1      41.981  27.957  30.632  1.00  0.00     0.074 A 
ATOM     60  C   UNL A   1      42.610  30.659  36.346  1.00  0.00     0.029 A 
ATOM     61  N   UNL A   1      41.969  30.136  34.283  1.00  0.00    -0.354 N 
ATOM     62  N   UNL A   1      42.042  28.583  31.786  1.00  0.00    -0.248 NA
ATOM     63  C   UNL A   1      43.038  26.957  30.434  1.00  0.00     0.031 C 
ATOM     64  C   UNL A   1      43.484  29.689  35.843  1.00  0.00     0.029 A 
ATOM     65  C   UNL A   1      43.064  29.332  34.572  1.00  0.00     0.049 A 
ATOM     66  H   UNL A   1      41.462  30.115  33.440  1.00  0.00     0.167 HD
ATOM     67  C   UNL A   1      43.125  28.027  32.462  1.00  0.00     0.074 A 
ATOM     68  C   UNL A   1      43.676  27.006  31.594  1.00  0.00     0.031 C 
ATOM     69  C   UNL A   1      43.614  28.328  33.692  1.00  0.00     0.034 A 
BRANCH  56  70
ATOM     70  C   UNL A   1      40.541  32.880  36.586  1.00  0.00     0.023 A 
ATOM     71  C   UNL A   1      39.723  32.561  37.685  1.00  0.00     0.031 A 
ATOM     72  C   UNL A   1      41.244  34.097  36.626  1.00  0.00     0.131 A 
ATOM     73  C   UNL A   1      39.567  33.479  38.734  1.00  0.00     0.055 A 
ATOM     74  C   UNL A   1      41.152  34.967  37.714  1.00  0.00     0.041 A 
ATOM     75  F   UNL A   1      42.026  34.469  35.600  1.00  0.00    -0.206 F 
ATOM     76  C   UNL A   1      40.296  34.669  38.770  1.00  0.00     0.022 A 
BRANCH  73  77
ATOM     77  S   UNL A   1      38.279  33.165  39.973  1.00  0.00     0.124 S 
ATOM     78  O   UNL A   1      37.124  32.863  39.129  1.00  0.00    -0.237 OA
ATOM     79  O   UNL A   1      38.830  32.044  40.724  1.00  0.00    -0.237 OA
ATOM     80  O   UNL A   1      38.193  34.426  40.706  1.00  0.00    -0.744 OA
ENDBRANCH  73  77
ENDBRANCH  56  70
BRANCH  57  81
ATOM     81  C   UNL A   1      41.113  27.335  28.254  1.00  0.00     0.023 A 
ATOM     82  C   UNL A   1      40.879  25.952  28.241  1.00  0.00     0.031 A 
ATOM     83  C   UNL A   1      41.509  27.948  27.051  1.00  0.00     0.131 A 
ATOM     84  C   UNL A   1      41.084  25.218  27.062  1.00  0.00     0.055 A 
ATOM     85  C   UNL A   1      41.659  27.222  25.867  1.00  0.00     0.041 A 
ATOM     86  F   UNL A   1      41.741  29.269  27.005  1.00  0.00    -0.206 F 
ATOM     87  C   UNL A   1      41.458  25.846  25.872  1.00  0.00     0.022 A 
BRANCH  84  88
ATOM     88  S   UNL A   1      40.937  23.411  27.127  1.00  0.00     0.124 S 
ATOM     89  O   UNL A   1      41.579  23.107  28.401  1.00  0.00    -0.237 OA
ATOM     90  O   UNL A   1      39.491  23.223  27.076  1.00  0.00    -0.237 OA
ATOM     91  O   UNL A   1      41.664  22.968  25.939  1.00  0.00    -0.744 OA
ENDBRANCH  84  88
ENDBRANCH  57  81
BRANCH  69  92
ATOM     92  C   UNL A   1      44.783  27.508  34.186  1.00  0.00     0.023 A 
ATOM     93  C   UNL A   1      44.600  26.310  34.900  1.00  0.00     0.031 A 
ATOM     94  C   UNL A   1      46.099  27.938  33.945  1.00  0.00     0.131 A 
ATOM     95  C   UNL A   1      45.714  25.617  35.397  1.00  0.00     0.055 A 
ATOM     96  C   UNL A   1      47.205  27.210  34.385  1.00  0.00     0.041 A 
ATOM     97  F   UNL A   1      46.333  29.077  33.272  1.00  0.00    -0.206 F 
ATOM     98  C   UNL A   1      47.015  26.048  35.128  1.00  0.00     0.022 A 
BRANCH  95  99
ATOM     99  S   UNL A   1      45.438  24.191  36.486  1.00  0.00     0.124 S 
ATOM    100  O   UNL A   1      44.570  23.350  35.669  1.00  0.00    -0.237 OA
ATOM    101  O   UNL A   1      46.794  23.694  36.699  1.00  0.00    -0.237 OA
ATOM    102  O   UNL A   1      44.802  24.779  37.664  1.00  0.00    -0.744 OA
ENDBRANCH  95  99
ENDBRANCH  69  92
ENDBRANCH  43  44
ENDBRANCH  35  38
ENDBRANCH  33  34
ENDBRANCH  32  33
ENDBRANCH   1  32
TORSDOF 18
ENDMDL
MODEL 3
REMARK VINA RESULT:     -11.6      1.449      3.365
REMARK SMILES COc1cccc2c(C)cc(S[C@H](C)C(=O)Nc3ccc(C(=O)NCCCNC(=O)c4ccc(-c5c6nc(c(-c7cc(S(=O)(=O)[O-])ccc7F)c7ccc([nH]7)c(-c7cc(S(=O)(=O)[O-])ccc7F)c7nc(c(-c8cc(S(=O)(=O)[O-])ccc8F)c8ccc5[nH]8)C=C7)C=C6)cc4)cc3)nc12
REMARK SMILES IDX 25 1 24 2 22 3 23 4 21 6 18 7 19 8 95 9 20 10 94 11 17 12
REMARK SMILES IDX 15 13 16 14 13 16 14 17 12 18 11 19 3 20 4 21 97 22 5 23
REMARK SMILES IDX 7 24 96 25 6 26 8 27 9 28 10 29 2 30 1 31 26 32 27 33 28 34
REMARK SMILES IDX 29 35 30 37 31 38 32 39 93 40 33 41 92 42 34 43 35 44 36 45
REMARK SMILES IDX 86 46 37 47 91 48 85 49 87 50 38 51 90 52 84 53 83 54 39 56
REMARK SMILES IDX 71 57 51 58 70 59 52 60 55 61 69 62 88 63 53 64 54 65 68 67
REMARK SMILES IDX 89 68 56 69 40 70 41 71 49 72 42 73 48 74 50 75 47 76 43 77
REMARK SMILES IDX 44 78 45 79 46 80 72 81 73 82 81 83 74 84 80 85 82 86 79 87
REMARK SMILES IDX 75 88 76 89 77 90 78 91 57 92 58 93 66 94 59 95 65 96 67 97
REMARK SMILES IDX 64 98 60 99 61 100 62 101 63 102
REMARK H PARENT 24 5 17 15 28 36 87 55 55 66
REMARK Flexibility Score: inf
ROOT
ATOM      1  C   UNL A   1      32.167  31.484  26.803  1.00  0.00     0.118 C 
ENDROOT
BRANCH   1   2
ATOM      2  N   UNL A   1      33.518  31.121  27.207  1.00  0.00    -0.352 N 
ATOM      3  C   UNL A   1      34.154  29.905  27.259  1.00  0.00     0.251 C 
ATOM      4  O   UNL A   1      35.353  29.870  27.526  1.00  0.00    -0.269 OA
ATOM      5  H   UNL A   1      34.073  31.881  27.495  1.00  0.00     0.163 HD
BRANCH   3   6
ATOM      6  C   UNL A   1      33.448  28.641  26.933  1.00  0.00     0.039 A 
ATOM      7  C   UNL A   1      32.157  26.181  26.621  1.00  0.00     0.041 A 
ATOM      8  C   UNL A   1      31.519  27.212  27.307  1.00  0.00     0.027 A 
ATOM      9  C   UNL A   1      33.340  26.444  25.937  1.00  0.00     0.027 A 
ATOM     10  C   UNL A   1      32.177  28.434  27.483  1.00  0.00     0.016 A 
ATOM     11  C   UNL A   1      33.983  27.673  26.085  1.00  0.00     0.016 A 
BRANCH   7  12
ATOM     12  N   UNL A   1      31.567  24.915  26.590  1.00  0.00    -0.325 N 
ATOM     13  C   UNL A   1      30.709  24.384  25.657  1.00  0.00     0.237 C 
ATOM     14  O   UNL A   1      30.240  23.262  25.891  1.00  0.00    -0.273 OA
ATOM     15  H   UNL A   1      31.798  24.321  27.340  1.00  0.00     0.169 HD
BRANCH  13  16
ATOM     16  C   UNL A   1      30.401  25.072  24.303  1.00  0.00     0.139 C 
ATOM     17  C   UNL A   1      29.804  26.463  24.450  1.00  0.00     0.030 C 
BRANCH  16  18
ATOM     18  S   UNL A   1      31.894  24.856  23.222  1.00  0.00    -0.093 SA
BRANCH  18  19
ATOM     19  C   UNL A   1      32.699  23.349  23.698  1.00  0.00     0.098 A 
ATOM     20  C   UNL A   1      36.024  22.689  25.066  1.00  0.00     0.145 A 
ATOM     21  C   UNL A   1      36.859  21.608  25.379  1.00  0.00     0.049 A 
ATOM     22  C   UNL A   1      34.730  22.500  24.540  1.00  0.00     0.114 A 
ATOM     23  C   UNL A   1      36.409  20.310  25.213  1.00  0.00     0.005 A 
ATOM     24  C   UNL A   1      34.271  21.170  24.389  1.00  0.00     0.007 A 
ATOM     25  N   UNL A   1      33.951  23.543  24.168  1.00  0.00    -0.238 NA
ATOM     26  C   UNL A   1      35.124  20.093  24.727  1.00  0.00     0.011 A 
ATOM     27  C   UNL A   1      32.958  20.973  23.903  1.00  0.00    -0.039 A 
ATOM     28  C   UNL A   1      32.389  19.599  23.660  1.00  0.00     0.045 C 
ATOM     29  C   UNL A   1      32.157  22.085  23.618  1.00  0.00     0.039 A 
BRANCH  20  30
ATOM     30  O   UNL A   1      36.632  23.909  25.275  1.00  0.00    -0.494 OA
ATOM     31  C   UNL A   1      37.826  23.861  26.050  1.00  0.00     0.278 C 
ENDBRANCH  20  30
ENDBRANCH  18  19
ENDBRANCH  16  18
ENDBRANCH  13  16
ENDBRANCH   7  12
ENDBRANCH   3   6
ENDBRANCH   1   2
BRANCH   1  32
ATOM     32  C   UNL A   1      31.878  32.960  27.074  1.00  0.00     0.042 C 
BRANCH  32  33
ATOM     33  C   UNL A   1      33.101  33.754  27.525  1.00  0.00     0.118 C 
BRANCH  33  34
ATOM     34  N   UNL A   1      32.750  34.844  28.424  1.00  0.00    -0.352 N 
ATOM     35  C   UNL A   1      33.190  35.118  29.695  1.00  0.00     0.251 C 
ATOM     36  H   UNL A   1      32.093  35.484  28.063  1.00  0.00     0.163 HD
ATOM     37  O   UNL A   1      32.598  35.963  30.360  1.00  0.00    -0.269 OA
BRANCH  35  38
ATOM     38  C   UNL A   1      34.346  34.393  30.275  1.00  0.00     0.039 A 
ATOM     39  C   UNL A   1      35.618  34.620  29.739  1.00  0.00     0.014 A 
ATOM     40  C   UNL A   1      34.185  33.468  31.310  1.00  0.00     0.014 A 
ATOM     41  C   UNL A   1      36.730  33.969  30.281  1.00  0.00     0.010 A 
ATOM     42  C   UNL A   1      35.304  32.875  31.897  1.00  0.00     0.010 A 
ATOM     43  C   UNL A   1      36.589  33.119  31.390  1.00  0.00    -0.014 A 
BRANCH  43  44
ATOM     44  C   UNL A   1      37.773  32.482  32.027  1.00  0.00     0.031 A 
ATOM     45  C   UNL A   1      38.501  31.362  31.331  1.00  0.00     0.074 A 
ATOM     46  C   UNL A   1      38.155  32.871  33.260  1.00  0.00     0.049 A 
ATOM     47  N   UNL A   1      39.500  30.632  31.758  1.00  0.00    -0.248 NA
ATOM     48  C   UNL A   1      38.022  31.000  29.990  1.00  0.00     0.031 C 
ATOM     49  C   UNL A   1      37.509  33.922  34.050  1.00  0.00     0.029 A 
ATOM     50  N   UNL A   1      39.169  32.426  34.070  1.00  0.00    -0.354 N 
ATOM     51  C   UNL A   1      39.762  29.717  30.743  1.00  0.00     0.074 A 
ATOM     52  C   UNL A   1      38.776  29.948  29.709  1.00  0.00     0.031 C 
ATOM     53  C   UNL A   1      38.157  34.055  35.218  1.00  0.00     0.029 A 
ATOM     54  C   UNL A   1      39.229  33.068  35.287  1.00  0.00     0.049 A 
ATOM     55  H   UNL A   1      39.796  31.714  33.806  1.00  0.00     0.167 HD
ATOM     56  C   UNL A   1      40.748  28.786  30.674  1.00  0.00     0.034 A 
ATOM     57  C   UNL A   1      40.041  32.873  36.344  1.00  0.00     0.034 A 
ATOM     58  C   UNL A   1      41.725  28.573  31.714  1.00  0.00     0.049 A 
ATOM     59  C   UNL A   1      41.104  31.807  36.259  1.00  0.00     0.074 A 
ATOM     60  C   UNL A   1      42.796  27.695  31.724  1.00  0.00     0.029 A 
ATOM     61  N   UNL A   1      41.748  29.236  32.935  1.00  0.00    -0.354 N 
ATOM     62  N   UNL A   1      41.370  30.981  35.272  1.00  0.00    -0.248 NA
ATOM     63  C   UNL A   1      41.982  31.651  37.426  1.00  0.00     0.031 C 
ATOM     64  C   UNL A   1      43.417  27.773  32.976  1.00  0.00     0.029 A 
ATOM     65  C   UNL A   1      42.791  28.760  33.718  1.00  0.00     0.049 A 
ATOM     66  H   UNL A   1      41.117  29.941  33.205  1.00  0.00     0.167 HD
ATOM     67  C   UNL A   1      42.466  30.231  35.691  1.00  0.00     0.074 A 
ATOM     68  C   UNL A   1      42.820  30.714  37.010  1.00  0.00     0.031 C 
ATOM     69  C   UNL A   1      43.125  29.239  35.039  1.00  0.00     0.034 A 
BRANCH  56  70
ATOM     70  C   UNL A   1      40.791  27.910  29.442  1.00  0.00     0.023 A 
ATOM     71  C   UNL A   1      41.731  28.120  28.417  1.00  0.00     0.031 A 
ATOM     72  C   UNL A   1      39.864  26.864  29.277  1.00  0.00     0.131 A 
ATOM     73  C   UNL A   1      41.672  27.354  27.243  1.00  0.00     0.055 A 
ATOM     74  C   UNL A   1      39.868  26.049  28.143  1.00  0.00     0.041 A 
ATOM     75  F   UNL A   1      38.930  26.625  30.210  1.00  0.00    -0.206 F 
ATOM     76  C   UNL A   1      40.764  26.302  27.109  1.00  0.00     0.022 A 
BRANCH  73  77
ATOM     77  S   UNL A   1      42.696  27.855  25.832  1.00  0.00     0.124 S 
ATOM     78  O   UNL A   1      42.413  29.287  25.755  1.00  0.00    -0.237 OA
ATOM     79  O   UNL A   1      44.039  27.493  26.272  1.00  0.00    -0.237 OA
ATOM     80  O   UNL A   1      42.167  27.062  24.725  1.00  0.00    -0.744 OA
ENDBRANCH  73  77
ENDBRANCH  56  70
BRANCH  57  81
ATOM     81  C   UNL A   1      39.879  33.690  37.582  1.00  0.00     0.023 A 
ATOM     82  C   UNL A   1      39.205  33.181  38.703  1.00  0.00     0.031 A 
ATOM     83  C   UNL A   1      40.363  35.009  37.647  1.00  0.00     0.131 A 
ATOM     84  C   UNL A   1      38.994  33.999  39.824  1.00  0.00     0.055 A 
ATOM     85  C   UNL A   1      40.200  35.800  38.786  1.00  0.00     0.041 A 
ATOM     86  F   UNL A   1      41.019  35.544  36.606  1.00  0.00    -0.206 F 
ATOM     87  C   UNL A   1      39.500  35.299  39.879  1.00  0.00     0.022 A 
BRANCH  84  88
ATOM     88  S   UNL A   1      37.974  33.364  41.182  1.00  0.00     0.124 S 
ATOM     89  O   UNL A   1      38.522  32.025  41.365  1.00  0.00    -0.237 OA
ATOM     90  O   UNL A   1      38.253  34.324  42.246  1.00  0.00    -0.237 OA
ATOM     91  O   UNL A   1      36.618  33.416  40.640  1.00  0.00    -0.744 OA
ENDBRANCH  84  88
ENDBRANCH  57  81
BRANCH  69  92
ATOM     92  C   UNL A   1      44.325  28.640  35.734  1.00  0.00     0.023 A 
ATOM     93  C   UNL A   1      44.199  27.592  36.663  1.00  0.00     0.031 A 
ATOM     94  C   UNL A   1      45.614  29.134  35.467  1.00  0.00     0.131 A 
ATOM     95  C   UNL A   1      45.336  27.112  37.333  1.00  0.00     0.055 A 
ATOM     96  C   UNL A   1      46.748  28.609  36.089  1.00  0.00     0.041 A 
ATOM     97  F   UNL A   1      45.794  30.138  34.593  1.00  0.00    -0.206 F 
ATOM     98  C   UNL A   1      46.610  27.601  37.038  1.00  0.00     0.022 A 
BRANCH  95  99
ATOM     99  S   UNL A   1      45.113  25.905  38.670  1.00  0.00     0.124 S 
ATOM    100  O   UNL A   1      44.548  24.765  37.958  1.00  0.00    -0.237 OA
ATOM    101  O   UNL A   1      46.474  25.737  39.169  1.00  0.00    -0.237 OA
ATOM    102  O   UNL A   1      44.196  26.578  39.589  1.00  0.00    -0.744 OA
ENDBRANCH  95  99
ENDBRANCH  69  92
ENDBRANCH  43  44
ENDBRANCH  35  38
ENDBRANCH  33  34
ENDBRANCH  32  33
ENDBRANCH   1  32
TORSDOF 18
ENDMDL
