MODEL 1
REMARK VINA RESULT:     -11.5      0.000      0.000
REMARK SMILES C[C@@H](CC(=O)NCCCNC(=O)c1ccc(-c2c3nc(c(-c4cc(S(=O)(=O)[O-])ccc4F)c4ccc([nH]4)c(-c4cc(S(=O)(=O)[O-])ccc4F)c4nc(c(-c5cc(S(=O)(=O)[O-])ccc5F)c5ccc2[nH]5)C=C4)C=C3)cc1)Cc1nnc(C2C(C)(C)C2(C)C)o1
REMARK SMILES IDX 7 1 6 2 4 3 5 4 3 6 2 7 1 8 76 9 77 10 78 11 88 12 79 13
REMARK SMILES IDX 80 14 81 15 82 16 85 17 83 18 84 19 86 20 87 21 8 22 9 23
REMARK SMILES IDX 10 24 11 25 12 27 13 28 14 29 75 30 15 31 74 32 16 33 17 34
REMARK SMILES IDX 18 35 68 36 19 37 73 38 67 39 69 40 20 41 72 42 66 43 65 44
REMARK SMILES IDX 21 46 53 47 33 48 52 49 34 50 37 51 51 52 70 53 35 54 36 55
REMARK SMILES IDX 50 57 71 58 38 59 22 60 23 61 31 62 24 63 30 64 32 65 29 66
REMARK SMILES IDX 25 67 26 68 27 69 28 70 54 71 55 72 63 73 56 74 62 75 64 76
REMARK SMILES IDX 61 77 57 78 58 79 59 80 60 81 39 82 40 83 48 84 41 85 47 86
REMARK SMILES IDX 49 87 46 88 42 89 43 90 44 91 45 92
REMARK H PARENT 6 5 10 26 69 45 37 56
REMARK Flexibility Score: inf
ROOT
ATOM      1  C   UNL A   1      32.983  27.844  22.757  1.00  0.00     0.117 C 
ENDROOT
BRANCH   1   2
ATOM      2  N   UNL A   1      31.725  28.309  22.200  1.00  0.00    -0.356 N 
ATOM      3  C   UNL A   1      30.465  28.272  22.706  1.00  0.00     0.220 C 
ATOM      4  O   UNL A   1      29.542  28.687  22.002  1.00  0.00    -0.275 OA
ATOM      5  H   UNL A   1      31.798  28.718  21.308  1.00  0.00     0.163 HD
BRANCH   3   6
ATOM      6  C   UNL A   1      30.184  27.743  24.101  1.00  0.00     0.103 C 
BRANCH   6   7
ATOM      7  C   UNL A   1      30.695  26.324  24.431  1.00  0.00     0.004 C 
ATOM      8  C   UNL A   1      30.169  25.285  23.434  1.00  0.00     0.009 C 
BRANCH   7   9
ATOM      9  C   UNL A   1      30.484  25.938  25.914  1.00  0.00     0.103 C 
BRANCH   9  10
ATOM     10  C   UNL A   1      31.426  24.902  26.404  1.00  0.00     0.216 A 
ATOM     11  N   UNL A   1      31.196  23.925  27.251  1.00  0.00    -0.113 NA
ATOM     12  O   UNL A   1      32.661  24.823  25.823  1.00  0.00    -0.425 OA
ATOM     13  N   UNL A   1      32.303  23.109  27.204  1.00  0.00    -0.113 NA
ATOM     14  C   UNL A   1      33.135  23.639  26.329  1.00  0.00     0.220 A 
BRANCH  14  15
ATOM     15  C   UNL A   1      34.432  22.945  25.944  1.00  0.00     0.090 C 
ATOM     16  C   UNL A   1      34.529  21.866  24.859  1.00  0.00    -0.017 C 
ATOM     17  C   UNL A   1      35.137  23.248  24.620  1.00  0.00    -0.017 C 
ATOM     18  C   UNL A   1      35.448  20.693  25.149  1.00  0.00     0.012 C 
ATOM     19  C   UNL A   1      33.327  21.419  24.056  1.00  0.00     0.012 C 
ATOM     20  C   UNL A   1      34.522  24.177  23.597  1.00  0.00     0.012 C 
ATOM     21  C   UNL A   1      36.639  23.437  24.707  1.00  0.00     0.012 C 
ENDBRANCH  14  15
ENDBRANCH   9  10
ENDBRANCH   7   9
ENDBRANCH   6   7
ENDBRANCH   3   6
ENDBRANCH   1   2
BRANCH   1  22
ATOM     22  C   UNL A   1      33.705  28.956  23.514  1.00  0.00     0.042 C 
BRANCH  22  23
ATOM     23  C   UNL A   1      33.526  28.912  25.027  1.00  0.00     0.118 C 
BRANCH  23  24
ATOM     24  N   UNL A   1      32.953  30.137  25.557  1.00  0.00    -0.352 N 
ATOM     25  C   UNL A   1      33.289  30.874  26.664  1.00  0.00     0.251 C 
ATOM     26  H   UNL A   1      32.199  30.497  25.037  1.00  0.00     0.163 HD
ATOM     27  O   UNL A   1      32.520  31.772  27.018  1.00  0.00    -0.269 OA
BRANCH  25  28
ATOM     28  C   UNL A   1      34.521  30.608  27.448  1.00  0.00     0.039 A 
ATOM     29  C   UNL A   1      34.654  29.365  28.076  1.00  0.00     0.014 A 
ATOM     30  C   UNL A   1      35.519  31.571  27.626  1.00  0.00     0.014 A 
ATOM     31  C   UNL A   1      35.793  29.075  28.833  1.00  0.00     0.010 A 
ATOM     32  C   UNL A   1      36.696  31.251  28.307  1.00  0.00     0.010 A 
ATOM     33  C   UNL A   1      36.841  30.004  28.933  1.00  0.00    -0.014 A 
BRANCH  33  34
ATOM     34  C   UNL A   1      38.075  29.679  29.700  1.00  0.00     0.031 A 
ATOM     35  C   UNL A   1      38.317  30.279  31.061  1.00  0.00     0.074 A 
ATOM     36  C   UNL A   1      39.003  28.869  29.150  1.00  0.00     0.049 A 
ATOM     37  N   UNL A   1      39.327  30.106  31.876  1.00  0.00    -0.248 NA
ATOM     38  C   UNL A   1      37.304  31.222  31.555  1.00  0.00     0.031 C 
ATOM     39  C   UNL A   1      38.925  28.285  27.809  1.00  0.00     0.029 A 
ATOM     40  N   UNL A   1      40.194  28.400  29.646  1.00  0.00    -0.354 N 
ATOM     41  C   UNL A   1      39.080  30.930  32.970  1.00  0.00     0.074 A 
ATOM     42  C   UNL A   1      37.857  31.649  32.680  1.00  0.00     0.031 C 
ATOM     43  C   UNL A   1      40.005  27.517  27.599  1.00  0.00     0.029 A 
ATOM     44  C   UNL A   1      40.870  27.577  28.774  1.00  0.00     0.049 A 
ATOM     45  H   UNL A   1      40.533  28.630  30.541  1.00  0.00     0.167 HD
ATOM     46  C   UNL A   1      39.794  31.061  34.118  1.00  0.00     0.034 A 
ATOM     47  C   UNL A   1      42.052  26.944  28.902  1.00  0.00     0.034 A 
ATOM     48  C   UNL A   1      41.005  30.325  34.396  1.00  0.00     0.049 A 
ATOM     49  C   UNL A   1      42.812  27.074  30.195  1.00  0.00     0.074 A 
ATOM     50  C   UNL A   1      41.762  30.315  35.556  1.00  0.00     0.029 A 
ATOM     51  N   UNL A   1      41.649  29.481  33.501  1.00  0.00    -0.354 N 
ATOM     52  N   UNL A   1      42.518  27.788  31.258  1.00  0.00    -0.248 NA
ATOM     53  C   UNL A   1      44.049  26.295  30.314  1.00  0.00     0.031 C 
ATOM     54  C   UNL A   1      42.894  29.520  35.338  1.00  0.00     0.029 A 
ATOM     55  C   UNL A   1      42.809  28.971  34.068  1.00  0.00     0.049 A 
ATOM     56  H   UNL A   1      41.328  29.273  32.593  1.00  0.00     0.167 HD
ATOM     57  C   UNL A   1      43.531  27.532  32.178  1.00  0.00     0.074 A 
ATOM     58  C   UNL A   1      44.422  26.573  31.554  1.00  0.00     0.031 C 
ATOM     59  C   UNL A   1      43.711  28.043  33.423  1.00  0.00     0.034 A 
BRANCH  46  60
ATOM     60  C   UNL A   1      39.290  32.057  35.140  1.00  0.00     0.023 A 
ATOM     61  C   UNL A   1      39.811  33.362  35.225  1.00  0.00     0.031 A 
ATOM     62  C   UNL A   1      38.304  31.685  36.071  1.00  0.00     0.131 A 
ATOM     63  C   UNL A   1      39.411  34.212  36.268  1.00  0.00     0.055 A 
ATOM     64  C   UNL A   1      37.847  32.568  37.054  1.00  0.00     0.041 A 
ATOM     65  F   UNL A   1      37.779  30.450  36.055  1.00  0.00    -0.206 F 
ATOM     66  C   UNL A   1      38.415  33.833  37.168  1.00  0.00     0.022 A 
BRANCH  63  67
ATOM     67  S   UNL A   1      40.329  35.756  36.527  1.00  0.00     0.124 S 
ATOM     68  O   UNL A   1      39.653  36.661  35.601  1.00  0.00    -0.237 OA
ATOM     69  O   UNL A   1      40.115  36.016  37.947  1.00  0.00    -0.237 OA
ATOM     70  O   UNL A   1      41.699  35.407  36.156  1.00  0.00    -0.744 OA
ENDBRANCH  63  67
ENDBRANCH  46  60
BRANCH  47  71
ATOM     71  C   UNL A   1      42.593  26.135  27.773  1.00  0.00     0.023 A 
ATOM     72  C   UNL A   1      42.156  24.821  27.541  1.00  0.00     0.031 A 
ATOM     73  C   UNL A   1      43.572  26.667  26.915  1.00  0.00     0.131 A 
ATOM     74  C   UNL A   1      42.724  24.070  26.500  1.00  0.00     0.055 A 
ATOM     75  C   UNL A   1      44.101  25.931  25.853  1.00  0.00     0.041 A 
ATOM     76  F   UNL A   1      44.016  27.922  27.088  1.00  0.00    -0.206 F 
ATOM     77  C   UNL A   1      43.684  24.620  25.648  1.00  0.00     0.022 A 
BRANCH  74  78
ATOM     78  S   UNL A   1      42.230  22.335  26.308  1.00  0.00     0.124 S 
ATOM     79  O   UNL A   1      40.788  22.453  26.126  1.00  0.00    -0.237 OA
ATOM     80  O   UNL A   1      42.994  21.930  25.133  1.00  0.00    -0.237 OA
ATOM     81  O   UNL A   1      42.654  21.719  27.563  1.00  0.00    -0.744 OA
ENDBRANCH  74  78
ENDBRANCH  47  71
BRANCH  59  82
ATOM     82  C   UNL A   1      44.915  27.551  34.190  1.00  0.00     0.023 A 
ATOM     83  C   UNL A   1      44.855  26.400  34.998  1.00  0.00     0.031 A 
ATOM     84  C   UNL A   1      46.125  28.266  34.152  1.00  0.00     0.131 A 
ATOM     85  C   UNL A   1      45.955  26.041  35.791  1.00  0.00     0.055 A 
ATOM     86  C   UNL A   1      47.240  27.865  34.891  1.00  0.00     0.041 A 
ATOM     87  F   UNL A   1      46.242  29.375  33.403  1.00  0.00    -0.206 F 
ATOM     88  C   UNL A   1      47.153  26.757  35.731  1.00  0.00     0.022 A 
BRANCH  85  89
ATOM     89  S   UNL A   1      45.758  24.701  36.998  1.00  0.00     0.124 S 
ATOM     90  O   UNL A   1      45.703  25.434  38.258  1.00  0.00    -0.237 OA
ATOM     91  O   UNL A   1      44.511  24.076  36.568  1.00  0.00    -0.237 OA
ATOM     92  O   UNL A   1      46.957  23.889  36.806  1.00  0.00    -0.744 OA
ENDBRANCH  85  89
ENDBRANCH  59  82
ENDBRANCH  33  34
ENDBRANCH  25  28
ENDBRANCH  23  24
ENDBRANCH  22  23
ENDBRANCH   1  22
TORSDOF 17
ENDMDL
MODEL 2
REMARK VINA RESULT:     -11.5      4.646      9.530
REMARK SMILES C[C@@H](CC(=O)NCCCNC(=O)c1ccc(-c2c3nc(c(-c4cc(S(=O)(=O)[O-])ccc4F)c4ccc([nH]4)c(-c4cc(S(=O)(=O)[O-])ccc4F)c4nc(c(-c5cc(S(=O)(=O)[O-])ccc5F)c5ccc2[nH]5)C=C4)C=C3)cc1)Cc1nnc(C2C(C)(C)C2(C)C)o1
REMARK SMILES IDX 7 1 6 2 4 3 5 4 3 6 2 7 1 8 76 9 77 10 78 11 88 12 79 13
REMARK SMILES IDX 80 14 81 15 82 16 85 17 83 18 84 19 86 20 87 21 8 22 9 23
REMARK SMILES IDX 10 24 11 25 12 27 13 28 14 29 75 30 15 31 74 32 16 33 17 34
REMARK SMILES IDX 18 35 68 36 19 37 73 38 67 39 69 40 20 41 72 42 66 43 65 44
REMARK SMILES IDX 21 46 53 47 33 48 52 49 34 50 37 51 51 52 70 53 35 54 36 55
REMARK SMILES IDX 50 57 71 58 38 59 22 60 23 61 31 62 24 63 30 64 32 65 29 66
REMARK SMILES IDX 25 67 26 68 27 69 28 70 54 71 55 72 63 73 56 74 62 75 64 76
REMARK SMILES IDX 61 77 57 78 58 79 59 80 60 81 39 82 40 83 48 84 41 85 47 86
REMARK SMILES IDX 49 87 46 88 42 89 43 90 44 91 45 92
REMARK H PARENT 6 5 10 26 69 45 37 56
REMARK Flexibility Score: inf
ROOT
ATOM      1  C   UNL A   1      34.902  24.425  24.497  1.00  0.00     0.117 C 
ENDROOT
BRANCH   1   2
ATOM      2  N   UNL A   1      34.433  24.354  23.124  1.00  0.00    -0.356 N 
ATOM      3  C   UNL A   1      33.608  23.463  22.515  1.00  0.00     0.220 C 
ATOM      4  O   UNL A   1      33.404  23.589  21.306  1.00  0.00    -0.275 OA
ATOM      5  H   UNL A   1      34.768  25.070  22.538  1.00  0.00     0.163 HD
BRANCH   3   6
ATOM      6  C   UNL A   1      32.942  22.339  23.290  1.00  0.00     0.103 C 
BRANCH   6   7
ATOM      7  C   UNL A   1      32.108  22.735  24.526  1.00  0.00     0.004 C 
ATOM      8  C   UNL A   1      31.739  21.514  25.377  1.00  0.00     0.009 C 
BRANCH   7   9
ATOM      9  C   UNL A   1      30.907  23.646  24.176  1.00  0.00     0.103 C 
BRANCH   9  10
ATOM     10  C   UNL A   1      30.774  24.829  25.062  1.00  0.00     0.216 A 
ATOM     11  N   UNL A   1      29.952  25.002  26.072  1.00  0.00    -0.113 NA
ATOM     12  O   UNL A   1      31.694  25.832  24.946  1.00  0.00    -0.425 OA
ATOM     13  N   UNL A   1      30.365  26.149  26.708  1.00  0.00    -0.113 NA
ATOM     14  C   UNL A   1      31.415  26.599  26.049  1.00  0.00     0.220 A 
BRANCH  14  15
ATOM     15  C   UNL A   1      32.202  27.808  26.533  1.00  0.00     0.090 C 
ATOM     16  C   UNL A   1      33.365  28.432  25.754  1.00  0.00    -0.017 C 
ATOM     17  C   UNL A   1      32.038  29.180  25.878  1.00  0.00    -0.017 C 
ATOM     18  C   UNL A   1      34.557  28.896  26.571  1.00  0.00     0.012 C 
ATOM     19  C   UNL A   1      33.812  27.902  24.409  1.00  0.00     0.012 C 
ATOM     20  C   UNL A   1      31.161  29.371  24.661  1.00  0.00     0.012 C 
ATOM     21  C   UNL A   1      31.919  30.351  26.834  1.00  0.00     0.012 C 
ENDBRANCH  14  15
ENDBRANCH   9  10
ENDBRANCH   7   9
ENDBRANCH   6   7
ENDBRANCH   3   6
ENDBRANCH   1   2
BRANCH   1  22
ATOM     22  C   UNL A   1      36.239  23.709  24.668  1.00  0.00     0.042 C 
BRANCH  22  23
ATOM     23  C   UNL A   1      36.527  23.238  26.089  1.00  0.00     0.118 C 
BRANCH  23  24
ATOM     24  N   UNL A   1      37.692  22.375  26.164  1.00  0.00    -0.352 N 
ATOM     25  C   UNL A   1      39.010  22.672  26.407  1.00  0.00     0.251 C 
ATOM     26  H   UNL A   1      37.508  21.419  26.017  1.00  0.00     0.163 HD
ATOM     27  O   UNL A   1      39.848  21.786  26.220  1.00  0.00    -0.269 OA
BRANCH  25  28
ATOM     28  C   UNL A   1      39.447  24.017  26.856  1.00  0.00     0.039 A 
ATOM     29  C   UNL A   1      39.295  24.350  28.206  1.00  0.00     0.014 A 
ATOM     30  C   UNL A   1      39.949  24.977  25.970  1.00  0.00     0.014 A 
ATOM     31  C   UNL A   1      39.685  25.610  28.671  1.00  0.00     0.010 A 
ATOM     32  C   UNL A   1      40.420  26.202  26.450  1.00  0.00     0.010 A 
ATOM     33  C   UNL A   1      40.279  26.540  27.803  1.00  0.00    -0.014 A 
BRANCH  33  34
ATOM     34  C   UNL A   1      40.738  27.865  28.306  1.00  0.00     0.031 A 
ATOM     35  C   UNL A   1      42.205  28.205  28.355  1.00  0.00     0.074 A 
ATOM     36  C   UNL A   1      39.828  28.753  28.757  1.00  0.00     0.049 A 
ATOM     37  N   UNL A   1      42.788  29.307  28.754  1.00  0.00    -0.248 NA
ATOM     38  C   UNL A   1      43.140  27.154  27.931  1.00  0.00     0.031 C 
ATOM     39  C   UNL A   1      38.384  28.516  28.835  1.00  0.00     0.029 A 
ATOM     40  N   UNL A   1      39.980  30.028  29.241  1.00  0.00    -0.354 N 
ATOM     41  C   UNL A   1      44.156  29.077  28.646  1.00  0.00     0.074 A 
ATOM     42  C   UNL A   1      44.311  27.707  28.204  1.00  0.00     0.031 C 
ATOM     43  C   UNL A   1      37.783  29.617  29.310  1.00  0.00     0.029 A 
ATOM     44  C   UNL A   1      38.795  30.627  29.603  1.00  0.00     0.049 A 
ATOM     45  H   UNL A   1      40.854  30.473  29.321  1.00  0.00     0.167 HD
ATOM     46  C   UNL A   1      45.186  29.933  28.871  1.00  0.00     0.034 A 
ATOM     47  C   UNL A   1      38.549  31.849  30.115  1.00  0.00     0.034 A 
ATOM     48  C   UNL A   1      45.011  31.302  29.298  1.00  0.00     0.049 A 
ATOM     49  C   UNL A   1      39.701  32.795  30.326  1.00  0.00     0.074 A 
ATOM     50  C   UNL A   1      45.974  32.281  29.474  1.00  0.00     0.029 A 
ATOM     51  N   UNL A   1      43.794  31.884  29.631  1.00  0.00    -0.354 N 
ATOM     52  N   UNL A   1      40.984  32.592  30.131  1.00  0.00    -0.248 NA
ATOM     53  C   UNL A   1      39.368  34.142  30.803  1.00  0.00     0.031 C 
ATOM     54  C   UNL A   1      45.350  33.429  29.978  1.00  0.00     0.029 A 
ATOM     55  C   UNL A   1      43.985  33.195  30.044  1.00  0.00     0.049 A 
ATOM     56  H   UNL A   1      42.921  31.431  29.582  1.00  0.00     0.167 HD
ATOM     57  C   UNL A   1      41.610  33.794  30.450  1.00  0.00     0.074 A 
ATOM     58  C   UNL A   1      40.558  34.722  30.818  1.00  0.00     0.031 C 
ATOM     59  C   UNL A   1      42.933  34.102  30.443  1.00  0.00     0.034 A 
BRANCH  46  60
ATOM     60  C   UNL A   1      46.589  29.397  28.684  1.00  0.00     0.023 A 
ATOM     61  C   UNL A   1      47.127  29.153  27.407  1.00  0.00     0.031 A 
ATOM     62  C   UNL A   1      47.386  29.085  29.800  1.00  0.00     0.131 A 
ATOM     63  C   UNL A   1      48.380  28.534  27.278  1.00  0.00     0.055 A 
ATOM     64  C   UNL A   1      48.670  28.549  29.663  1.00  0.00     0.041 A 
ATOM     65  F   UNL A   1      46.925  29.278  31.045  1.00  0.00    -0.206 F 
ATOM     66  C   UNL A   1      49.166  28.253  28.397  1.00  0.00     0.022 A 
BRANCH  63  67
ATOM     67  S   UNL A   1      48.895  27.954  25.638  1.00  0.00     0.124 S 
ATOM     68  O   UNL A   1      47.721  28.273  24.829  1.00  0.00    -0.237 OA
ATOM     69  O   UNL A   1      50.086  28.756  25.379  1.00  0.00    -0.237 OA
ATOM     70  O   UNL A   1      49.135  26.527  25.838  1.00  0.00    -0.744 OA
ENDBRANCH  63  67
ENDBRANCH  46  60
BRANCH  47  71
ATOM     71  C   UNL A   1      37.156  32.244  30.469  1.00  0.00     0.023 A 
ATOM     72  C   UNL A   1      36.310  32.855  29.530  1.00  0.00     0.031 A 
ATOM     73  C   UNL A   1      36.658  32.027  31.766  1.00  0.00     0.131 A 
ATOM     74  C   UNL A   1      35.022  33.262  29.913  1.00  0.00     0.055 A 
ATOM     75  C   UNL A   1      35.360  32.391  32.128  1.00  0.00     0.041 A 
ATOM     76  F   UNL A   1      37.424  31.436  32.697  1.00  0.00    -0.206 F 
ATOM     77  C   UNL A   1      34.537  33.023  31.201  1.00  0.00     0.022 A 
BRANCH  74  78
ATOM     78  S   UNL A   1      34.001  34.163  28.714  1.00  0.00     0.124 S 
ATOM     79  O   UNL A   1      33.726  33.131  27.719  1.00  0.00    -0.237 OA
ATOM     80  O   UNL A   1      32.869  34.582  29.533  1.00  0.00    -0.237 OA
ATOM     81  O   UNL A   1      34.876  35.245  28.267  1.00  0.00    -0.744 OA
ENDBRANCH  74  78
ENDBRANCH  47  71
BRANCH  59  82
ATOM     82  C   UNL A   1      43.301  35.515  30.832  1.00  0.00     0.023 A 
ATOM     83  C   UNL A   1      43.422  36.535  29.871  1.00  0.00     0.031 A 
ATOM     84  C   UNL A   1      43.580  35.835  32.172  1.00  0.00     0.131 A 
ATOM     85  C   UNL A   1      43.884  37.805  30.251  1.00  0.00     0.055 A 
ATOM     86  C   UNL A   1      43.974  37.119  32.555  1.00  0.00     0.041 A 
ATOM     87  F   UNL A   1      43.486  34.902  33.133  1.00  0.00    -0.206 F 
ATOM     88  C   UNL A   1      44.145  38.108  31.589  1.00  0.00     0.022 A 
BRANCH  85  89
ATOM     89  S   UNL A   1      44.261  39.017  28.955  1.00  0.00     0.124 S 
ATOM     90  O   UNL A   1      42.928  39.446  28.544  1.00  0.00    -0.237 OA
ATOM     91  O   UNL A   1      45.055  40.007  29.677  1.00  0.00    -0.237 OA
ATOM     92  O   UNL A   1      44.995  38.239  27.961  1.00  0.00    -0.744 OA
ENDBRANCH  85  89
ENDBRANCH  59  82
ENDBRANCH  33  34
ENDBRANCH  25  28
ENDBRANCH  23  24
ENDBRANCH  22  23
ENDBRANCH   1  22
TORSDOF 17
ENDMDL
MODEL 3
REMARK VINA RESULT:     -11.5      2.743      3.613
REMARK SMILES C[C@@H](CC(=O)NCCCNC(=O)c1ccc(-c2c3nc(c(-c4cc(S(=O)(=O)[O-])ccc4F)c4ccc([nH]4)c(-c4cc(S(=O)(=O)[O-])ccc4F)c4nc(c(-c5cc(S(=O)(=O)[O-])ccc5F)c5ccc2[nH]5)C=C4)C=C3)cc1)Cc1nnc(C2C(C)(C)C2(C)C)o1
REMARK SMILES IDX 7 1 6 2 4 3 5 4 3 6 2 7 1 8 76 9 77 10 78 11 88 12 79 13
REMARK SMILES IDX 80 14 81 15 82 16 85 17 83 18 84 19 86 20 87 21 8 22 9 23
REMARK SMILES IDX 10 24 11 25 12 27 13 28 14 29 75 30 15 31 74 32 16 33 17 34
REMARK SMILES IDX 18 35 68 36 19 37 73 38 67 39 69 40 20 41 72 42 66 43 65 44
REMARK SMILES IDX 21 46 53 47 33 48 52 49 34 50 37 51 51 52 70 53 35 54 36 55
REMARK SMILES IDX 50 57 71 58 38 59 22 60 23 61 31 62 24 63 30 64 32 65 29 66
REMARK SMILES IDX 25 67 26 68 27 69 28 70 54 71 55 72 63 73 56 74 62 75 64 76
REMARK SMILES IDX 61 77 57 78 58 79 59 80 60 81 39 82 40 83 48 84 41 85 47 86
REMARK SMILES IDX 49 87 46 88 42 89 43 90 44 91 45 92
REMARK H PARENT 6 5 10 26 69 45 37 56
REMARK Flexibility Score: inf
ROOT
ATOM      1  C   UNL A   1      31.745  28.137  26.885  1.00  0.00     0.117 C 
ENDROOT
BRANCH   1   2
ATOM      2  N   UNL A   1      31.150  26.813  26.910  1.00  0.00    -0.356 N 
ATOM      3  C   UNL A   1      30.456  26.135  25.959  1.00  0.00     0.220 C 
ATOM      4  O   UNL A   1      29.998  25.028  26.248  1.00  0.00    -0.275 OA
ATOM      5  H   UNL A   1      31.268  26.325  27.757  1.00  0.00     0.163 HD
BRANCH   3   6
ATOM      6  C   UNL A   1      30.246  26.710  24.569  1.00  0.00     0.103 C 
BRANCH   6   7
ATOM      7  C   UNL A   1      31.480  26.786  23.646  1.00  0.00     0.004 C 
ATOM      8  C   UNL A   1      31.815  28.232  23.262  1.00  0.00     0.009 C 
BRANCH   7   9
ATOM      9  C   UNL A   1      31.391  25.818  22.441  1.00  0.00     0.103 C 
BRANCH   9  10
ATOM     10  C   UNL A   1      32.328  24.671  22.523  1.00  0.00     0.216 A 
ATOM     11  N   UNL A   1      33.254  24.310  21.663  1.00  0.00    -0.113 NA
ATOM     12  O   UNL A   1      32.372  23.952  23.685  1.00  0.00    -0.425 OA
ATOM     13  N   UNL A   1      33.999  23.339  22.289  1.00  0.00    -0.113 NA
ATOM     14  C   UNL A   1      33.484  23.172  23.492  1.00  0.00     0.220 A 
BRANCH  14  15
ATOM     15  C   UNL A   1      34.122  22.238  24.508  1.00  0.00     0.090 C 
ATOM     16  C   UNL A   1      35.393  22.579  25.296  1.00  0.00    -0.017 C 
ATOM     17  C   UNL A   1      34.042  22.519  26.010  1.00  0.00    -0.017 C 
ATOM     18  C   UNL A   1      36.389  21.451  25.498  1.00  0.00     0.012 C 
ATOM     19  C   UNL A   1      36.108  23.903  25.139  1.00  0.00     0.012 C 
ATOM     20  C   UNL A   1      33.411  23.787  26.540  1.00  0.00     0.012 C 
ATOM     21  C   UNL A   1      33.702  21.326  26.881  1.00  0.00     0.012 C 
ENDBRANCH  14  15
ENDBRANCH   9  10
ENDBRANCH   7   9
ENDBRANCH   6   7
ENDBRANCH   3   6
ENDBRANCH   1   2
BRANCH   1  22
ATOM     22  C   UNL A   1      33.270  28.065  26.915  1.00  0.00     0.042 C 
BRANCH  22  23
ATOM     23  C   UNL A   1      33.971  29.197  26.175  1.00  0.00     0.118 C 
BRANCH  23  24
ATOM     24  N   UNL A   1      33.803  30.482  26.831  1.00  0.00    -0.352 N 
ATOM     25  C   UNL A   1      34.512  31.062  27.852  1.00  0.00     0.251 C 
ATOM     26  H   UNL A   1      33.058  31.025  26.488  1.00  0.00     0.163 HD
ATOM     27  O   UNL A   1      34.049  32.081  28.374  1.00  0.00    -0.269 OA
BRANCH  25  28
ATOM     28  C   UNL A   1      35.787  30.493  28.354  1.00  0.00     0.039 A 
ATOM     29  C   UNL A   1      36.954  30.721  27.614  1.00  0.00     0.014 A 
ATOM     30  C   UNL A   1      35.852  29.694  29.500  1.00  0.00     0.014 A 
ATOM     31  C   UNL A   1      38.175  30.195  28.045  1.00  0.00     0.010 A 
ATOM     32  C   UNL A   1      37.086  29.244  29.977  1.00  0.00     0.010 A 
ATOM     33  C   UNL A   1      38.261  29.475  29.248  1.00  0.00    -0.014 A 
BRANCH  33  34
ATOM     34  C   UNL A   1      39.569  28.954  29.731  1.00  0.00     0.031 A 
ATOM     35  C   UNL A   1      40.300  29.634  30.860  1.00  0.00     0.074 A 
ATOM     36  C   UNL A   1      40.121  27.883  29.124  1.00  0.00     0.049 A 
ATOM     37  N   UNL A   1      41.442  29.320  31.417  1.00  0.00    -0.248 NA
ATOM     38  C   UNL A   1      39.680  30.847  31.411  1.00  0.00     0.031 C 
ATOM     39  C   UNL A   1      39.552  27.181  27.971  1.00  0.00     0.029 A 
ATOM     40  N   UNL A   1      41.284  27.202  29.385  1.00  0.00    -0.354 N 
ATOM     41  C   UNL A   1      41.686  30.303  32.371  1.00  0.00     0.074 A 
ATOM     42  C   UNL A   1      40.602  31.257  32.269  1.00  0.00     0.031 C 
ATOM     43  C   UNL A   1      40.352  26.155  27.642  1.00  0.00     0.029 A 
ATOM     44  C   UNL A   1      41.506  26.142  28.536  1.00  0.00     0.049 A 
ATOM     45  H   UNL A   1      41.900  27.447  30.112  1.00  0.00     0.167 HD
ATOM     46  C   UNL A   1      42.705  30.392  33.264  1.00  0.00     0.034 A 
ATOM     47  C   UNL A   1      42.523  25.261  28.479  1.00  0.00     0.034 A 
ATOM     48  C   UNL A   1      43.772  29.424  33.361  1.00  0.00     0.049 A 
ATOM     49  C   UNL A   1      43.627  25.356  29.499  1.00  0.00     0.074 A 
ATOM     50  C   UNL A   1      44.806  29.367  34.280  1.00  0.00     0.029 A 
ATOM     51  N   UNL A   1      43.953  28.347  32.501  1.00  0.00    -0.354 N 
ATOM     52  N   UNL A   1      43.795  26.240  30.455  1.00  0.00    -0.248 NA
ATOM     53  C   UNL A   1      44.664  24.320  29.446  1.00  0.00     0.031 C 
ATOM     54  C   UNL A   1      45.646  28.302  33.935  1.00  0.00     0.029 A 
ATOM     55  C   UNL A   1      45.098  27.643  32.846  1.00  0.00     0.049 A 
ATOM     56  H   UNL A   1      43.354  28.118  31.754  1.00  0.00     0.167 HD
ATOM     57  C   UNL A   1      44.953  25.857  31.126  1.00  0.00     0.074 A 
ATOM     58  C   UNL A   1      45.419  24.644  30.484  1.00  0.00     0.031 C 
ATOM     59  C   UNL A   1      45.575  26.454  32.176  1.00  0.00     0.034 A 
BRANCH  46  60
ATOM     60  C   UNL A   1      42.721  31.595  34.183  1.00  0.00     0.023 A 
ATOM     61  C   UNL A   1      42.251  31.525  35.507  1.00  0.00     0.031 A 
ATOM     62  C   UNL A   1      43.175  32.842  33.715  1.00  0.00     0.131 A 
ATOM     63  C   UNL A   1      42.161  32.690  36.284  1.00  0.00     0.055 A 
ATOM     64  C   UNL A   1      43.164  33.982  34.524  1.00  0.00     0.041 A 
ATOM     65  F   UNL A   1      43.620  32.980  32.457  1.00  0.00    -0.206 F 
ATOM     66  C   UNL A   1      42.637  33.914  35.811  1.00  0.00     0.022 A 
BRANCH  63  67
ATOM     67  S   UNL A   1      41.264  32.614  37.859  1.00  0.00     0.124 S 
ATOM     68  O   UNL A   1      41.372  33.993  38.329  1.00  0.00    -0.237 OA
ATOM     69  O   UNL A   1      39.933  32.183  37.444  1.00  0.00    -0.237 OA
ATOM     70  O   UNL A   1      42.021  31.638  38.639  1.00  0.00    -0.744 OA
ENDBRANCH  63  67
ENDBRANCH  46  60
BRANCH  47  71
ATOM     71  C   UNL A   1      42.549  24.217  27.416  1.00  0.00     0.023 A 
ATOM     72  C   UNL A   1      41.772  23.052  27.517  1.00  0.00     0.031 A 
ATOM     73  C   UNL A   1      43.371  24.367  26.284  1.00  0.00     0.131 A 
ATOM     74  C   UNL A   1      41.861  22.065  26.522  1.00  0.00     0.055 A 
ATOM     75  C   UNL A   1      43.420  23.404  25.275  1.00  0.00     0.041 A 
ATOM     76  F   UNL A   1      44.125  25.467  26.135  1.00  0.00    -0.206 F 
ATOM     77  C   UNL A   1      42.669  22.239  25.397  1.00  0.00     0.022 A 
BRANCH  74  78
ATOM     78  S   UNL A   1      40.941  20.517  26.747  1.00  0.00     0.124 S 
ATOM     79  O   UNL A   1      41.815  19.552  26.090  1.00  0.00    -0.237 OA
ATOM     80  O   UNL A   1      40.859  20.422  28.201  1.00  0.00    -0.237 OA
ATOM     81  O   UNL A   1      39.671  20.774  26.071  1.00  0.00    -0.744 OA
ENDBRANCH  74  78
ENDBRANCH  47  71
BRANCH  59  82
ATOM     82  C   UNL A   1      46.822  25.779  32.697  1.00  0.00     0.023 A 
ATOM     83  C   UNL A   1      48.078  25.989  32.098  1.00  0.00     0.031 A 
ATOM     84  C   UNL A   1      46.749  24.879  33.774  1.00  0.00     0.131 A 
ATOM     85  C   UNL A   1      49.192  25.254  32.529  1.00  0.00     0.055 A 
ATOM     86  C   UNL A   1      47.875  24.200  34.244  1.00  0.00     0.041 A 
ATOM     87  F   UNL A   1      45.577  24.634  34.383  1.00  0.00    -0.206 F 
ATOM     88  C   UNL A   1      49.102  24.372  33.608  1.00  0.00     0.022 A 
BRANCH  85  89
ATOM     89  S   UNL A   1      50.732  25.369  31.577  1.00  0.00     0.124 S 
ATOM     90  O   UNL A   1      50.431  24.547  30.411  1.00  0.00    -0.237 OA
ATOM     91  O   UNL A   1      50.842  26.805  31.335  1.00  0.00    -0.237 OA
ATOM     92  O   UNL A   1      51.737  24.815  32.483  1.00  0.00    -0.744 OA
ENDBRANCH  85  89
ENDBRANCH  59  82
ENDBRANCH  33  34
ENDBRANCH  25  28
ENDBRANCH  23  24
ENDBRANCH  22  23
ENDBRANCH   1  22
TORSDOF 17
ENDMDL
