MODEL 1
REMARK VINA RESULT:     -14.9      0.000      0.000
REMARK SMILES Cc1c(C(=O)NCCCNC(=O)c2ccc(-c3c4nc(c(-c5cc(S(=O)(=O)[O-])ccc5F)c5ccc([nH]5)c(-c5cc(S(=O)(=O)[O-])ccc5F)c5nc(c(-c6cc(S(=O)(=O)[O-])ccc6F)c6ccc3[nH]6)C=C5)C=C4)cc2)cccc1-n1c(C)cc(/C=C2/C(=O)NC(=S)N=C2O)c1C
REMARK SMILES IDX 8 1 7 2 6 3 4 4 5 5 3 7 1 8 2 9 79 10 76 11 78 12 77 13
REMARK SMILES IDX 80 14 81 15 95 16 82 17 83 18 84 19 96 20 85 21 86 22 87 23
REMARK SMILES IDX 93 24 88 25 89 26 92 27 90 28 91 30 94 31 9 33 10 34 11 35
REMARK SMILES IDX 12 37 13 38 14 39 75 40 15 41 74 42 16 43 17 44 18 45 68 46
REMARK SMILES IDX 19 47 73 48 67 49 69 50 20 51 72 52 66 53 65 54 21 56 53 57
REMARK SMILES IDX 33 58 52 59 34 60 37 61 51 62 70 63 35 64 36 65 50 67 71 68
REMARK SMILES IDX 38 69 22 70 23 71 31 72 24 73 30 74 32 75 29 76 25 77 26 78
REMARK SMILES IDX 27 79 28 80 54 81 55 82 63 83 56 84 62 85 64 86 61 87 57 88
REMARK SMILES IDX 58 89 59 90 60 91 39 92 40 93 48 94 41 95 47 96 49 97 46 98
REMARK SMILES IDX 42 99 43 100 44 101 45 102
REMARK H PARENT 6 6 89 29 94 32 10 36 69 55 37 66
REMARK Flexibility Score: inf
ROOT
ATOM      1  C   UNL A   1      32.619  31.038  26.593  1.00  0.00     0.042 C 
ENDROOT
BRANCH   1   2
ATOM      2  C   UNL A   1      31.589  30.041  26.048  1.00  0.00     0.118 C 
BRANCH   2   3
ATOM      3  N   UNL A   1      31.815  29.799  24.625  1.00  0.00    -0.352 N 
ATOM      4  C   UNL A   1      32.351  28.780  23.881  1.00  0.00     0.251 C 
ATOM      5  O   UNL A   1      32.385  28.951  22.657  1.00  0.00    -0.269 OA
ATOM      6  H   UNL A   1      31.508  30.548  24.065  1.00  0.00     0.163 HD
BRANCH   4   7
ATOM      7  C   UNL A   1      32.847  27.461  24.392  1.00  0.00     0.044 A 
ATOM      8  C   UNL A   1      31.092  25.966  23.311  1.00  0.00     0.047 C 
ATOM      9  C   UNL A   1      32.288  26.189  24.172  1.00  0.00    -0.014 A 
ATOM     10  C   UNL A   1      32.858  25.074  24.834  1.00  0.00     0.049 A 
ATOM     11  C   UNL A   1      33.883  27.574  25.350  1.00  0.00     0.014 A 
ATOM     12  C   UNL A   1      33.883  25.202  25.772  1.00  0.00     0.027 A 
ATOM     13  C   UNL A   1      34.386  26.466  26.039  1.00  0.00     0.003 A 
BRANCH  10  14
ATOM     14  N   UNL A   1      32.317  23.781  24.632  1.00  0.00    -0.318 N 
ATOM     15  C   UNL A   1      31.297  23.225  25.383  1.00  0.00     0.020 A 
ATOM     16  C   UNL A   1      32.919  22.780  23.868  1.00  0.00     0.027 A 
ATOM     17  C   UNL A   1      30.613  23.935  26.501  1.00  0.00     0.065 C 
ATOM     18  C   UNL A   1      31.113  21.935  24.931  1.00  0.00     0.031 A 
ATOM     19  C   UNL A   1      32.120  21.652  23.969  1.00  0.00    -0.003 A 
ATOM     20  C   UNL A   1      34.241  23.018  23.207  1.00  0.00     0.065 C 
BRANCH  19  21
ATOM     21  C   UNL A   1      32.323  20.342  23.432  1.00  0.00     0.029 C 
ATOM     22  C   UNL A   1      32.634  19.165  24.003  1.00  0.00     0.102 C 
ATOM     23  C   UNL A   1      32.601  17.980  23.107  1.00  0.00     0.262 C 
ATOM     24  C   UNL A   1      32.926  18.833  25.398  1.00  0.00     0.226 C 
ATOM     25  O   UNL A   1      32.623  18.031  21.883  1.00  0.00    -0.269 OA
ATOM     26  N   UNL A   1      32.515  16.787  23.772  1.00  0.00    -0.297 N 
ATOM     27  N   UNL A   1      32.893  17.668  25.933  1.00  0.00    -0.184 NA
ATOM     28  C   UNL A   1      32.582  16.602  25.130  1.00  0.00     0.203 C 
ATOM     29  H   UNL A   1      32.392  15.980  23.221  1.00  0.00     0.172 HD
ATOM     30  S   UNL A   1      32.349  15.047  25.713  1.00  0.00    -0.038 S 
BRANCH  24  31
ATOM     31  O   UNL A   1      33.340  19.835  26.174  1.00  0.00    -0.493 OA
ATOM     32  H   UNL A   1      32.719  20.445  26.523  1.00  0.00     0.295 HD
ENDBRANCH  24  31
ENDBRANCH  19  21
ENDBRANCH  10  14
ENDBRANCH   4   7
ENDBRANCH   2   3
ENDBRANCH   1   2
BRANCH   1  33
ATOM     33  C   UNL A   1      33.707  30.485  27.489  1.00  0.00     0.118 C 
BRANCH  33  34
ATOM     34  N   UNL A   1      34.317  31.525  28.331  1.00  0.00    -0.352 N 
ATOM     35  C   UNL A   1      35.509  31.467  29.035  1.00  0.00     0.251 C 
ATOM     36  H   UNL A   1      33.817  32.370  28.403  1.00  0.00     0.163 HD
ATOM     37  O   UNL A   1      35.932  32.405  29.686  1.00  0.00    -0.269 OA
BRANCH  35  38
ATOM     38  C   UNL A   1      36.289  30.220  28.900  1.00  0.00     0.039 A 
ATOM     39  C   UNL A   1      36.466  29.445  30.050  1.00  0.00     0.014 A 
ATOM     40  C   UNL A   1      37.129  30.104  27.801  1.00  0.00     0.014 A 
ATOM     41  C   UNL A   1      37.643  28.716  30.191  1.00  0.00     0.010 A 
ATOM     42  C   UNL A   1      38.352  29.502  28.007  1.00  0.00     0.010 A 
ATOM     43  C   UNL A   1      38.631  28.842  29.217  1.00  0.00    -0.014 A 
BRANCH  43  44
ATOM     44  C   UNL A   1      40.019  28.409  29.382  1.00  0.00     0.031 A 
ATOM     45  C   UNL A   1      40.411  27.051  28.933  1.00  0.00     0.074 A 
ATOM     46  C   UNL A   1      40.974  29.262  29.818  1.00  0.00     0.049 A 
ATOM     47  N   UNL A   1      41.552  26.502  29.166  1.00  0.00    -0.248 NA
ATOM     48  C   UNL A   1      39.496  26.163  28.223  1.00  0.00     0.031 C 
ATOM     49  C   UNL A   1      42.419  29.117  29.655  1.00  0.00     0.029 A 
ATOM     50  N   UNL A   1      40.834  30.316  30.722  1.00  0.00    -0.354 N 
ATOM     51  C   UNL A   1      41.630  25.337  28.442  1.00  0.00     0.074 A 
ATOM     52  C   UNL A   1      40.301  25.142  27.924  1.00  0.00     0.031 C 
ATOM     53  C   UNL A   1      43.041  29.839  30.596  1.00  0.00     0.029 A 
ATOM     54  C   UNL A   1      42.023  30.351  31.490  1.00  0.00     0.049 A 
ATOM     55  H   UNL A   1      40.059  30.917  30.810  1.00  0.00     0.167 HD
ATOM     56  C   UNL A   1      42.845  24.736  28.299  1.00  0.00     0.034 A 
ATOM     57  C   UNL A   1      42.001  30.172  32.843  1.00  0.00     0.034 A 
ATOM     58  C   UNL A   1      43.838  25.328  29.202  1.00  0.00     0.049 A 
ATOM     59  C   UNL A   1      42.788  28.970  33.338  1.00  0.00     0.074 A 
ATOM     60  C   UNL A   1      44.913  26.190  29.071  1.00  0.00     0.029 A 
ATOM     61  N   UNL A   1      43.624  25.198  30.562  1.00  0.00    -0.354 N 
ATOM     62  N   UNL A   1      43.429  28.133  32.569  1.00  0.00    -0.248 NA
ATOM     63  C   UNL A   1      42.825  28.564  34.745  1.00  0.00     0.031 C 
ATOM     64  C   UNL A   1      45.327  26.582  30.382  1.00  0.00     0.029 A 
ATOM     65  C   UNL A   1      44.517  25.941  31.302  1.00  0.00     0.049 A 
ATOM     66  H   UNL A   1      42.916  24.638  30.955  1.00  0.00     0.167 HD
ATOM     67  C   UNL A   1      43.838  27.054  33.313  1.00  0.00     0.074 A 
ATOM     68  C   UNL A   1      43.463  27.383  34.676  1.00  0.00     0.031 C 
ATOM     69  C   UNL A   1      44.384  25.935  32.752  1.00  0.00     0.034 A 
BRANCH  56  70
ATOM     70  C   UNL A   1      43.215  23.709  27.248  1.00  0.00     0.023 A 
ATOM     71  C   UNL A   1      42.473  22.509  27.205  1.00  0.00     0.031 A 
ATOM     72  C   UNL A   1      44.279  23.777  26.326  1.00  0.00     0.131 A 
ATOM     73  C   UNL A   1      42.830  21.445  26.355  1.00  0.00     0.055 A 
ATOM     74  C   UNL A   1      44.650  22.713  25.494  1.00  0.00     0.041 A 
ATOM     75  F   UNL A   1      45.009  24.878  26.141  1.00  0.00    -0.206 F 
ATOM     76  C   UNL A   1      43.931  21.534  25.511  1.00  0.00     0.022 A 
BRANCH  73  77
ATOM     77  S   UNL A   1      41.845  19.926  26.388  1.00  0.00     0.124 S 
ATOM     78  O   UNL A   1      42.165  19.381  27.703  1.00  0.00    -0.237 OA
ATOM     79  O   UNL A   1      40.491  20.434  26.207  1.00  0.00    -0.237 OA
ATOM     80  O   UNL A   1      42.373  19.158  25.259  1.00  0.00    -0.744 OA
ENDBRANCH  73  77
ENDBRANCH  56  70
BRANCH  57  81
ATOM     81  C   UNL A   1      40.752  30.698  33.461  1.00  0.00     0.023 A 
ATOM     82  C   UNL A   1      40.645  32.097  33.611  1.00  0.00     0.031 A 
ATOM     83  C   UNL A   1      39.576  29.938  33.490  1.00  0.00     0.131 A 
ATOM     84  C   UNL A   1      39.383  32.708  33.619  1.00  0.00     0.055 A 
ATOM     85  C   UNL A   1      38.319  30.550  33.564  1.00  0.00     0.041 A 
ATOM     86  F   UNL A   1      39.614  28.610  33.307  1.00  0.00    -0.206 F 
ATOM     87  C   UNL A   1      38.217  31.940  33.584  1.00  0.00     0.022 A 
BRANCH  84  88
ATOM     88  S   UNL A   1      39.295  34.510  33.402  1.00  0.00     0.124 S 
ATOM     89  O   UNL A   1      38.146  34.860  34.227  1.00  0.00    -0.237 OA
ATOM     90  O   UNL A   1      40.598  34.952  33.896  1.00  0.00    -0.237 OA
ATOM     91  O   UNL A   1      39.110  34.670  31.962  1.00  0.00    -0.744 OA
ENDBRANCH  84  88
ENDBRANCH  57  81
BRANCH  69  92
ATOM     92  C   UNL A   1      44.777  24.710  33.542  1.00  0.00     0.023 A 
ATOM     93  C   UNL A   1      46.117  24.332  33.716  1.00  0.00     0.031 A 
ATOM     94  C   UNL A   1      43.806  23.835  34.085  1.00  0.00     0.131 A 
ATOM     95  C   UNL A   1      46.446  23.168  34.436  1.00  0.00     0.055 A 
ATOM     96  C   UNL A   1      44.133  22.634  34.718  1.00  0.00     0.041 A 
ATOM     97  F   UNL A   1      42.499  24.133  34.071  1.00  0.00    -0.206 F 
ATOM     98  C   UNL A   1      45.463  22.297  34.906  1.00  0.00     0.022 A 
BRANCH  95  99
ATOM     99  S   UNL A   1      48.185  22.844  34.822  1.00  0.00     0.124 S 
ATOM    100  O   UNL A   1      48.247  23.098  36.258  1.00  0.00    -0.237 OA
ATOM    101  O   UNL A   1      48.322  21.447  34.419  1.00  0.00    -0.237 OA
ATOM    102  O   UNL A   1      48.910  23.802  33.989  1.00  0.00    -0.744 OA
ENDBRANCH  95  99
ENDBRANCH  69  92
ENDBRANCH  43  44
ENDBRANCH  35  38
ENDBRANCH  33  34
ENDBRANCH   1  33
TORSDOF 16
ENDMDL
MODEL 2
REMARK VINA RESULT:     -14.8      2.123      2.474
REMARK SMILES Cc1c(C(=O)NCCCNC(=O)c2ccc(-c3c4nc(c(-c5cc(S(=O)(=O)[O-])ccc5F)c5ccc([nH]5)c(-c5cc(S(=O)(=O)[O-])ccc5F)c5nc(c(-c6cc(S(=O)(=O)[O-])ccc6F)c6ccc3[nH]6)C=C5)C=C4)cc2)cccc1-n1c(C)cc(/C=C2/C(=O)NC(=S)N=C2O)c1C
REMARK SMILES IDX 8 1 7 2 6 3 4 4 5 5 3 7 1 8 2 9 79 10 76 11 78 12 77 13
REMARK SMILES IDX 80 14 81 15 95 16 82 17 83 18 84 19 96 20 85 21 86 22 87 23
REMARK SMILES IDX 93 24 88 25 89 26 92 27 90 28 91 30 94 31 9 33 10 34 11 35
REMARK SMILES IDX 12 37 13 38 14 39 75 40 15 41 74 42 16 43 17 44 18 45 68 46
REMARK SMILES IDX 19 47 73 48 67 49 69 50 20 51 72 52 66 53 65 54 21 56 53 57
REMARK SMILES IDX 33 58 52 59 34 60 37 61 51 62 70 63 35 64 36 65 50 67 71 68
REMARK SMILES IDX 38 69 22 70 23 71 31 72 24 73 30 74 32 75 29 76 25 77 26 78
REMARK SMILES IDX 27 79 28 80 54 81 55 82 63 83 56 84 62 85 64 86 61 87 57 88
REMARK SMILES IDX 58 89 59 90 60 91 39 92 40 93 48 94 41 95 47 96 49 97 46 98
REMARK SMILES IDX 42 99 43 100 44 101 45 102
REMARK H PARENT 6 6 89 29 94 32 10 36 69 55 37 66
REMARK Flexibility Score: inf
ROOT
ATOM      1  C   UNL A   1      32.237  30.980  26.502  1.00  0.00     0.042 C 
ENDROOT
BRANCH   1   2
ATOM      2  C   UNL A   1      31.414  29.921  25.760  1.00  0.00     0.118 C 
BRANCH   2   3
ATOM      3  N   UNL A   1      31.923  29.734  24.403  1.00  0.00    -0.352 N 
ATOM      4  C   UNL A   1      32.626  28.755  23.750  1.00  0.00     0.251 C 
ATOM      5  O   UNL A   1      32.896  28.970  22.563  1.00  0.00    -0.269 OA
ATOM      6  H   UNL A   1      31.709  30.495  23.816  1.00  0.00     0.163 HD
BRANCH   4   7
ATOM      7  C   UNL A   1      33.052  27.432  24.310  1.00  0.00     0.044 A 
ATOM      8  C   UNL A   1      31.310  25.972  23.160  1.00  0.00     0.047 C 
ATOM      9  C   UNL A   1      32.465  26.173  24.082  1.00  0.00    -0.014 A 
ATOM     10  C   UNL A   1      32.962  25.054  24.793  1.00  0.00     0.049 A 
ATOM     11  C   UNL A   1      34.038  27.531  25.321  1.00  0.00     0.014 A 
ATOM     12  C   UNL A   1      33.939  25.168  25.783  1.00  0.00     0.027 A 
ATOM     13  C   UNL A   1      34.467  26.420  26.056  1.00  0.00     0.003 A 
BRANCH  10  14
ATOM     14  N   UNL A   1      32.392  23.775  24.583  1.00  0.00    -0.318 N 
ATOM     15  C   UNL A   1      31.363  23.236  25.335  1.00  0.00     0.020 A 
ATOM     16  C   UNL A   1      32.968  22.767  23.810  1.00  0.00     0.027 A 
ATOM     17  C   UNL A   1      30.699  23.953  26.461  1.00  0.00     0.065 C 
ATOM     18  C   UNL A   1      31.149  21.954  24.875  1.00  0.00     0.031 A 
ATOM     19  C   UNL A   1      32.146  21.656  23.906  1.00  0.00    -0.003 A 
ATOM     20  C   UNL A   1      34.293  22.980  23.145  1.00  0.00     0.065 C 
BRANCH  19  21
ATOM     21  C   UNL A   1      32.317  20.346  23.358  1.00  0.00     0.029 C 
ATOM     22  C   UNL A   1      32.662  19.169  23.911  1.00  0.00     0.102 C 
ATOM     23  C   UNL A   1      32.577  17.984  23.019  1.00  0.00     0.262 C 
ATOM     24  C   UNL A   1      33.035  18.837  25.286  1.00  0.00     0.226 C 
ATOM     25  O   UNL A   1      32.527  18.035  21.796  1.00  0.00    -0.269 OA
ATOM     26  N   UNL A   1      32.531  16.791  23.688  1.00  0.00    -0.297 N 
ATOM     27  N   UNL A   1      33.034  17.673  25.823  1.00  0.00    -0.184 NA
ATOM     28  C   UNL A   1      32.678  16.606  25.040  1.00  0.00     0.203 C 
ATOM     29  H   UNL A   1      32.377  15.984  23.146  1.00  0.00     0.172 HD
ATOM     30  S   UNL A   1      32.479  15.052  25.636  1.00  0.00    -0.038 S 
BRANCH  24  31
ATOM     31  O   UNL A   1      33.494  19.840  26.037  1.00  0.00    -0.493 OA
ATOM     32  H   UNL A   1      33.874  20.594  25.630  1.00  0.00     0.295 HD
ENDBRANCH  24  31
ENDBRANCH  19  21
ENDBRANCH  10  14
ENDBRANCH   4   7
ENDBRANCH   2   3
ENDBRANCH   1   2
BRANCH   1  33
ATOM     33  C   UNL A   1      33.336  30.484  27.417  1.00  0.00     0.118 C 
BRANCH  33  34
ATOM     34  N   UNL A   1      33.936  31.569  28.207  1.00  0.00    -0.352 N 
ATOM     35  C   UNL A   1      35.145  31.569  28.884  1.00  0.00     0.251 C 
ATOM     36  H   UNL A   1      33.413  32.402  28.261  1.00  0.00     0.163 HD
ATOM     37  O   UNL A   1      35.556  32.540  29.491  1.00  0.00    -0.269 OA
BRANCH  35  38
ATOM     38  C   UNL A   1      35.956  30.340  28.774  1.00  0.00     0.039 A 
ATOM     39  C   UNL A   1      36.328  29.706  29.963  1.00  0.00     0.014 A 
ATOM     40  C   UNL A   1      36.640  30.127  27.584  1.00  0.00     0.014 A 
ATOM     41  C   UNL A   1      37.546  29.035  30.011  1.00  0.00     0.010 A 
ATOM     42  C   UNL A   1      37.906  29.590  27.677  1.00  0.00     0.010 A 
ATOM     43  C   UNL A   1      38.382  29.080  28.898  1.00  0.00    -0.014 A 
BRANCH  43  44
ATOM     44  C   UNL A   1      39.798  28.713  28.908  1.00  0.00     0.031 A 
ATOM     45  C   UNL A   1      40.176  27.287  28.758  1.00  0.00     0.074 A 
ATOM     46  C   UNL A   1      40.768  29.655  28.925  1.00  0.00     0.049 A 
ATOM     47  N   UNL A   1      41.368  26.824  28.909  1.00  0.00    -0.248 NA
ATOM     48  C   UNL A   1      39.198  26.239  28.483  1.00  0.00     0.031 C 
ATOM     49  C   UNL A   1      42.168  29.479  28.538  1.00  0.00     0.029 A 
ATOM     50  N   UNL A   1      40.736  30.909  29.537  1.00  0.00    -0.354 N 
ATOM     51  C   UNL A   1      41.378  25.510  28.507  1.00  0.00     0.074 A 
ATOM     52  C   UNL A   1      39.990  25.179  28.314  1.00  0.00     0.031 C 
ATOM     53  C   UNL A   1      42.908  30.426  29.129  1.00  0.00     0.029 A 
ATOM     54  C   UNL A   1      42.039  31.150  30.034  1.00  0.00     0.049 A 
ATOM     55  H   UNL A   1      39.958  31.508  29.609  1.00  0.00     0.167 HD
ATOM     56  C   UNL A   1      42.578  24.898  28.301  1.00  0.00     0.034 A 
ATOM     57  C   UNL A   1      42.268  31.333  31.368  1.00  0.00     0.034 A 
ATOM     58  C   UNL A   1      43.683  25.712  28.820  1.00  0.00     0.049 A 
ATOM     59  C   UNL A   1      43.194  30.307  32.000  1.00  0.00     0.074 A 
ATOM     60  C   UNL A   1      44.670  26.514  28.274  1.00  0.00     0.029 A 
ATOM     61  N   UNL A   1      43.722  25.942  30.182  1.00  0.00    -0.354 N 
ATOM     62  N   UNL A   1      43.732  29.300  31.367  1.00  0.00    -0.248 NA
ATOM     63  C   UNL A   1      43.502  30.285  33.432  1.00  0.00     0.031 C 
ATOM     64  C   UNL A   1      45.290  27.239  29.339  1.00  0.00     0.029 A 
ATOM     65  C   UNL A   1      44.692  26.858  30.527  1.00  0.00     0.049 A 
ATOM     66  H   UNL A   1      43.127  25.501  30.831  1.00  0.00     0.167 HD
ATOM     67  C   UNL A   1      44.324  28.457  32.274  1.00  0.00     0.074 A 
ATOM     68  C   UNL A   1      44.180  29.130  33.551  1.00  0.00     0.031 C 
ATOM     69  C   UNL A   1      44.819  27.232  31.928  1.00  0.00     0.034 A 
BRANCH  56  70
ATOM     70  C   UNL A   1      42.809  23.633  27.499  1.00  0.00     0.023 A 
ATOM     71  C   UNL A   1      43.801  23.656  26.495  1.00  0.00     0.031 A 
ATOM     72  C   UNL A   1      42.090  22.423  27.588  1.00  0.00     0.131 A 
ATOM     73  C   UNL A   1      43.992  22.576  25.614  1.00  0.00     0.055 A 
ATOM     74  C   UNL A   1      42.264  21.354  26.700  1.00  0.00     0.041 A 
ATOM     75  F   UNL A   1      41.202  22.177  28.552  1.00  0.00    -0.206 F 
ATOM     76  C   UNL A   1      43.212  21.429  25.698  1.00  0.00     0.022 A 
BRANCH  73  77
ATOM     77  S   UNL A   1      45.265  22.702  24.332  1.00  0.00     0.124 S 
ATOM     78  O   UNL A   1      44.575  22.171  23.161  1.00  0.00    -0.237 OA
ATOM     79  O   UNL A   1      45.552  24.132  24.324  1.00  0.00    -0.237 OA
ATOM     80  O   UNL A   1      46.345  21.859  24.845  1.00  0.00    -0.744 OA
ENDBRANCH  73  77
ENDBRANCH  56  70
BRANCH  57  81
ATOM     81  C   UNL A   1      41.123  31.997  32.051  1.00  0.00     0.023 A 
ATOM     82  C   UNL A   1      40.222  31.170  32.755  1.00  0.00     0.031 A 
ATOM     83  C   UNL A   1      41.155  33.361  32.368  1.00  0.00     0.131 A 
ATOM     84  C   UNL A   1      39.509  31.679  33.848  1.00  0.00     0.055 A 
ATOM     85  C   UNL A   1      40.391  33.878  33.420  1.00  0.00     0.041 A 
ATOM     86  F   UNL A   1      42.023  34.185  31.763  1.00  0.00    -0.206 F 
ATOM     87  C   UNL A   1      39.598  33.030  34.194  1.00  0.00     0.022 A 
BRANCH  84  88
ATOM     88  S   UNL A   1      38.688  30.505  34.966  1.00  0.00     0.124 S 
ATOM     89  O   UNL A   1      37.727  31.360  35.652  1.00  0.00    -0.237 OA
ATOM     90  O   UNL A   1      38.126  29.525  34.038  1.00  0.00    -0.237 OA
ATOM     91  O   UNL A   1      39.782  29.997  35.790  1.00  0.00    -0.744 OA
ENDBRANCH  84  88
ENDBRANCH  57  81
BRANCH  69  92
ATOM     92  C   UNL A   1      45.412  26.260  32.920  1.00  0.00     0.023 A 
ATOM     93  C   UNL A   1      44.623  25.577  33.859  1.00  0.00     0.031 A 
ATOM     94  C   UNL A   1      46.808  26.046  33.004  1.00  0.00     0.131 A 
ATOM     95  C   UNL A   1      45.213  24.699  34.787  1.00  0.00     0.055 A 
ATOM     96  C   UNL A   1      47.397  25.245  33.986  1.00  0.00     0.041 A 
ATOM     97  F   UNL A   1      47.658  26.563  32.106  1.00  0.00    -0.206 F 
ATOM     98  C   UNL A   1      46.597  24.557  34.881  1.00  0.00     0.022 A 
BRANCH  95  99
ATOM     99  S   UNL A   1      44.137  23.676  35.824  1.00  0.00     0.124 S 
ATOM    100  O   UNL A   1      43.450  24.666  36.648  1.00  0.00    -0.237 OA
ATOM    101  O   UNL A   1      43.314  23.003  34.823  1.00  0.00    -0.237 OA
ATOM    102  O   UNL A   1      45.069  22.809  36.542  1.00  0.00    -0.744 OA
ENDBRANCH  95  99
ENDBRANCH  69  92
ENDBRANCH  43  44
ENDBRANCH  35  38
ENDBRANCH  33  34
ENDBRANCH   1  33
TORSDOF 16
ENDMDL
MODEL 3
REMARK VINA RESULT:     -14.2      1.149      1.889
REMARK SMILES Cc1c(C(=O)NCCCNC(=O)c2ccc(-c3c4nc(c(-c5cc(S(=O)(=O)[O-])ccc5F)c5ccc([nH]5)c(-c5cc(S(=O)(=O)[O-])ccc5F)c5nc(c(-c6cc(S(=O)(=O)[O-])ccc6F)c6ccc3[nH]6)C=C5)C=C4)cc2)cccc1-n1c(C)cc(/C=C2/C(=O)NC(=S)N=C2O)c1C
REMARK SMILES IDX 8 1 7 2 6 3 4 4 5 5 3 7 1 8 2 9 79 10 76 11 78 12 77 13
REMARK SMILES IDX 80 14 81 15 95 16 82 17 83 18 84 19 96 20 85 21 86 22 87 23
REMARK SMILES IDX 93 24 88 25 89 26 92 27 90 28 91 30 94 31 9 33 10 34 11 35
REMARK SMILES IDX 12 37 13 38 14 39 75 40 15 41 74 42 16 43 17 44 18 45 68 46
REMARK SMILES IDX 19 47 73 48 67 49 69 50 20 51 72 52 66 53 65 54 21 56 53 57
REMARK SMILES IDX 33 58 52 59 34 60 37 61 51 62 70 63 35 64 36 65 50 67 71 68
REMARK SMILES IDX 38 69 22 70 23 71 31 72 24 73 30 74 32 75 29 76 25 77 26 78
REMARK SMILES IDX 27 79 28 80 54 81 55 82 63 83 56 84 62 85 64 86 61 87 57 88
REMARK SMILES IDX 58 89 59 90 60 91 39 92 40 93 48 94 41 95 47 96 49 97 46 98
REMARK SMILES IDX 42 99 43 100 44 101 45 102
REMARK H PARENT 6 6 89 29 94 32 10 36 69 55 37 66
REMARK Flexibility Score: inf
ROOT
ATOM      1  C   UNL A   1      32.960  30.973  26.836  1.00  0.00     0.042 C 
ENDROOT
BRANCH   1   2
ATOM      2  C   UNL A   1      31.780  30.032  26.566  1.00  0.00     0.118 C 
BRANCH   2   3
ATOM      3  N   UNL A   1      31.145  30.361  25.291  1.00  0.00    -0.352 N 
ATOM      4  C   UNL A   1      30.680  29.645  24.218  1.00  0.00     0.251 C 
ATOM      5  O   UNL A   1      30.204  30.300  23.285  1.00  0.00    -0.269 OA
ATOM      6  H   UNL A   1      31.020  31.330  25.176  1.00  0.00     0.163 HD
BRANCH   4   7
ATOM      7  C   UNL A   1      30.641  28.152  24.085  1.00  0.00     0.044 A 
ATOM      8  C   UNL A   1      33.142  27.743  23.837  1.00  0.00     0.047 C 
ATOM      9  C   UNL A   1      31.727  27.279  23.889  1.00  0.00    -0.014 A 
ATOM     10  C   UNL A   1      31.461  25.902  23.686  1.00  0.00     0.049 A 
ATOM     11  C   UNL A   1      29.333  27.625  23.961  1.00  0.00     0.014 A 
ATOM     12  C   UNL A   1      30.166  25.398  23.571  1.00  0.00     0.027 A 
ATOM     13  C   UNL A   1      29.097  26.272  23.694  1.00  0.00     0.003 A 
BRANCH  10  14
ATOM     14  N   UNL A   1      32.533  24.999  23.486  1.00  0.00    -0.318 N 
ATOM     15  C   UNL A   1      33.055  24.652  22.253  1.00  0.00     0.020 A 
ATOM     16  C   UNL A   1      33.011  24.111  24.450  1.00  0.00     0.027 A 
ATOM     17  C   UNL A   1      32.563  25.211  20.961  1.00  0.00     0.065 C 
ATOM     18  C   UNL A   1      34.023  23.696  22.473  1.00  0.00     0.031 A 
ATOM     19  C   UNL A   1      34.012  23.359  23.855  1.00  0.00    -0.003 A 
ATOM     20  C   UNL A   1      32.375  24.041  25.804  1.00  0.00     0.065 C 
BRANCH  19  21
ATOM     21  C   UNL A   1      34.774  22.273  24.387  1.00  0.00     0.029 C 
ATOM     22  C   UNL A   1      34.485  20.974  24.586  1.00  0.00     0.102 C 
ATOM     23  C   UNL A   1      35.618  20.118  25.024  1.00  0.00     0.262 C 
ATOM     24  C   UNL A   1      33.245  20.231  24.365  1.00  0.00     0.226 C 
ATOM     25  O   UNL A   1      36.666  20.538  25.499  1.00  0.00    -0.269 OA
ATOM     26  N   UNL A   1      35.409  18.780  24.825  1.00  0.00    -0.297 N 
ATOM     27  N   UNL A   1      33.120  18.958  24.261  1.00  0.00    -0.184 NA
ATOM     28  C   UNL A   1      34.246  18.190  24.394  1.00  0.00     0.203 C 
ATOM     29  H   UNL A   1      36.167  18.180  25.007  1.00  0.00     0.172 HD
ATOM     30  S   UNL A   1      34.269  16.535  24.130  1.00  0.00    -0.038 S 
BRANCH  24  31
ATOM     31  O   UNL A   1      32.119  20.945  24.344  1.00  0.00    -0.493 OA
ATOM     32  H   UNL A   1      31.964  21.555  23.649  1.00  0.00     0.295 HD
ENDBRANCH  24  31
ENDBRANCH  19  21
ENDBRANCH  10  14
ENDBRANCH   4   7
ENDBRANCH   2   3
ENDBRANCH   1   2
BRANCH   1  33
ATOM     33  C   UNL A   1      34.078  30.445  27.710  1.00  0.00     0.118 C 
BRANCH  33  34
ATOM     34  N   UNL A   1      34.792  31.521  28.412  1.00  0.00    -0.352 N 
ATOM     35  C   UNL A   1      36.052  31.480  28.987  1.00  0.00     0.251 C 
ATOM     36  H   UNL A   1      34.315  32.379  28.483  1.00  0.00     0.163 HD
ATOM     37  O   UNL A   1      36.558  32.447  29.527  1.00  0.00    -0.269 OA
BRANCH  35  38
ATOM     38  C   UNL A   1      36.794  30.211  28.849  1.00  0.00     0.039 A 
ATOM     39  C   UNL A   1      36.916  29.410  29.988  1.00  0.00     0.014 A 
ATOM     40  C   UNL A   1      37.658  30.086  27.769  1.00  0.00     0.014 A 
ATOM     41  C   UNL A   1      38.064  28.640  30.145  1.00  0.00     0.010 A 
ATOM     42  C   UNL A   1      38.854  29.440  27.995  1.00  0.00     0.010 A 
ATOM     43  C   UNL A   1      39.080  28.750  29.199  1.00  0.00    -0.014 A 
BRANCH  43  44
ATOM     44  C   UNL A   1      40.448  28.268  29.391  1.00  0.00     0.031 A 
ATOM     45  C   UNL A   1      40.805  26.903  28.936  1.00  0.00     0.074 A 
ATOM     46  C   UNL A   1      41.421  29.083  29.859  1.00  0.00     0.049 A 
ATOM     47  N   UNL A   1      41.921  26.312  29.189  1.00  0.00    -0.248 NA
ATOM     48  C   UNL A   1      39.877  26.054  28.195  1.00  0.00     0.031 C 
ATOM     49  C   UNL A   1      42.864  28.890  29.727  1.00  0.00     0.029 A 
ATOM     50  N   UNL A   1      41.296  30.132  30.771  1.00  0.00    -0.354 N 
ATOM     51  C   UNL A   1      41.976  25.153  28.453  1.00  0.00     0.074 A 
ATOM     52  C   UNL A   1      40.653  25.008  27.904  1.00  0.00     0.031 C 
ATOM     53  C   UNL A   1      43.488  29.581  30.690  1.00  0.00     0.029 A 
ATOM     54  C   UNL A   1      42.468  30.118  31.566  1.00  0.00     0.049 A 
ATOM     55  H   UNL A   1      40.541  30.758  30.848  1.00  0.00     0.167 HD
ATOM     56  C   UNL A   1      43.172  24.512  28.332  1.00  0.00     0.034 A 
ATOM     57  C   UNL A   1      42.408  29.926  32.916  1.00  0.00     0.034 A 
ATOM     58  C   UNL A   1      44.164  25.061  29.264  1.00  0.00     0.049 A 
ATOM     59  C   UNL A   1      43.142  28.692  33.416  1.00  0.00     0.074 A 
ATOM     60  C   UNL A   1      45.270  25.887  29.167  1.00  0.00     0.029 A 
ATOM     61  N   UNL A   1      43.915  24.923  30.617  1.00  0.00    -0.354 N 
ATOM     62  N   UNL A   1      43.773  27.842  32.652  1.00  0.00    -0.248 NA
ATOM     63  C   UNL A   1      43.133  28.271  34.819  1.00  0.00     0.031 C 
ATOM     64  C   UNL A   1      45.667  26.251  30.492  1.00  0.00     0.029 A 
ATOM     65  C   UNL A   1      44.815  25.628  31.386  1.00  0.00     0.049 A 
ATOM     66  H   UNL A   1      43.179  24.383  30.987  1.00  0.00     0.167 HD
ATOM     67  C   UNL A   1      44.127  26.742  33.393  1.00  0.00     0.074 A 
ATOM     68  C   UNL A   1      43.732  27.070  34.750  1.00  0.00     0.031 C 
ATOM     69  C   UNL A   1      44.647  25.611  32.832  1.00  0.00     0.034 A 
BRANCH  56  70
ATOM     70  C   UNL A   1      43.532  23.484  27.278  1.00  0.00     0.023 A 
ATOM     71  C   UNL A   1      42.743  22.316  27.196  1.00  0.00     0.031 A 
ATOM     72  C   UNL A   1      44.626  23.520  26.389  1.00  0.00     0.131 A 
ATOM     73  C   UNL A   1      43.082  21.249  26.342  1.00  0.00     0.055 A 
ATOM     74  C   UNL A   1      44.977  22.452  25.554  1.00  0.00     0.041 A 
ATOM     75  F   UNL A   1      45.405  24.591  26.242  1.00  0.00    -0.206 F 
ATOM     76  C   UNL A   1      44.210  21.303  25.533  1.00  0.00     0.022 A 
BRANCH  73  77
ATOM     77  S   UNL A   1      42.035  19.772  26.325  1.00  0.00     0.124 S 
ATOM     78  O   UNL A   1      42.305  19.189  27.635  1.00  0.00    -0.237 OA
ATOM     79  O   UNL A   1      40.707  20.339  26.128  1.00  0.00    -0.237 OA
ATOM     80  O   UNL A   1      42.554  19.005  25.192  1.00  0.00    -0.744 OA
ENDBRANCH  73  77
ENDBRANCH  56  70
BRANCH  57  81
ATOM     81  C   UNL A   1      41.164  30.488  33.511  1.00  0.00     0.023 A 
ATOM     82  C   UNL A   1      41.104  31.888  33.682  1.00  0.00     0.031 A 
ATOM     83  C   UNL A   1      39.960  29.772  33.497  1.00  0.00     0.131 A 
ATOM     84  C   UNL A   1      39.867  32.544  33.670  1.00  0.00     0.055 A 
ATOM     85  C   UNL A   1      38.725  30.428  33.550  1.00  0.00     0.041 A 
ATOM     86  F   UNL A   1      39.954  28.446  33.292  1.00  0.00    -0.206 F 
ATOM     87  C   UNL A   1      38.674  31.821  33.591  1.00  0.00     0.022 A 
BRANCH  84  88
ATOM     88  S   UNL A   1      39.850  34.352  33.481  1.00  0.00     0.124 S 
ATOM     89  O   UNL A   1      38.519  34.696  33.965  1.00  0.00    -0.237 OA
ATOM     90  O   UNL A   1      40.968  34.768  34.327  1.00  0.00    -0.237 OA
ATOM     91  O   UNL A   1      40.072  34.547  32.051  1.00  0.00    -0.744 OA
ENDBRANCH  84  88
ENDBRANCH  57  81
BRANCH  69  92
ATOM     92  C   UNL A   1      44.980  24.365  33.617  1.00  0.00     0.023 A 
ATOM     93  C   UNL A   1      46.304  23.953  33.839  1.00  0.00     0.031 A 
ATOM     94  C   UNL A   1      43.968  23.505  34.106  1.00  0.00     0.131 A 
ATOM     95  C   UNL A   1      46.576  22.771  34.551  1.00  0.00     0.055 A 
ATOM     96  C   UNL A   1      44.242  22.287  34.732  1.00  0.00     0.041 A 
ATOM     97  F   UNL A   1      42.670  23.833  34.044  1.00  0.00    -0.206 F 
ATOM     98  C   UNL A   1      45.556  21.916  34.967  1.00  0.00     0.022 A 
BRANCH  95  99
ATOM     99  S   UNL A   1      48.290  22.401  35.002  1.00  0.00     0.124 S 
ATOM    100  O   UNL A   1      48.464  21.037  34.511  1.00  0.00    -0.237 OA
ATOM    101  O   UNL A   1      49.017  23.436  34.272  1.00  0.00    -0.237 OA
ATOM    102  O   UNL A   1      48.306  22.544  36.457  1.00  0.00    -0.744 OA
ENDBRANCH  95  99
ENDBRANCH  69  92
ENDBRANCH  43  44
ENDBRANCH  35  38
ENDBRANCH  33  34
ENDBRANCH   1  33
TORSDOF 16
ENDMDL
