MODEL 1
REMARK VINA RESULT:     -13.1      0.000      0.000
REMARK SMILES CO[C@@H]1C[C@@H](C(=O)NCCCNC(=O)c2ccc(-c3c4nc(c(-c5cc(S(=O)(=O)[O-])ccc5F)c5ccc([nH]5)c(-c5cc(S(=O)(=O)[O-])ccc5F)c5nc(c(-c6cc(S(=O)(=O)[O-])ccc6F)c6ccc3[nH]6)C=C5)C=C4)cc2)N(S(=O)(=O)/C=C/c2ccccc2)C1
REMARK SMILES IDX 10 1 9 2 8 3 6 4 7 5 5 7 3 8 4 9 90 10 78 11 2 12 1 13 79 14
REMARK SMILES IDX 80 15 81 16 82 17 83 18 84 19 85 20 89 21 86 22 88 23 87 24
REMARK SMILES IDX 11 25 12 26 13 27 14 29 15 30 16 31 77 32 17 33 76 34 18 35
REMARK SMILES IDX 19 36 20 37 70 38 21 39 75 40 69 41 71 42 22 43 74 44 68 45
REMARK SMILES IDX 67 46 23 48 55 49 35 50 54 51 36 52 39 53 53 54 72 55 37 56
REMARK SMILES IDX 38 57 52 59 73 60 40 61 24 62 25 63 33 64 26 65 32 66 34 67
REMARK SMILES IDX 31 68 27 69 28 70 29 71 30 72 56 73 57 74 65 75 58 76 64 77
REMARK SMILES IDX 66 78 63 79 59 80 60 81 61 82 62 83 41 84 42 85 50 86 43 87
REMARK SMILES IDX 49 88 51 89 48 90 44 91 45 92 46 93 47 94
REMARK H PARENT 8 6 12 28 71 47 39 58
REMARK Flexibility Score: inf
ROOT
ATOM      1  C   UNL A   1      36.041  21.364  25.725  1.00  0.00     0.042 C 
ENDROOT
BRANCH   1   2
ATOM      2  C   UNL A   1      35.412  22.661  26.251  1.00  0.00     0.117 C 
BRANCH   2   3
ATOM      3  N   UNL A   1      34.581  22.726  27.448  1.00  0.00    -0.355 N 
ATOM      4  C   UNL A   1      33.190  22.751  27.442  1.00  0.00     0.238 C 
ATOM      5  O   UNL A   1      32.557  22.167  28.319  1.00  0.00    -0.273 OA
ATOM      6  H   UNL A   1      35.036  22.753  28.320  1.00  0.00     0.163 HD
BRANCH   4   7
ATOM      7  C   UNL A   1      32.563  23.722  26.491  1.00  0.00     0.165 C 
ATOM      8  C   UNL A   1      31.081  25.402  25.883  1.00  0.00     0.135 C 
ATOM      9  C   UNL A   1      31.063  24.020  26.546  1.00  0.00     0.064 C 
ATOM     10  C   UNL A   1      32.181  25.232  24.770  1.00  0.00     0.135 C 
ATOM     11  N   UNL A   1      32.903  23.890  25.067  1.00  0.00    -0.183 NA
BRANCH   8  12
ATOM     12  O   UNL A   1      31.433  26.266  26.983  1.00  0.00    -0.380 OA
ATOM     13  C   UNL A   1      31.462  27.659  26.752  1.00  0.00     0.195 C 
ENDBRANCH   8  12
BRANCH  11  14
ATOM     14  S   UNL A   1      32.623  22.647  23.879  1.00  0.00     0.237 S 
ATOM     15  O   UNL A   1      31.368  23.000  23.236  1.00  0.00    -0.207 OA
ATOM     16  O   UNL A   1      33.839  22.687  23.101  1.00  0.00    -0.207 OA
BRANCH  14  17
ATOM     17  C   UNL A   1      32.408  21.009  24.564  1.00  0.00     0.123 C 
ATOM     18  C   UNL A   1      32.380  19.903  23.785  1.00  0.00     0.021 C 
BRANCH  18  19
ATOM     19  C   UNL A   1      32.627  18.457  24.071  1.00  0.00    -0.025 A 
ATOM     20  C   UNL A   1      32.516  17.932  25.367  1.00  0.00     0.008 A 
ATOM     21  C   UNL A   1      33.347  17.693  23.125  1.00  0.00     0.008 A 
ATOM     22  C   UNL A   1      33.140  16.720  25.716  1.00  0.00     0.001 A 
ATOM     23  C   UNL A   1      33.961  16.478  23.471  1.00  0.00     0.001 A 
ATOM     24  C   UNL A   1      33.873  16.000  24.774  1.00  0.00     0.000 A 
ENDBRANCH  18  19
ENDBRANCH  14  17
ENDBRANCH  11  14
ENDBRANCH   4   7
ENDBRANCH   2   3
ENDBRANCH   1   2
BRANCH   1  25
ATOM     25  C   UNL A   1      37.316  21.614  24.850  1.00  0.00     0.118 C 
BRANCH  25  26
ATOM     26  N   UNL A   1      38.531  20.843  25.150  1.00  0.00    -0.352 N 
ATOM     27  C   UNL A   1      39.550  21.064  26.073  1.00  0.00     0.251 C 
ATOM     28  H   UNL A   1      38.643  20.031  24.606  1.00  0.00     0.163 HD
ATOM     29  O   UNL A   1      40.388  20.195  26.302  1.00  0.00    -0.269 OA
BRANCH  27  30
ATOM     30  C   UNL A   1      39.718  22.370  26.739  1.00  0.00     0.039 A 
ATOM     31  C   UNL A   1      40.748  22.485  27.684  1.00  0.00     0.014 A 
ATOM     32  C   UNL A   1      38.956  23.481  26.403  1.00  0.00     0.014 A 
ATOM     33  C   UNL A   1      41.147  23.747  28.123  1.00  0.00     0.010 A 
ATOM     34  C   UNL A   1      39.400  24.744  26.776  1.00  0.00     0.010 A 
ATOM     35  C   UNL A   1      40.541  24.888  27.580  1.00  0.00    -0.014 A 
BRANCH  35  36
ATOM     36  C   UNL A   1      41.151  26.232  27.730  1.00  0.00     0.031 A 
ATOM     37  C   UNL A   1      42.513  26.510  27.169  1.00  0.00     0.074 A 
ATOM     38  C   UNL A   1      40.515  27.147  28.492  1.00  0.00     0.049 A 
ATOM     39  N   UNL A   1      43.264  27.569  27.319  1.00  0.00    -0.248 NA
ATOM     40  C   UNL A   1      43.125  25.443  26.362  1.00  0.00     0.031 C 
ATOM     41  C   UNL A   1      39.207  26.957  29.128  1.00  0.00     0.029 A 
ATOM     42  N   UNL A   1      40.882  28.412  28.880  1.00  0.00    -0.354 N 
ATOM     43  C   UNL A   1      44.444  27.293  26.637  1.00  0.00     0.074 A 
ATOM     44  C   UNL A   1      44.326  25.946  26.120  1.00  0.00     0.031 C 
ATOM     45  C   UNL A   1      38.872  28.070  29.800  1.00  0.00     0.029 A 
ATOM     46  C   UNL A   1      39.962  29.032  29.697  1.00  0.00     0.049 A 
ATOM     47  H   UNL A   1      41.726  28.836  28.601  1.00  0.00     0.167 HD
ATOM     48  C   UNL A   1      45.516  28.101  26.451  1.00  0.00     0.034 A 
ATOM     49  C   UNL A   1      40.001  30.234  30.307  1.00  0.00     0.034 A 
ATOM     50  C   UNL A   1      45.602  29.442  26.975  1.00  0.00     0.049 A 
ATOM     51  C   UNL A   1      41.221  31.098  30.103  1.00  0.00     0.074 A 
ATOM     52  C   UNL A   1      46.613  30.372  26.798  1.00  0.00     0.029 A 
ATOM     53  N   UNL A   1      44.647  30.044  27.787  1.00  0.00    -0.354 N 
ATOM     54  N   UNL A   1      42.303  30.847  29.400  1.00  0.00    -0.248 NA
ATOM     55  C   UNL A   1      41.224  32.409  30.764  1.00  0.00     0.031 C 
ATOM     56  C   UNL A   1      46.309  31.499  27.566  1.00  0.00     0.029 A 
ATOM     57  C   UNL A   1      45.065  31.316  28.148  1.00  0.00     0.049 A 
ATOM     58  H   UNL A   1      43.800  29.628  28.065  1.00  0.00     0.167 HD
ATOM     59  C   UNL A   1      43.092  31.990  29.501  1.00  0.00     0.074 A 
ATOM     60  C   UNL A   1      42.355  32.931  30.317  1.00  0.00     0.031 C 
ATOM     61  C   UNL A   1      44.314  32.240  28.965  1.00  0.00     0.034 A 
BRANCH  48  62
ATOM     62  C   UNL A   1      46.687  27.548  25.677  1.00  0.00     0.023 A 
ATOM     63  C   UNL A   1      46.966  27.959  24.363  1.00  0.00     0.031 A 
ATOM     64  C   UNL A   1      47.538  26.594  26.263  1.00  0.00     0.131 A 
ATOM     65  C   UNL A   1      48.029  27.376  23.657  1.00  0.00     0.055 A 
ATOM     66  C   UNL A   1      48.642  26.077  25.583  1.00  0.00     0.041 A 
ATOM     67  F   UNL A   1      47.307  26.143  27.505  1.00  0.00    -0.206 F 
ATOM     68  C   UNL A   1      48.887  26.458  24.268  1.00  0.00     0.022 A 
BRANCH  65  69
ATOM     69  S   UNL A   1      48.196  27.736  21.887  1.00  0.00     0.124 S 
ATOM     70  O   UNL A   1      48.410  26.402  21.334  1.00  0.00    -0.237 OA
ATOM     71  O   UNL A   1      46.917  28.361  21.571  1.00  0.00    -0.237 OA
ATOM     72  O   UNL A   1      49.356  28.623  21.826  1.00  0.00    -0.744 OA
ENDBRANCH  65  69
ENDBRANCH  48  62
BRANCH  49  73
ATOM     73  C   UNL A   1      38.874  30.700  31.171  1.00  0.00     0.023 A 
ATOM     74  C   UNL A   1      37.844  31.494  30.641  1.00  0.00     0.031 A 
ATOM     75  C   UNL A   1      38.844  30.424  32.550  1.00  0.00     0.131 A 
ATOM     76  C   UNL A   1      36.871  32.042  31.491  1.00  0.00     0.055 A 
ATOM     77  C   UNL A   1      37.833  30.914  33.380  1.00  0.00     0.041 A 
ATOM     78  F   UNL A   1      39.801  29.670  33.114  1.00  0.00    -0.206 F 
ATOM     79  C   UNL A   1      36.849  31.746  32.855  1.00  0.00     0.022 A 
BRANCH  76  80
ATOM     80  S   UNL A   1      35.712  33.259  30.807  1.00  0.00     0.124 S 
ATOM     81  O   UNL A   1      36.371  33.626  29.560  1.00  0.00    -0.237 OA
ATOM     82  O   UNL A   1      34.489  32.474  30.680  1.00  0.00    -0.237 OA
ATOM     83  O   UNL A   1      35.677  34.305  31.826  1.00  0.00    -0.744 OA
ENDBRANCH  76  80
ENDBRANCH  49  73
BRANCH  61  84
ATOM     84  C   UNL A   1      44.897  33.613  29.201  1.00  0.00     0.023 A 
ATOM     85  C   UNL A   1      44.527  34.721  28.419  1.00  0.00     0.031 A 
ATOM     86  C   UNL A   1      45.844  33.809  30.221  1.00  0.00     0.131 A 
ATOM     87  C   UNL A   1      45.148  35.960  28.629  1.00  0.00     0.055 A 
ATOM     88  C   UNL A   1      46.404  35.061  30.473  1.00  0.00     0.041 A 
ATOM     89  F   UNL A   1      46.237  32.786  30.996  1.00  0.00    -0.206 F 
ATOM     90  C   UNL A   1      46.068  36.144  29.665  1.00  0.00     0.022 A 
BRANCH  87  91
ATOM     91  S   UNL A   1      44.815  37.308  27.463  1.00  0.00     0.124 S 
ATOM     92  O   UNL A   1      44.604  38.440  28.359  1.00  0.00    -0.237 OA
ATOM     93  O   UNL A   1      46.038  37.344  26.668  1.00  0.00    -0.237 OA
ATOM     94  O   UNL A   1      43.624  36.854  26.745  1.00  0.00    -0.744 OA
ENDBRANCH  87  91
ENDBRANCH  61  84
ENDBRANCH  35  36
ENDBRANCH  27  30
ENDBRANCH  25  26
ENDBRANCH   1  25
TORSDOF 17
ENDMDL
MODEL 2
REMARK VINA RESULT:     -12.9      4.800      7.299
REMARK SMILES CO[C@@H]1C[C@@H](C(=O)NCCCNC(=O)c2ccc(-c3c4nc(c(-c5cc(S(=O)(=O)[O-])ccc5F)c5ccc([nH]5)c(-c5cc(S(=O)(=O)[O-])ccc5F)c5nc(c(-c6cc(S(=O)(=O)[O-])ccc6F)c6ccc3[nH]6)C=C5)C=C4)cc2)N(S(=O)(=O)/C=C/c2ccccc2)C1
REMARK SMILES IDX 10 1 9 2 8 3 6 4 7 5 5 7 3 8 4 9 90 10 78 11 2 12 1 13 79 14
REMARK SMILES IDX 80 15 81 16 82 17 83 18 84 19 85 20 89 21 86 22 88 23 87 24
REMARK SMILES IDX 11 25 12 26 13 27 14 29 15 30 16 31 77 32 17 33 76 34 18 35
REMARK SMILES IDX 19 36 20 37 70 38 21 39 75 40 69 41 71 42 22 43 74 44 68 45
REMARK SMILES IDX 67 46 23 48 55 49 35 50 54 51 36 52 39 53 53 54 72 55 37 56
REMARK SMILES IDX 38 57 52 59 73 60 40 61 24 62 25 63 33 64 26 65 32 66 34 67
REMARK SMILES IDX 31 68 27 69 28 70 29 71 30 72 56 73 57 74 65 75 58 76 64 77
REMARK SMILES IDX 66 78 63 79 59 80 60 81 61 82 62 83 41 84 42 85 50 86 43 87
REMARK SMILES IDX 49 88 51 89 48 90 44 91 45 92 46 93 47 94
REMARK H PARENT 8 6 12 28 71 47 39 58
REMARK Flexibility Score: inf
ROOT
ATOM      1  C   UNL A   1      31.751  28.724  27.087  1.00  0.00     0.042 C 
ENDROOT
BRANCH   1   2
ATOM      2  C   UNL A   1      31.988  27.419  26.317  1.00  0.00     0.117 C 
BRANCH   2   3
ATOM      3  N   UNL A   1      31.212  26.203  26.534  1.00  0.00    -0.355 N 
ATOM      4  C   UNL A   1      31.732  24.915  26.470  1.00  0.00     0.238 C 
ATOM      5  O   UNL A   1      31.326  24.045  27.239  1.00  0.00    -0.273 OA
ATOM      6  H   UNL A   1      30.255  26.301  26.739  1.00  0.00     0.163 HD
BRANCH   4   7
ATOM      7  C   UNL A   1      32.582  24.615  25.275  1.00  0.00     0.165 C 
ATOM      8  C   UNL A   1      32.992  24.358  23.005  1.00  0.00     0.135 C 
ATOM      9  C   UNL A   1      32.011  23.861  24.073  1.00  0.00     0.064 C 
ATOM     10  C   UNL A   1      34.355  24.408  23.791  1.00  0.00     0.135 C 
ATOM     11  N   UNL A   1      34.003  24.225  25.293  1.00  0.00    -0.183 NA
BRANCH   8  12
ATOM     12  O   UNL A   1      32.432  25.638  22.645  1.00  0.00    -0.380 OA
ATOM     13  C   UNL A   1      33.309  26.637  22.166  1.00  0.00     0.195 C 
ENDBRANCH   8  12
BRANCH  11  14
ATOM     14  S   UNL A   1      34.559  22.725  25.982  1.00  0.00     0.237 S 
ATOM     15  O   UNL A   1      35.923  22.560  25.505  1.00  0.00    -0.207 OA
ATOM     16  O   UNL A   1      34.336  22.934  27.393  1.00  0.00    -0.207 OA
BRANCH  14  17
ATOM     17  C   UNL A   1      33.647  21.284  25.442  1.00  0.00     0.123 C 
ATOM     18  C   UNL A   1      34.261  20.212  24.889  1.00  0.00     0.021 C 
BRANCH  18  19
ATOM     19  C   UNL A   1      33.858  18.781  24.739  1.00  0.00    -0.025 A 
ATOM     20  C   UNL A   1      32.678  18.283  25.313  1.00  0.00     0.008 A 
ATOM     21  C   UNL A   1      34.838  17.838  24.359  1.00  0.00     0.008 A 
ATOM     22  C   UNL A   1      32.507  16.905  25.542  1.00  0.00     0.001 A 
ATOM     23  C   UNL A   1      34.663  16.461  24.578  1.00  0.00     0.001 A 
ATOM     24  C   UNL A   1      33.503  15.996  25.188  1.00  0.00     0.000 A 
ENDBRANCH  18  19
ENDBRANCH  14  17
ENDBRANCH  11  14
ENDBRANCH   4   7
ENDBRANCH   2   3
ENDBRANCH   1   2
BRANCH   1  25
ATOM     25  C   UNL A   1      32.338  29.980  26.357  1.00  0.00     0.118 C 
BRANCH  25  26
ATOM     26  N   UNL A   1      32.253  31.283  27.033  1.00  0.00    -0.352 N 
ATOM     27  C   UNL A   1      33.246  32.120  27.535  1.00  0.00     0.251 C 
ATOM     28  H   UNL A   1      31.336  31.623  27.149  1.00  0.00     0.163 HD
ATOM     29  O   UNL A   1      32.978  33.264  27.897  1.00  0.00    -0.269 OA
BRANCH  27  30
ATOM     30  C   UNL A   1      34.627  31.643  27.737  1.00  0.00     0.039 A 
ATOM     31  C   UNL A   1      35.633  32.611  27.867  1.00  0.00     0.014 A 
ATOM     32  C   UNL A   1      34.937  30.297  27.882  1.00  0.00     0.014 A 
ATOM     33  C   UNL A   1      36.889  32.246  28.349  1.00  0.00     0.010 A 
ATOM     34  C   UNL A   1      36.159  29.939  28.436  1.00  0.00     0.010 A 
ATOM     35  C   UNL A   1      37.116  30.920  28.740  1.00  0.00    -0.014 A 
BRANCH  35  36
ATOM     36  C   UNL A   1      38.283  30.551  29.579  1.00  0.00     0.031 A 
ATOM     37  C   UNL A   1      39.257  29.515  29.105  1.00  0.00     0.074 A 
ATOM     38  C   UNL A   1      38.370  31.066  30.824  1.00  0.00     0.049 A 
ATOM     39  N   UNL A   1      40.250  28.962  29.750  1.00  0.00    -0.248 NA
ATOM     40  C   UNL A   1      39.068  29.009  27.737  1.00  0.00     0.031 C 
ATOM     41  C   UNL A   1      37.442  32.044  31.402  1.00  0.00     0.029 A 
ATOM     42  N   UNL A   1      39.266  30.832  31.838  1.00  0.00    -0.354 N 
ATOM     43  C   UNL A   1      40.798  28.033  28.874  1.00  0.00     0.074 A 
ATOM     44  C   UNL A   1      39.991  28.062  27.672  1.00  0.00     0.031 C 
ATOM     45  C   UNL A   1      37.832  32.344  32.651  1.00  0.00     0.029 A 
ATOM     46  C   UNL A   1      39.000  31.540  32.989  1.00  0.00     0.049 A 
ATOM     47  H   UNL A   1      40.028  30.215  31.749  1.00  0.00     0.167 HD
ATOM     48  C   UNL A   1      41.885  27.244  29.056  1.00  0.00     0.034 A 
ATOM     49  C   UNL A   1      39.617  31.528  34.188  1.00  0.00     0.034 A 
ATOM     50  C   UNL A   1      42.672  27.242  30.265  1.00  0.00     0.049 A 
ATOM     51  C   UNL A   1      40.807  30.617  34.369  1.00  0.00     0.074 A 
ATOM     52  C   UNL A   1      43.828  26.529  30.537  1.00  0.00     0.029 A 
ATOM     53  N   UNL A   1      42.383  27.980  31.407  1.00  0.00    -0.354 N 
ATOM     54  N   UNL A   1      41.353  29.791  33.505  1.00  0.00    -0.248 NA
ATOM     55  C   UNL A   1      41.470  30.644  35.678  1.00  0.00     0.031 C 
ATOM     56  C   UNL A   1      44.188  26.772  31.865  1.00  0.00     0.029 A 
ATOM     57  C   UNL A   1      43.315  27.709  32.396  1.00  0.00     0.049 A 
ATOM     58  H   UNL A   1      41.627  28.603  31.499  1.00  0.00     0.167 HD
ATOM     59  C   UNL A   1      42.450  29.234  34.157  1.00  0.00     0.074 A 
ATOM     60  C   UNL A   1      42.494  29.830  35.475  1.00  0.00     0.031 C 
ATOM     61  C   UNL A   1      43.342  28.315  33.707  1.00  0.00     0.034 A 
BRANCH  48  62
ATOM     62  C   UNL A   1      42.264  26.302  27.941  1.00  0.00     0.023 A 
ATOM     63  C   UNL A   1      41.772  24.987  27.882  1.00  0.00     0.031 A 
ATOM     64  C   UNL A   1      43.131  26.726  26.918  1.00  0.00     0.131 A 
ATOM     65  C   UNL A   1      42.196  24.124  26.860  1.00  0.00     0.055 A 
ATOM     66  C   UNL A   1      43.486  25.887  25.859  1.00  0.00     0.041 A 
ATOM     67  F   UNL A   1      43.654  27.961  26.933  1.00  0.00    -0.206 F 
ATOM     68  C   UNL A   1      43.028  24.574  25.832  1.00  0.00     0.022 A 
BRANCH  65  69
ATOM     69  S   UNL A   1      41.750  22.369  26.966  1.00  0.00     0.124 S 
ATOM     70  O   UNL A   1      40.326  22.447  27.281  1.00  0.00    -0.237 OA
ATOM     71  O   UNL A   1      42.086  21.878  25.635  1.00  0.00    -0.237 OA
ATOM     72  O   UNL A   1      42.594  21.866  28.048  1.00  0.00    -0.744 OA
ENDBRANCH  65  69
ENDBRANCH  48  62
BRANCH  49  73
ATOM     73  C   UNL A   1      39.137  32.385  35.314  1.00  0.00     0.023 A 
ATOM     74  C   UNL A   1      39.603  33.702  35.465  1.00  0.00     0.031 A 
ATOM     75  C   UNL A   1      38.265  31.884  36.297  1.00  0.00     0.131 A 
ATOM     76  C   UNL A   1      39.255  34.444  36.603  1.00  0.00     0.055 A 
ATOM     77  C   UNL A   1      37.865  32.652  37.393  1.00  0.00     0.041 A 
ATOM     78  F   UNL A   1      37.785  30.633  36.207  1.00  0.00    -0.206 F 
ATOM     79  C   UNL A   1      38.377  33.935  37.562  1.00  0.00     0.022 A 
BRANCH  76  80
ATOM     80  S   UNL A   1      40.077  36.038  36.880  1.00  0.00     0.124 S 
ATOM     81  O   UNL A   1      41.466  35.630  37.044  1.00  0.00    -0.237 OA
ATOM     82  O   UNL A   1      39.760  36.759  35.652  1.00  0.00    -0.237 OA
ATOM     83  O   UNL A   1      39.429  36.549  38.086  1.00  0.00    -0.744 OA
ENDBRANCH  76  80
ENDBRANCH  49  73
BRANCH  61  84
ATOM     84  C   UNL A   1      44.475  27.949  34.634  1.00  0.00     0.023 A 
ATOM     85  C   UNL A   1      44.318  27.003  35.662  1.00  0.00     0.031 A 
ATOM     86  C   UNL A   1      45.731  28.565  34.489  1.00  0.00     0.131 A 
ATOM     87  C   UNL A   1      45.379  26.748  36.543  1.00  0.00     0.055 A 
ATOM     88  C   UNL A   1      46.804  28.253  35.323  1.00  0.00     0.041 A 
ATOM     89  F   UNL A   1      45.937  29.480  33.528  1.00  0.00    -0.206 F 
ATOM     90  C   UNL A   1      46.628  27.350  36.367  1.00  0.00     0.022 A 
BRANCH  87  91
ATOM     91  S   UNL A   1      45.074  25.694  37.987  1.00  0.00     0.124 S 
ATOM     92  O   UNL A   1      44.441  24.526  37.383  1.00  0.00    -0.237 OA
ATOM     93  O   UNL A   1      46.419  25.489  38.514  1.00  0.00    -0.237 OA
ATOM     94  O   UNL A   1      44.198  26.509  38.828  1.00  0.00    -0.744 OA
ENDBRANCH  87  91
ENDBRANCH  61  84
ENDBRANCH  35  36
ENDBRANCH  27  30
ENDBRANCH  25  26
ENDBRANCH   1  25
TORSDOF 17
ENDMDL
MODEL 3
REMARK VINA RESULT:     -12.8      4.945      8.143
REMARK SMILES CO[C@@H]1C[C@@H](C(=O)NCCCNC(=O)c2ccc(-c3c4nc(c(-c5cc(S(=O)(=O)[O-])ccc5F)c5ccc([nH]5)c(-c5cc(S(=O)(=O)[O-])ccc5F)c5nc(c(-c6cc(S(=O)(=O)[O-])ccc6F)c6ccc3[nH]6)C=C5)C=C4)cc2)N(S(=O)(=O)/C=C/c2ccccc2)C1
REMARK SMILES IDX 10 1 9 2 8 3 6 4 7 5 5 7 3 8 4 9 90 10 78 11 2 12 1 13 79 14
REMARK SMILES IDX 80 15 81 16 82 17 83 18 84 19 85 20 89 21 86 22 88 23 87 24
REMARK SMILES IDX 11 25 12 26 13 27 14 29 15 30 16 31 77 32 17 33 76 34 18 35
REMARK SMILES IDX 19 36 20 37 70 38 21 39 75 40 69 41 71 42 22 43 74 44 68 45
REMARK SMILES IDX 67 46 23 48 55 49 35 50 54 51 36 52 39 53 53 54 72 55 37 56
REMARK SMILES IDX 38 57 52 59 73 60 40 61 24 62 25 63 33 64 26 65 32 66 34 67
REMARK SMILES IDX 31 68 27 69 28 70 29 71 30 72 56 73 57 74 65 75 58 76 64 77
REMARK SMILES IDX 66 78 63 79 59 80 60 81 61 82 62 83 41 84 42 85 50 86 43 87
REMARK SMILES IDX 49 88 51 89 48 90 44 91 45 92 46 93 47 94
REMARK H PARENT 8 6 12 28 71 47 39 58
REMARK Flexibility Score: inf
ROOT
ATOM      1  C   UNL A   1      31.877  29.082  27.132  1.00  0.00     0.042 C 
ENDROOT
BRANCH   1   2
ATOM      2  C   UNL A   1      32.769  27.874  26.816  1.00  0.00     0.117 C 
BRANCH   2   3
ATOM      3  N   UNL A   1      33.574  27.763  25.605  1.00  0.00    -0.355 N 
ATOM      4  C   UNL A   1      33.486  26.715  24.694  1.00  0.00     0.238 C 
ATOM      5  O   UNL A   1      33.617  26.930  23.491  1.00  0.00    -0.273 OA
ATOM      6  H   UNL A   1      34.225  28.477  25.420  1.00  0.00     0.163 HD
BRANCH   4   7
ATOM      7  C   UNL A   1      33.493  25.339  25.284  1.00  0.00     0.165 C 
ATOM      8  C   UNL A   1      34.317  23.190  25.582  1.00  0.00     0.135 C 
ATOM      9  C   UNL A   1      33.894  24.125  24.444  1.00  0.00     0.064 C 
ATOM     10  C   UNL A   1      33.260  23.517  26.702  1.00  0.00     0.135 C 
ATOM     11  N   UNL A   1      32.512  24.797  26.240  1.00  0.00    -0.183 NA
BRANCH   8  12
ATOM     12  O   UNL A   1      35.666  23.624  25.851  1.00  0.00    -0.380 OA
ATOM     13  C   UNL A   1      36.686  22.647  25.874  1.00  0.00     0.195 C 
ENDBRANCH   8  12
BRANCH  11  14
ATOM     14  S   UNL A   1      30.839  24.541  25.829  1.00  0.00     0.237 S 
ATOM     15  O   UNL A   1      30.853  23.665  24.668  1.00  0.00    -0.207 OA
ATOM     16  O   UNL A   1      30.291  24.042  27.070  1.00  0.00    -0.207 OA
BRANCH  14  17
ATOM     17  C   UNL A   1      29.964  26.024  25.345  1.00  0.00     0.123 C 
ATOM     18  C   UNL A   1      30.168  26.618  24.147  1.00  0.00     0.021 C 
BRANCH  18  19
ATOM     19  C   UNL A   1      29.341  27.556  23.329  1.00  0.00    -0.025 A 
ATOM     20  C   UNL A   1      29.919  28.615  22.612  1.00  0.00     0.008 A 
ATOM     21  C   UNL A   1      27.952  27.628  23.577  1.00  0.00     0.008 A 
ATOM     22  C   UNL A   1      29.151  29.722  22.205  1.00  0.00     0.001 A 
ATOM     23  C   UNL A   1      27.183  28.728  23.161  1.00  0.00     0.001 A 
ATOM     24  C   UNL A   1      27.788  29.786  22.490  1.00  0.00     0.000 A 
ENDBRANCH  18  19
ENDBRANCH  14  17
ENDBRANCH  11  14
ENDBRANCH   4   7
ENDBRANCH   2   3
ENDBRANCH   1   2
BRANCH   1  25
ATOM     25  C   UNL A   1      32.297  30.374  26.353  1.00  0.00     0.118 C 
BRANCH  25  26
ATOM     26  N   UNL A   1      32.245  31.663  27.058  1.00  0.00    -0.352 N 
ATOM     27  C   UNL A   1      33.261  32.470  27.564  1.00  0.00     0.251 C 
ATOM     28  H   UNL A   1      31.337  32.016  27.195  1.00  0.00     0.163 HD
ATOM     29  O   UNL A   1      33.019  33.610  27.955  1.00  0.00    -0.269 OA
BRANCH  27  30
ATOM     30  C   UNL A   1      34.635  31.964  27.735  1.00  0.00     0.039 A 
ATOM     31  C   UNL A   1      35.654  32.911  27.917  1.00  0.00     0.014 A 
ATOM     32  C   UNL A   1      34.928  30.608  27.803  1.00  0.00     0.014 A 
ATOM     33  C   UNL A   1      36.906  32.503  28.374  1.00  0.00     0.010 A 
ATOM     34  C   UNL A   1      36.147  30.204  28.333  1.00  0.00     0.010 A 
ATOM     35  C   UNL A   1      37.117  31.154  28.690  1.00  0.00    -0.014 A 
BRANCH  35  36
ATOM     36  C   UNL A   1      38.280  30.723  29.503  1.00  0.00     0.031 A 
ATOM     37  C   UNL A   1      39.241  29.704  28.968  1.00  0.00     0.074 A 
ATOM     38  C   UNL A   1      38.375  31.165  30.776  1.00  0.00     0.049 A 
ATOM     39  N   UNL A   1      40.227  29.103  29.579  1.00  0.00    -0.248 NA
ATOM     40  C   UNL A   1      39.043  29.280  27.574  1.00  0.00     0.031 C 
ATOM     41  C   UNL A   1      37.461  32.119  31.411  1.00  0.00     0.029 A 
ATOM     42  N   UNL A   1      39.269  30.861  31.773  1.00  0.00    -0.354 N 
ATOM     43  C   UNL A   1      40.763  28.219  28.649  1.00  0.00     0.074 A 
ATOM     44  C   UNL A   1      39.955  28.326  27.453  1.00  0.00     0.031 C 
ATOM     45  C   UNL A   1      37.856  32.342  32.674  1.00  0.00     0.029 A 
ATOM     46  C   UNL A   1      39.014  31.505  32.963  1.00  0.00     0.049 A 
ATOM     47  H   UNL A   1      40.024  30.241  31.647  1.00  0.00     0.167 HD
ATOM     48  C   UNL A   1      41.840  27.407  28.784  1.00  0.00     0.034 A 
ATOM     49  C   UNL A   1      39.633  31.417  34.158  1.00  0.00     0.034 A 
ATOM     50  C   UNL A   1      42.629  27.326  29.988  1.00  0.00     0.049 A 
ATOM     51  C   UNL A   1      40.812  30.483  34.284  1.00  0.00     0.074 A 
ATOM     52  C   UNL A   1      43.776  26.585  30.217  1.00  0.00     0.029 A 
ATOM     53  N   UNL A   1      42.350  28.001  31.172  1.00  0.00    -0.354 N 
ATOM     54  N   UNL A   1      41.346  29.701  33.373  1.00  0.00    -0.248 NA
ATOM     55  C   UNL A   1      41.476  30.426  35.591  1.00  0.00     0.031 C 
ATOM     56  C   UNL A   1      44.141  26.747  31.556  1.00  0.00     0.029 A 
ATOM     57  C   UNL A   1      43.281  27.662  32.142  1.00  0.00     0.049 A 
ATOM     58  H   UNL A   1      41.602  28.627  31.302  1.00  0.00     0.167 HD
ATOM     59  C   UNL A   1      42.437  29.094  33.989  1.00  0.00     0.074 A 
ATOM     60  C   UNL A   1      42.490  29.613  35.340  1.00  0.00     0.031 C 
ATOM     61  C   UNL A   1      43.317  28.192  33.485  1.00  0.00     0.034 A 
BRANCH  48  62
ATOM     62  C   UNL A   1      42.206  26.526  27.615  1.00  0.00     0.023 A 
ATOM     63  C   UNL A   1      41.754  25.199  27.518  1.00  0.00     0.031 A 
ATOM     64  C   UNL A   1      43.019  27.022  26.580  1.00  0.00     0.131 A 
ATOM     65  C   UNL A   1      42.166  24.395  26.445  1.00  0.00     0.055 A 
ATOM     66  C   UNL A   1      43.359  26.241  25.474  1.00  0.00     0.041 A 
ATOM     67  F   UNL A   1      43.503  28.272  26.630  1.00  0.00    -0.206 F 
ATOM     68  C   UNL A   1      42.943  24.916  25.407  1.00  0.00     0.022 A 
BRANCH  65  69
ATOM     69  S   UNL A   1      41.781  22.623  26.491  1.00  0.00     0.124 S 
ATOM     70  O   UNL A   1      42.479  22.140  25.303  1.00  0.00    -0.237 OA
ATOM     71  O   UNL A   1      42.340  22.212  27.773  1.00  0.00    -0.237 OA
ATOM     72  O   UNL A   1      40.322  22.588  26.406  1.00  0.00    -0.744 OA
ENDBRANCH  65  69
ENDBRANCH  48  62
BRANCH  49  73
ATOM     73  C   UNL A   1      39.165  32.214  35.333  1.00  0.00     0.023 A 
ATOM     74  C   UNL A   1      39.602  33.535  35.525  1.00  0.00     0.031 A 
ATOM     75  C   UNL A   1      38.335  31.649  36.318  1.00  0.00     0.131 A 
ATOM     76  C   UNL A   1      39.270  34.220  36.704  1.00  0.00     0.055 A 
ATOM     77  C   UNL A   1      37.949  32.361  37.456  1.00  0.00     0.041 A 
ATOM     78  F   UNL A   1      37.884  30.391  36.189  1.00  0.00    -0.206 F 
ATOM     79  C   UNL A   1      38.434  33.649  37.664  1.00  0.00     0.022 A 
BRANCH  76  80
ATOM     80  S   UNL A   1      40.059  35.822  37.024  1.00  0.00     0.124 S 
ATOM     81  O   UNL A   1      39.658  36.589  35.851  1.00  0.00    -0.237 OA
ATOM     82  O   UNL A   1      39.446  36.215  38.288  1.00  0.00    -0.237 OA
ATOM     83  O   UNL A   1      41.481  35.492  37.098  1.00  0.00    -0.744 OA
ENDBRANCH  76  80
ENDBRANCH  49  73
BRANCH  61  84
ATOM     84  C   UNL A   1      44.447  27.759  34.388  1.00  0.00     0.023 A 
ATOM     85  C   UNL A   1      44.309  26.690  35.290  1.00  0.00     0.031 A 
ATOM     86  C   UNL A   1      45.679  28.435  34.346  1.00  0.00     0.131 A 
ATOM     87  C   UNL A   1      45.363  26.370  36.158  1.00  0.00     0.055 A 
ATOM     88  C   UNL A   1      46.749  28.064  35.160  1.00  0.00     0.041 A 
ATOM     89  F   UNL A   1      45.866  29.466  33.507  1.00  0.00    -0.206 F 
ATOM     90  C   UNL A   1      46.590  27.036  36.085  1.00  0.00     0.022 A 
BRANCH  87  91
ATOM     91  S   UNL A   1      45.074  25.140  37.458  1.00  0.00     0.124 S 
ATOM     92  O   UNL A   1      43.915  25.694  38.150  1.00  0.00    -0.237 OA
ATOM     93  O   UNL A   1      44.836  23.923  36.690  1.00  0.00    -0.237 OA
ATOM     94  O   UNL A   1      46.319  25.152  38.225  1.00  0.00    -0.744 OA
ENDBRANCH  87  91
ENDBRANCH  61  84
ENDBRANCH  35  36
ENDBRANCH  27  30
ENDBRANCH  25  26
ENDBRANCH   1  25
TORSDOF 17
ENDMDL
