MODEL 1
REMARK VINA RESULT:     -11.8      0.000      0.000
REMARK SMILES CC(C)n1cncc1[C@@H](O)[C@H](C)C(=O)NCCCNC(=O)c1ccc(-c2c3nc(c(-c4cc(S(=O)(=O)[O-])ccc4F)c4ccc([nH]4)c(-c4cc(S(=O)(=O)[O-])ccc4F)c4nc(c(-c5cc(S(=O)(=O)[O-])ccc5F)c5ccc2[nH]5)C=C4)C=C3)cc1
REMARK SMILES IDX 17 1 16 2 15 3 13 4 14 5 11 7 12 8 9 9 8 10 4 11 5 12 6 13
REMARK SMILES IDX 7 14 2 15 1 16 3 17 10 18 18 20 19 21 20 22 21 24 22 25
REMARK SMILES IDX 23 26 84 27 24 28 83 29 25 30 26 31 27 32 77 33 28 34 82 35
REMARK SMILES IDX 76 36 78 37 29 38 81 39 75 40 74 41 30 43 62 44 42 45 61 46
REMARK SMILES IDX 43 47 46 48 60 49 79 50 44 51 45 52 59 54 80 55 47 56 31 57
REMARK SMILES IDX 32 58 40 59 33 60 39 61 41 62 38 63 34 64 35 65 36 66 37 67
REMARK SMILES IDX 63 68 64 69 72 70 65 71 71 72 73 73 70 74 66 75 67 76 68 77
REMARK SMILES IDX 69 78 48 79 49 80 57 81 50 82 56 83 58 84 55 85 51 86 52 87
REMARK SMILES IDX 53 88 54 89
REMARK H PARENT 15 6 10 19 19 23 78 42 46 53
REMARK Flexibility Score: inf
ROOT
ATOM      1  C   UNL A   1      34.036  29.742  27.039  1.00  0.00     0.042 C 
ENDROOT
BRANCH   1   2
ATOM      2  C   UNL A   1      33.517  28.744  26.013  1.00  0.00     0.117 C 
BRANCH   2   3
ATOM      3  N   UNL A   1      33.921  29.010  24.644  1.00  0.00    -0.356 N 
ATOM      4  C   UNL A   1      33.564  28.338  23.509  1.00  0.00     0.225 C 
ATOM      5  O   UNL A   1      33.799  28.865  22.418  1.00  0.00    -0.275 OA
ATOM      6  H   UNL A   1      34.531  29.772  24.517  1.00  0.00     0.163 HD
BRANCH   4   7
ATOM      7  C   UNL A   1      32.966  26.938  23.565  1.00  0.00     0.110 C 
ATOM      8  C   UNL A   1      31.437  27.025  23.540  1.00  0.00     0.021 C 
BRANCH   7   9
ATOM      9  C   UNL A   1      33.693  25.879  22.693  1.00  0.00     0.175 C 
BRANCH   9  10
ATOM     10  C   UNL A   1      33.456  24.442  23.050  1.00  0.00     0.067 A 
ATOM     11  N   UNL A   1      34.282  23.600  23.769  1.00  0.00    -0.330 N 
ATOM     12  C   UNL A   1      33.610  22.403  23.906  1.00  0.00     0.199 A 
ATOM     13  N   UNL A   1      32.481  22.386  23.250  1.00  0.00    -0.245 NA
ATOM     14  C   UNL A   1      32.388  23.625  22.696  1.00  0.00     0.137 A 
BRANCH  11  15
ATOM     15  C   UNL A   1      35.660  23.724  24.240  1.00  0.00     0.082 C 
ATOM     16  C   UNL A   1      35.718  23.502  25.755  1.00  0.00     0.031 C 
ATOM     17  C   UNL A   1      36.737  22.891  23.552  1.00  0.00     0.031 C 
ENDBRANCH  11  15
ENDBRANCH   9  10
BRANCH   9  18
ATOM     18  O   UNL A   1      33.433  25.975  21.298  1.00  0.00    -0.386 OA
ATOM     19  H   UNL A   1      33.530  26.897  21.013  1.00  0.00     0.211 HD
ENDBRANCH   9  18
ENDBRANCH   7   9
ENDBRANCH   4   7
ENDBRANCH   2   3
ENDBRANCH   1   2
BRANCH   1  20
ATOM     20  C   UNL A   1      35.394  29.365  27.592  1.00  0.00     0.118 C 
BRANCH  20  21
ATOM     21  N   UNL A   1      35.584  29.823  28.966  1.00  0.00    -0.352 N 
ATOM     22  C   UNL A   1      36.607  29.488  29.837  1.00  0.00     0.251 C 
ATOM     23  H   UNL A   1      34.905  30.443  29.315  1.00  0.00     0.163 HD
ATOM     24  O   UNL A   1      36.490  29.665  31.033  1.00  0.00    -0.269 OA
BRANCH  22  25
ATOM     25  C   UNL A   1      37.817  28.870  29.262  1.00  0.00     0.039 A 
ATOM     26  C   UNL A   1      38.429  29.444  28.150  1.00  0.00     0.014 A 
ATOM     27  C   UNL A   1      38.397  27.788  29.924  1.00  0.00     0.014 A 
ATOM     28  C   UNL A   1      39.695  28.997  27.783  1.00  0.00     0.010 A 
ATOM     29  C   UNL A   1      39.697  27.429  29.631  1.00  0.00     0.010 A 
ATOM     30  C   UNL A   1      40.354  28.023  28.557  1.00  0.00    -0.014 A 
BRANCH  30  31
ATOM     31  C   UNL A   1      41.772  27.748  28.310  1.00  0.00     0.031 A 
ATOM     32  C   UNL A   1      42.053  26.507  27.538  1.00  0.00     0.074 A 
ATOM     33  C   UNL A   1      42.799  28.576  28.593  1.00  0.00     0.049 A 
ATOM     34  N   UNL A   1      42.486  25.385  28.005  1.00  0.00    -0.248 NA
ATOM     35  C   UNL A   1      41.682  26.451  26.118  1.00  0.00     0.031 C 
ATOM     36  C   UNL A   1      42.756  29.954  29.082  1.00  0.00     0.029 A 
ATOM     37  N   UNL A   1      44.136  28.358  28.418  1.00  0.00    -0.354 N 
ATOM     38  C   UNL A   1      42.683  24.552  26.909  1.00  0.00     0.074 A 
ATOM     39  C   UNL A   1      41.990  25.185  25.818  1.00  0.00     0.031 C 
ATOM     40  C   UNL A   1      43.979  30.517  28.961  1.00  0.00     0.029 A 
ATOM     41  C   UNL A   1      44.925  29.492  28.559  1.00  0.00     0.049 A 
ATOM     42  H   UNL A   1      44.509  27.471  28.208  1.00  0.00     0.167 HD
ATOM     43  C   UNL A   1      43.588  23.532  26.959  1.00  0.00     0.034 A 
ATOM     44  C   UNL A   1      46.266  29.596  28.373  1.00  0.00     0.034 A 
ATOM     45  C   UNL A   1      43.997  23.273  28.327  1.00  0.00     0.049 A 
ATOM     46  C   UNL A   1      46.838  28.244  28.578  1.00  0.00     0.074 A 
ATOM     47  C   UNL A   1      43.325  22.969  29.498  1.00  0.00     0.029 A 
ATOM     48  N   UNL A   1      45.244  23.700  28.728  1.00  0.00    -0.354 N 
ATOM     49  N   UNL A   1      46.832  27.634  29.731  1.00  0.00    -0.248 NA
ATOM     50  C   UNL A   1      47.012  27.378  27.424  1.00  0.00     0.031 C 
ATOM     51  C   UNL A   1      43.994  23.725  30.508  1.00  0.00     0.029 A 
ATOM     52  C   UNL A   1      45.085  24.366  29.918  1.00  0.00     0.049 A 
ATOM     53  H   UNL A   1      46.093  23.554  28.249  1.00  0.00     0.167 HD
ATOM     54  C   UNL A   1      46.545  26.312  29.435  1.00  0.00     0.074 A 
ATOM     55  C   UNL A   1      46.784  26.192  27.998  1.00  0.00     0.031 C 
ATOM     56  C   UNL A   1      45.877  25.513  30.321  1.00  0.00     0.034 A 
BRANCH  43  57
ATOM     57  C   UNL A   1      44.391  23.005  25.784  1.00  0.00     0.023 A 
ATOM     58  C   UNL A   1      44.375  21.611  25.575  1.00  0.00     0.031 A 
ATOM     59  C   UNL A   1      45.375  23.716  25.063  1.00  0.00     0.131 A 
ATOM     60  C   UNL A   1      45.376  20.977  24.818  1.00  0.00     0.055 A 
ATOM     61  C   UNL A   1      46.323  23.086  24.248  1.00  0.00     0.041 A 
ATOM     62  F   UNL A   1      45.538  25.038  25.166  1.00  0.00    -0.206 F 
ATOM     63  C   UNL A   1      46.354  21.706  24.154  1.00  0.00     0.022 A 
BRANCH  60  64
ATOM     64  S   UNL A   1      45.487  19.170  24.895  1.00  0.00     0.124 S 
ATOM     65  O   UNL A   1      44.269  18.838  25.625  1.00  0.00    -0.237 OA
ATOM     66  O   UNL A   1      45.511  18.811  23.480  1.00  0.00    -0.237 OA
ATOM     67  O   UNL A   1      46.735  18.938  25.618  1.00  0.00    -0.744 OA
ENDBRANCH  60  64
ENDBRANCH  43  57
BRANCH  44  68
ATOM     68  C   UNL A   1      47.016  30.742  27.802  1.00  0.00     0.023 A 
ATOM     69  C   UNL A   1      46.401  31.737  27.015  1.00  0.00     0.031 A 
ATOM     70  C   UNL A   1      48.331  31.005  28.247  1.00  0.00     0.131 A 
ATOM     71  C   UNL A   1      47.092  32.932  26.713  1.00  0.00     0.055 A 
ATOM     72  C   UNL A   1      49.012  32.185  27.941  1.00  0.00     0.041 A 
ATOM     73  F   UNL A   1      48.967  30.160  29.074  1.00  0.00    -0.206 F 
ATOM     74  C   UNL A   1      48.389  33.160  27.180  1.00  0.00     0.022 A 
BRANCH  71  75
ATOM     75  S   UNL A   1      46.261  34.270  25.796  1.00  0.00     0.124 S 
ATOM     76  O   UNL A   1      47.338  34.786  24.958  1.00  0.00    -0.237 OA
ATOM     77  O   UNL A   1      45.187  33.561  25.111  1.00  0.00    -0.237 OA
ATOM     78  O   UNL A   1      45.815  35.179  26.853  1.00  0.00    -0.744 OA
ENDBRANCH  71  75
ENDBRANCH  44  68
BRANCH  56  79
ATOM     79  C   UNL A   1      45.770  25.956  31.769  1.00  0.00     0.023 A 
ATOM     80  C   UNL A   1      44.634  26.555  32.359  1.00  0.00     0.031 A 
ATOM     81  C   UNL A   1      46.858  25.663  32.612  1.00  0.00     0.131 A 
ATOM     82  C   UNL A   1      44.628  26.854  33.737  1.00  0.00     0.055 A 
ATOM     83  C   UNL A   1      46.839  25.936  33.980  1.00  0.00     0.041 A 
ATOM     84  F   UNL A   1      47.962  25.074  32.123  1.00  0.00    -0.206 F 
ATOM     85  C   UNL A   1      45.726  26.542  34.545  1.00  0.00     0.022 A 
BRANCH  82  86
ATOM     86  S   UNL A   1      43.204  27.692  34.507  1.00  0.00     0.124 S 
ATOM     87  O   UNL A   1      42.154  26.682  34.486  1.00  0.00    -0.237 OA
ATOM     88  O   UNL A   1      43.725  28.045  35.825  1.00  0.00    -0.237 OA
ATOM     89  O   UNL A   1      42.967  28.835  33.623  1.00  0.00    -0.744 OA
ENDBRANCH  82  86
ENDBRANCH  56  79
ENDBRANCH  30  31
ENDBRANCH  22  25
ENDBRANCH  20  21
ENDBRANCH   1  20
TORSDOF 17
ENDMDL
MODEL 2
REMARK VINA RESULT:     -11.7      1.382      1.666
REMARK SMILES CC(C)n1cncc1[C@@H](O)[C@H](C)C(=O)NCCCNC(=O)c1ccc(-c2c3nc(c(-c4cc(S(=O)(=O)[O-])ccc4F)c4ccc([nH]4)c(-c4cc(S(=O)(=O)[O-])ccc4F)c4nc(c(-c5cc(S(=O)(=O)[O-])ccc5F)c5ccc2[nH]5)C=C4)C=C3)cc1
REMARK SMILES IDX 17 1 16 2 15 3 13 4 14 5 11 7 12 8 9 9 8 10 4 11 5 12 6 13
REMARK SMILES IDX 7 14 2 15 1 16 3 17 10 18 18 20 19 21 20 22 21 24 22 25
REMARK SMILES IDX 23 26 84 27 24 28 83 29 25 30 26 31 27 32 77 33 28 34 82 35
REMARK SMILES IDX 76 36 78 37 29 38 81 39 75 40 74 41 30 43 62 44 42 45 61 46
REMARK SMILES IDX 43 47 46 48 60 49 79 50 44 51 45 52 59 54 80 55 47 56 31 57
REMARK SMILES IDX 32 58 40 59 33 60 39 61 41 62 38 63 34 64 35 65 36 66 37 67
REMARK SMILES IDX 63 68 64 69 72 70 65 71 71 72 73 73 70 74 66 75 67 76 68 77
REMARK SMILES IDX 69 78 48 79 49 80 57 81 50 82 56 83 58 84 55 85 51 86 52 87
REMARK SMILES IDX 53 88 54 89
REMARK H PARENT 15 6 10 19 19 23 78 42 46 53
REMARK Flexibility Score: inf
ROOT
ATOM      1  C   UNL A   1      34.004  29.760  26.888  1.00  0.00     0.042 C 
ENDROOT
BRANCH   1   2
ATOM      2  C   UNL A   1      33.506  28.721  25.892  1.00  0.00     0.117 C 
BRANCH   2   3
ATOM      3  N   UNL A   1      33.963  28.915  24.528  1.00  0.00    -0.356 N 
ATOM      4  C   UNL A   1      33.654  28.180  23.419  1.00  0.00     0.225 C 
ATOM      5  O   UNL A   1      33.930  28.649  22.310  1.00  0.00    -0.275 OA
ATOM      6  H   UNL A   1      34.574  29.674  24.384  1.00  0.00     0.163 HD
BRANCH   4   7
ATOM      7  C   UNL A   1      33.060  26.782  23.527  1.00  0.00     0.110 C 
ATOM      8  C   UNL A   1      31.531  26.865  23.527  1.00  0.00     0.021 C 
BRANCH   7   9
ATOM      9  C   UNL A   1      33.774  25.698  22.674  1.00  0.00     0.175 C 
BRANCH   9  10
ATOM     10  C   UNL A   1      33.501  24.271  23.041  1.00  0.00     0.067 A 
ATOM     11  N   UNL A   1      34.320  23.402  23.736  1.00  0.00    -0.330 N 
ATOM     12  C   UNL A   1      33.613  22.228  23.897  1.00  0.00     0.199 A 
ATOM     13  N   UNL A   1      32.464  22.249  23.276  1.00  0.00    -0.245 NA
ATOM     14  C   UNL A   1      32.395  23.490  22.723  1.00  0.00     0.137 A 
BRANCH  11  15
ATOM     15  C   UNL A   1      35.716  23.481  24.163  1.00  0.00     0.082 C 
ATOM     16  C   UNL A   1      35.842  23.035  25.624  1.00  0.00     0.031 C 
ATOM     17  C   UNL A   1      36.773  22.780  23.314  1.00  0.00     0.031 C 
ENDBRANCH  11  15
ENDBRANCH   9  10
BRANCH   9  18
ATOM     18  O   UNL A   1      33.534  25.786  21.274  1.00  0.00    -0.386 OA
ATOM     19  H   UNL A   1      33.792  26.666  20.957  1.00  0.00     0.211 HD
ENDBRANCH   9  18
ENDBRANCH   7   9
ENDBRANCH   4   7
ENDBRANCH   2   3
ENDBRANCH   1   2
BRANCH   1  20
ATOM     20  C   UNL A   1      35.351  29.407  27.482  1.00  0.00     0.118 C 
BRANCH  20  21
ATOM     21  N   UNL A   1      35.576  30.046  28.777  1.00  0.00    -0.352 N 
ATOM     22  C   UNL A   1      36.615  29.821  29.663  1.00  0.00     0.251 C 
ATOM     23  H   UNL A   1      34.910  30.715  29.051  1.00  0.00     0.163 HD
ATOM     24  O   UNL A   1      36.526  30.161  30.826  1.00  0.00    -0.269 OA
BRANCH  22  25
ATOM     25  C   UNL A   1      37.807  29.118  29.153  1.00  0.00     0.039 A 
ATOM     26  C   UNL A   1      38.537  29.661  28.098  1.00  0.00     0.014 A 
ATOM     27  C   UNL A   1      38.251  27.978  29.823  1.00  0.00     0.014 A 
ATOM     28  C   UNL A   1      39.784  29.119  27.802  1.00  0.00     0.010 A 
ATOM     29  C   UNL A   1      39.534  27.518  29.606  1.00  0.00     0.010 A 
ATOM     30  C   UNL A   1      40.308  28.077  28.593  1.00  0.00    -0.014 A 
BRANCH  30  31
ATOM     31  C   UNL A   1      41.712  27.692  28.432  1.00  0.00     0.031 A 
ATOM     32  C   UNL A   1      41.949  26.502  27.569  1.00  0.00     0.074 A 
ATOM     33  C   UNL A   1      42.780  28.389  28.872  1.00  0.00     0.049 A 
ATOM     34  N   UNL A   1      42.240  25.307  27.959  1.00  0.00    -0.248 NA
ATOM     35  C   UNL A   1      41.698  26.607  26.125  1.00  0.00     0.031 C 
ATOM     36  C   UNL A   1      42.817  29.717  29.486  1.00  0.00     0.029 A 
ATOM     37  N   UNL A   1      44.103  28.061  28.781  1.00  0.00    -0.354 N 
ATOM     38  C   UNL A   1      42.457  24.559  26.807  1.00  0.00     0.074 A 
ATOM     39  C   UNL A   1      41.919  25.350  25.730  1.00  0.00     0.031 C 
ATOM     40  C   UNL A   1      44.090  30.169  29.515  1.00  0.00     0.029 A 
ATOM     41  C   UNL A   1      44.973  29.098  29.091  1.00  0.00     0.049 A 
ATOM     42  H   UNL A   1      44.413  27.164  28.517  1.00  0.00     0.167 HD
ATOM     43  C   UNL A   1      43.261  23.457  26.829  1.00  0.00     0.034 A 
ATOM     44  C   UNL A   1      46.329  29.089  29.021  1.00  0.00     0.034 A 
ATOM     45  C   UNL A   1      43.525  23.040  28.193  1.00  0.00     0.049 A 
ATOM     46  C   UNL A   1      46.761  27.676  29.140  1.00  0.00     0.074 A 
ATOM     47  C   UNL A   1      42.731  22.700  29.274  1.00  0.00     0.029 A 
ATOM     48  N   UNL A   1      44.767  23.309  28.729  1.00  0.00    -0.354 N 
ATOM     49  N   UNL A   1      46.601  26.969  30.225  1.00  0.00    -0.248 NA
ATOM     50  C   UNL A   1      46.956  26.902  27.925  1.00  0.00     0.031 C 
ATOM     51  C   UNL A   1      43.374  23.296  30.401  1.00  0.00     0.029 A 
ATOM     52  C   UNL A   1      44.564  23.880  29.961  1.00  0.00     0.049 A 
ATOM     53  H   UNL A   1      45.637  23.126  28.306  1.00  0.00     0.167 HD
ATOM     54  C   UNL A   1      46.226  25.713  29.782  1.00  0.00     0.074 A 
ATOM     55  C   UNL A   1      46.577  25.698  28.363  1.00  0.00     0.031 C 
ATOM     56  C   UNL A   1      45.416  24.906  30.533  1.00  0.00     0.034 A 
BRANCH  43  57
ATOM     57  C   UNL A   1      44.113  22.961  25.674  1.00  0.00     0.023 A 
ATOM     58  C   UNL A   1      44.122  21.571  25.440  1.00  0.00     0.031 A 
ATOM     59  C   UNL A   1      45.113  23.697  25.004  1.00  0.00     0.131 A 
ATOM     60  C   UNL A   1      45.157  20.963  24.709  1.00  0.00     0.055 A 
ATOM     61  C   UNL A   1      46.098  23.094  24.213  1.00  0.00     0.041 A 
ATOM     62  F   UNL A   1      45.256  25.018  25.137  1.00  0.00    -0.206 F 
ATOM     63  C   UNL A   1      46.150  21.716  24.095  1.00  0.00     0.022 A 
BRANCH  60  64
ATOM     64  S   UNL A   1      45.288  19.157  24.757  1.00  0.00     0.124 S 
ATOM     65  O   UNL A   1      46.326  18.971  25.766  1.00  0.00    -0.237 OA
ATOM     66  O   UNL A   1      43.935  18.768  25.143  1.00  0.00    -0.237 OA
ATOM     67  O   UNL A   1      45.672  18.809  23.392  1.00  0.00    -0.744 OA
ENDBRANCH  60  64
ENDBRANCH  43  57
BRANCH  44  68
ATOM     68  C   UNL A   1      47.224  30.204  28.623  1.00  0.00     0.023 A 
ATOM     69  C   UNL A   1      46.857  31.165  27.659  1.00  0.00     0.031 A 
ATOM     70  C   UNL A   1      48.378  30.480  29.390  1.00  0.00     0.131 A 
ATOM     71  C   UNL A   1      47.624  32.343  27.502  1.00  0.00     0.055 A 
ATOM     72  C   UNL A   1      49.135  31.641  29.227  1.00  0.00     0.041 A 
ATOM     73  F   UNL A   1      48.757  29.668  30.391  1.00  0.00    -0.206 F 
ATOM     74  C   UNL A   1      48.754  32.584  28.288  1.00  0.00     0.022 A 
BRANCH  71  75
ATOM     75  S   UNL A   1      47.090  33.642  26.343  1.00  0.00     0.124 S 
ATOM     76  O   UNL A   1      46.860  34.775  27.232  1.00  0.00    -0.237 OA
ATOM     77  O   UNL A   1      48.230  33.746  25.440  1.00  0.00    -0.237 OA
ATOM     78  O   UNL A   1      45.881  33.081  25.737  1.00  0.00    -0.744 OA
ENDBRANCH  71  75
ENDBRANCH  44  68
BRANCH  56  79
ATOM     79  C   UNL A   1      45.224  25.227  32.004  1.00  0.00     0.023 A 
ATOM     80  C   UNL A   1      46.032  24.747  33.059  1.00  0.00     0.031 A 
ATOM     81  C   UNL A   1      44.213  26.151  32.333  1.00  0.00     0.131 A 
ATOM     82  C   UNL A   1      45.800  25.178  34.380  1.00  0.00     0.055 A 
ATOM     83  C   UNL A   1      44.002  26.594  33.638  1.00  0.00     0.041 A 
ATOM     84  F   UNL A   1      43.421  26.665  31.378  1.00  0.00    -0.206 F 
ATOM     85  C   UNL A   1      44.790  26.101  34.669  1.00  0.00     0.022 A 
BRANCH  82  86
ATOM     86  S   UNL A   1      46.782  24.517  35.767  1.00  0.00     0.124 S 
ATOM     87  O   UNL A   1      45.796  23.834  36.596  1.00  0.00    -0.237 OA
ATOM     88  O   UNL A   1      47.748  23.659  35.085  1.00  0.00    -0.237 OA
ATOM     89  O   UNL A   1      47.360  25.717  36.373  1.00  0.00    -0.744 OA
ENDBRANCH  82  86
ENDBRANCH  56  79
ENDBRANCH  30  31
ENDBRANCH  22  25
ENDBRANCH  20  21
ENDBRANCH   1  20
TORSDOF 17
ENDMDL
MODEL 3
REMARK VINA RESULT:     -11.6      1.394      2.159
REMARK SMILES CC(C)n1cncc1[C@@H](O)[C@H](C)C(=O)NCCCNC(=O)c1ccc(-c2c3nc(c(-c4cc(S(=O)(=O)[O-])ccc4F)c4ccc([nH]4)c(-c4cc(S(=O)(=O)[O-])ccc4F)c4nc(c(-c5cc(S(=O)(=O)[O-])ccc5F)c5ccc2[nH]5)C=C4)C=C3)cc1
REMARK SMILES IDX 17 1 16 2 15 3 13 4 14 5 11 7 12 8 9 9 8 10 4 11 5 12 6 13
REMARK SMILES IDX 7 14 2 15 1 16 3 17 10 18 18 20 19 21 20 22 21 24 22 25
REMARK SMILES IDX 23 26 84 27 24 28 83 29 25 30 26 31 27 32 77 33 28 34 82 35
REMARK SMILES IDX 76 36 78 37 29 38 81 39 75 40 74 41 30 43 62 44 42 45 61 46
REMARK SMILES IDX 43 47 46 48 60 49 79 50 44 51 45 52 59 54 80 55 47 56 31 57
REMARK SMILES IDX 32 58 40 59 33 60 39 61 41 62 38 63 34 64 35 65 36 66 37 67
REMARK SMILES IDX 63 68 64 69 72 70 65 71 71 72 73 73 70 74 66 75 67 76 68 77
REMARK SMILES IDX 69 78 48 79 49 80 57 81 50 82 56 83 58 84 55 85 51 86 52 87
REMARK SMILES IDX 53 88 54 89
REMARK H PARENT 15 6 10 19 19 23 78 42 46 53
REMARK Flexibility Score: inf
ROOT
ATOM      1  C   UNL A   1      33.793  28.826  27.162  1.00  0.00     0.042 C 
ENDROOT
BRANCH   1   2
ATOM      2  C   UNL A   1      33.611  27.527  26.388  1.00  0.00     0.117 C 
BRANCH   2   3
ATOM      3  N   UNL A   1      32.342  26.856  26.610  1.00  0.00    -0.356 N 
ATOM      4  C   UNL A   1      32.040  25.536  26.434  1.00  0.00     0.225 C 
ATOM      5  O   UNL A   1      30.989  25.106  26.919  1.00  0.00    -0.275 OA
ATOM      6  H   UNL A   1      31.606  27.427  26.929  1.00  0.00     0.163 HD
BRANCH   4   7
ATOM      7  C   UNL A   1      32.922  24.620  25.595  1.00  0.00     0.110 C 
ATOM      8  C   UNL A   1      33.724  23.690  26.510  1.00  0.00     0.021 C 
BRANCH   7   9
ATOM      9  C   UNL A   1      32.248  24.052  24.317  1.00  0.00     0.175 C 
BRANCH   9  10
ATOM     10  C   UNL A   1      32.438  24.839  23.055  1.00  0.00     0.067 A 
ATOM     11  N   UNL A   1      31.882  26.061  22.727  1.00  0.00    -0.330 N 
ATOM     12  C   UNL A   1      32.404  26.421  21.501  1.00  0.00     0.199 A 
ATOM     13  N   UNL A   1      33.158  25.487  20.987  1.00  0.00    -0.245 NA
ATOM     14  C   UNL A   1      33.165  24.498  21.920  1.00  0.00     0.137 A 
BRANCH  11  15
ATOM     15  C   UNL A   1      30.839  26.877  23.347  1.00  0.00     0.082 C 
ATOM     16  C   UNL A   1      30.523  28.085  22.459  1.00  0.00     0.031 C 
ATOM     17  C   UNL A   1      29.544  26.194  23.774  1.00  0.00     0.031 C 
ENDBRANCH  11  15
ENDBRANCH   9  10
BRANCH   9  18
ATOM     18  O   UNL A   1      32.614  22.716  23.993  1.00  0.00    -0.386 OA
ATOM     19  H   UNL A   1      32.441  22.140  24.754  1.00  0.00     0.211 HD
ENDBRANCH   9  18
ENDBRANCH   7   9
ENDBRANCH   4   7
ENDBRANCH   2   3
ENDBRANCH   1   2
BRANCH   1  20
ATOM     20  C   UNL A   1      35.249  29.182  27.379  1.00  0.00     0.118 C 
BRANCH  20  21
ATOM     21  N   UNL A   1      35.478  29.834  28.666  1.00  0.00    -0.352 N 
ATOM     22  C   UNL A   1      36.546  29.654  29.528  1.00  0.00     0.251 C 
ATOM     23  H   UNL A   1      34.793  30.477  28.955  1.00  0.00     0.163 HD
ATOM     24  O   UNL A   1      36.472  29.995  30.692  1.00  0.00    -0.269 OA
BRANCH  22  25
ATOM     25  C   UNL A   1      37.754  28.997  28.991  1.00  0.00     0.039 A 
ATOM     26  C   UNL A   1      38.389  29.521  27.868  1.00  0.00     0.014 A 
ATOM     27  C   UNL A   1      38.306  27.930  29.699  1.00  0.00     0.014 A 
ATOM     28  C   UNL A   1      39.651  29.041  27.533  1.00  0.00     0.010 A 
ATOM     29  C   UNL A   1      39.603  27.539  29.435  1.00  0.00     0.010 A 
ATOM     30  C   UNL A   1      40.284  28.083  28.350  1.00  0.00    -0.014 A 
BRANCH  30  31
ATOM     31  C   UNL A   1      41.700  27.777  28.131  1.00  0.00     0.031 A 
ATOM     32  C   UNL A   1      41.969  26.522  27.378  1.00  0.00     0.074 A 
ATOM     33  C   UNL A   1      42.739  28.586  28.424  1.00  0.00     0.049 A 
ATOM     34  N   UNL A   1      42.370  25.396  27.865  1.00  0.00    -0.248 NA
ATOM     35  C   UNL A   1      41.621  26.457  25.952  1.00  0.00     0.031 C 
ATOM     36  C   UNL A   1      42.716  29.971  28.897  1.00  0.00     0.029 A 
ATOM     37  N   UNL A   1      44.074  28.339  28.275  1.00  0.00    -0.354 N 
ATOM     38  C   UNL A   1      42.569  24.547  26.782  1.00  0.00     0.074 A 
ATOM     39  C   UNL A   1      41.909  25.183  25.671  1.00  0.00     0.031 C 
ATOM     40  C   UNL A   1      43.953  30.506  28.792  1.00  0.00     0.029 A 
ATOM     41  C   UNL A   1      44.884  29.458  28.418  1.00  0.00     0.049 A 
ATOM     42  H   UNL A   1      44.432  27.442  28.081  1.00  0.00     0.167 HD
ATOM     43  C   UNL A   1      43.451  23.509  26.858  1.00  0.00     0.034 A 
ATOM     44  C   UNL A   1      46.229  29.532  28.255  1.00  0.00     0.034 A 
ATOM     45  C   UNL A   1      43.830  23.257  28.236  1.00  0.00     0.049 A 
ATOM     46  C   UNL A   1      46.770  28.171  28.485  1.00  0.00     0.074 A 
ATOM     47  C   UNL A   1      43.132  22.980  29.398  1.00  0.00     0.029 A 
ATOM     48  N   UNL A   1      45.079  23.663  28.655  1.00  0.00    -0.354 N 
ATOM     49  N   UNL A   1      46.731  27.574  29.644  1.00  0.00    -0.248 NA
ATOM     50  C   UNL A   1      46.946  27.289  27.343  1.00  0.00     0.031 C 
ATOM     51  C   UNL A   1      43.798  23.733  30.412  1.00  0.00     0.029 A 
ATOM     52  C   UNL A   1      44.913  24.345  29.834  1.00  0.00     0.049 A 
ATOM     53  H   UNL A   1      45.933  23.494  28.193  1.00  0.00     0.167 HD
ATOM     54  C   UNL A   1      46.421  26.255  29.357  1.00  0.00     0.074 A 
ATOM     55  C   UNL A   1      46.683  26.114  27.925  1.00  0.00     0.031 C 
ATOM     56  C   UNL A   1      45.721  25.480  30.239  1.00  0.00     0.034 A 
BRANCH  43  57
ATOM     57  C   UNL A   1      44.264  22.953  25.703  1.00  0.00     0.023 A 
ATOM     58  C   UNL A   1      44.250  21.553  25.530  1.00  0.00     0.031 A 
ATOM     59  C   UNL A   1      45.253  23.645  24.973  1.00  0.00     0.131 A 
ATOM     60  C   UNL A   1      45.256  20.901  24.798  1.00  0.00     0.055 A 
ATOM     61  C   UNL A   1      46.208  22.995  24.182  1.00  0.00     0.041 A 
ATOM     62  F   UNL A   1      45.416  24.969  25.043  1.00  0.00    -0.206 F 
ATOM     63  C   UNL A   1      46.240  21.614  24.123  1.00  0.00     0.022 A 
BRANCH  60  64
ATOM     64  S   UNL A   1      45.367  19.097  24.921  1.00  0.00     0.124 S 
ATOM     65  O   UNL A   1      46.489  18.941  25.840  1.00  0.00    -0.237 OA
ATOM     66  O   UNL A   1      44.050  18.750  25.445  1.00  0.00    -0.237 OA
ATOM     67  O   UNL A   1      45.622  18.678  23.545  1.00  0.00    -0.744 OA
ENDBRANCH  60  64
ENDBRANCH  43  57
BRANCH  44  68
ATOM     68  C   UNL A   1      47.013  30.656  27.685  1.00  0.00     0.023 A 
ATOM     69  C   UNL A   1      46.419  31.703  26.952  1.00  0.00     0.031 A 
ATOM     70  C   UNL A   1      48.357  30.840  28.082  1.00  0.00     0.131 A 
ATOM     71  C   UNL A   1      47.157  32.871  26.655  1.00  0.00     0.055 A 
ATOM     72  C   UNL A   1      49.084  31.993  27.781  1.00  0.00     0.041 A 
ATOM     73  F   UNL A   1      48.982  29.939  28.857  1.00  0.00    -0.206 F 
ATOM     74  C   UNL A   1      48.481  33.020  27.074  1.00  0.00     0.022 A 
BRANCH  71  75
ATOM     75  S   UNL A   1      46.359  34.275  25.812  1.00  0.00     0.124 S 
ATOM     76  O   UNL A   1      45.324  33.616  25.025  1.00  0.00    -0.237 OA
ATOM     77  O   UNL A   1      45.903  35.095  26.928  1.00  0.00    -0.237 OA
ATOM     78  O   UNL A   1      47.446  34.863  25.028  1.00  0.00    -0.744 OA
ENDBRANCH  71  75
ENDBRANCH  44  68
BRANCH  56  79
ATOM     79  C   UNL A   1      45.598  25.941  31.680  1.00  0.00     0.023 A 
ATOM     80  C   UNL A   1      44.443  26.513  32.260  1.00  0.00     0.031 A 
ATOM     81  C   UNL A   1      46.694  25.694  32.529  1.00  0.00     0.131 A 
ATOM     82  C   UNL A   1      44.425  26.832  33.633  1.00  0.00     0.055 A 
ATOM     83  C   UNL A   1      46.663  25.988  33.892  1.00  0.00     0.041 A 
ATOM     84  F   UNL A   1      47.816  25.133  32.050  1.00  0.00    -0.206 F 
ATOM     85  C   UNL A   1      45.531  26.567  34.447  1.00  0.00     0.022 A 
BRANCH  82  86
ATOM     86  S   UNL A   1      42.974  27.637  34.388  1.00  0.00     0.124 S 
ATOM     87  O   UNL A   1      42.073  27.854  33.263  1.00  0.00    -0.237 OA
ATOM     88  O   UNL A   1      42.542  26.645  35.370  1.00  0.00    -0.237 OA
ATOM     89  O   UNL A   1      43.531  28.860  34.967  1.00  0.00    -0.744 OA
ENDBRANCH  82  86
ENDBRANCH  56  79
ENDBRANCH  30  31
ENDBRANCH  22  25
ENDBRANCH  20  21
ENDBRANCH   1  20
TORSDOF 17
ENDMDL
