MODEL 1
REMARK VINA RESULT:     -13.8      0.000      0.000
REMARK SMILES CSCC[C@H](NC(=O)N[C@@H]1CCCCC1(C)C)C(=O)NCCCNC(=O)c1ccc(-c2c3nc(c(-c4cc(S(=O)(=O)[O-])ccc4F)c4ccc([nH]4)c(-c4cc(S(=O)(=O)[O-])ccc4F)c4nc(c(-c5cc(S(=O)(=O)[O-])ccc5F)c5ccc2[nH]5)C=C4)C=C3)cc1
REMARK SMILES IDX 22 1 21 2 20 3 18 4 19 5 5 7 4 8 3 9 2 10 1 11 6 12 7 13
REMARK SMILES IDX 8 15 9 16 10 18 11 19 15 20 12 21 14 22 16 23 17 24 13 25
REMARK SMILES IDX 23 26 24 27 25 28 26 30 27 31 28 32 89 33 29 34 88 35 30 36
REMARK SMILES IDX 31 37 32 38 82 39 33 40 87 41 81 42 83 43 34 44 86 45 80 46
REMARK SMILES IDX 79 47 35 49 67 50 47 51 66 52 48 53 51 54 65 55 84 56 49 57
REMARK SMILES IDX 50 58 64 60 85 61 52 62 36 63 37 64 45 65 38 66 44 67 46 68
REMARK SMILES IDX 43 69 39 70 40 71 41 72 42 73 68 74 69 75 77 76 70 77 76 78
REMARK SMILES IDX 78 79 75 80 71 81 72 82 73 83 74 84 53 85 54 86 62 87 55 88
REMARK SMILES IDX 61 89 63 90 60 91 56 92 57 93 58 94 59 95
REMARK H PARENT 20 6 6 14 9 17 24 29 83 48 51 59
REMARK Flexibility Score: inf
ROOT
ATOM      1  C   UNL A   1      36.579  21.826  24.023  1.00  0.00     0.042 C 
ENDROOT
BRANCH   1   2
ATOM      2  C   UNL A   1      36.487  23.295  23.683  1.00  0.00     0.117 C 
BRANCH   2   3
ATOM      3  N   UNL A   1      35.222  24.196  24.473  1.00  0.00    -0.354 N 
ATOM      4  C   UNL A   1      33.362  23.935  24.977  1.00  0.00     0.242 C 
ATOM      5  O   UNL A   1      32.771  24.153  26.045  1.00  0.00    -0.273 OA
ATOM      6  H   UNL A   1      35.538  25.088  24.740  1.00  0.00     0.163 HD
BRANCH   4   7
ATOM      7  C   UNL A   1      32.326  23.087  23.437  1.00  0.00     0.174 C 
BRANCH   7   8
ATOM      8  C   UNL A   1      32.371  21.551  23.098  1.00  0.00     0.046 C 
BRANCH   8   9
ATOM      9  C   UNL A   1      32.408  20.645  24.346  1.00  0.00     0.072 C 
BRANCH   9  10
ATOM     10  S   UNL A   1      33.228  19.013  24.118  1.00  0.00    -0.165 SA
ATOM     11  C   UNL A   1      32.657  18.106  25.594  1.00  0.00     0.085 C 
ENDBRANCH   9  10
ENDBRANCH   8   9
ENDBRANCH   7   8
BRANCH   7  12
ATOM     12  N   UNL A   1      32.716  23.949  21.856  1.00  0.00    -0.326 N 
ATOM     13  C   UNL A   1      32.605  25.362  21.328  1.00  0.00     0.315 C 
ATOM     14  H   UNL A   1      33.090  23.334  21.185  1.00  0.00     0.166 HD
ATOM     15  O   UNL A   1      33.078  25.627  20.222  1.00  0.00    -0.249 OA
ATOM     16  N   UNL A   1      31.937  26.457  22.114  1.00  0.00    -0.335 N 
ATOM     17  H   UNL A   1      32.049  27.364  21.746  1.00  0.00     0.165 HD
BRANCH  16  18
ATOM     18  C   UNL A   1      31.088  26.371  23.430  1.00  0.00     0.089 C 
ATOM     19  C   UNL A   1      29.233  26.392  23.963  1.00  0.00     0.025 C 
ATOM     20  C   UNL A   1      31.601  27.768  23.634  1.00  0.00    -0.015 C 
ATOM     21  C   UNL A   1      28.019  27.857  23.513  1.00  0.00     0.002 C 
ATOM     22  C   UNL A   1      30.755  29.173  22.188  1.00  0.00     0.008 C 
ATOM     23  C   UNL A   1      31.321  27.772  25.444  1.00  0.00     0.013 C 
ATOM     24  C   UNL A   1      33.339  27.425  24.100  1.00  0.00     0.013 C 
ATOM     25  C   UNL A   1      28.726  29.301  22.384  1.00  0.00     0.001 C 
ENDBRANCH  16  18
ENDBRANCH   7  12
ENDBRANCH   4   7
ENDBRANCH   2   3
ENDBRANCH   1   2
BRANCH   1  26
ATOM     26  C   UNL A   1      37.070  21.487  25.401  1.00  0.00     0.118 C 
BRANCH  26  27
ATOM     27  N   UNL A   1      38.146  20.507  25.466  1.00  0.00    -0.352 N 
ATOM     28  C   UNL A   1      39.381  20.613  26.070  1.00  0.00     0.251 C 
ATOM     29  H   UNL A   1      37.966  19.650  25.017  1.00  0.00     0.163 HD
ATOM     30  O   UNL A   1      40.182  19.686  26.017  1.00  0.00    -0.269 OA
BRANCH  28  31
ATOM     31  C   UNL A   1      39.736  21.893  26.710  1.00  0.00     0.039 A 
ATOM     32  C   UNL A   1      40.783  21.922  27.630  1.00  0.00     0.014 A 
ATOM     33  C   UNL A   1      39.167  23.075  26.237  1.00  0.00     0.014 A 
ATOM     34  C   UNL A   1      41.346  23.149  27.976  1.00  0.00     0.010 A 
ATOM     35  C   UNL A   1      39.838  24.266  26.446  1.00  0.00     0.010 A 
ATOM     36  C   UNL A   1      40.926  24.323  27.329  1.00  0.00    -0.014 A 
BRANCH  36  37
ATOM     37  C   UNL A   1      41.579  25.631  27.581  1.00  0.00     0.031 A 
ATOM     38  C   UNL A   1      40.840  26.674  28.378  1.00  0.00     0.074 A 
ATOM     39  C   UNL A   1      42.779  25.908  27.033  1.00  0.00     0.049 A 
ATOM     40  N   UNL A   1      41.172  27.911  28.634  1.00  0.00    -0.248 NA
ATOM     41  C   UNL A   1      39.521  26.288  28.903  1.00  0.00     0.031 C 
ATOM     42  C   UNL A   1      43.552  25.004  26.176  1.00  0.00     0.029 A 
ATOM     43  N   UNL A   1      43.561  27.034  27.111  1.00  0.00    -0.354 N 
ATOM     44  C   UNL A   1      40.091  28.453  29.321  1.00  0.00     0.074 A 
ATOM     45  C   UNL A   1      39.057  27.445  29.342  1.00  0.00     0.031 C 
ATOM     46  C   UNL A   1      44.715  25.592  25.850  1.00  0.00     0.029 A 
ATOM     47  C   UNL A   1      44.753  26.931  26.431  1.00  0.00     0.049 A 
ATOM     48  H   UNL A   1      43.293  27.840  27.607  1.00  0.00     0.167 HD
ATOM     49  C   UNL A   1      39.986  29.663  29.922  1.00  0.00     0.034 A 
ATOM     50  C   UNL A   1      45.759  27.816  26.293  1.00  0.00     0.034 A 
ATOM     51  C   UNL A   1      41.047  30.636  29.916  1.00  0.00     0.049 A 
ATOM     52  C   UNL A   1      45.634  29.155  26.978  1.00  0.00     0.074 A 
ATOM     53  C   UNL A   1      41.095  31.865  30.545  1.00  0.00     0.029 A 
ATOM     54  N   UNL A   1      42.254  30.486  29.241  1.00  0.00    -0.354 N 
ATOM     55  N   UNL A   1      44.634  29.629  27.687  1.00  0.00    -0.248 NA
ATOM     56  C   UNL A   1      46.775  30.069  26.857  1.00  0.00     0.031 C 
ATOM     57  C   UNL A   1      42.298  32.488  30.194  1.00  0.00     0.029 A 
ATOM     58  C   UNL A   1      43.040  31.613  29.413  1.00  0.00     0.049 A 
ATOM     59  H   UNL A   1      42.513  29.693  28.718  1.00  0.00     0.167 HD
ATOM     60  C   UNL A   1      45.038  30.889  28.120  1.00  0.00     0.074 A 
ATOM     61  C   UNL A   1      46.379  31.090  27.603  1.00  0.00     0.031 C 
ATOM     62  C   UNL A   1      44.370  31.795  28.878  1.00  0.00     0.034 A 
BRANCH  49  63
ATOM     63  C   UNL A   1      38.675  29.982  30.605  1.00  0.00     0.023 A 
ATOM     64  C   UNL A   1      37.635  30.650  29.932  1.00  0.00     0.031 A 
ATOM     65  C   UNL A   1      38.490  29.687  31.966  1.00  0.00     0.131 A 
ATOM     66  C   UNL A   1      36.515  31.103  30.644  1.00  0.00     0.055 A 
ATOM     67  C   UNL A   1      37.324  30.050  32.645  1.00  0.00     0.041 A 
ATOM     68  F   UNL A   1      39.452  29.072  32.671  1.00  0.00    -0.206 F 
ATOM     69  C   UNL A   1      36.338  30.783  31.991  1.00  0.00     0.022 A 
BRANCH  66  70
ATOM     70  S   UNL A   1      35.397  32.281  29.835  1.00  0.00     0.124 S 
ATOM     71  O   UNL A   1      36.308  33.377  29.512  1.00  0.00    -0.237 OA
ATOM     72  O   UNL A   1      34.896  31.513  28.701  1.00  0.00    -0.237 OA
ATOM     73  O   UNL A   1      34.411  32.584  30.870  1.00  0.00    -0.744 OA
ENDBRANCH  66  70
ENDBRANCH  49  63
BRANCH  50  74
ATOM     74  C   UNL A   1      46.968  27.471  25.490  1.00  0.00     0.023 A 
ATOM     75  C   UNL A   1      47.078  27.848  24.142  1.00  0.00     0.031 A 
ATOM     76  C   UNL A   1      48.028  26.741  26.057  1.00  0.00     0.131 A 
ATOM     77  C   UNL A   1      48.204  27.465  23.396  1.00  0.00     0.055 A 
ATOM     78  C   UNL A   1      49.168  26.404  25.324  1.00  0.00     0.041 A 
ATOM     79  F   UNL A   1      47.979  26.360  27.344  1.00  0.00    -0.206 F 
ATOM     80  C   UNL A   1      49.256  26.757  23.982  1.00  0.00     0.022 A 
BRANCH  77  81
ATOM     81  S   UNL A   1      48.249  27.851  21.623  1.00  0.00     0.124 S 
ATOM     82  O   UNL A   1      46.905  28.370  21.399  1.00  0.00    -0.237 OA
ATOM     83  O   UNL A   1      49.333  28.825  21.552  1.00  0.00    -0.237 OA
ATOM     84  O   UNL A   1      48.532  26.560  21.000  1.00  0.00    -0.744 OA
ENDBRANCH  77  81
ENDBRANCH  50  74
BRANCH  62  85
ATOM     85  C   UNL A   1      45.099  33.068  29.226  1.00  0.00     0.023 A 
ATOM     86  C   UNL A   1      44.948  34.240  28.466  1.00  0.00     0.031 A 
ATOM     87  C   UNL A   1      45.955  33.107  30.342  1.00  0.00     0.131 A 
ATOM     88  C   UNL A   1      45.683  35.387  28.799  1.00  0.00     0.055 A 
ATOM     89  C   UNL A   1      46.633  34.269  30.707  1.00  0.00     0.041 A 
ATOM     90  F   UNL A   1      46.137  32.016  31.103  1.00  0.00    -0.206 F 
ATOM     91  C   UNL A   1      46.509  35.415  29.926  1.00  0.00     0.022 A 
BRANCH  88  92
ATOM     92  S   UNL A   1      45.616  36.817  27.686  1.00  0.00     0.124 S 
ATOM     93  O   UNL A   1      46.915  36.743  27.022  1.00  0.00    -0.237 OA
ATOM     94  O   UNL A   1      44.457  36.512  26.855  1.00  0.00    -0.237 OA
ATOM     95  O   UNL A   1      45.447  37.950  28.594  1.00  0.00    -0.744 OA
ENDBRANCH  88  92
ENDBRANCH  62  85
ENDBRANCH  36  37
ENDBRANCH  28  31
ENDBRANCH  26  27
ENDBRANCH   1  26
TORSDOF 18
ENDMDL
MODEL 2
REMARK VINA RESULT:     -13.4      5.066      8.075
REMARK SMILES CSCC[C@H](NC(=O)N[C@@H]1CCCCC1(C)C)C(=O)NCCCNC(=O)c1ccc(-c2c3nc(c(-c4cc(S(=O)(=O)[O-])ccc4F)c4ccc([nH]4)c(-c4cc(S(=O)(=O)[O-])ccc4F)c4nc(c(-c5cc(S(=O)(=O)[O-])ccc5F)c5ccc2[nH]5)C=C4)C=C3)cc1
REMARK SMILES IDX 22 1 21 2 20 3 18 4 19 5 5 7 4 8 3 9 2 10 1 11 6 12 7 13
REMARK SMILES IDX 8 15 9 16 10 18 11 19 15 20 12 21 14 22 16 23 17 24 13 25
REMARK SMILES IDX 23 26 24 27 25 28 26 30 27 31 28 32 89 33 29 34 88 35 30 36
REMARK SMILES IDX 31 37 32 38 82 39 33 40 87 41 81 42 83 43 34 44 86 45 80 46
REMARK SMILES IDX 79 47 35 49 67 50 47 51 66 52 48 53 51 54 65 55 84 56 49 57
REMARK SMILES IDX 50 58 64 60 85 61 52 62 36 63 37 64 45 65 38 66 44 67 46 68
REMARK SMILES IDX 43 69 39 70 40 71 41 72 42 73 68 74 69 75 77 76 70 77 76 78
REMARK SMILES IDX 78 79 75 80 71 81 72 82 73 83 74 84 53 85 54 86 62 87 55 88
REMARK SMILES IDX 61 89 63 90 60 91 56 92 57 93 58 94 59 95
REMARK H PARENT 20 6 6 14 9 17 24 29 83 48 51 59
REMARK Flexibility Score: inf
ROOT
ATOM      1  C   UNL A   1      31.964  29.163  27.125  1.00  0.00     0.042 C 
ENDROOT
BRANCH   1   2
ATOM      2  C   UNL A   1      32.359  27.717  26.931  1.00  0.00     0.117 C 
BRANCH   2   3
ATOM      3  N   UNL A   1      31.082  26.617  26.492  1.00  0.00    -0.354 N 
ATOM      4  C   UNL A   1      30.850  25.047  25.368  1.00  0.00     0.242 C 
ATOM      5  O   UNL A   1      30.314  23.954  25.599  1.00  0.00    -0.273 OA
ATOM      6  H   UNL A   1      30.240  26.857  26.941  1.00  0.00     0.163 HD
BRANCH   4   7
ATOM      7  C   UNL A   1      31.746  25.338  23.558  1.00  0.00     0.174 C 
BRANCH   7   8
ATOM      8  C   UNL A   1      31.274  26.419  22.515  1.00  0.00     0.046 C 
BRANCH   8   9
ATOM      9  C   UNL A   1      31.745  27.849  22.855  1.00  0.00     0.072 C 
BRANCH   9  10
ATOM     10  S   UNL A   1      30.455  28.965  23.547  1.00  0.00    -0.165 SA
ATOM     11  C   UNL A   1      29.865  29.818  22.047  1.00  0.00     0.085 C 
ENDBRANCH   9  10
ENDBRANCH   8   9
ENDBRANCH   7   8
BRANCH   7  12
ATOM     12  N   UNL A   1      31.819  23.754  22.620  1.00  0.00    -0.326 N 
ATOM     13  C   UNL A   1      32.434  22.388  22.833  1.00  0.00     0.315 C 
ATOM     14  H   UNL A   1      31.336  23.811  21.765  1.00  0.00     0.166 HD
ATOM     15  O   UNL A   1      32.188  21.489  22.028  1.00  0.00    -0.249 OA
ATOM     16  N   UNL A   1      33.337  22.092  23.998  1.00  0.00    -0.335 N 
ATOM     17  H   UNL A   1      33.563  21.142  24.123  1.00  0.00     0.165 HD
BRANCH  16  18
ATOM     18  C   UNL A   1      33.975  23.071  25.046  1.00  0.00     0.089 C 
ATOM     19  C   UNL A   1      35.583  24.116  25.263  1.00  0.00     0.025 C 
ATOM     20  C   UNL A   1      34.184  21.806  25.827  1.00  0.00    -0.015 C 
ATOM     21  C   UNL A   1      37.372  23.327  25.210  1.00  0.00     0.002 C 
ATOM     22  C   UNL A   1      35.671  20.502  24.893  1.00  0.00     0.008 C 
ATOM     23  C   UNL A   1      34.342  22.648  27.445  1.00  0.00     0.013 C 
ATOM     24  C   UNL A   1      32.475  21.467  26.388  1.00  0.00     0.013 C 
ATOM     25  C   UNL A   1      37.501  21.407  24.815  1.00  0.00     0.001 C 
ENDBRANCH  16  18
ENDBRANCH   7  12
ENDBRANCH   4   7
ENDBRANCH   2   3
ENDBRANCH   1   2
BRANCH   1  26
ATOM     26  C   UNL A   1      32.903  30.194  26.569  1.00  0.00     0.118 C 
BRANCH  26  27
ATOM     27  N   UNL A   1      32.844  31.508  27.196  1.00  0.00    -0.352 N 
ATOM     28  C   UNL A   1      33.834  32.194  27.867  1.00  0.00     0.251 C 
ATOM     29  H   UNL A   1      31.978  31.969  27.131  1.00  0.00     0.163 HD
ATOM     30  O   UNL A   1      33.607  33.298  28.352  1.00  0.00    -0.269 OA
BRANCH  28  31
ATOM     31  C   UNL A   1      35.139  31.533  28.051  1.00  0.00     0.039 A 
ATOM     32  C   UNL A   1      36.297  32.309  28.045  1.00  0.00     0.014 A 
ATOM     33  C   UNL A   1      35.179  30.193  28.431  1.00  0.00     0.014 A 
ATOM     34  C   UNL A   1      37.477  31.767  28.549  1.00  0.00     0.010 A 
ATOM     35  C   UNL A   1      36.300  29.721  29.089  1.00  0.00     0.010 A 
ATOM     36  C   UNL A   1      37.469  30.494  29.143  1.00  0.00    -0.014 A 
BRANCH  36  37
ATOM     37  C   UNL A   1      38.675  29.928  29.797  1.00  0.00     0.031 A 
ATOM     38  C   UNL A   1      39.054  30.411  31.171  1.00  0.00     0.074 A 
ATOM     39  C   UNL A   1      39.462  29.058  29.133  1.00  0.00     0.049 A 
ATOM     40  N   UNL A   1      40.112  30.131  31.886  1.00  0.00    -0.248 NA
ATOM     41  C   UNL A   1      38.151  31.388  31.798  1.00  0.00     0.031 C 
ATOM     42  C   UNL A   1      39.238  28.580  27.765  1.00  0.00     0.029 A 
ATOM     43  N   UNL A   1      40.616  28.421  29.516  1.00  0.00    -0.354 N 
ATOM     44  C   UNL A   1      40.010  30.921  33.026  1.00  0.00     0.074 A 
ATOM     45  C   UNL A   1      38.851  31.765  32.854  1.00  0.00     0.031 C 
ATOM     46  C   UNL A   1      40.192  27.691  27.445  1.00  0.00     0.029 A 
ATOM     47  C   UNL A   1      41.125  27.569  28.562  1.00  0.00     0.049 A 
ATOM     48  H   UNL A   1      41.040  28.560  30.393  1.00  0.00     0.167 HD
ATOM     49  C   UNL A   1      40.785  30.911  34.138  1.00  0.00     0.034 A 
ATOM     50  C   UNL A   1      42.219  26.783  28.587  1.00  0.00     0.034 A 
ATOM     51  C   UNL A   1      41.915  30.033  34.299  1.00  0.00     0.049 A 
ATOM     52  C   UNL A   1      43.065  26.773  29.836  1.00  0.00     0.074 A 
ATOM     53  C   UNL A   1      42.734  29.874  35.400  1.00  0.00     0.029 A 
ATOM     54  N   UNL A   1      42.385  29.162  33.322  1.00  0.00    -0.354 N 
ATOM     55  N   UNL A   1      42.917  27.473  30.939  1.00  0.00    -0.248 NA
ATOM     56  C   UNL A   1      44.212  25.860  29.850  1.00  0.00     0.031 C 
ATOM     57  C   UNL A   1      43.741  28.960  35.065  1.00  0.00     0.029 A 
ATOM     58  C   UNL A   1      43.502  28.486  33.783  1.00  0.00     0.049 A 
ATOM     59  H   UNL A   1      41.982  29.043  32.432  1.00  0.00     0.167 HD
ATOM     60  C   UNL A   1      43.940  27.063  31.790  1.00  0.00     0.074 A 
ATOM     61  C   UNL A   1      44.685  26.044  31.075  1.00  0.00     0.031 C 
ATOM     62  C   UNL A   1      44.235  27.482  33.046  1.00  0.00     0.034 A 
BRANCH  49  63
ATOM     63  C   UNL A   1      40.431  31.891  35.233  1.00  0.00     0.023 A 
ATOM     64  C   UNL A   1      39.483  31.579  36.226  1.00  0.00     0.031 A 
ATOM     65  C   UNL A   1      40.986  33.182  35.242  1.00  0.00     0.131 A 
ATOM     66  C   UNL A   1      39.036  32.575  37.107  1.00  0.00     0.055 A 
ATOM     67  C   UNL A   1      40.611  34.138  36.190  1.00  0.00     0.041 A 
ATOM     68  F   UNL A   1      41.878  33.551  34.310  1.00  0.00    -0.206 F 
ATOM     69  C   UNL A   1      39.614  33.844  37.115  1.00  0.00     0.022 A 
BRANCH  66  70
ATOM     70  S   UNL A   1      37.555  32.242  38.102  1.00  0.00     0.124 S 
ATOM     71  O   UNL A   1      37.373  30.808  37.890  1.00  0.00    -0.237 OA
ATOM     72  O   UNL A   1      37.977  32.641  39.440  1.00  0.00    -0.237 OA
ATOM     73  O   UNL A   1      36.534  33.090  37.490  1.00  0.00    -0.744 OA
ENDBRANCH  66  70
ENDBRANCH  49  63
BRANCH  50  74
ATOM     74  C   UNL A   1      42.573  25.940  27.409  1.00  0.00     0.023 A 
ATOM     75  C   UNL A   1      42.187  24.591  27.337  1.00  0.00     0.031 A 
ATOM     76  C   UNL A   1      43.317  26.468  26.339  1.00  0.00     0.131 A 
ATOM     77  C   UNL A   1      42.577  23.807  26.240  1.00  0.00     0.055 A 
ATOM     78  C   UNL A   1      43.662  25.697  25.227  1.00  0.00     0.041 A 
ATOM     79  F   UNL A   1      43.707  27.753  26.352  1.00  0.00    -0.206 F 
ATOM     80  C   UNL A   1      43.300  24.354  25.178  1.00  0.00     0.022 A 
BRANCH  77  81
ATOM     81  S   UNL A   1      42.180  22.036  26.247  1.00  0.00     0.124 S 
ATOM     82  O   UNL A   1      42.524  21.661  27.614  1.00  0.00    -0.237 OA
ATOM     83  O   UNL A   1      40.757  22.044  25.923  1.00  0.00    -0.237 OA
ATOM     84  O   UNL A   1      43.050  21.487  25.210  1.00  0.00    -0.744 OA
ENDBRANCH  77  81
ENDBRANCH  50  74
BRANCH  62  85
ATOM     85  C   UNL A   1      45.391  26.806  33.741  1.00  0.00     0.023 A 
ATOM     86  C   UNL A   1      45.211  25.656  34.529  1.00  0.00     0.031 A 
ATOM     87  C   UNL A   1      46.693  27.320  33.605  1.00  0.00     0.131 A 
ATOM     88  C   UNL A   1      46.307  25.089  35.195  1.00  0.00     0.055 A 
ATOM     89  C   UNL A   1      47.789  26.714  34.217  1.00  0.00     0.041 A 
ATOM     90  F   UNL A   1      46.921  28.417  32.865  1.00  0.00    -0.206 F 
ATOM     91  C   UNL A   1      47.598  25.599  35.028  1.00  0.00     0.022 A 
BRANCH  88  92
ATOM     92  S   UNL A   1      46.010  23.730  36.358  1.00  0.00     0.124 S 
ATOM     93  O   UNL A   1      46.004  22.570  35.471  1.00  0.00    -0.237 OA
ATOM     94  O   UNL A   1      47.152  23.836  37.260  1.00  0.00    -0.237 OA
ATOM     95  O   UNL A   1      44.718  24.064  36.953  1.00  0.00    -0.744 OA
ENDBRANCH  88  92
ENDBRANCH  62  85
ENDBRANCH  36  37
ENDBRANCH  28  31
ENDBRANCH  26  27
ENDBRANCH   1  26
TORSDOF 18
ENDMDL
MODEL 3
REMARK VINA RESULT:     -13.4      1.469      7.671
REMARK SMILES CSCC[C@H](NC(=O)N[C@@H]1CCCCC1(C)C)C(=O)NCCCNC(=O)c1ccc(-c2c3nc(c(-c4cc(S(=O)(=O)[O-])ccc4F)c4ccc([nH]4)c(-c4cc(S(=O)(=O)[O-])ccc4F)c4nc(c(-c5cc(S(=O)(=O)[O-])ccc5F)c5ccc2[nH]5)C=C4)C=C3)cc1
REMARK SMILES IDX 22 1 21 2 20 3 18 4 19 5 5 7 4 8 3 9 2 10 1 11 6 12 7 13
REMARK SMILES IDX 8 15 9 16 10 18 11 19 15 20 12 21 14 22 16 23 17 24 13 25
REMARK SMILES IDX 23 26 24 27 25 28 26 30 27 31 28 32 89 33 29 34 88 35 30 36
REMARK SMILES IDX 31 37 32 38 82 39 33 40 87 41 81 42 83 43 34 44 86 45 80 46
REMARK SMILES IDX 79 47 35 49 67 50 47 51 66 52 48 53 51 54 65 55 84 56 49 57
REMARK SMILES IDX 50 58 64 60 85 61 52 62 36 63 37 64 45 65 38 66 44 67 46 68
REMARK SMILES IDX 43 69 39 70 40 71 41 72 42 73 68 74 69 75 77 76 70 77 76 78
REMARK SMILES IDX 78 79 75 80 71 81 72 82 73 83 74 84 53 85 54 86 62 87 55 88
REMARK SMILES IDX 61 89 63 90 60 91 56 92 57 93 58 94 59 95
REMARK H PARENT 20 6 6 14 9 17 24 29 83 48 51 59
REMARK Flexibility Score: inf
ROOT
ATOM      1  C   UNL A   1      36.813  21.659  24.389  1.00  0.00     0.042 C 
ENDROOT
BRANCH   1   2
ATOM      2  C   UNL A   1      36.629  22.944  23.615  1.00  0.00     0.117 C 
BRANCH   2   3
ATOM      3  N   UNL A   1      35.494  24.089  24.274  1.00  0.00    -0.354 N 
ATOM      4  C   UNL A   1      33.613  24.139  24.768  1.00  0.00     0.242 C 
ATOM      5  O   UNL A   1      33.052  24.555  25.792  1.00  0.00    -0.273 OA
ATOM      6  H   UNL A   1      35.926  24.957  24.444  1.00  0.00     0.163 HD
BRANCH   4   7
ATOM      7  C   UNL A   1      32.479  23.266  23.313  1.00  0.00     0.174 C 
BRANCH   7   8
ATOM      8  C   UNL A   1      32.509  21.726  22.991  1.00  0.00     0.046 C 
BRANCH   8   9
ATOM      9  C   UNL A   1      32.152  20.837  24.201  1.00  0.00     0.072 C 
BRANCH   9  10
ATOM     10  S   UNL A   1      33.580  20.071  25.073  1.00  0.00    -0.165 SA
ATOM     11  C   UNL A   1      33.726  21.138  26.545  1.00  0.00     0.085 C 
ENDBRANCH   9  10
ENDBRANCH   8   9
ENDBRANCH   7   8
BRANCH   7  12
ATOM     12  N   UNL A   1      32.756  24.108  21.698  1.00  0.00    -0.326 N 
ATOM     13  C   UNL A   1      32.551  25.501  21.145  1.00  0.00     0.315 C 
ATOM     14  H   UNL A   1      33.132  23.496  21.024  1.00  0.00     0.166 HD
ATOM     15  O   UNL A   1      32.961  25.763  20.013  1.00  0.00    -0.249 OA
ATOM     16  N   UNL A   1      31.863  26.580  21.935  1.00  0.00    -0.335 N 
ATOM     17  H   UNL A   1      31.913  27.482  21.543  1.00  0.00     0.165 HD
BRANCH  16  18
ATOM     18  C   UNL A   1      31.077  26.484  23.289  1.00  0.00     0.089 C 
ATOM     19  C   UNL A   1      29.248  26.453  23.906  1.00  0.00     0.025 C 
ATOM     20  C   UNL A   1      31.555  27.897  23.456  1.00  0.00    -0.015 C 
ATOM     21  C   UNL A   1      27.970  27.875  23.496  1.00  0.00     0.002 C 
ATOM     22  C   UNL A   1      30.601  29.259  22.035  1.00  0.00     0.008 C 
ATOM     23  C   UNL A   1      31.357  27.914  25.276  1.00  0.00     0.013 C 
ATOM     24  C   UNL A   1      33.322  27.614  23.845  1.00  0.00     0.013 C 
ATOM     25  C   UNL A   1      28.580  29.326  22.321  1.00  0.00     0.001 C 
ENDBRANCH  16  18
ENDBRANCH   7  12
ENDBRANCH   4   7
ENDBRANCH   2   3
ENDBRANCH   1   2
BRANCH   1  26
ATOM     26  C   UNL A   1      37.590  21.755  25.671  1.00  0.00     0.118 C 
BRANCH  26  27
ATOM     27  N   UNL A   1      38.786  20.927  25.749  1.00  0.00    -0.352 N 
ATOM     28  C   UNL A   1      39.986  21.194  26.372  1.00  0.00     0.251 C 
ATOM     29  H   UNL A   1      38.728  20.056  25.294  1.00  0.00     0.163 HD
ATOM     30  O   UNL A   1      40.905  20.383  26.328  1.00  0.00    -0.269 OA
BRANCH  28  31
ATOM     31  C   UNL A   1      40.158  22.507  27.022  1.00  0.00     0.039 A 
ATOM     32  C   UNL A   1      41.130  22.650  28.011  1.00  0.00     0.014 A 
ATOM     33  C   UNL A   1      39.500  23.619  26.499  1.00  0.00     0.014 A 
ATOM     34  C   UNL A   1      41.533  23.931  28.382  1.00  0.00     0.010 A 
ATOM     35  C   UNL A   1      40.024  24.876  26.741  1.00  0.00     0.010 A 
ATOM     36  C   UNL A   1      41.036  25.051  27.696  1.00  0.00    -0.014 A 
BRANCH  36  37
ATOM     37  C   UNL A   1      41.526  26.423  27.980  1.00  0.00     0.031 A 
ATOM     38  C   UNL A   1      42.912  26.808  27.536  1.00  0.00     0.074 A 
ATOM     39  C   UNL A   1      40.771  27.279  28.697  1.00  0.00     0.049 A 
ATOM     40  N   UNL A   1      43.580  27.909  27.761  1.00  0.00    -0.248 NA
ATOM     41  C   UNL A   1      43.672  25.791  26.791  1.00  0.00     0.031 C 
ATOM     42  C   UNL A   1      39.445  26.988  29.249  1.00  0.00     0.029 A 
ATOM     43  N   UNL A   1      41.012  28.572  29.090  1.00  0.00    -0.354 N 
ATOM     44  C   UNL A   1      44.840  27.700  27.212  1.00  0.00     0.074 A 
ATOM     45  C   UNL A   1      44.876  26.334  26.745  1.00  0.00     0.031 C 
ATOM     46  C   UNL A   1      38.972  28.084  29.864  1.00  0.00     0.029 A 
ATOM     47  C   UNL A   1      39.976  29.141  29.796  1.00  0.00     0.049 A 
ATOM     48  H   UNL A   1      41.849  29.048  28.886  1.00  0.00     0.167 HD
ATOM     49  C   UNL A   1      45.860  28.580  27.067  1.00  0.00     0.034 A 
ATOM     50  C   UNL A   1      39.854  30.374  30.326  1.00  0.00     0.034 A 
ATOM     51  C   UNL A   1      45.784  29.948  27.510  1.00  0.00     0.049 A 
ATOM     52  C   UNL A   1      40.993  31.347  30.146  1.00  0.00     0.074 A 
ATOM     53  C   UNL A   1      46.716  30.957  27.359  1.00  0.00     0.029 A 
ATOM     54  N   UNL A   1      44.707  30.498  28.196  1.00  0.00    -0.354 N 
ATOM     55  N   UNL A   1      42.154  31.159  29.560  1.00  0.00    -0.248 NA
ATOM     56  C   UNL A   1      40.799  32.698  30.683  1.00  0.00     0.031 C 
ATOM     57  C   UNL A   1      46.234  32.096  28.014  1.00  0.00     0.029 A 
ATOM     58  C   UNL A   1      44.965  31.825  28.503  1.00  0.00     0.049 A 
ATOM     59  H   UNL A   1      43.881  30.016  28.430  1.00  0.00     0.167 HD
ATOM     60  C   UNL A   1      42.820  32.379  29.636  1.00  0.00     0.074 A 
ATOM     61  C   UNL A   1      41.920  33.297  30.310  1.00  0.00     0.031 C 
ATOM     62  C   UNL A   1      44.056  32.716  29.186  1.00  0.00     0.034 A 
BRANCH  49  63
ATOM     63  C   UNL A   1      47.128  28.066  26.424  1.00  0.00     0.023 A 
ATOM     64  C   UNL A   1      47.366  28.209  25.044  1.00  0.00     0.031 A 
ATOM     65  C   UNL A   1      48.073  27.353  27.180  1.00  0.00     0.131 A 
ATOM     66  C   UNL A   1      48.453  27.553  24.447  1.00  0.00     0.055 A 
ATOM     67  C   UNL A   1      49.211  26.790  26.595  1.00  0.00     0.041 A 
ATOM     68  F   UNL A   1      47.894  27.161  28.496  1.00  0.00    -0.206 F 
ATOM     69  C   UNL A   1      49.394  26.869  25.217  1.00  0.00     0.022 A 
BRANCH  66  70
ATOM     70  S   UNL A   1      48.506  27.444  22.637  1.00  0.00     0.124 S 
ATOM     71  O   UNL A   1      47.334  28.232  22.260  1.00  0.00    -0.237 OA
ATOM     72  O   UNL A   1      49.801  28.036  22.322  1.00  0.00    -0.237 OA
ATOM     73  O   UNL A   1      48.393  26.010  22.377  1.00  0.00    -0.744 OA
ENDBRANCH  66  70
ENDBRANCH  49  63
BRANCH  50  74
ATOM     74  C   UNL A   1      38.617  30.761  31.063  1.00  0.00     0.023 A 
ATOM     75  C   UNL A   1      37.538  31.373  30.404  1.00  0.00     0.031 A 
ATOM     76  C   UNL A   1      38.499  30.538  32.447  1.00  0.00     0.131 A 
ATOM     77  C   UNL A   1      36.406  31.774  31.131  1.00  0.00     0.055 A 
ATOM     78  C   UNL A   1      37.352  30.895  33.158  1.00  0.00     0.041 A 
ATOM     79  F   UNL A   1      39.498  29.951  33.127  1.00  0.00    -0.206 F 
ATOM     80  C   UNL A   1      36.301  31.527  32.502  1.00  0.00     0.022 A 
BRANCH  77  81
ATOM     81  S   UNL A   1      35.093  32.685  30.272  1.00  0.00     0.124 S 
ATOM     82  O   UNL A   1      35.761  33.944  29.960  1.00  0.00    -0.237 OA
ATOM     83  O   UNL A   1      34.811  31.811  29.138  1.00  0.00    -0.237 OA
ATOM     84  O   UNL A   1      34.029  32.772  31.269  1.00  0.00    -0.744 OA
ENDBRANCH  77  81
ENDBRANCH  50  74
BRANCH  62  85
ATOM     85  C   UNL A   1      44.487  34.149  29.374  1.00  0.00     0.023 A 
ATOM     86  C   UNL A   1      45.185  34.568  30.520  1.00  0.00     0.031 A 
ATOM     87  C   UNL A   1      44.197  35.107  28.386  1.00  0.00     0.131 A 
ATOM     88  C   UNL A   1      45.523  35.920  30.674  1.00  0.00     0.055 A 
ATOM     89  C   UNL A   1      44.594  36.438  28.515  1.00  0.00     0.041 A 
ATOM     90  F   UNL A   1      43.532  34.761  27.272  1.00  0.00    -0.206 F 
ATOM     91  C   UNL A   1      45.250  36.854  29.669  1.00  0.00     0.022 A 
BRANCH  88  92
ATOM     92  S   UNL A   1      46.245  36.463  32.246  1.00  0.00     0.124 S 
ATOM     93  O   UNL A   1      45.076  36.979  32.953  1.00  0.00    -0.237 OA
ATOM     94  O   UNL A   1      46.814  35.227  32.772  1.00  0.00    -0.237 OA
ATOM     95  O   UNL A   1      47.222  37.473  31.844  1.00  0.00    -0.744 OA
ENDBRANCH  88  92
ENDBRANCH  62  85
ENDBRANCH  36  37
ENDBRANCH  28  31
ENDBRANCH  26  27
ENDBRANCH   1  26
TORSDOF 18
ENDMDL
