MODEL 1
REMARK VINA RESULT:     -12.0      0.000      0.000
REMARK SMILES CCNC(=O)c1ccc(N[C@@H]2COC[C@@]2(C)C(=O)NCCCNC(=O)c2ccc(-c3c4nc(c(-c5cc(S(=O)(=O)[O-])ccc5F)c5ccc([nH]5)c(-c5cc(S(=O)(=O)[O-])ccc5F)c5nc(c(-c6cc(S(=O)(=O)[O-])ccc6F)c6ccc3[nH]6)C=C5)C=C4)cc2)nn1
REMARK SMILES IDX 20 1 19 2 17 3 18 4 15 6 11 7 12 8 13 9 14 10 16 11 10 12
REMARK SMILES IDX 9 14 6 15 7 16 90 17 8 18 89 19 4 20 3 21 5 23 2 24 1 25
REMARK SMILES IDX 21 26 22 27 23 28 24 29 25 31 26 32 27 33 88 34 28 35 87 36
REMARK SMILES IDX 29 37 30 38 31 39 81 40 32 41 86 42 80 43 82 44 33 45 85 46
REMARK SMILES IDX 79 47 78 48 34 50 66 51 46 52 65 53 47 54 50 55 64 56 83 57
REMARK SMILES IDX 48 58 49 59 63 61 84 62 51 63 35 64 36 65 44 66 37 67 43 68
REMARK SMILES IDX 45 69 42 70 38 71 39 72 40 73 41 74 67 75 68 76 76 77 69 78
REMARK SMILES IDX 75 79 77 80 74 81 70 82 71 83 72 84 73 85 52 86 53 87 61 88
REMARK SMILES IDX 54 89 60 90 62 91 59 92 55 93 56 94 57 95 58 96
REMARK H PARENT 19 5 10 13 3 22 23 30 82 49 50 60
REMARK Flexibility Score: inf
ROOT
ATOM      1  C   UNL A   1      31.600  27.836  26.456  1.00  0.00     0.117 C 
ENDROOT
BRANCH   1   2
ATOM      2  N   UNL A   1      31.246  26.501  26.898  1.00  0.00    -0.355 N 
ATOM      3  C   UNL A   1      31.640  25.263  26.498  1.00  0.00     0.230 C 
ATOM      4  O   UNL A   1      31.097  24.327  27.097  1.00  0.00    -0.274 OA
ATOM      5  H   UNL A   1      30.588  26.489  27.630  1.00  0.00     0.163 HD
BRANCH   3   6
ATOM      6  C   UNL A   1      32.749  25.004  25.470  1.00  0.00     0.092 C 
ATOM      7  C   UNL A   1      32.628  23.582  24.910  1.00  0.00     0.124 C 
ATOM      8  C   UNL A   1      33.257  23.681  23.528  1.00  0.00     0.186 C 
ATOM      9  O   UNL A   1      32.975  25.013  23.060  1.00  0.00    -0.378 OA
ATOM     10  C   UNL A   1      32.407  25.760  24.158  1.00  0.00     0.179 C 
ATOM     11  C   UNL A   1      34.142  25.507  25.870  1.00  0.00     0.026 C 
BRANCH   7  12
ATOM     12  N   UNL A   1      33.020  22.454  25.745  1.00  0.00    -0.362 N 
ATOM     13  H   UNL A   1      33.255  22.653  26.679  1.00  0.00     0.162 HD
BRANCH  12  14
ATOM     14  C   UNL A   1      33.094  21.136  25.355  1.00  0.00     0.149 A 
ATOM     15  C   UNL A   1      33.257  18.691  24.161  1.00  0.00     0.150 A 
ATOM     16  C   UNL A   1      34.429  19.390  24.369  1.00  0.00     0.040 A 
ATOM     17  N   UNL A   1      32.058  19.156  24.560  1.00  0.00    -0.143 NA
ATOM     18  C   UNL A   1      34.340  20.627  24.997  1.00  0.00     0.051 A 
ATOM     19  N   UNL A   1      31.990  20.391  25.160  1.00  0.00    -0.132 NA
BRANCH  15  20
ATOM     20  C   UNL A   1      33.268  17.415  23.420  1.00  0.00     0.271 C 
ATOM     21  N   UNL A   1      33.750  16.282  24.035  1.00  0.00    -0.351 N 
ATOM     22  H   UNL A   1      33.858  15.494  23.455  1.00  0.00     0.163 HD
ATOM     23  O   UNL A   1      32.893  17.377  22.254  1.00  0.00    -0.267 OA
BRANCH  21  24
ATOM     24  C   UNL A   1      34.123  16.101  25.424  1.00  0.00     0.113 C 
ATOM     25  C   UNL A   1      35.611  15.837  25.555  1.00  0.00     0.027 C 
ENDBRANCH  21  24
ENDBRANCH  15  20
ENDBRANCH  12  14
ENDBRANCH   7  12
ENDBRANCH   3   6
ENDBRANCH   1   2
BRANCH   1  26
ATOM     26  C   UNL A   1      32.621  28.501  27.376  1.00  0.00     0.042 C 
BRANCH  26  27
ATOM     27  C   UNL A   1      33.672  29.317  26.628  1.00  0.00     0.118 C 
BRANCH  27  28
ATOM     28  N   UNL A   1      33.626  30.727  26.988  1.00  0.00    -0.352 N 
ATOM     29  C   UNL A   1      34.399  31.440  27.872  1.00  0.00     0.251 C 
ATOM     30  H   UNL A   1      32.933  31.251  26.527  1.00  0.00     0.163 HD
ATOM     31  O   UNL A   1      34.023  32.557  28.217  1.00  0.00    -0.269 OA
BRANCH  29  32
ATOM     32  C   UNL A   1      35.663  30.880  28.405  1.00  0.00     0.039 A 
ATOM     33  C   UNL A   1      35.601  29.809  29.302  1.00  0.00     0.014 A 
ATOM     34  C   UNL A   1      36.901  31.436  28.073  1.00  0.00     0.014 A 
ATOM     35  C   UNL A   1      36.779  29.267  29.824  1.00  0.00     0.010 A 
ATOM     36  C   UNL A   1      38.078  30.846  28.534  1.00  0.00     0.010 A 
ATOM     37  C   UNL A   1      38.031  29.762  29.422  1.00  0.00    -0.014 A 
BRANCH  37  38
ATOM     38  C   UNL A   1      39.297  29.171  29.932  1.00  0.00     0.031 A 
ATOM     39  C   UNL A   1      39.992  29.784  31.120  1.00  0.00     0.074 A 
ATOM     40  C   UNL A   1      39.851  28.123  29.292  1.00  0.00     0.049 A 
ATOM     41  N   UNL A   1      41.142  29.473  31.659  1.00  0.00    -0.248 NA
ATOM     42  C   UNL A   1      39.314  30.918  31.766  1.00  0.00     0.031 C 
ATOM     43  C   UNL A   1      39.290  27.464  28.109  1.00  0.00     0.029 A 
ATOM     44  N   UNL A   1      41.012  27.432  29.533  1.00  0.00    -0.354 N 
ATOM     45  C   UNL A   1      41.335  30.381  32.696  1.00  0.00     0.074 A 
ATOM     46  C   UNL A   1      40.210  31.290  32.667  1.00  0.00     0.031 C 
ATOM     47  C   UNL A   1      40.096  26.454  27.745  1.00  0.00     0.029 A 
ATOM     48  C   UNL A   1      41.254  26.422  28.633  1.00  0.00     0.049 A 
ATOM     49  H   UNL A   1      41.616  27.641  30.283  1.00  0.00     0.167 HD
ATOM     50  C   UNL A   1      42.345  30.437  33.600  1.00  0.00     0.034 A 
ATOM     51  C   UNL A   1      42.297  25.574  28.522  1.00  0.00     0.034 A 
ATOM     52  C   UNL A   1      43.453  29.512  33.621  1.00  0.00     0.049 A 
ATOM     53  C   UNL A   1      43.420  25.671  29.523  1.00  0.00     0.074 A 
ATOM     54  C   UNL A   1      44.501  29.441  34.523  1.00  0.00     0.029 A 
ATOM     55  N   UNL A   1      43.663  28.500  32.692  1.00  0.00    -0.354 N 
ATOM     56  N   UNL A   1      43.563  26.506  30.527  1.00  0.00    -0.248 NA
ATOM     57  C   UNL A   1      44.517  24.705  29.381  1.00  0.00     0.031 C 
ATOM     58  C   UNL A   1      45.378  28.436  34.101  1.00  0.00     0.029 A 
ATOM     59  C   UNL A   1      44.839  27.823  32.981  1.00  0.00     0.049 A 
ATOM     60  H   UNL A   1      43.065  28.294  31.938  1.00  0.00     0.167 HD
ATOM     61  C   UNL A   1      44.753  26.144  31.153  1.00  0.00     0.074 A 
ATOM     62  C   UNL A   1      45.276  25.007  30.424  1.00  0.00     0.031 C 
ATOM     63  C   UNL A   1      45.356  26.698  32.237  1.00  0.00     0.034 A 
BRANCH  50  64
ATOM     64  C   UNL A   1      42.306  31.551  34.621  1.00  0.00     0.023 A 
ATOM     65  C   UNL A   1      41.385  31.550  35.683  1.00  0.00     0.031 A 
ATOM     66  C   UNL A   1      43.183  32.646  34.515  1.00  0.00     0.131 A 
ATOM     67  C   UNL A   1      41.307  32.654  36.548  1.00  0.00     0.055 A 
ATOM     68  C   UNL A   1      43.158  33.701  35.430  1.00  0.00     0.041 A 
ATOM     69  F   UNL A   1      44.072  32.717  33.512  1.00  0.00    -0.206 F 
ATOM     70  C   UNL A   1      42.205  33.718  36.444  1.00  0.00     0.022 A 
BRANCH  67  71
ATOM     71  S   UNL A   1      39.919  32.746  37.711  1.00  0.00     0.124 S 
ATOM     72  O   UNL A   1      40.599  32.594  38.996  1.00  0.00    -0.237 OA
ATOM     73  O   UNL A   1      39.363  34.065  37.435  1.00  0.00    -0.237 OA
ATOM     74  O   UNL A   1      39.073  31.618  37.326  1.00  0.00    -0.744 OA
ENDBRANCH  67  71
ENDBRANCH  50  64
BRANCH  51  75
ATOM     75  C   UNL A   1      42.340  24.568  27.422  1.00  0.00     0.023 A 
ATOM     76  C   UNL A   1      41.567  23.398  27.481  1.00  0.00     0.031 A 
ATOM     77  C   UNL A   1      43.188  24.741  26.314  1.00  0.00     0.131 A 
ATOM     78  C   UNL A   1      41.691  22.425  26.477  1.00  0.00     0.055 A 
ATOM     79  C   UNL A   1      43.266  23.796  25.290  1.00  0.00     0.041 A 
ATOM     80  F   UNL A   1      43.948  25.843  26.206  1.00  0.00    -0.206 F 
ATOM     81  C   UNL A   1      42.524  22.624  25.374  1.00  0.00     0.022 A 
BRANCH  78  82
ATOM     82  S   UNL A   1      40.809  20.853  26.679  1.00  0.00     0.124 S 
ATOM     83  O   UNL A   1      40.798  20.703  28.130  1.00  0.00    -0.237 OA
ATOM     84  O   UNL A   1      39.523  21.143  26.054  1.00  0.00    -0.237 OA
ATOM     85  O   UNL A   1      41.649  19.896  25.959  1.00  0.00    -0.744 OA
ENDBRANCH  78  82
ENDBRANCH  51  75
BRANCH  63  86
ATOM     86  C   UNL A   1      46.629  26.046  32.720  1.00  0.00     0.023 A 
ATOM     87  C   UNL A   1      46.616  24.993  33.651  1.00  0.00     0.031 A 
ATOM     88  C   UNL A   1      47.875  26.496  32.248  1.00  0.00     0.131 A 
ATOM     89  C   UNL A   1      47.826  24.464  34.125  1.00  0.00     0.055 A 
ATOM     90  C   UNL A   1      49.074  25.923  32.674  1.00  0.00     0.041 A 
ATOM     91  F   UNL A   1      47.947  27.500  31.360  1.00  0.00    -0.206 F 
ATOM     92  C   UNL A   1      49.055  24.911  33.629  1.00  0.00     0.022 A 
BRANCH  89  93
ATOM     93  S   UNL A   1      47.779  23.247  35.468  1.00  0.00     0.124 S 
ATOM     94  O   UNL A   1      48.731  22.243  35.003  1.00  0.00    -0.237 OA
ATOM     95  O   UNL A   1      48.198  24.036  36.621  1.00  0.00    -0.237 OA
ATOM     96  O   UNL A   1      46.383  22.813  35.491  1.00  0.00    -0.744 OA
ENDBRANCH  89  93
ENDBRANCH  63  86
ENDBRANCH  37  38
ENDBRANCH  29  32
ENDBRANCH  27  28
ENDBRANCH  26  27
ENDBRANCH   1  26
TORSDOF 17
ENDMDL
MODEL 2
REMARK VINA RESULT:     -12.0      1.759      2.124
REMARK SMILES CCNC(=O)c1ccc(N[C@@H]2COC[C@@]2(C)C(=O)NCCCNC(=O)c2ccc(-c3c4nc(c(-c5cc(S(=O)(=O)[O-])ccc5F)c5ccc([nH]5)c(-c5cc(S(=O)(=O)[O-])ccc5F)c5nc(c(-c6cc(S(=O)(=O)[O-])ccc6F)c6ccc3[nH]6)C=C5)C=C4)cc2)nn1
REMARK SMILES IDX 20 1 19 2 17 3 18 4 15 6 11 7 12 8 13 9 14 10 16 11 10 12
REMARK SMILES IDX 9 14 6 15 7 16 90 17 8 18 89 19 4 20 3 21 5 23 2 24 1 25
REMARK SMILES IDX 21 26 22 27 23 28 24 29 25 31 26 32 27 33 88 34 28 35 87 36
REMARK SMILES IDX 29 37 30 38 31 39 81 40 32 41 86 42 80 43 82 44 33 45 85 46
REMARK SMILES IDX 79 47 78 48 34 50 66 51 46 52 65 53 47 54 50 55 64 56 83 57
REMARK SMILES IDX 48 58 49 59 63 61 84 62 51 63 35 64 36 65 44 66 37 67 43 68
REMARK SMILES IDX 45 69 42 70 38 71 39 72 40 73 41 74 67 75 68 76 76 77 69 78
REMARK SMILES IDX 75 79 77 80 74 81 70 82 71 83 72 84 73 85 52 86 53 87 61 88
REMARK SMILES IDX 54 89 60 90 62 91 59 92 55 93 56 94 57 95 58 96
REMARK H PARENT 19 5 10 13 3 22 23 30 82 49 50 60
REMARK Flexibility Score: inf
ROOT
ATOM      1  C   UNL A   1      31.512  27.735  26.426  1.00  0.00     0.117 C 
ENDROOT
BRANCH   1   2
ATOM      2  N   UNL A   1      31.256  26.392  26.909  1.00  0.00    -0.355 N 
ATOM      3  C   UNL A   1      31.703  25.170  26.517  1.00  0.00     0.230 C 
ATOM      4  O   UNL A   1      31.243  24.219  27.158  1.00  0.00    -0.274 OA
ATOM      5  H   UNL A   1      30.635  26.359  27.672  1.00  0.00     0.163 HD
BRANCH   3   6
ATOM      6  C   UNL A   1      32.778  24.953  25.443  1.00  0.00     0.092 C 
ATOM      7  C   UNL A   1      32.678  23.530  24.878  1.00  0.00     0.124 C 
ATOM      8  C   UNL A   1      33.249  23.657  23.473  1.00  0.00     0.186 C 
ATOM      9  O   UNL A   1      32.907  24.982  23.026  1.00  0.00    -0.378 OA
ATOM     10  C   UNL A   1      32.360  25.705  24.152  1.00  0.00     0.179 C 
ATOM     11  C   UNL A   1      34.170  25.496  25.791  1.00  0.00     0.026 C 
BRANCH   7  12
ATOM     12  N   UNL A   1      33.139  22.410  25.689  1.00  0.00    -0.362 N 
ATOM     13  H   UNL A   1      33.463  22.620  26.593  1.00  0.00     0.162 HD
BRANCH  12  14
ATOM     14  C   UNL A   1      33.165  21.086  25.312  1.00  0.00     0.149 A 
ATOM     15  C   UNL A   1      33.262  18.625  24.147  1.00  0.00     0.150 A 
ATOM     16  C   UNL A   1      34.456  19.266  24.405  1.00  0.00     0.040 A 
ATOM     17  N   UNL A   1      32.070  19.152  24.485  1.00  0.00    -0.143 NA
ATOM     18  C   UNL A   1      34.400  20.513  25.018  1.00  0.00     0.051 A 
ATOM     19  N   UNL A   1      32.035  20.395  25.072  1.00  0.00    -0.132 NA
BRANCH  15  20
ATOM     20  C   UNL A   1      33.243  17.342  23.417  1.00  0.00     0.271 C 
ATOM     21  N   UNL A   1      33.738  16.212  24.027  1.00  0.00    -0.351 N 
ATOM     22  H   UNL A   1      33.823  15.418  23.451  1.00  0.00     0.163 HD
ATOM     23  O   UNL A   1      32.834  17.296  22.263  1.00  0.00    -0.267 OA
BRANCH  21  24
ATOM     24  C   UNL A   1      34.151  16.040  25.406  1.00  0.00     0.113 C 
ATOM     25  C   UNL A   1      35.639  15.764  25.495  1.00  0.00     0.027 C 
ENDBRANCH  21  24
ENDBRANCH  15  20
ENDBRANCH  12  14
ENDBRANCH   7  12
ENDBRANCH   3   6
ENDBRANCH   1   2
BRANCH   1  26
ATOM     26  C   UNL A   1      32.544  28.472  27.275  1.00  0.00     0.042 C 
BRANCH  26  27
ATOM     27  C   UNL A   1      33.569  29.247  26.451  1.00  0.00     0.118 C 
BRANCH  27  28
ATOM     28  N   UNL A   1      33.603  30.658  26.809  1.00  0.00    -0.352 N 
ATOM     29  C   UNL A   1      34.413  31.327  27.693  1.00  0.00     0.251 C 
ATOM     30  H   UNL A   1      32.942  31.220  26.345  1.00  0.00     0.163 HD
ATOM     31  O   UNL A   1      34.101  32.464  28.036  1.00  0.00    -0.269 OA
BRANCH  29  32
ATOM     32  C   UNL A   1      35.642  30.696  28.230  1.00  0.00     0.039 A 
ATOM     33  C   UNL A   1      36.869  30.987  27.627  1.00  0.00     0.014 A 
ATOM     34  C   UNL A   1      35.586  29.779  29.283  1.00  0.00     0.014 A 
ATOM     35  C   UNL A   1      38.041  30.398  28.112  1.00  0.00     0.010 A 
ATOM     36  C   UNL A   1      36.763  29.252  29.814  1.00  0.00     0.010 A 
ATOM     37  C   UNL A   1      38.003  29.547  29.228  1.00  0.00    -0.014 A 
BRANCH  37  38
ATOM     38  C   UNL A   1      39.243  28.946  29.786  1.00  0.00     0.031 A 
ATOM     39  C   UNL A   1      39.888  29.544  31.010  1.00  0.00     0.074 A 
ATOM     40  C   UNL A   1      39.821  27.903  29.159  1.00  0.00     0.049 A 
ATOM     41  N   UNL A   1      41.013  29.223  31.595  1.00  0.00    -0.248 NA
ATOM     42  C   UNL A   1      39.188  30.674  31.638  1.00  0.00     0.031 C 
ATOM     43  C   UNL A   1      39.311  27.259  27.947  1.00  0.00     0.029 A 
ATOM     44  N   UNL A   1      40.969  27.205  29.444  1.00  0.00    -0.354 N 
ATOM     45  C   UNL A   1      41.164  30.119  32.649  1.00  0.00     0.074 A 
ATOM     46  C   UNL A   1      40.044  31.033  32.581  1.00  0.00     0.031 C 
ATOM     47  C   UNL A   1      40.128  26.250  27.607  1.00  0.00     0.029 A 
ATOM     48  C   UNL A   1      41.246  26.203  28.544  1.00  0.00     0.049 A 
ATOM     49  H   UNL A   1      41.540  27.404  30.221  1.00  0.00     0.167 HD
ATOM     50  C   UNL A   1      42.134  30.161  33.597  1.00  0.00     0.034 A 
ATOM     51  C   UNL A   1      42.290  25.353  28.469  1.00  0.00     0.034 A 
ATOM     52  C   UNL A   1      43.237  29.232  33.656  1.00  0.00     0.049 A 
ATOM     53  C   UNL A   1      43.369  25.435  29.519  1.00  0.00     0.074 A 
ATOM     54  C   UNL A   1      44.244  29.148  34.602  1.00  0.00     0.029 A 
ATOM     55  N   UNL A   1      43.484  28.230  32.726  1.00  0.00    -0.354 N 
ATOM     56  N   UNL A   1      43.471  26.259  30.537  1.00  0.00    -0.248 NA
ATOM     57  C   UNL A   1      44.468  24.467  29.414  1.00  0.00     0.031 C 
ATOM     58  C   UNL A   1      45.135  28.144  34.207  1.00  0.00     0.029 A 
ATOM     59  C   UNL A   1      44.644  27.545  33.058  1.00  0.00     0.049 A 
ATOM     60  H   UNL A   1      42.919  28.033  31.944  1.00  0.00     0.167 HD
ATOM     61  C   UNL A   1      44.632  25.886  31.211  1.00  0.00     0.074 A 
ATOM     62  C   UNL A   1      45.182  24.755  30.493  1.00  0.00     0.031 C 
ATOM     63  C   UNL A   1      45.188  26.426  32.325  1.00  0.00     0.034 A 
BRANCH  50  64
ATOM     64  C   UNL A   1      42.054  31.265  34.627  1.00  0.00     0.023 A 
ATOM     65  C   UNL A   1      42.689  32.505  34.434  1.00  0.00     0.031 A 
ATOM     66  C   UNL A   1      41.357  31.067  35.832  1.00  0.00     0.131 A 
ATOM     67  C   UNL A   1      42.683  33.465  35.458  1.00  0.00     0.055 A 
ATOM     68  C   UNL A   1      41.283  32.059  36.812  1.00  0.00     0.041 A 
ATOM     69  F   UNL A   1      40.747  29.898  36.086  1.00  0.00    -0.206 F 
ATOM     70  C   UNL A   1      41.962  33.260  36.636  1.00  0.00     0.022 A 
BRANCH  67  71
ATOM     71  S   UNL A   1      43.756  34.918  35.290  1.00  0.00     0.124 S 
ATOM     72  O   UNL A   1      42.776  35.994  35.157  1.00  0.00    -0.237 OA
ATOM     73  O   UNL A   1      44.515  34.895  36.534  1.00  0.00    -0.237 OA
ATOM     74  O   UNL A   1      44.527  34.636  34.081  1.00  0.00    -0.744 OA
ENDBRANCH  67  71
ENDBRANCH  50  64
BRANCH  51  75
ATOM     75  C   UNL A   1      42.377  24.359  27.362  1.00  0.00     0.023 A 
ATOM     76  C   UNL A   1      41.599  23.191  27.375  1.00  0.00     0.031 A 
ATOM     77  C   UNL A   1      43.273  24.540  26.293  1.00  0.00     0.131 A 
ATOM     78  C   UNL A   1      41.763  22.228  26.366  1.00  0.00     0.055 A 
ATOM     79  C   UNL A   1      43.393  23.606  25.263  1.00  0.00     0.041 A 
ATOM     80  F   UNL A   1      44.041  25.641  26.229  1.00  0.00    -0.206 F 
ATOM     81  C   UNL A   1      42.644  22.435  25.303  1.00  0.00     0.022 A 
BRANCH  78  82
ATOM     82  S   UNL A   1      40.869  20.656  26.513  1.00  0.00     0.124 S 
ATOM     83  O   UNL A   1      41.672  19.777  25.670  1.00  0.00    -0.237 OA
ATOM     84  O   UNL A   1      40.934  20.404  27.948  1.00  0.00    -0.237 OA
ATOM     85  O   UNL A   1      39.539  20.972  25.996  1.00  0.00    -0.744 OA
ENDBRANCH  78  82
ENDBRANCH  51  75
BRANCH  63  86
ATOM     86  C   UNL A   1      46.437  25.764  32.856  1.00  0.00     0.023 A 
ATOM     87  C   UNL A   1      47.720  26.156  32.437  1.00  0.00     0.031 A 
ATOM     88  C   UNL A   1      46.339  24.715  33.787  1.00  0.00     0.131 A 
ATOM     89  C   UNL A   1      48.849  25.467  32.904  1.00  0.00     0.055 A 
ATOM     90  C   UNL A   1      47.469  24.075  34.297  1.00  0.00     0.041 A 
ATOM     91  F   UNL A   1      45.139  24.297  34.221  1.00  0.00    -0.206 F 
ATOM     92  C   UNL A   1      48.733  24.441  33.845  1.00  0.00     0.022 A 
BRANCH  89  93
ATOM     93  S   UNL A   1      50.470  25.868  32.194  1.00  0.00     0.124 S 
ATOM     94  O   UNL A   1      50.102  26.504  30.935  1.00  0.00    -0.237 OA
ATOM     95  O   UNL A   1      51.048  26.745  33.207  1.00  0.00    -0.237 OA
ATOM     96  O   UNL A   1      51.120  24.564  32.064  1.00  0.00    -0.744 OA
ENDBRANCH  89  93
ENDBRANCH  63  86
ENDBRANCH  37  38
ENDBRANCH  29  32
ENDBRANCH  27  28
ENDBRANCH  26  27
ENDBRANCH   1  26
TORSDOF 17
ENDMDL
MODEL 3
REMARK VINA RESULT:     -11.8      3.185      8.546
REMARK SMILES CCNC(=O)c1ccc(N[C@@H]2COC[C@@]2(C)C(=O)NCCCNC(=O)c2ccc(-c3c4nc(c(-c5cc(S(=O)(=O)[O-])ccc5F)c5ccc([nH]5)c(-c5cc(S(=O)(=O)[O-])ccc5F)c5nc(c(-c6cc(S(=O)(=O)[O-])ccc6F)c6ccc3[nH]6)C=C5)C=C4)cc2)nn1
REMARK SMILES IDX 20 1 19 2 17 3 18 4 15 6 11 7 12 8 13 9 14 10 16 11 10 12
REMARK SMILES IDX 9 14 6 15 7 16 90 17 8 18 89 19 4 20 3 21 5 23 2 24 1 25
REMARK SMILES IDX 21 26 22 27 23 28 24 29 25 31 26 32 27 33 88 34 28 35 87 36
REMARK SMILES IDX 29 37 30 38 31 39 81 40 32 41 86 42 80 43 82 44 33 45 85 46
REMARK SMILES IDX 79 47 78 48 34 50 66 51 46 52 65 53 47 54 50 55 64 56 83 57
REMARK SMILES IDX 48 58 49 59 63 61 84 62 51 63 35 64 36 65 44 66 37 67 43 68
REMARK SMILES IDX 45 69 42 70 38 71 39 72 40 73 41 74 67 75 68 76 76 77 69 78
REMARK SMILES IDX 75 79 77 80 74 81 70 82 71 83 72 84 73 85 52 86 53 87 61 88
REMARK SMILES IDX 54 89 60 90 62 91 59 92 55 93 56 94 57 95 58 96
REMARK H PARENT 19 5 10 13 3 22 23 30 82 49 50 60
REMARK Flexibility Score: inf
ROOT
ATOM      1  C   UNL A   1      31.677  30.690  25.837  1.00  0.00     0.117 C 
ENDROOT
BRANCH   1   2
ATOM      2  N   UNL A   1      32.935  30.028  26.128  1.00  0.00    -0.355 N 
ATOM      3  C   UNL A   1      33.304  28.721  26.153  1.00  0.00     0.230 C 
ATOM      4  O   UNL A   1      34.481  28.521  26.476  1.00  0.00    -0.274 OA
ATOM      5  H   UNL A   1      33.665  30.650  26.353  1.00  0.00     0.163 HD
BRANCH   3   6
ATOM      6  C   UNL A   1      32.398  27.563  25.715  1.00  0.00     0.092 C 
ATOM      7  C   UNL A   1      33.105  26.222  25.948  1.00  0.00     0.124 C 
ATOM      8  C   UNL A   1      31.960  25.238  26.139  1.00  0.00     0.186 C 
ATOM      9  O   UNL A   1      30.901  25.980  26.770  1.00  0.00    -0.378 OA
ATOM     10  C   UNL A   1      31.273  27.377  26.767  1.00  0.00     0.179 C 
ATOM     11  C   UNL A   1      31.668  27.773  24.382  1.00  0.00     0.026 C 
BRANCH   7  12
ATOM     12  N   UNL A   1      34.187  25.825  25.057  1.00  0.00    -0.362 N 
ATOM     13  H   UNL A   1      34.531  26.512  24.443  1.00  0.00     0.162 HD
BRANCH  12  14
ATOM     14  C   UNL A   1      34.777  24.583  24.992  1.00  0.00     0.149 A 
ATOM     15  C   UNL A   1      35.524  21.963  24.906  1.00  0.00     0.150 A 
ATOM     16  C   UNL A   1      35.067  22.545  23.740  1.00  0.00     0.040 A 
ATOM     17  N   UNL A   1      35.648  22.651  26.057  1.00  0.00    -0.143 NA
ATOM     18  C   UNL A   1      34.706  23.888  23.787  1.00  0.00     0.051 A 
ATOM     19  N   UNL A   1      35.268  23.972  26.086  1.00  0.00    -0.132 NA
BRANCH  15  20
ATOM     20  C   UNL A   1      35.836  20.522  24.950  1.00  0.00     0.271 C 
ATOM     21  N   UNL A   1      34.820  19.617  25.153  1.00  0.00    -0.351 N 
ATOM     22  H   UNL A   1      35.101  18.686  25.306  1.00  0.00     0.163 HD
ATOM     23  O   UNL A   1      36.997  20.141  24.855  1.00  0.00    -0.267 OA
BRANCH  21  24
ATOM     24  C   UNL A   1      33.391  19.858  25.171  1.00  0.00     0.113 C 
ATOM     25  C   UNL A   1      32.712  19.178  23.998  1.00  0.00     0.027 C 
ENDBRANCH  21  24
ENDBRANCH  15  20
ENDBRANCH  12  14
ENDBRANCH   7  12
ENDBRANCH   3   6
ENDBRANCH   1   2
BRANCH   1  26
ATOM     26  C   UNL A   1      31.463  31.935  26.693  1.00  0.00     0.042 C 
BRANCH  26  27
ATOM     27  C   UNL A   1      32.755  32.499  27.279  1.00  0.00     0.118 C 
BRANCH  27  28
ATOM     28  N   UNL A   1      32.622  33.903  27.641  1.00  0.00    -0.352 N 
ATOM     29  C   UNL A   1      33.221  34.618  28.649  1.00  0.00     0.251 C 
ATOM     30  H   UNL A   1      32.006  34.421  27.074  1.00  0.00     0.163 HD
ATOM     31  O   UNL A   1      32.771  35.723  28.938  1.00  0.00    -0.269 OA
BRANCH  29  32
ATOM     32  C   UNL A   1      34.387  34.072  29.382  1.00  0.00     0.039 A 
ATOM     33  C   UNL A   1      34.163  33.262  30.500  1.00  0.00     0.014 A 
ATOM     34  C   UNL A   1      35.695  34.398  29.013  1.00  0.00     0.014 A 
ATOM     35  C   UNL A   1      35.247  32.740  31.212  1.00  0.00     0.010 A 
ATOM     36  C   UNL A   1      36.774  33.816  29.676  1.00  0.00     0.010 A 
ATOM     37  C   UNL A   1      36.564  32.988  30.790  1.00  0.00    -0.014 A 
BRANCH  37  38
ATOM     38  C   UNL A   1      37.729  32.407  31.507  1.00  0.00     0.031 A 
ATOM     39  C   UNL A   1      38.527  31.295  30.876  1.00  0.00     0.074 A 
ATOM     40  C   UNL A   1      38.033  32.836  32.748  1.00  0.00     0.049 A 
ATOM     41  N   UNL A   1      39.517  30.600  31.373  1.00  0.00    -0.248 NA
ATOM     42  C   UNL A   1      38.135  30.894  29.517  1.00  0.00     0.031 C 
ATOM     43  C   UNL A   1      37.313  33.883  33.478  1.00  0.00     0.029 A 
ATOM     44  N   UNL A   1      39.016  32.443  33.621  1.00  0.00    -0.354 N 
ATOM     45  C   UNL A   1      39.857  29.669  30.396  1.00  0.00     0.074 A 
ATOM     46  C   UNL A   1      38.924  29.852  29.304  1.00  0.00     0.031 C 
ATOM     47  C   UNL A   1      37.893  34.061  34.675  1.00  0.00     0.029 A 
ATOM     48  C   UNL A   1      38.992  33.112  34.822  1.00  0.00     0.049 A 
ATOM     49  H   UNL A   1      39.677  31.745  33.407  1.00  0.00     0.167 HD
ATOM     50  C   UNL A   1      40.866  28.761  30.400  1.00  0.00     0.034 A 
ATOM     51  C   UNL A   1      39.756  32.968  35.924  1.00  0.00     0.034 A 
ATOM     52  C   UNL A   1      41.795  28.602  31.493  1.00  0.00     0.049 A 
ATOM     53  C   UNL A   1      40.854  31.936  35.915  1.00  0.00     0.074 A 
ATOM     54  C   UNL A   1      42.886  27.755  31.582  1.00  0.00     0.029 A 
ATOM     55  N   UNL A   1      41.738  29.299  32.694  1.00  0.00    -0.354 N 
ATOM     56  N   UNL A   1      41.192  31.095  34.964  1.00  0.00    -0.248 NA
ATOM     57  C   UNL A   1      41.681  31.839  37.126  1.00  0.00     0.031 C 
ATOM     58  C   UNL A   1      43.445  27.889  32.857  1.00  0.00     0.029 A 
ATOM     59  C   UNL A   1      42.754  28.878  33.539  1.00  0.00     0.049 A 
ATOM     60  H   UNL A   1      41.074  29.992  32.914  1.00  0.00     0.167 HD
ATOM     61  C   UNL A   1      42.290  30.392  35.452  1.00  0.00     0.074 A 
ATOM     62  C   UNL A   1      42.566  30.919  36.773  1.00  0.00     0.031 C 
ATOM     63  C   UNL A   1      43.009  29.404  34.860  1.00  0.00     0.034 A 
BRANCH  50  64
ATOM     64  C   UNL A   1      40.995  27.857  29.196  1.00  0.00     0.023 A 
ATOM     65  C   UNL A   1      42.000  28.047  28.231  1.00  0.00     0.031 A 
ATOM     66  C   UNL A   1      40.082  26.806  28.992  1.00  0.00     0.131 A 
ATOM     67  C   UNL A   1      42.022  27.255  27.073  1.00  0.00     0.055 A 
ATOM     68  C   UNL A   1      40.162  25.966  27.879  1.00  0.00     0.041 A 
ATOM     69  F   UNL A   1      39.087  26.584  29.865  1.00  0.00    -0.206 F 
ATOM     70  C   UNL A   1      41.125  26.198  26.903  1.00  0.00     0.022 A 
BRANCH  67  71
ATOM     71  S   UNL A   1      43.142  27.723  25.725  1.00  0.00     0.124 S 
ATOM     72  O   UNL A   1      43.879  26.479  25.508  1.00  0.00    -0.237 OA
ATOM     73  O   UNL A   1      42.217  28.110  24.666  1.00  0.00    -0.237 OA
ATOM     74  O   UNL A   1      43.929  28.813  26.297  1.00  0.00    -0.744 OA
ENDBRANCH  67  71
ENDBRANCH  50  64
BRANCH  51  75
ATOM     75  C   UNL A   1      39.508  33.809  37.130  1.00  0.00     0.023 A 
ATOM     76  C   UNL A   1      38.843  33.287  38.250  1.00  0.00     0.031 A 
ATOM     77  C   UNL A   1      39.896  35.160  37.165  1.00  0.00     0.131 A 
ATOM     78  C   UNL A   1      38.543  34.123  39.339  1.00  0.00     0.055 A 
ATOM     79  C   UNL A   1      39.646  35.972  38.272  1.00  0.00     0.041 A 
ATOM     80  F   UNL A   1      40.539  35.710  36.121  1.00  0.00    -0.206 F 
ATOM     81  C   UNL A   1      38.954  35.457  39.363  1.00  0.00     0.022 A 
BRANCH  78  82
ATOM     82  S   UNL A   1      37.529  33.458  40.688  1.00  0.00     0.124 S 
ATOM     83  O   UNL A   1      36.373  32.942  39.964  1.00  0.00    -0.237 OA
ATOM     84  O   UNL A   1      38.418  32.461  41.273  1.00  0.00    -0.237 OA
ATOM     85  O   UNL A   1      37.270  34.628  41.526  1.00  0.00    -0.744 OA
ENDBRANCH  78  82
ENDBRANCH  51  75
BRANCH  63  86
ATOM     86  C   UNL A   1      44.192  28.863  35.628  1.00  0.00     0.023 A 
ATOM     87  C   UNL A   1      44.071  27.769  36.502  1.00  0.00     0.031 A 
ATOM     88  C   UNL A   1      45.456  29.462  35.490  1.00  0.00     0.131 A 
ATOM     89  C   UNL A   1      45.181  27.344  37.248  1.00  0.00     0.055 A 
ATOM     90  C   UNL A   1      46.572  28.996  36.187  1.00  0.00     0.041 A 
ATOM     91  F   UNL A   1      45.629  30.513  34.672  1.00  0.00    -0.206 F 
ATOM     92  C   UNL A   1      46.434  27.940  37.082  1.00  0.00     0.022 A 
BRANCH  89  93
ATOM     93  S   UNL A   1      44.945  26.061  38.508  1.00  0.00     0.124 S 
ATOM     94  O   UNL A   1      43.973  25.182  37.869  1.00  0.00    -0.237 OA
ATOM     95  O   UNL A   1      46.292  25.520  38.660  1.00  0.00    -0.237 OA
ATOM     96  O   UNL A   1      44.444  26.804  39.664  1.00  0.00    -0.744 OA
ENDBRANCH  89  93
ENDBRANCH  63  86
ENDBRANCH  37  38
ENDBRANCH  29  32
ENDBRANCH  27  28
ENDBRANCH  26  27
ENDBRANCH   1  26
TORSDOF 17
ENDMDL
