MODEL 1
REMARK VINA RESULT:     -10.3      0.000      0.000
REMARK SMILES CS(=O)(=O)Nc1ccc(-c2cc(Cl)cc3c2O[C@H](C(F)(F)F)C(C(=O)NCCCNC(=O)c2ccc(-c4c5nc(c(-c6cc(S(=O)(=O)[O-])ccc6F)c6ccc([nH]6)c(-c6cc(S(=O)(=O)[O-])ccc6F)c6nc(c(-c7cc(S(=O)(=O)[O-])ccc7F)c7ccc4[nH]7)C=C6)C=C5)cc2)=C3)cc1
REMARK SMILES IDX 28 1 27 2 26 3 24 4 25 5 23 7 10 8 11 9 16 10 12 11 15 12
REMARK SMILES IDX 17 13 13 14 14 15 96 16 18 17 9 18 6 19 7 20 98 21 8 22
REMARK SMILES IDX 97 23 5 24 2 26 1 27 3 28 4 29 19 30 20 31 21 32 22 33 29 34
REMARK SMILES IDX 30 35 31 36 32 38 33 39 34 40 95 41 35 42 94 43 36 44 37 45
REMARK SMILES IDX 38 46 88 47 39 48 93 49 87 50 89 51 40 52 92 53 86 54 85 55
REMARK SMILES IDX 41 57 73 58 53 59 72 60 54 61 57 62 71 63 90 64 55 65 56 66
REMARK SMILES IDX 70 68 91 69 58 70 42 71 43 72 51 73 44 74 50 75 52 76 49 77
REMARK SMILES IDX 45 78 46 79 47 80 48 81 74 82 75 83 83 84 76 85 82 86 84 87
REMARK SMILES IDX 81 88 77 89 78 90 79 91 80 92 59 93 60 94 68 95 61 96 67 97
REMARK SMILES IDX 69 98 66 99 62 100 63 101 64 102 65 103
REMARK H PARENT 26 6 5 25 30 37 89 56 57 67
REMARK Flexibility Score: inf
ROOT
ATOM      1  C   UNL A   1      42.128  34.992  40.114  1.00  0.00     0.042 C 
ENDROOT
BRANCH   1   2
ATOM      2  C   UNL A   1      41.370  33.662  40.071  1.00  0.00     0.118 C 
BRANCH   2   3
ATOM      3  N   UNL A   1      41.263  33.192  38.703  1.00  0.00    -0.352 N 
ATOM      4  C   UNL A   1      40.164  32.679  38.097  1.00  0.00     0.251 C 
ATOM      5  O   UNL A   1      40.282  31.740  37.317  1.00  0.00    -0.270 OA
ATOM      6  H   UNL A   1      42.078  33.253  38.154  1.00  0.00     0.163 HD
BRANCH   4   7
ATOM      7  C   UNL A   1      38.874  33.400  38.300  1.00  0.00     0.067 C 
ATOM      8  C   UNL A   1      37.824  33.979  34.409  1.00  0.00     0.026 A 
ATOM      9  C   UNL A   1      38.992  34.446  33.744  1.00  0.00     0.033 A 
ATOM     10  C   UNL A   1      37.872  33.990  35.815  1.00  0.00     0.135 A 
ATOM     11  C   UNL A   1      40.064  35.032  34.411  1.00  0.00     0.042 A 
ATOM     12  C   UNL A   1      38.914  34.704  36.465  1.00  0.00     0.019 A 
ATOM     13  O   UNL A   1      36.985  33.284  36.620  1.00  0.00    -0.475 OA
ATOM     14  Cl  UNL A   1      41.452  35.528  33.528  1.00  0.00    -0.084 Cl
ATOM     15  C   UNL A   1      39.999  35.233  35.772  1.00  0.00     0.032 A 
ATOM     16  C   UNL A   1      38.945  34.698  37.944  1.00  0.00     0.025 C 
ATOM     17  C   UNL A   1      37.628  32.667  37.825  1.00  0.00     0.314 C 
BRANCH   8  18
ATOM     18  C   UNL A   1      36.664  33.733  33.501  1.00  0.00    -0.014 A 
ATOM     19  C   UNL A   1      34.016  34.310  32.598  1.00  0.00     0.048 A 
ATOM     20  C   UNL A   1      35.126  34.917  32.004  1.00  0.00     0.027 A 
ATOM     21  C   UNL A   1      34.244  33.295  33.524  1.00  0.00     0.027 A 
ATOM     22  C   UNL A   1      36.431  34.605  32.418  1.00  0.00     0.011 A 
ATOM     23  C   UNL A   1      35.555  33.002  33.965  1.00  0.00     0.011 A 
BRANCH  19  24
ATOM     24  N   UNL A   1      32.759  34.958  32.392  1.00  0.00    -0.284 N 
ATOM     25  H   UNL A   1      32.001  34.373  32.165  1.00  0.00     0.180 HD
BRANCH  24  26
ATOM     26  S   UNL A   1      32.430  36.584  32.491  1.00  0.00     0.229 S 
ATOM     27  C   UNL A   1      33.753  37.230  33.499  1.00  0.00     0.183 C 
ATOM     28  O   UNL A   1      31.168  36.792  33.170  1.00  0.00    -0.207 OA
ATOM     29  O   UNL A   1      32.644  37.089  31.151  1.00  0.00    -0.207 OA
ENDBRANCH  24  26
ENDBRANCH  19  24
ENDBRANCH   8  18
BRANCH  17  30
ATOM     30  C   UNL A   1      36.652  32.579  39.023  1.00  0.00     0.429 C 
ATOM     31  F   UNL A   1      35.418  33.046  38.724  1.00  0.00    -0.167 F 
ATOM     32  F   UNL A   1      36.516  31.304  39.455  1.00  0.00    -0.167 F 
ATOM     33  F   UNL A   1      37.080  33.298  40.097  1.00  0.00    -0.167 F 
ENDBRANCH  17  30
ENDBRANCH   4   7
ENDBRANCH   2   3
ENDBRANCH   1   2
BRANCH   1  34
ATOM     34  C   UNL A   1      43.330  35.077  39.173  1.00  0.00     0.118 C 
BRANCH  34  35
ATOM     35  N   UNL A   1      44.548  34.543  39.759  1.00  0.00    -0.352 N 
ATOM     36  C   UNL A   1      45.241  33.398  39.443  1.00  0.00     0.251 C 
ATOM     37  H   UNL A   1      44.934  35.079  40.489  1.00  0.00     0.163 HD
ATOM     38  O   UNL A   1      46.155  33.030  40.174  1.00  0.00    -0.269 OA
BRANCH  36  39
ATOM     39  C   UNL A   1      44.866  32.604  38.252  1.00  0.00     0.039 A 
ATOM     40  C   UNL A   1      45.470  32.903  37.029  1.00  0.00     0.014 A 
ATOM     41  C   UNL A   1      43.921  31.577  38.332  1.00  0.00     0.014 A 
ATOM     42  C   UNL A   1      45.169  32.134  35.903  1.00  0.00     0.010 A 
ATOM     43  C   UNL A   1      43.695  30.752  37.232  1.00  0.00     0.010 A 
ATOM     44  C   UNL A   1      44.305  31.029  36.000  1.00  0.00    -0.014 A 
BRANCH  44  45
ATOM     45  C   UNL A   1      44.028  30.174  34.814  1.00  0.00     0.031 A 
ATOM     46  C   UNL A   1      43.052  30.626  33.760  1.00  0.00     0.074 A 
ATOM     47  C   UNL A   1      44.629  28.972  34.706  1.00  0.00     0.049 A 
ATOM     48  N   UNL A   1      42.678  30.020  32.662  1.00  0.00    -0.248 NA
ATOM     49  C   UNL A   1      42.381  31.913  33.990  1.00  0.00     0.031 C 
ATOM     50  C   UNL A   1      45.543  28.394  35.695  1.00  0.00     0.029 A 
ATOM     51  N   UNL A   1      44.565  28.019  33.721  1.00  0.00    -0.354 N 
ATOM     52  C   UNL A   1      41.720  30.843  32.079  1.00  0.00     0.074 A 
ATOM     53  C   UNL A   1      41.519  31.952  32.986  1.00  0.00     0.031 C 
ATOM     54  C   UNL A   1      45.983  27.207  35.248  1.00  0.00     0.029 A 
ATOM     55  C   UNL A   1      45.351  26.916  33.965  1.00  0.00     0.049 A 
ATOM     56  H   UNL A   1      44.008  28.115  32.915  1.00  0.00     0.167 HD
ATOM     57  C   UNL A   1      41.087  30.703  30.887  1.00  0.00     0.034 A 
ATOM     58  C   UNL A   1      45.540  25.794  33.243  1.00  0.00     0.034 A 
ATOM     59  C   UNL A   1      41.310  29.592  29.992  1.00  0.00     0.049 A 
ATOM     60  C   UNL A   1      44.834  25.660  31.918  1.00  0.00     0.074 A 
ATOM     61  C   UNL A   1      40.778  29.379  28.732  1.00  0.00     0.029 A 
ATOM     62  N   UNL A   1      42.121  28.497  30.268  1.00  0.00    -0.354 N 
ATOM     63  N   UNL A   1      43.989  26.486  31.343  1.00  0.00    -0.248 NA
ATOM     64  C   UNL A   1      45.125  24.454  31.136  1.00  0.00     0.031 C 
ATOM     65  C   UNL A   1      41.199  28.121  28.285  1.00  0.00     0.029 A 
ATOM     66  C   UNL A   1      42.072  27.588  29.220  1.00  0.00     0.049 A 
ATOM     67  H   UNL A   1      42.653  28.382  31.088  1.00  0.00     0.167 HD
ATOM     68  C   UNL A   1      43.667  25.908  30.117  1.00  0.00     0.074 A 
ATOM     69  C   UNL A   1      44.433  24.680  30.030  1.00  0.00     0.031 C 
ATOM     70  C   UNL A   1      42.820  26.351  29.153  1.00  0.00     0.034 A 
BRANCH  57  71
ATOM     71  C   UNL A   1      40.072  31.761  30.509  1.00  0.00     0.023 A 
ATOM     72  C   UNL A   1      38.693  31.487  30.460  1.00  0.00     0.031 A 
ATOM     73  C   UNL A   1      40.494  33.053  30.145  1.00  0.00     0.131 A 
ATOM     74  C   UNL A   1      37.800  32.453  29.969  1.00  0.00     0.055 A 
ATOM     75  C   UNL A   1      39.588  34.041  29.748  1.00  0.00     0.041 A 
ATOM     76  F   UNL A   1      41.797  33.374  30.148  1.00  0.00    -0.206 F 
ATOM     77  C   UNL A   1      38.235  33.737  29.639  1.00  0.00     0.022 A 
BRANCH  74  78
ATOM     78  S   UNL A   1      36.098  31.947  29.597  1.00  0.00     0.124 S 
ATOM     79  O   UNL A   1      36.311  30.915  28.584  1.00  0.00    -0.237 OA
ATOM     80  O   UNL A   1      35.618  31.480  30.892  1.00  0.00    -0.237 OA
ATOM     81  O   UNL A   1      35.476  33.174  29.103  1.00  0.00    -0.744 OA
ENDBRANCH  74  78
ENDBRANCH  57  71
BRANCH  58  82
ATOM     82  C   UNL A   1      46.427  24.710  33.755  1.00  0.00     0.023 A 
ATOM     83  C   UNL A   1      45.903  23.569  34.385  1.00  0.00     0.031 A 
ATOM     84  C   UNL A   1      47.825  24.811  33.638  1.00  0.00     0.131 A 
ATOM     85  C   UNL A   1      46.770  22.597  34.908  1.00  0.00     0.055 A 
ATOM     86  C   UNL A   1      48.682  23.817  34.111  1.00  0.00     0.041 A 
ATOM     87  F   UNL A   1      48.381  25.877  33.039  1.00  0.00    -0.206 F 
ATOM     88  C   UNL A   1      48.155  22.705  34.761  1.00  0.00     0.022 A 
BRANCH  85  89
ATOM     89  S   UNL A   1      46.066  21.216  35.852  1.00  0.00     0.124 S 
ATOM     90  O   UNL A   1      45.708  21.866  37.107  1.00  0.00    -0.237 OA
ATOM     91  O   UNL A   1      44.954  20.805  35.002  1.00  0.00    -0.237 OA
ATOM     92  O   UNL A   1      47.170  20.262  35.934  1.00  0.00    -0.744 OA
ENDBRANCH  85  89
ENDBRANCH  58  82
BRANCH  70  93
ATOM     93  C   UNL A   1      42.712  25.510  27.901  1.00  0.00     0.023 A 
ATOM     94  C   UNL A   1      41.811  24.434  27.806  1.00  0.00     0.031 A 
ATOM     95  C   UNL A   1      43.554  25.760  26.802  1.00  0.00     0.131 A 
ATOM     96  C   UNL A   1      41.835  23.597  26.680  1.00  0.00     0.055 A 
ATOM     97  C   UNL A   1      43.515  24.973  25.650  1.00  0.00     0.041 A 
ATOM     98  F   UNL A   1      44.438  26.771  26.833  1.00  0.00    -0.206 F 
ATOM     99  C   UNL A   1      42.667  23.871  25.593  1.00  0.00     0.022 A 
BRANCH  96 100
ATOM    100  S   UNL A   1      40.874  22.059  26.722  1.00  0.00     0.124 S 
ATOM    101  O   UNL A   1      41.449  21.313  25.607  1.00  0.00    -0.237 OA
ATOM    102  O   UNL A   1      41.171  21.543  28.054  1.00  0.00    -0.237 OA
ATOM    103  O   UNL A   1      39.498  22.509  26.523  1.00  0.00    -0.744 OA
ENDBRANCH  96 100
ENDBRANCH  70  93
ENDBRANCH  44  45
ENDBRANCH  36  39
ENDBRANCH  34  35
ENDBRANCH   1  34
TORSDOF 17
ENDMDL
MODEL 2
REMARK VINA RESULT:     -10.1      7.856     12.878
REMARK SMILES CS(=O)(=O)Nc1ccc(-c2cc(Cl)cc3c2O[C@H](C(F)(F)F)C(C(=O)NCCCNC(=O)c2ccc(-c4c5nc(c(-c6cc(S(=O)(=O)[O-])ccc6F)c6ccc([nH]6)c(-c6cc(S(=O)(=O)[O-])ccc6F)c6nc(c(-c7cc(S(=O)(=O)[O-])ccc7F)c7ccc4[nH]7)C=C6)C=C5)cc2)=C3)cc1
REMARK SMILES IDX 28 1 27 2 26 3 24 4 25 5 23 7 10 8 11 9 16 10 12 11 15 12
REMARK SMILES IDX 17 13 13 14 14 15 96 16 18 17 9 18 6 19 7 20 98 21 8 22
REMARK SMILES IDX 97 23 5 24 2 26 1 27 3 28 4 29 19 30 20 31 21 32 22 33 29 34
REMARK SMILES IDX 30 35 31 36 32 38 33 39 34 40 95 41 35 42 94 43 36 44 37 45
REMARK SMILES IDX 38 46 88 47 39 48 93 49 87 50 89 51 40 52 92 53 86 54 85 55
REMARK SMILES IDX 41 57 73 58 53 59 72 60 54 61 57 62 71 63 90 64 55 65 56 66
REMARK SMILES IDX 70 68 91 69 58 70 42 71 43 72 51 73 44 74 50 75 52 76 49 77
REMARK SMILES IDX 45 78 46 79 47 80 48 81 74 82 75 83 83 84 76 85 82 86 84 87
REMARK SMILES IDX 81 88 77 89 78 90 79 91 80 92 59 93 60 94 68 95 61 96 67 97
REMARK SMILES IDX 69 98 66 99 62 100 63 101 64 102 65 103
REMARK H PARENT 26 6 5 25 30 37 89 56 57 67
REMARK Flexibility Score: inf
ROOT
ATOM      1  C   UNL A   1      40.792  24.759  28.228  1.00  0.00     0.042 C 
ENDROOT
BRANCH   1   2
ATOM      2  C   UNL A   1      40.523  26.230  27.900  1.00  0.00     0.118 C 
BRANCH   2   3
ATOM      3  N   UNL A   1      39.322  26.681  28.578  1.00  0.00    -0.352 N 
ATOM      4  C   UNL A   1      39.192  27.769  29.377  1.00  0.00     0.251 C 
ATOM      5  O   UNL A   1      38.490  27.707  30.380  1.00  0.00    -0.270 OA
ATOM      6  H   UNL A   1      38.513  26.137  28.444  1.00  0.00     0.163 HD
BRANCH   4   7
ATOM      7  C   UNL A   1      39.797  29.045  28.895  1.00  0.00     0.067 C 
ATOM      8  C   UNL A   1      36.548  31.477  29.221  1.00  0.00     0.026 A 
ATOM      9  C   UNL A   1      35.453  30.761  28.661  1.00  0.00     0.033 A 
ATOM     10  C   UNL A   1      37.826  30.953  28.954  1.00  0.00     0.135 A 
ATOM     11  C   UNL A   1      35.613  29.702  27.770  1.00  0.00     0.042 A 
ATOM     12  C   UNL A   1      37.969  29.958  27.950  1.00  0.00     0.019 A 
ATOM     13  O   UNL A   1      38.966  31.307  29.667  1.00  0.00    -0.475 OA
ATOM     14  Cl  UNL A   1      34.232  28.869  27.177  1.00  0.00    -0.084 Cl
ATOM     15  C   UNL A   1      36.874  29.342  27.350  1.00  0.00     0.032 A 
ATOM     16  C   UNL A   1      39.322  29.419  27.691  1.00  0.00     0.025 C 
ATOM     17  C   UNL A   1      39.893  30.158  29.928  1.00  0.00     0.314 C 
BRANCH   8  18
ATOM     18  C   UNL A   1      36.168  32.781  29.842  1.00  0.00    -0.014 A 
ATOM     19  C   UNL A   1      34.254  34.519  31.056  1.00  0.00     0.048 A 
ATOM     20  C   UNL A   1      35.076  33.701  31.834  1.00  0.00     0.027 A 
ATOM     21  C   UNL A   1      34.506  34.589  29.688  1.00  0.00     0.027 A 
ATOM     22  C   UNL A   1      36.046  32.876  31.243  1.00  0.00     0.011 A 
ATOM     23  C   UNL A   1      35.460  33.734  29.087  1.00  0.00     0.011 A 
BRANCH  19  24
ATOM     24  N   UNL A   1      33.072  35.011  31.692  1.00  0.00    -0.284 N 
ATOM     25  H   UNL A   1      32.413  34.334  31.967  1.00  0.00     0.180 HD
BRANCH  24  26
ATOM     26  S   UNL A   1      32.683  36.592  32.021  1.00  0.00     0.229 S 
ATOM     27  C   UNL A   1      34.084  37.197  32.946  1.00  0.00     0.183 C 
ATOM     28  O   UNL A   1      31.502  36.647  32.856  1.00  0.00    -0.207 OA
ATOM     29  O   UNL A   1      32.715  37.258  30.735  1.00  0.00    -0.207 OA
ENDBRANCH  24  26
ENDBRANCH  19  24
ENDBRANCH   8  18
BRANCH  17  30
ATOM     30  C   UNL A   1      41.372  30.609  29.991  1.00  0.00     0.429 C 
ATOM     31  F   UNL A   1      41.539  31.902  29.627  1.00  0.00    -0.167 F 
ATOM     32  F   UNL A   1      41.878  30.465  31.238  1.00  0.00    -0.167 F 
ATOM     33  F   UNL A   1      42.176  29.878  29.172  1.00  0.00    -0.167 F 
ENDBRANCH  17  30
ENDBRANCH   4   7
ENDBRANCH   2   3
ENDBRANCH   1   2
BRANCH   1  34
ATOM     34  C   UNL A   1      42.262  24.414  28.470  1.00  0.00     0.118 C 
BRANCH  34  35
ATOM     35  N   UNL A   1      42.745  23.349  27.607  1.00  0.00    -0.352 N 
ATOM     36  C   UNL A   1      43.770  23.363  26.691  1.00  0.00     0.251 C 
ATOM     37  H   UNL A   1      42.268  22.492  27.691  1.00  0.00     0.163 HD
ATOM     38  O   UNL A   1      43.910  22.408  25.933  1.00  0.00    -0.269 OA
BRANCH  36  39
ATOM     39  C   UNL A   1      44.673  24.532  26.601  1.00  0.00     0.039 A 
ATOM     40  C   UNL A   1      44.773  25.210  25.385  1.00  0.00     0.014 A 
ATOM     41  C   UNL A   1      45.423  24.957  27.702  1.00  0.00     0.014 A 
ATOM     42  C   UNL A   1      45.580  26.346  25.291  1.00  0.00     0.010 A 
ATOM     43  C   UNL A   1      46.151  26.143  27.632  1.00  0.00     0.010 A 
ATOM     44  C   UNL A   1      46.250  26.845  26.422  1.00  0.00    -0.014 A 
BRANCH  44  45
ATOM     45  C   UNL A   1      47.064  28.087  26.337  1.00  0.00     0.031 A 
ATOM     46  C   UNL A   1      48.557  28.010  26.160  1.00  0.00     0.074 A 
ATOM     47  C   UNL A   1      46.459  29.287  26.457  1.00  0.00     0.049 A 
ATOM     48  N   UNL A   1      49.433  28.979  26.069  1.00  0.00    -0.248 NA
ATOM     49  C   UNL A   1      49.148  26.664  26.115  1.00  0.00     0.031 C 
ATOM     50  C   UNL A   1      45.029  29.491  26.699  1.00  0.00     0.029 A 
ATOM     51  N   UNL A   1      46.967  30.560  26.394  1.00  0.00    -0.354 N 
ATOM     52  C   UNL A   1      50.676  28.361  25.971  1.00  0.00     0.074 A 
ATOM     53  C   UNL A   1      50.443  26.938  26.091  1.00  0.00     0.031 C 
ATOM     54  C   UNL A   1      44.769  30.807  26.724  1.00  0.00     0.029 A 
ATOM     55  C   UNL A   1      46.016  31.544  26.546  1.00  0.00     0.049 A 
ATOM     56  H   UNL A   1      47.922  30.753  26.253  1.00  0.00     0.167 HD
ATOM     57  C   UNL A   1      51.894  28.924  25.774  1.00  0.00     0.034 A 
ATOM     58  C   UNL A   1      46.134  32.886  26.547  1.00  0.00     0.034 A 
ATOM     59  C   UNL A   1      52.103  30.348  25.649  1.00  0.00     0.049 A 
ATOM     60  C   UNL A   1      47.494  33.493  26.319  1.00  0.00     0.074 A 
ATOM     61  C   UNL A   1      53.279  31.027  25.380  1.00  0.00     0.029 A 
ATOM     62  N   UNL A   1      51.115  31.315  25.799  1.00  0.00    -0.354 N 
ATOM     63  N   UNL A   1      48.651  32.894  26.150  1.00  0.00    -0.248 NA
ATOM     64  C   UNL A   1      47.559  34.958  26.259  1.00  0.00     0.031 C 
ATOM     65  C   UNL A   1      53.018  32.401  25.451  1.00  0.00     0.029 A 
ATOM     66  C   UNL A   1      51.662  32.584  25.668  1.00  0.00     0.049 A 
ATOM     67  H   UNL A   1      50.164  31.127  25.973  1.00  0.00     0.167 HD
ATOM     68  C   UNL A   1      49.579  33.911  25.938  1.00  0.00     0.074 A 
ATOM     69  C   UNL A   1      48.837  35.155  25.973  1.00  0.00     0.031 C 
ATOM     70  C   UNL A   1      50.918  33.823  25.731  1.00  0.00     0.034 A 
BRANCH  57  71
ATOM     71  C   UNL A   1      53.089  27.997  25.718  1.00  0.00     0.023 A 
ATOM     72  C   UNL A   1      53.775  27.594  26.879  1.00  0.00     0.031 A 
ATOM     73  C   UNL A   1      53.582  27.545  24.480  1.00  0.00     0.131 A 
ATOM     74  C   UNL A   1      54.961  26.851  26.774  1.00  0.00     0.055 A 
ATOM     75  C   UNL A   1      54.709  26.725  24.389  1.00  0.00     0.041 A 
ATOM     76  F   UNL A   1      52.988  27.910  23.333  1.00  0.00    -0.206 F 
ATOM     77  C   UNL A   1      55.417  26.389  25.538  1.00  0.00     0.022 A 
BRANCH  74  78
ATOM     78  S   UNL A   1      55.991  26.652  28.254  1.00  0.00     0.124 S 
ATOM     79  O   UNL A   1      55.402  27.639  29.158  1.00  0.00    -0.237 OA
ATOM     80  O   UNL A   1      55.773  25.255  28.605  1.00  0.00    -0.237 OA
ATOM     81  O   UNL A   1      57.336  26.978  27.782  1.00  0.00    -0.744 OA
ENDBRANCH  74  78
ENDBRANCH  57  71
BRANCH  58  82
ATOM     82  C   UNL A   1      44.936  33.746  26.777  1.00  0.00     0.023 A 
ATOM     83  C   UNL A   1      44.529  34.105  28.072  1.00  0.00     0.031 A 
ATOM     84  C   UNL A   1      44.164  34.205  25.695  1.00  0.00     0.131 A 
ATOM     85  C   UNL A   1      43.363  34.866  28.254  1.00  0.00     0.055 A 
ATOM     86  C   UNL A   1      43.037  35.006  25.877  1.00  0.00     0.041 A 
ATOM     87  F   UNL A   1      44.511  33.897  24.434  1.00  0.00    -0.206 F 
ATOM     88  C   UNL A   1      42.623  35.332  27.165  1.00  0.00     0.022 A 
BRANCH  85  89
ATOM     89  S   UNL A   1      42.780  35.180  29.943  1.00  0.00     0.124 S 
ATOM     90  O   UNL A   1      43.485  34.150  30.698  1.00  0.00    -0.237 OA
ATOM     91  O   UNL A   1      43.222  36.552  30.165  1.00  0.00    -0.237 OA
ATOM     92  O   UNL A   1      41.333  35.003  29.843  1.00  0.00    -0.744 OA
ENDBRANCH  85  89
ENDBRANCH  58  82
BRANCH  70  93
ATOM     93  C   UNL A   1      51.657  35.120  25.489  1.00  0.00     0.023 A 
ATOM     94  C   UNL A   1      51.892  36.043  26.525  1.00  0.00     0.031 A 
ATOM     95  C   UNL A   1      52.092  35.460  24.195  1.00  0.00     0.131 A 
ATOM     96  C   UNL A   1      52.462  37.292  26.234  1.00  0.00     0.055 A 
ATOM     97  C   UNL A   1      52.733  36.671  23.927  1.00  0.00     0.041 A 
ATOM     98  F   UNL A   1      51.893  34.623  23.164  1.00  0.00    -0.206 F 
ATOM     99  C   UNL A   1      52.901  37.604  24.946  1.00  0.00     0.022 A 
BRANCH  96 100
ATOM    100  S   UNL A   1      52.479  38.561  27.531  1.00  0.00     0.124 S 
ATOM    101  O   UNL A   1      53.288  39.610  26.917  1.00  0.00    -0.237 OA
ATOM    102  O   UNL A   1      51.060  38.861  27.691  1.00  0.00    -0.237 OA
ATOM    103  O   UNL A   1      53.102  37.881  28.666  1.00  0.00    -0.744 OA
ENDBRANCH  96 100
ENDBRANCH  70  93
ENDBRANCH  44  45
ENDBRANCH  36  39
ENDBRANCH  34  35
ENDBRANCH   1  34
TORSDOF 17
ENDMDL
MODEL 3
REMARK VINA RESULT:      -9.9      7.450     11.191
REMARK SMILES CS(=O)(=O)Nc1ccc(-c2cc(Cl)cc3c2O[C@H](C(F)(F)F)C(C(=O)NCCCNC(=O)c2ccc(-c4c5nc(c(-c6cc(S(=O)(=O)[O-])ccc6F)c6ccc([nH]6)c(-c6cc(S(=O)(=O)[O-])ccc6F)c6nc(c(-c7cc(S(=O)(=O)[O-])ccc7F)c7ccc4[nH]7)C=C6)C=C5)cc2)=C3)cc1
REMARK SMILES IDX 28 1 27 2 26 3 24 4 25 5 23 7 10 8 11 9 16 10 12 11 15 12
REMARK SMILES IDX 17 13 13 14 14 15 96 16 18 17 9 18 6 19 7 20 98 21 8 22
REMARK SMILES IDX 97 23 5 24 2 26 1 27 3 28 4 29 19 30 20 31 21 32 22 33 29 34
REMARK SMILES IDX 30 35 31 36 32 38 33 39 34 40 95 41 35 42 94 43 36 44 37 45
REMARK SMILES IDX 38 46 88 47 39 48 93 49 87 50 89 51 40 52 92 53 86 54 85 55
REMARK SMILES IDX 41 57 73 58 53 59 72 60 54 61 57 62 71 63 90 64 55 65 56 66
REMARK SMILES IDX 70 68 91 69 58 70 42 71 43 72 51 73 44 74 50 75 52 76 49 77
REMARK SMILES IDX 45 78 46 79 47 80 48 81 74 82 75 83 83 84 76 85 82 86 84 87
REMARK SMILES IDX 81 88 77 89 78 90 79 91 80 92 59 93 60 94 68 95 61 96 67 97
REMARK SMILES IDX 69 98 66 99 62 100 63 101 64 102 65 103
REMARK H PARENT 26 6 5 25 30 37 89 56 57 67
REMARK Flexibility Score: inf
ROOT
ATOM      1  C   UNL A   1      38.624  32.437  34.616  1.00  0.00     0.042 C 
ENDROOT
BRANCH   1   2
ATOM      2  C   UNL A   1      37.566  31.391  34.251  1.00  0.00     0.118 C 
BRANCH   2   3
ATOM      3  N   UNL A   1      38.207  30.163  33.820  1.00  0.00    -0.352 N 
ATOM      4  C   UNL A   1      38.048  29.530  32.632  1.00  0.00     0.251 C 
ATOM      5  O   UNL A   1      38.009  28.305  32.596  1.00  0.00    -0.270 OA
ATOM      6  H   UNL A   1      38.824  29.743  34.463  1.00  0.00     0.163 HD
BRANCH   4   7
ATOM      7  C   UNL A   1      38.089  30.371  31.401  1.00  0.00     0.067 C 
ATOM      8  C   UNL A   1      40.463  28.021  29.075  1.00  0.00     0.026 A 
ATOM      9  C   UNL A   1      41.555  27.617  29.895  1.00  0.00     0.033 A 
ATOM     10  C   UNL A   1      39.673  29.070  29.577  1.00  0.00     0.135 A 
ATOM     11  C   UNL A   1      41.935  28.302  31.046  1.00  0.00     0.042 A 
ATOM     12  C   UNL A   1      40.151  29.829  30.679  1.00  0.00     0.019 A 
ATOM     13  O   UNL A   1      38.405  29.374  29.097  1.00  0.00    -0.475 OA
ATOM     14  Cl  UNL A   1      43.241  27.716  31.997  1.00  0.00    -0.084 Cl
ATOM     15  C   UNL A   1      41.280  29.459  31.405  1.00  0.00     0.032 A 
ATOM     16  C   UNL A   1      39.300  30.924  31.192  1.00  0.00     0.025 C 
ATOM     17  C   UNL A   1      37.433  29.766  30.169  1.00  0.00     0.314 C 
BRANCH   8  18
ATOM     18  C   UNL A   1      40.454  27.389  27.722  1.00  0.00    -0.014 A 
ATOM     19  C   UNL A   1      41.528  25.582  25.787  1.00  0.00     0.048 A 
ATOM     20  C   UNL A   1      40.494  25.190  26.640  1.00  0.00     0.027 A 
ATOM     21  C   UNL A   1      41.905  26.923  25.791  1.00  0.00     0.027 A 
ATOM     22  C   UNL A   1      39.935  26.087  27.565  1.00  0.00     0.011 A 
ATOM     23  C   UNL A   1      41.367  27.821  26.742  1.00  0.00     0.011 A 
BRANCH  19  24
ATOM     24  N   UNL A   1      42.274  24.527  25.177  1.00  0.00    -0.284 N 
ATOM     25  H   UNL A   1      42.553  24.676  24.244  1.00  0.00     0.180 HD
BRANCH  24  26
ATOM     26  S   UNL A   1      42.727  23.081  25.857  1.00  0.00     0.229 S 
ATOM     27  C   UNL A   1      44.204  22.629  24.963  1.00  0.00     0.183 C 
ATOM     28  O   UNL A   1      41.705  22.083  25.625  1.00  0.00    -0.207 OA
ATOM     29  O   UNL A   1      43.144  23.418  27.203  1.00  0.00    -0.207 OA
ENDBRANCH  24  26
ENDBRANCH  19  24
ENDBRANCH   8  18
BRANCH  17  30
ATOM     30  C   UNL A   1      36.379  30.777  29.656  1.00  0.00     0.429 C 
ATOM     31  F   UNL A   1      35.622  31.290  30.653  1.00  0.00    -0.167 F 
ATOM     32  F   UNL A   1      36.964  31.812  29.009  1.00  0.00    -0.167 F 
ATOM     33  F   UNL A   1      35.511  30.220  28.769  1.00  0.00    -0.167 F 
ENDBRANCH  17  30
ENDBRANCH   4   7
ENDBRANCH   2   3
ENDBRANCH   1   2
BRANCH   1  34
ATOM     34  C   UNL A   1      38.449  33.793  33.932  1.00  0.00     0.118 C 
BRANCH  34  35
ATOM     35  N   UNL A   1      37.403  33.790  32.924  1.00  0.00    -0.352 N 
ATOM     36  C   UNL A   1      37.478  34.097  31.586  1.00  0.00     0.251 C 
ATOM     37  H   UNL A   1      36.511  33.529  33.245  1.00  0.00     0.163 HD
ATOM     38  O   UNL A   1      36.442  34.203  30.936  1.00  0.00    -0.269 OA
BRANCH  36  39
ATOM     39  C   UNL A   1      38.792  34.330  30.947  1.00  0.00     0.039 A 
ATOM     40  C   UNL A   1      39.935  34.347  31.749  1.00  0.00     0.014 A 
ATOM     41  C   UNL A   1      38.904  34.538  29.569  1.00  0.00     0.014 A 
ATOM     42  C   UNL A   1      41.191  34.514  31.162  1.00  0.00     0.010 A 
ATOM     43  C   UNL A   1      40.162  34.609  28.975  1.00  0.00     0.010 A 
ATOM     44  C   UNL A   1      41.321  34.611  29.765  1.00  0.00    -0.014 A 
BRANCH  44  45
ATOM     45  C   UNL A   1      42.662  34.732  29.133  1.00  0.00     0.031 A 
ATOM     46  C   UNL A   1      43.186  36.077  28.707  1.00  0.00     0.074 A 
ATOM     47  C   UNL A   1      43.394  33.621  28.910  1.00  0.00     0.049 A 
ATOM     48  N   UNL A   1      44.325  36.382  28.138  1.00  0.00    -0.248 NA
ATOM     49  C   UNL A   1      42.296  37.229  28.915  1.00  0.00     0.031 C 
ATOM     50  C   UNL A   1      42.967  32.254  29.216  1.00  0.00     0.029 A 
ATOM     51  N   UNL A   1      44.647  33.462  28.373  1.00  0.00    -0.354 N 
ATOM     52  C   UNL A   1      44.282  37.754  27.908  1.00  0.00     0.074 A 
ATOM     53  C   UNL A   1      42.973  38.205  28.330  1.00  0.00     0.031 C 
ATOM     54  C   UNL A   1      43.955  31.402  28.901  1.00  0.00     0.029 A 
ATOM     55  C   UNL A   1      45.068  32.152  28.328  1.00  0.00     0.049 A 
ATOM     56  H   UNL A   1      45.194  34.214  28.051  1.00  0.00     0.167 HD
ATOM     57  C   UNL A   1      45.250  38.566  27.415  1.00  0.00     0.034 A 
ATOM     58  C   UNL A   1      46.216  31.614  27.872  1.00  0.00     0.034 A 
ATOM     59  C   UNL A   1      46.553  38.096  27.007  1.00  0.00     0.049 A 
ATOM     60  C   UNL A   1      47.283  32.533  27.336  1.00  0.00     0.074 A 
ATOM     61  C   UNL A   1      47.635  38.834  26.559  1.00  0.00     0.029 A 
ATOM     62  N   UNL A   1      46.949  36.763  26.984  1.00  0.00    -0.354 N 
ATOM     63  N   UNL A   1      47.257  33.840  27.197  1.00  0.00    -0.248 NA
ATOM     64  C   UNL A   1      48.541  31.907  26.918  1.00  0.00     0.031 C 
ATOM     65  C   UNL A   1      48.649  37.944  26.186  1.00  0.00     0.029 A 
ATOM     66  C   UNL A   1      48.242  36.655  26.492  1.00  0.00     0.049 A 
ATOM     67  H   UNL A   1      46.392  36.005  27.274  1.00  0.00     0.167 HD
ATOM     68  C   UNL A   1      48.508  34.193  26.697  1.00  0.00     0.074 A 
ATOM     69  C   UNL A   1      49.268  32.964  26.589  1.00  0.00     0.031 C 
ATOM     70  C   UNL A   1      48.984  35.421  26.362  1.00  0.00     0.034 A 
BRANCH  57  71
ATOM     71  C   UNL A   1      44.916  40.035  27.262  1.00  0.00     0.023 A 
ATOM     72  C   UNL A   1      44.360  40.553  26.078  1.00  0.00     0.031 A 
ATOM     73  C   UNL A   1      45.201  40.941  28.300  1.00  0.00     0.131 A 
ATOM     74  C   UNL A   1      44.198  41.939  25.924  1.00  0.00     0.055 A 
ATOM     75  C   UNL A   1      44.947  42.310  28.176  1.00  0.00     0.041 A 
ATOM     76  F   UNL A   1      45.753  40.517  29.448  1.00  0.00    -0.206 F 
ATOM     77  C   UNL A   1      44.461  42.818  26.976  1.00  0.00     0.022 A 
BRANCH  74  78
ATOM     78  S   UNL A   1      43.811  42.586  24.274  1.00  0.00     0.124 S 
ATOM     79  O   UNL A   1      44.940  42.090  23.490  1.00  0.00    -0.237 OA
ATOM     80  O   UNL A   1      42.519  41.974  23.990  1.00  0.00    -0.237 OA
ATOM     81  O   UNL A   1      43.789  44.034  24.471  1.00  0.00    -0.744 OA
ENDBRANCH  74  78
ENDBRANCH  57  71
BRANCH  58  82
ATOM     82  C   UNL A   1      46.415  30.136  27.897  1.00  0.00     0.023 A 
ATOM     83  C   UNL A   1      46.182  29.345  26.760  1.00  0.00     0.031 A 
ATOM     84  C   UNL A   1      46.825  29.486  29.075  1.00  0.00     0.131 A 
ATOM     85  C   UNL A   1      46.322  27.950  26.836  1.00  0.00     0.055 A 
ATOM     86  C   UNL A   1      47.016  28.105  29.132  1.00  0.00     0.041 A 
ATOM     87  F   UNL A   1      47.069  30.194  30.191  1.00  0.00    -0.206 F 
ATOM     88  C   UNL A   1      46.752  27.327  28.009  1.00  0.00     0.022 A 
BRANCH  85  89
ATOM     89  S   UNL A   1      45.862  26.947  25.395  1.00  0.00     0.124 S 
ATOM     90  O   UNL A   1      47.162  26.687  24.787  1.00  0.00    -0.237 OA
ATOM     91  O   UNL A   1      45.206  25.804  26.020  1.00  0.00    -0.237 OA
ATOM     92  O   UNL A   1      44.980  27.829  24.634  1.00  0.00    -0.744 OA
ENDBRANCH  85  89
ENDBRANCH  58  82
BRANCH  70  93
ATOM     93  C   UNL A   1      50.416  35.487  25.878  1.00  0.00     0.023 A 
ATOM     94  C   UNL A   1      51.500  35.229  26.736  1.00  0.00     0.031 A 
ATOM     95  C   UNL A   1      50.701  35.859  24.552  1.00  0.00     0.131 A 
ATOM     96  C   UNL A   1      52.814  35.431  26.285  1.00  0.00     0.055 A 
ATOM     97  C   UNL A   1      52.012  35.978  24.086  1.00  0.00     0.041 A 
ATOM     98  F   UNL A   1      49.709  36.122  23.686  1.00  0.00    -0.206 F 
ATOM     99  C   UNL A   1      53.077  35.785  24.960  1.00  0.00     0.022 A 
BRANCH  96 100
ATOM    100  S   UNL A   1      54.165  35.376  27.495  1.00  0.00     0.124 S 
ATOM    101  O   UNL A   1      55.015  36.475  27.048  1.00  0.00    -0.237 OA
ATOM    102  O   UNL A   1      53.462  35.585  28.755  1.00  0.00    -0.237 OA
ATOM    103  O   UNL A   1      54.731  34.040  27.313  1.00  0.00    -0.744 OA
ENDBRANCH  96 100
ENDBRANCH  70  93
ENDBRANCH  44  45
ENDBRANCH  36  39
ENDBRANCH  34  35
ENDBRANCH   1  34
TORSDOF 17
ENDMDL
