MODEL 1
REMARK VINA RESULT:     -13.6      0.000      0.000
REMARK SMILES Cc1cccc(-c2ccccc2C(=O)N2CC[C@H](O)C[C@@H]2C(=O)NCCCNC(=O)c2ccc(-c3c4nc(c(-c5cc(S(=O)(=O)[O-])ccc5F)c5ccc([nH]5)c(-c5cc(S(=O)(=O)[O-])ccc5F)c5nc(c(-c6cc(S(=O)(=O)[O-])ccc6F)c6ccc3[nH]6)C=C5)C=C4)cc2)c1
REMARK SMILES IDX 26 1 25 2 24 3 22 4 23 5 21 7 15 8 16 9 17 10 20 11 18 12
REMARK SMILES IDX 13 13 14 14 12 15 7 16 8 17 9 18 11 19 10 20 6 21 1 22 2 23
REMARK SMILES IDX 3 24 94 25 4 26 5 27 19 28 27 30 28 31 29 32 30 34 31 35
REMARK SMILES IDX 32 36 93 37 33 38 92 39 34 40 35 41 36 42 86 43 37 44 91 45
REMARK SMILES IDX 85 46 87 47 38 48 90 49 84 50 83 51 39 53 71 54 51 55 70 56
REMARK SMILES IDX 52 57 55 58 69 59 88 60 53 61 54 62 68 64 89 65 56 66 40 67
REMARK SMILES IDX 41 68 49 69 42 70 48 71 50 72 47 73 43 74 44 75 45 76 46 77
REMARK SMILES IDX 72 78 73 79 81 80 74 81 80 82 82 83 79 84 75 85 76 86 77 87
REMARK SMILES IDX 78 88 57 89 58 90 66 91 59 92 65 93 67 94 64 95 60 96 61 97
REMARK SMILES IDX 62 98 63 99
REMARK H PARENT 24 6 19 29 28 33 87 52 55 63
REMARK Flexibility Score: inf
ROOT
ATOM      1  C   UNL A   1      33.239  31.357  27.461  1.00  0.00     0.042 C 
ENDROOT
BRANCH   1   2
ATOM      2  C   UNL A   1      32.379  30.374  26.673  1.00  0.00     0.117 C 
BRANCH   2   3
ATOM      3  N   UNL A   1      32.884  30.151  25.321  1.00  0.00    -0.354 N 
ATOM      4  C   UNL A   1      32.632  29.157  24.421  1.00  0.00     0.242 C 
ATOM      5  O   UNL A   1      33.260  29.161  23.354  1.00  0.00    -0.273 OA
ATOM      6  H   UNL A   1      33.515  30.838  25.003  1.00  0.00     0.163 HD
BRANCH   4   7
ATOM      7  C   UNL A   1      31.678  27.983  24.755  1.00  0.00     0.177 C 
ATOM      8  N   UNL A   1      32.333  26.694  24.458  1.00  0.00    -0.326 N 
ATOM      9  C   UNL A   1      32.450  26.322  23.045  1.00  0.00     0.123 C 
ATOM     10  C   UNL A   1      31.086  26.323  22.368  1.00  0.00     0.053 C 
ATOM     11  C   UNL A   1      30.336  28.117  24.012  1.00  0.00     0.067 C 
ATOM     12  C   UNL A   1      30.349  27.644  22.556  1.00  0.00     0.118 C 
BRANCH   8  13
ATOM     13  C   UNL A   1      32.842  25.969  25.536  1.00  0.00     0.255 C 
ATOM     14  O   UNL A   1      33.856  26.337  26.128  1.00  0.00    -0.269 OA
BRANCH  13  15
ATOM     15  C   UNL A   1      32.257  24.642  25.906  1.00  0.00     0.047 A 
ATOM     16  C   UNL A   1      32.871  23.429  25.517  1.00  0.00    -0.006 A 
ATOM     17  C   UNL A   1      32.145  22.231  25.691  1.00  0.00     0.009 A 
ATOM     18  C   UNL A   1      30.859  22.224  26.231  1.00  0.00     0.001 A 
ATOM     19  C   UNL A   1      30.952  24.620  26.442  1.00  0.00     0.014 A 
ATOM     20  C   UNL A   1      30.265  23.419  26.616  1.00  0.00     0.001 A 
BRANCH  16  21
ATOM     21  C   UNL A   1      34.215  23.339  24.918  1.00  0.00    -0.017 A 
ATOM     22  C   UNL A   1      37.882  23.414  25.991  1.00  0.00     0.044 C 
ATOM     23  C   UNL A   1      36.650  23.304  25.144  1.00  0.00    -0.051 A 
ATOM     24  C   UNL A   1      36.771  23.104  23.764  1.00  0.00     0.003 A 
ATOM     25  C   UNL A   1      35.372  23.421  25.711  1.00  0.00     0.012 A 
ATOM     26  C   UNL A   1      35.634  23.022  22.963  1.00  0.00     0.001 A 
ATOM     27  C   UNL A   1      34.367  23.137  23.536  1.00  0.00     0.009 A 
ENDBRANCH  16  21
ENDBRANCH  13  15
ENDBRANCH   8  13
BRANCH  12  28
ATOM     28  O   UNL A   1      30.864  28.625  21.664  1.00  0.00    -0.393 OA
ATOM     29  H   UNL A   1      30.890  29.486  22.110  1.00  0.00     0.210 HD
ENDBRANCH  12  28
ENDBRANCH   4   7
ENDBRANCH   2   3
ENDBRANCH   1   2
BRANCH   1  30
ATOM     30  C   UNL A   1      34.564  30.781  27.947  1.00  0.00     0.118 C 
BRANCH  30  31
ATOM     31  N   UNL A   1      35.194  31.539  29.023  1.00  0.00    -0.352 N 
ATOM     32  C   UNL A   1      36.304  31.215  29.792  1.00  0.00     0.251 C 
ATOM     33  H   UNL A   1      34.772  32.403  29.234  1.00  0.00     0.163 HD
ATOM     34  O   UNL A   1      36.670  31.922  30.710  1.00  0.00    -0.269 OA
BRANCH  32  35
ATOM     35  C   UNL A   1      37.127  30.044  29.390  1.00  0.00     0.039 A 
ATOM     36  C   UNL A   1      37.288  29.022  30.333  1.00  0.00     0.014 A 
ATOM     37  C   UNL A   1      37.902  30.067  28.237  1.00  0.00     0.014 A 
ATOM     38  C   UNL A   1      38.392  28.178  30.244  1.00  0.00     0.010 A 
ATOM     39  C   UNL A   1      39.050  29.301  28.199  1.00  0.00     0.010 A 
ATOM     40  C   UNL A   1      39.329  28.407  29.239  1.00  0.00    -0.014 A 
BRANCH  40  41
ATOM     41  C   UNL A   1      40.688  27.874  29.273  1.00  0.00     0.031 A 
ATOM     42  C   UNL A   1      40.982  26.513  28.789  1.00  0.00     0.074 A 
ATOM     43  C   UNL A   1      41.703  28.676  29.660  1.00  0.00     0.049 A 
ATOM     44  N   UNL A   1      42.038  25.843  29.106  1.00  0.00    -0.248 NA
ATOM     45  C   UNL A   1      40.074  25.776  27.922  1.00  0.00     0.031 C 
ATOM     46  C   UNL A   1      43.135  28.440  29.504  1.00  0.00     0.029 A 
ATOM     47  N   UNL A   1      41.624  29.775  30.512  1.00  0.00    -0.354 N 
ATOM     48  C   UNL A   1      42.102  24.744  28.283  1.00  0.00     0.074 A 
ATOM     49  C   UNL A   1      40.822  24.713  27.613  1.00  0.00     0.031 C 
ATOM     50  C   UNL A   1      43.793  29.158  30.427  1.00  0.00     0.029 A 
ATOM     51  C   UNL A   1      42.801  29.769  31.290  1.00  0.00     0.049 A 
ATOM     52  H   UNL A   1      40.890  30.430  30.562  1.00  0.00     0.167 HD
ATOM     53  C   UNL A   1      43.280  24.063  28.175  1.00  0.00     0.034 A 
ATOM     54  C   UNL A   1      42.725  29.632  32.648  1.00  0.00     0.034 A 
ATOM     55  C   UNL A   1      44.295  24.580  29.097  1.00  0.00     0.049 A 
ATOM     56  C   UNL A   1      43.377  28.365  33.174  1.00  0.00     0.074 A 
ATOM     57  C   UNL A   1      45.410  25.393  28.972  1.00  0.00     0.029 A 
ATOM     58  N   UNL A   1      44.067  24.461  30.455  1.00  0.00    -0.354 N 
ATOM     59  N   UNL A   1      43.954  27.466  32.421  1.00  0.00    -0.248 NA
ATOM     60  C   UNL A   1      43.358  27.966  34.582  1.00  0.00     0.031 C 
ATOM     61  C   UNL A   1      45.818  25.790  30.282  1.00  0.00     0.029 A 
ATOM     62  C   UNL A   1      44.967  25.198  31.198  1.00  0.00     0.049 A 
ATOM     63  H   UNL A   1      43.348  23.914  30.848  1.00  0.00     0.167 HD
ATOM     64  C   UNL A   1      44.296  26.378  33.180  1.00  0.00     0.074 A 
ATOM     65  C   UNL A   1      43.918  26.745  34.534  1.00  0.00     0.031 C 
ATOM     66  C   UNL A   1      44.812  25.233  32.645  1.00  0.00     0.034 A 
BRANCH  53  67
ATOM     67  C   UNL A   1      43.596  23.073  27.075  1.00  0.00     0.023 A 
ATOM     68  C   UNL A   1      42.978  21.805  27.100  1.00  0.00     0.031 A 
ATOM     69  C   UNL A   1      44.495  23.281  26.012  1.00  0.00     0.131 A 
ATOM     70  C   UNL A   1      43.332  20.796  26.186  1.00  0.00     0.055 A 
ATOM     71  C   UNL A   1      44.897  22.258  25.141  1.00  0.00     0.041 A 
ATOM     72  F   UNL A   1      44.980  24.493  25.721  1.00  0.00    -0.206 F 
ATOM     73  C   UNL A   1      44.323  21.001  25.233  1.00  0.00     0.022 A 
BRANCH  70  74
ATOM     74  S   UNL A   1      42.462  19.206  26.252  1.00  0.00     0.124 S 
ATOM     75  O   UNL A   1      41.276  19.467  25.444  1.00  0.00    -0.237 OA
ATOM     76  O   UNL A   1      43.446  18.293  25.683  1.00  0.00    -0.237 OA
ATOM     77  O   UNL A   1      42.204  19.022  27.681  1.00  0.00    -0.744 OA
ENDBRANCH  70  74
ENDBRANCH  53  67
BRANCH  54  78
ATOM     78  C   UNL A   1      41.517  30.318  33.207  1.00  0.00     0.023 A 
ATOM     79  C   UNL A   1      41.566  31.731  33.266  1.00  0.00     0.031 A 
ATOM     80  C   UNL A   1      40.258  29.706  33.246  1.00  0.00     0.131 A 
ATOM     81  C   UNL A   1      40.388  32.484  33.149  1.00  0.00     0.055 A 
ATOM     82  C   UNL A   1      39.081  30.467  33.236  1.00  0.00     0.041 A 
ATOM     83  F   UNL A   1      40.139  28.373  33.155  1.00  0.00    -0.206 F 
ATOM     84  C   UNL A   1      39.142  31.858  33.133  1.00  0.00     0.022 A 
BRANCH  81  85
ATOM     85  S   UNL A   1      40.528  34.242  32.690  1.00  0.00     0.124 S 
ATOM     86  O   UNL A   1      41.507  34.200  31.611  1.00  0.00    -0.237 OA
ATOM     87  O   UNL A   1      39.160  34.588  32.303  1.00  0.00    -0.237 OA
ATOM     88  O   UNL A   1      40.972  34.891  33.922  1.00  0.00    -0.744 OA
ENDBRANCH  81  85
ENDBRANCH  54  78
BRANCH  66  89
ATOM     89  C   UNL A   1      45.190  24.029  33.470  1.00  0.00     0.023 A 
ATOM     90  C   UNL A   1      46.502  23.826  33.923  1.00  0.00     0.031 A 
ATOM     91  C   UNL A   1      44.261  23.001  33.749  1.00  0.00     0.131 A 
ATOM     92  C   UNL A   1      46.834  22.674  34.659  1.00  0.00     0.055 A 
ATOM     93  C   UNL A   1      44.617  21.817  34.399  1.00  0.00     0.041 A 
ATOM     94  F   UNL A   1      42.961  23.123  33.444  1.00  0.00    -0.206 F 
ATOM     95  C   UNL A   1      45.910  21.651  34.868  1.00  0.00     0.022 A 
BRANCH  92  96
ATOM     96  S   UNL A   1      48.477  22.569  35.415  1.00  0.00     0.124 S 
ATOM     97  O   UNL A   1      49.353  22.426  34.257  1.00  0.00    -0.237 OA
ATOM     98  O   UNL A   1      48.558  23.848  36.117  1.00  0.00    -0.237 OA
ATOM     99  O   UNL A   1      48.386  21.395  36.278  1.00  0.00    -0.744 OA
ENDBRANCH  92  96
ENDBRANCH  66  89
ENDBRANCH  40  41
ENDBRANCH  32  35
ENDBRANCH  30  31
ENDBRANCH   1  30
TORSDOF 17
ENDMDL
MODEL 2
REMARK VINA RESULT:     -13.0      3.992     10.480
REMARK SMILES Cc1cccc(-c2ccccc2C(=O)N2CC[C@H](O)C[C@@H]2C(=O)NCCCNC(=O)c2ccc(-c3c4nc(c(-c5cc(S(=O)(=O)[O-])ccc5F)c5ccc([nH]5)c(-c5cc(S(=O)(=O)[O-])ccc5F)c5nc(c(-c6cc(S(=O)(=O)[O-])ccc6F)c6ccc3[nH]6)C=C5)C=C4)cc2)c1
REMARK SMILES IDX 26 1 25 2 24 3 22 4 23 5 21 7 15 8 16 9 17 10 20 11 18 12
REMARK SMILES IDX 13 13 14 14 12 15 7 16 8 17 9 18 11 19 10 20 6 21 1 22 2 23
REMARK SMILES IDX 3 24 94 25 4 26 5 27 19 28 27 30 28 31 29 32 30 34 31 35
REMARK SMILES IDX 32 36 93 37 33 38 92 39 34 40 35 41 36 42 86 43 37 44 91 45
REMARK SMILES IDX 85 46 87 47 38 48 90 49 84 50 83 51 39 53 71 54 51 55 70 56
REMARK SMILES IDX 52 57 55 58 69 59 88 60 53 61 54 62 68 64 89 65 56 66 40 67
REMARK SMILES IDX 41 68 49 69 42 70 48 71 50 72 47 73 43 74 44 75 45 76 46 77
REMARK SMILES IDX 72 78 73 79 81 80 74 81 80 82 82 83 79 84 75 85 76 86 77 87
REMARK SMILES IDX 78 88 57 89 58 90 66 91 59 92 65 93 67 94 64 95 60 96 61 97
REMARK SMILES IDX 62 98 63 99
REMARK H PARENT 24 6 19 29 28 33 87 52 55 63
REMARK Flexibility Score: inf
ROOT
ATOM      1  C   UNL A   1      38.192  22.551  25.483  1.00  0.00     0.042 C 
ENDROOT
BRANCH   1   2
ATOM      2  C   UNL A   1      37.247  23.692  25.121  1.00  0.00     0.117 C 
BRANCH   2   3
ATOM      3  N   UNL A   1      36.003  23.649  25.885  1.00  0.00    -0.354 N 
ATOM      4  C   UNL A   1      34.714  23.908  25.518  1.00  0.00     0.242 C 
ATOM      5  O   UNL A   1      33.840  23.874  26.393  1.00  0.00    -0.273 OA
ATOM      6  H   UNL A   1      36.113  23.388  26.828  1.00  0.00     0.163 HD
BRANCH   4   7
ATOM      7  C   UNL A   1      34.355  24.351  24.078  1.00  0.00     0.177 C 
ATOM      8  N   UNL A   1      33.110  25.145  24.085  1.00  0.00    -0.326 N 
ATOM      9  C   UNL A   1      31.857  24.408  24.274  1.00  0.00     0.123 C 
ATOM     10  C   UNL A   1      31.709  23.310  23.229  1.00  0.00     0.053 C 
ATOM     11  C   UNL A   1      34.247  23.144  23.128  1.00  0.00     0.067 C 
ATOM     12  C   UNL A   1      32.920  22.385  23.187  1.00  0.00     0.118 C 
BRANCH   8  13
ATOM     13  C   UNL A   1      33.232  26.531  23.975  1.00  0.00     0.255 C 
ATOM     14  O   UNL A   1      33.585  27.056  22.920  1.00  0.00    -0.269 OA
BRANCH  13  15
ATOM     15  C   UNL A   1      33.083  27.406  25.179  1.00  0.00     0.047 A 
ATOM     16  C   UNL A   1      31.928  28.198  25.379  1.00  0.00    -0.006 A 
ATOM     17  C   UNL A   1      31.958  29.172  26.400  1.00  0.00     0.009 A 
ATOM     18  C   UNL A   1      33.086  29.361  27.200  1.00  0.00     0.001 A 
ATOM     19  C   UNL A   1      34.219  27.617  25.989  1.00  0.00     0.014 A 
ATOM     20  C   UNL A   1      34.214  28.576  27.001  1.00  0.00     0.001 A 
BRANCH  16  21
ATOM     21  C   UNL A   1      30.700  28.086  24.571  1.00  0.00    -0.017 A 
ATOM     22  C   UNL A   1      28.756  30.079  21.954  1.00  0.00     0.044 C 
ATOM     23  C   UNL A   1      29.168  28.982  22.889  1.00  0.00    -0.051 A 
ATOM     24  C   UNL A   1      28.384  27.828  22.994  1.00  0.00     0.003 A 
ATOM     25  C   UNL A   1      30.321  29.103  23.679  1.00  0.00     0.012 A 
ATOM     26  C   UNL A   1      28.744  26.811  23.876  1.00  0.00     0.001 A 
ATOM     27  C   UNL A   1      29.894  26.939  24.656  1.00  0.00     0.009 A 
ENDBRANCH  16  21
ENDBRANCH  13  15
ENDBRANCH   8  13
BRANCH  12  28
ATOM     28  O   UNL A   1      32.865  21.456  24.263  1.00  0.00    -0.393 OA
ATOM     29  H   UNL A   1      33.318  21.829  25.036  1.00  0.00     0.210 HD
ENDBRANCH  12  28
ENDBRANCH   4   7
ENDBRANCH   2   3
ENDBRANCH   1   2
BRANCH   1  30
ATOM     30  C   UNL A   1      38.993  22.782  26.758  1.00  0.00     0.118 C 
BRANCH  30  31
ATOM     31  N   UNL A   1      40.418  23.007  26.544  1.00  0.00    -0.352 N 
ATOM     32  C   UNL A   1      41.118  24.205  26.479  1.00  0.00     0.251 C 
ATOM     33  H   UNL A   1      40.962  22.194  26.428  1.00  0.00     0.163 HD
ATOM     34  O   UNL A   1      42.306  24.235  26.220  1.00  0.00    -0.269 OA
BRANCH  32  35
ATOM     35  C   UNL A   1      40.416  25.457  26.866  1.00  0.00     0.039 A 
ATOM     36  C   UNL A   1      40.728  26.614  26.142  1.00  0.00     0.014 A 
ATOM     37  C   UNL A   1      39.676  25.539  28.039  1.00  0.00     0.014 A 
ATOM     38  C   UNL A   1      40.521  27.862  26.725  1.00  0.00     0.010 A 
ATOM     39  C   UNL A   1      39.562  26.765  28.663  1.00  0.00     0.010 A 
ATOM     40  C   UNL A   1      40.049  27.917  28.035  1.00  0.00    -0.014 A 
BRANCH  40  41
ATOM     41  C   UNL A   1      40.165  29.102  28.879  1.00  0.00     0.031 A 
ATOM     42  C   UNL A   1      39.104  30.125  28.904  1.00  0.00     0.074 A 
ATOM     43  C   UNL A   1      41.214  29.211  29.725  1.00  0.00     0.049 A 
ATOM     44  N   UNL A   1      39.272  31.335  29.316  1.00  0.00    -0.248 NA
ATOM     45  C   UNL A   1      37.754  29.865  28.423  1.00  0.00     0.031 C 
ATOM     46  C   UNL A   1      41.374  30.152  30.830  1.00  0.00     0.029 A 
ATOM     47  N   UNL A   1      42.471  28.632  29.578  1.00  0.00    -0.354 N 
ATOM     48  C   UNL A   1      38.032  31.916  29.436  1.00  0.00     0.074 A 
ATOM     49  C   UNL A   1      37.129  30.983  28.804  1.00  0.00     0.031 C 
ATOM     50  C   UNL A   1      42.683  30.302  31.081  1.00  0.00     0.029 A 
ATOM     51  C   UNL A   1      43.408  29.571  30.059  1.00  0.00     0.049 A 
ATOM     52  H   UNL A   1      42.669  27.740  29.209  1.00  0.00     0.167 HD
ATOM     53  C   UNL A   1      37.903  33.061  30.168  1.00  0.00     0.034 A 
ATOM     54  C   UNL A   1      44.354  30.090  29.220  1.00  0.00     0.034 A 
ATOM     55  C   UNL A   1      39.200  33.565  30.626  1.00  0.00     0.049 A 
ATOM     56  C   UNL A   1      44.226  31.589  29.005  1.00  0.00     0.074 A 
ATOM     57  C   UNL A   1      39.889  33.549  31.828  1.00  0.00     0.029 A 
ATOM     58  N   UNL A   1      40.113  33.983  29.676  1.00  0.00    -0.354 N 
ATOM     59  N   UNL A   1      43.302  32.336  29.550  1.00  0.00    -0.248 NA
ATOM     60  C   UNL A   1      45.078  32.353  28.093  1.00  0.00     0.031 C 
ATOM     61  C   UNL A   1      41.242  33.928  31.568  1.00  0.00     0.029 A 
ATOM     62  C   UNL A   1      41.364  34.197  30.217  1.00  0.00     0.049 A 
ATOM     63  H   UNL A   1      39.896  34.116  28.724  1.00  0.00     0.167 HD
ATOM     64  C   UNL A   1      43.367  33.602  29.030  1.00  0.00     0.074 A 
ATOM     65  C   UNL A   1      44.509  33.570  28.133  1.00  0.00     0.031 C 
ATOM     66  C   UNL A   1      42.454  34.572  29.327  1.00  0.00     0.034 A 
BRANCH  53  67
ATOM     67  C   UNL A   1      36.585  33.610  30.669  1.00  0.00     0.023 A 
ATOM     68  C   UNL A   1      35.697  34.201  29.746  1.00  0.00     0.031 A 
ATOM     69  C   UNL A   1      36.150  33.619  32.008  1.00  0.00     0.131 A 
ATOM     70  C   UNL A   1      34.521  34.849  30.166  1.00  0.00     0.055 A 
ATOM     71  C   UNL A   1      35.014  34.318  32.436  1.00  0.00     0.041 A 
ATOM     72  F   UNL A   1      36.764  32.901  32.956  1.00  0.00    -0.206 F 
ATOM     73  C   UNL A   1      34.197  34.950  31.514  1.00  0.00     0.022 A 
BRANCH  70  74
ATOM     74  S   UNL A   1      33.408  35.548  28.917  1.00  0.00     0.124 S 
ATOM     75  O   UNL A   1      32.564  36.431  29.714  1.00  0.00    -0.237 OA
ATOM     76  O   UNL A   1      34.341  36.194  28.002  1.00  0.00    -0.237 OA
ATOM     77  O   UNL A   1      32.727  34.371  28.375  1.00  0.00    -0.744 OA
ENDBRANCH  70  74
ENDBRANCH  53  67
BRANCH  54  78
ATOM     78  C   UNL A   1      44.824  29.078  28.223  1.00  0.00     0.023 A 
ATOM     79  C   UNL A   1      45.659  28.047  28.716  1.00  0.00     0.031 A 
ATOM     80  C   UNL A   1      44.160  28.855  27.010  1.00  0.00     0.131 A 
ATOM     81  C   UNL A   1      45.643  26.778  28.119  1.00  0.00     0.055 A 
ATOM     82  C   UNL A   1      44.234  27.615  26.359  1.00  0.00     0.041 A 
ATOM     83  F   UNL A   1      43.325  29.775  26.504  1.00  0.00    -0.206 F 
ATOM     84  C   UNL A   1      44.932  26.555  26.941  1.00  0.00     0.022 A 
BRANCH  81  85
ATOM     85  S   UNL A   1      46.285  25.364  29.074  1.00  0.00     0.124 S 
ATOM     86  O   UNL A   1      46.713  26.002  30.313  1.00  0.00    -0.237 OA
ATOM     87  O   UNL A   1      45.121  24.483  29.175  1.00  0.00    -0.237 OA
ATOM     88  O   UNL A   1      47.355  24.832  28.234  1.00  0.00    -0.744 OA
ENDBRANCH  81  85
ENDBRANCH  54  78
BRANCH  66  89
ATOM     89  C   UNL A   1      42.513  35.968  28.762  1.00  0.00     0.023 A 
ATOM     90  C   UNL A   1      43.028  37.043  29.500  1.00  0.00     0.031 A 
ATOM     91  C   UNL A   1      41.969  36.278  27.494  1.00  0.00     0.131 A 
ATOM     92  C   UNL A   1      43.037  38.342  28.961  1.00  0.00     0.055 A 
ATOM     93  C   UNL A   1      41.896  37.583  27.001  1.00  0.00     0.041 A 
ATOM     94  F   UNL A   1      41.530  35.323  26.662  1.00  0.00    -0.206 F 
ATOM     95  C   UNL A   1      42.440  38.626  27.732  1.00  0.00     0.022 A 
BRANCH  92  96
ATOM     96  S   UNL A   1      43.917  39.649  29.855  1.00  0.00     0.124 S 
ATOM     97  O   UNL A   1      45.011  38.921  30.489  1.00  0.00    -0.237 OA
ATOM     98  O   UNL A   1      44.299  40.544  28.765  1.00  0.00    -0.237 OA
ATOM     99  O   UNL A   1      42.910  40.182  30.768  1.00  0.00    -0.744 OA
ENDBRANCH  92  96
ENDBRANCH  66  89
ENDBRANCH  40  41
ENDBRANCH  32  35
ENDBRANCH  30  31
ENDBRANCH   1  30
TORSDOF 17
ENDMDL
MODEL 3
REMARK VINA RESULT:     -13.0      1.304      2.198
REMARK SMILES Cc1cccc(-c2ccccc2C(=O)N2CC[C@H](O)C[C@@H]2C(=O)NCCCNC(=O)c2ccc(-c3c4nc(c(-c5cc(S(=O)(=O)[O-])ccc5F)c5ccc([nH]5)c(-c5cc(S(=O)(=O)[O-])ccc5F)c5nc(c(-c6cc(S(=O)(=O)[O-])ccc6F)c6ccc3[nH]6)C=C5)C=C4)cc2)c1
REMARK SMILES IDX 26 1 25 2 24 3 22 4 23 5 21 7 15 8 16 9 17 10 20 11 18 12
REMARK SMILES IDX 13 13 14 14 12 15 7 16 8 17 9 18 11 19 10 20 6 21 1 22 2 23
REMARK SMILES IDX 3 24 94 25 4 26 5 27 19 28 27 30 28 31 29 32 30 34 31 35
REMARK SMILES IDX 32 36 93 37 33 38 92 39 34 40 35 41 36 42 86 43 37 44 91 45
REMARK SMILES IDX 85 46 87 47 38 48 90 49 84 50 83 51 39 53 71 54 51 55 70 56
REMARK SMILES IDX 52 57 55 58 69 59 88 60 53 61 54 62 68 64 89 65 56 66 40 67
REMARK SMILES IDX 41 68 49 69 42 70 48 71 50 72 47 73 43 74 44 75 45 76 46 77
REMARK SMILES IDX 72 78 73 79 81 80 74 81 80 82 82 83 79 84 75 85 76 86 77 87
REMARK SMILES IDX 78 88 57 89 58 90 66 91 59 92 65 93 67 94 64 95 60 96 61 97
REMARK SMILES IDX 62 98 63 99
REMARK H PARENT 24 6 19 29 28 33 87 52 55 63
REMARK Flexibility Score: inf
ROOT
ATOM      1  C   UNL A   1      34.034  29.181  27.999  1.00  0.00     0.042 C 
ENDROOT
BRANCH   1   2
ATOM      2  C   UNL A   1      33.017  28.432  27.144  1.00  0.00     0.117 C 
BRANCH   2   3
ATOM      3  N   UNL A   1      33.549  28.071  25.833  1.00  0.00    -0.354 N 
ATOM      4  C   UNL A   1      33.307  26.994  25.031  1.00  0.00     0.242 C 
ATOM      5  O   UNL A   1      33.959  26.886  23.984  1.00  0.00    -0.273 OA
ATOM      6  H   UNL A   1      34.194  28.718  25.463  1.00  0.00     0.163 HD
BRANCH   4   7
ATOM      7  C   UNL A   1      32.335  25.867  25.459  1.00  0.00     0.177 C 
ATOM      8  N   UNL A   1      32.742  24.584  24.851  1.00  0.00    -0.326 N 
ATOM      9  C   UNL A   1      32.465  24.412  23.423  1.00  0.00     0.123 C 
ATOM     10  C   UNL A   1      30.987  24.623  23.126  1.00  0.00     0.053 C 
ATOM     11  C   UNL A   1      30.877  26.216  25.109  1.00  0.00     0.067 C 
ATOM     12  C   UNL A   1      30.477  25.960  23.654  1.00  0.00     0.118 C 
BRANCH   8  13
ATOM     13  C   UNL A   1      33.412  23.671  25.668  1.00  0.00     0.255 C 
ATOM     14  O   UNL A   1      32.915  23.279  26.723  1.00  0.00    -0.269 OA
BRANCH  13  15
ATOM     15  C   UNL A   1      34.816  23.260  25.358  1.00  0.00     0.047 A 
ATOM     16  C   UNL A   1      35.120  21.956  24.900  1.00  0.00    -0.006 A 
ATOM     17  C   UNL A   1      36.476  21.565  24.859  1.00  0.00     0.009 A 
ATOM     18  C   UNL A   1      37.501  22.427  25.253  1.00  0.00     0.001 A 
ATOM     19  C   UNL A   1      35.862  24.115  25.763  1.00  0.00     0.014 A 
ATOM     20  C   UNL A   1      37.194  23.708  25.696  1.00  0.00     0.001 A 
BRANCH  16  21
ATOM     21  C   UNL A   1      34.107  20.969  24.484  1.00  0.00    -0.017 A 
ATOM     22  C   UNL A   1      32.943  17.445  25.394  1.00  0.00     0.044 C 
ATOM     23  C   UNL A   1      33.028  18.790  24.736  1.00  0.00    -0.051 A 
ATOM     24  C   UNL A   1      32.129  19.122  23.716  1.00  0.00     0.003 A 
ATOM     25  C   UNL A   1      34.012  19.716  25.112  1.00  0.00     0.012 A 
ATOM     26  C   UNL A   1      32.211  20.359  23.082  1.00  0.00     0.001 A 
ATOM     27  C   UNL A   1      33.192  21.276  23.464  1.00  0.00     0.009 A 
ENDBRANCH  16  21
ENDBRANCH  13  15
ENDBRANCH   8  13
BRANCH  12  28
ATOM     28  O   UNL A   1      30.868  27.013  22.782  1.00  0.00    -0.393 OA
ATOM     29  H   UNL A   1      31.836  27.044  22.725  1.00  0.00     0.210 HD
ENDBRANCH  12  28
ENDBRANCH   4   7
ENDBRANCH   2   3
ENDBRANCH   1   2
BRANCH   1  30
ATOM     30  C   UNL A   1      34.438  30.542  27.444  1.00  0.00     0.118 C 
BRANCH  30  31
ATOM     31  N   UNL A   1      35.091  31.419  28.410  1.00  0.00    -0.352 N 
ATOM     32  C   UNL A   1      36.198  31.172  29.212  1.00  0.00     0.251 C 
ATOM     33  H   UNL A   1      34.689  32.312  28.508  1.00  0.00     0.163 HD
ATOM     34  O   UNL A   1      36.585  31.985  30.029  1.00  0.00    -0.269 OA
BRANCH  32  35
ATOM     35  C   UNL A   1      36.992  29.941  28.964  1.00  0.00     0.039 A 
ATOM     36  C   UNL A   1      37.175  29.070  30.045  1.00  0.00     0.014 A 
ATOM     37  C   UNL A   1      37.725  29.776  27.795  1.00  0.00     0.014 A 
ATOM     38  C   UNL A   1      38.266  28.204  30.047  1.00  0.00     0.010 A 
ATOM     39  C   UNL A   1      38.862  28.994  27.835  1.00  0.00     0.010 A 
ATOM     40  C   UNL A   1      39.169  28.263  28.988  1.00  0.00    -0.014 A 
BRANCH  40  41
ATOM     41  C   UNL A   1      40.521  27.718  29.056  1.00  0.00     0.031 A 
ATOM     42  C   UNL A   1      40.810  26.343  28.610  1.00  0.00     0.074 A 
ATOM     43  C   UNL A   1      41.538  28.521  29.440  1.00  0.00     0.049 A 
ATOM     44  N   UNL A   1      41.854  25.672  28.959  1.00  0.00    -0.248 NA
ATOM     45  C   UNL A   1      39.908  25.594  27.747  1.00  0.00     0.031 C 
ATOM     46  C   UNL A   1      42.970  28.267  29.312  1.00  0.00     0.029 A 
ATOM     47  N   UNL A   1      41.457  29.641  30.263  1.00  0.00    -0.354 N 
ATOM     48  C   UNL A   1      41.921  24.553  28.164  1.00  0.00     0.074 A 
ATOM     49  C   UNL A   1      40.651  24.517  27.475  1.00  0.00     0.031 C 
ATOM     50  C   UNL A   1      43.621  29.002  30.227  1.00  0.00     0.029 A 
ATOM     51  C   UNL A   1      42.621  29.642  31.060  1.00  0.00     0.049 A 
ATOM     52  H   UNL A   1      40.728  30.303  30.285  1.00  0.00     0.167 HD
ATOM     53  C   UNL A   1      43.093  23.858  28.092  1.00  0.00     0.034 A 
ATOM     54  C   UNL A   1      42.523  29.540  32.420  1.00  0.00     0.034 A 
ATOM     55  C   UNL A   1      44.099  24.388  29.017  1.00  0.00     0.049 A 
ATOM     56  C   UNL A   1      43.154  28.279  32.986  1.00  0.00     0.074 A 
ATOM     57  C   UNL A   1      45.223  25.187  28.890  1.00  0.00     0.029 A 
ATOM     58  N   UNL A   1      43.849  24.305  30.374  1.00  0.00    -0.354 N 
ATOM     59  N   UNL A   1      43.734  27.357  32.264  1.00  0.00    -0.248 NA
ATOM     60  C   UNL A   1      43.110  27.915  34.403  1.00  0.00     0.031 C 
ATOM     61  C   UNL A   1      45.615  25.613  30.196  1.00  0.00     0.029 A 
ATOM     62  C   UNL A   1      44.744  25.051  31.113  1.00  0.00     0.049 A 
ATOM     63  H   UNL A   1      43.118  23.774  30.768  1.00  0.00     0.167 HD
ATOM     64  C   UNL A   1      44.053  26.285  33.055  1.00  0.00     0.074 A 
ATOM     65  C   UNL A   1      43.659  26.688  34.393  1.00  0.00     0.031 C 
ATOM     66  C   UNL A   1      44.567  25.122  32.556  1.00  0.00     0.034 A 
BRANCH  53  67
ATOM     67  C   UNL A   1      43.417  22.839  27.022  1.00  0.00     0.023 A 
ATOM     68  C   UNL A   1      42.784  21.579  27.065  1.00  0.00     0.031 A 
ATOM     69  C   UNL A   1      44.337  23.011  25.969  1.00  0.00     0.131 A 
ATOM     70  C   UNL A   1      43.142  20.544  26.182  1.00  0.00     0.055 A 
ATOM     71  C   UNL A   1      44.741  21.964  25.130  1.00  0.00     0.041 A 
ATOM     72  F   UNL A   1      44.840  24.211  25.658  1.00  0.00    -0.206 F 
ATOM     73  C   UNL A   1      44.151  20.716  25.242  1.00  0.00     0.022 A 
BRANCH  70  74
ATOM     74  S   UNL A   1      42.253  18.966  26.271  1.00  0.00     0.124 S 
ATOM     75  O   UNL A   1      40.938  19.322  25.751  1.00  0.00    -0.237 OA
ATOM     76  O   UNL A   1      43.072  18.104  25.426  1.00  0.00    -0.237 OA
ATOM     77  O   UNL A   1      42.285  18.641  27.697  1.00  0.00    -0.744 OA
ENDBRANCH  70  74
ENDBRANCH  53  67
BRANCH  54  78
ATOM     78  C   UNL A   1      41.313  30.250  32.942  1.00  0.00     0.023 A 
ATOM     79  C   UNL A   1      41.317  31.661  32.840  1.00  0.00     0.031 A 
ATOM     80  C   UNL A   1      40.077  29.611  33.098  1.00  0.00     0.131 A 
ATOM     81  C   UNL A   1      40.113  32.362  32.683  1.00  0.00     0.055 A 
ATOM     82  C   UNL A   1      38.876  30.332  33.046  1.00  0.00     0.041 A 
ATOM     83  F   UNL A   1      39.998  28.273  33.163  1.00  0.00    -0.206 F 
ATOM     84  C   UNL A   1      38.888  31.703  32.785  1.00  0.00     0.022 A 
BRANCH  81  85
ATOM     85  S   UNL A   1      40.179  34.060  32.023  1.00  0.00     0.124 S 
ATOM     86  O   UNL A   1      41.229  34.662  32.835  1.00  0.00    -0.237 OA
ATOM     87  O   UNL A   1      40.499  33.849  30.612  1.00  0.00    -0.237 OA
ATOM     88  O   UNL A   1      38.831  34.575  32.249  1.00  0.00    -0.744 OA
ENDBRANCH  81  85
ENDBRANCH  54  78
BRANCH  66  89
ATOM     89  C   UNL A   1      44.921  23.936  33.415  1.00  0.00     0.023 A 
ATOM     90  C   UNL A   1      46.252  23.617  33.724  1.00  0.00     0.031 A 
ATOM     91  C   UNL A   1      43.934  23.034  33.875  1.00  0.00     0.131 A 
ATOM     92  C   UNL A   1      46.554  22.482  34.497  1.00  0.00     0.055 A 
ATOM     93  C   UNL A   1      44.246  21.859  34.563  1.00  0.00     0.041 A 
ATOM     94  F   UNL A   1      42.626  23.279  33.718  1.00  0.00    -0.206 F 
ATOM     95  C   UNL A   1      45.564  21.580  34.887  1.00  0.00     0.022 A 
BRANCH  92  96
ATOM     96  S   UNL A   1      48.259  22.243  35.061  1.00  0.00     0.124 S 
ATOM     97  O   UNL A   1      48.094  22.023  36.494  1.00  0.00    -0.237 OA
ATOM     98  O   UNL A   1      48.663  21.075  34.283  1.00  0.00    -0.237 OA
ATOM     99  O   UNL A   1      48.923  23.491  34.692  1.00  0.00    -0.744 OA
ENDBRANCH  92  96
ENDBRANCH  66  89
ENDBRANCH  40  41
ENDBRANCH  32  35
ENDBRANCH  30  31
ENDBRANCH   1  30
TORSDOF 17
ENDMDL
