MODEL 1
REMARK VINA RESULT:     -13.5      0.000      0.000
REMARK SMILES O=C(NCCCNC(=O)c1ccccc1-c1ccc(/C=C2/SC(=S)N(Cc3ccccc3)C2=O)o1)c1ccc(-c2c3nc(c(-c4cc(S(=O)(=O)[O-])ccc4F)c4ccc([nH]4)c(-c4cc(S(=O)(=O)[O-])ccc4F)c4nc(c(-c5cc(S(=O)(=O)[O-])ccc5F)c5ccc2[nH]5)C=C4)C=C3)cc1
REMARK SMILES IDX 5 1 4 2 3 3 1 4 2 5 36 7 37 8 98 9 38 10 97 11 39 12 40 13
REMARK SMILES IDX 41 14 91 15 42 16 96 17 90 18 92 19 43 20 95 21 89 22 88 23
REMARK SMILES IDX 44 25 76 26 56 27 75 28 57 29 60 30 74 31 93 32 58 33 59 34
REMARK SMILES IDX 73 36 94 37 61 38 45 39 46 40 54 41 47 42 53 43 55 44 52 45
REMARK SMILES IDX 48 46 49 47 50 48 51 49 77 50 78 51 86 52 79 53 85 54 87 55
REMARK SMILES IDX 84 56 80 57 81 58 82 59 83 60 62 61 63 62 71 63 64 64 70 65
REMARK SMILES IDX 72 66 69 67 65 68 66 69 67 70 68 71 6 72 7 73 8 74 9 76
REMARK SMILES IDX 10 77 11 78 15 79 12 80 14 81 13 82 16 83 17 84 35 85 18 86
REMARK SMILES IDX 19 87 20 88 21 89 22 90 33 91 23 92 25 93 34 94 24 95 26 96
REMARK SMILES IDX 27 97 28 98 32 99 29 100 31 101 30 102
REMARK H PARENT 3 6 92 24 60 35 7 75
REMARK Flexibility Score: inf
ROOT
ATOM      1  C   UNL A   1      31.386  31.247  26.769  1.00  0.00     0.042 C 
ENDROOT
BRANCH   1   2
ATOM      2  C   UNL A   1      32.573  32.183  26.583  1.00  0.00     0.118 C 
BRANCH   2   3
ATOM      3  N   UNL A   1      32.423  33.473  27.254  1.00  0.00    -0.352 N 
ATOM      4  O   UNL A   1      32.769  35.089  28.783  1.00  0.00    -0.269 OA
ATOM      5  C   UNL A   1      33.161  34.046  28.265  1.00  0.00     0.251 C 
ATOM      6  H   UNL A   1      31.673  34.020  26.930  1.00  0.00     0.163 HD
BRANCH   5   7
ATOM      7  C   UNL A   1      34.394  33.387  28.748  1.00  0.00     0.039 A 
ATOM      8  C   UNL A   1      34.338  32.133  29.357  1.00  0.00     0.014 A 
ATOM      9  C   UNL A   1      35.622  34.041  28.614  1.00  0.00     0.014 A 
ATOM     10  C   UNL A   1      35.450  31.638  30.023  1.00  0.00     0.010 A 
ATOM     11  C   UNL A   1      36.771  33.476  29.176  1.00  0.00     0.010 A 
ATOM     12  C   UNL A   1      36.685  32.292  29.926  1.00  0.00    -0.014 A 
BRANCH  12  13
ATOM     13  C   UNL A   1      37.884  31.700  30.569  1.00  0.00     0.031 A 
ATOM     14  C   UNL A   1      38.710  30.665  29.858  1.00  0.00     0.074 A 
ATOM     15  C   UNL A   1      38.221  32.099  31.811  1.00  0.00     0.049 A 
ATOM     16  N   UNL A   1      39.721  29.964  30.304  1.00  0.00    -0.248 NA
ATOM     17  C   UNL A   1      38.339  30.370  28.467  1.00  0.00     0.031 C 
ATOM     18  C   UNL A   1      37.503  33.110  32.591  1.00  0.00     0.029 A 
ATOM     19  N   UNL A   1      39.239  31.704  32.640  1.00  0.00    -0.354 N 
ATOM     20  C   UNL A   1      40.091  29.121  29.261  1.00  0.00     0.074 A 
ATOM     21  C   UNL A   1      39.170  29.380  28.173  1.00  0.00     0.031 C 
ATOM     22  C   UNL A   1      38.109  33.266  33.774  1.00  0.00     0.029 A 
ATOM     23  C   UNL A   1      39.197  32.301  33.877  1.00  0.00     0.049 A 
ATOM     24  H   UNL A   1      39.932  31.055  32.375  1.00  0.00     0.167 HD
ATOM     25  C   UNL A   1      41.105  28.219  29.221  1.00  0.00     0.034 A 
ATOM     26  C   UNL A   1      39.909  32.064  34.994  1.00  0.00     0.034 A 
ATOM     27  C   UNL A   1      42.003  27.980  30.328  1.00  0.00     0.049 A 
ATOM     28  C   UNL A   1      40.978  31.009  34.960  1.00  0.00     0.074 A 
ATOM     29  C   UNL A   1      43.086  27.120  30.392  1.00  0.00     0.029 A 
ATOM     30  N   UNL A   1      41.908  28.586  31.577  1.00  0.00    -0.354 N 
ATOM     31  N   UNL A   1      41.324  30.223  33.967  1.00  0.00    -0.248 NA
ATOM     32  C   UNL A   1      41.753  30.808  36.189  1.00  0.00     0.031 C 
ATOM     33  C   UNL A   1      43.586  27.140  31.698  1.00  0.00     0.029 A 
ATOM     34  C   UNL A   1      42.883  28.086  32.427  1.00  0.00     0.049 A 
ATOM     35  H   UNL A   1      41.245  29.271  31.823  1.00  0.00     0.167 HD
ATOM     36  C   UNL A   1      42.379  29.452  34.442  1.00  0.00     0.074 A 
ATOM     37  C   UNL A   1      42.609  29.868  35.812  1.00  0.00     0.031 C 
ATOM     38  C   UNL A   1      43.098  28.500  33.797  1.00  0.00     0.034 A 
BRANCH  25  39
ATOM     39  C   UNL A   1      41.246  27.383  27.967  1.00  0.00     0.023 A 
ATOM     40  C   UNL A   1      40.802  26.050  27.906  1.00  0.00     0.031 A 
ATOM     41  C   UNL A   1      41.889  27.909  26.831  1.00  0.00     0.131 A 
ATOM     42  C   UNL A   1      41.101  25.261  26.784  1.00  0.00     0.055 A 
ATOM     43  C   UNL A   1      42.094  27.147  25.678  1.00  0.00     0.041 A 
ATOM     44  F   UNL A   1      42.354  29.168  26.830  1.00  0.00    -0.206 F 
ATOM     45  C   UNL A   1      41.720  25.808  25.658  1.00  0.00     0.022 A 
BRANCH  42  46
ATOM     46  S   UNL A   1      40.849  23.467  26.900  1.00  0.00     0.124 S 
ATOM     47  O   UNL A   1      41.243  23.202  28.282  1.00  0.00    -0.237 OA
ATOM     48  O   UNL A   1      39.429  23.328  26.604  1.00  0.00    -0.237 OA
ATOM     49  O   UNL A   1      41.757  22.928  25.890  1.00  0.00    -0.744 OA
ENDBRANCH  42  46
ENDBRANCH  25  39
BRANCH  26  50
ATOM     50  C   UNL A   1      39.571  32.801  36.243  1.00  0.00     0.023 A 
ATOM     51  C   UNL A   1      38.632  32.302  37.156  1.00  0.00     0.031 A 
ATOM     52  C   UNL A   1      40.226  34.008  36.557  1.00  0.00     0.131 A 
ATOM     53  C   UNL A   1      38.361  33.017  38.333  1.00  0.00     0.055 A 
ATOM     54  C   UNL A   1      39.990  34.687  37.752  1.00  0.00     0.041 A 
ATOM     55  F   UNL A   1      41.141  34.521  35.720  1.00  0.00    -0.206 F 
ATOM     56  C   UNL A   1      39.046  34.194  38.646  1.00  0.00     0.022 A 
BRANCH  53  57
ATOM     57  S   UNL A   1      37.058  32.408  39.437  1.00  0.00     0.124 S 
ATOM     58  O   UNL A   1      37.401  30.995  39.551  1.00  0.00    -0.237 OA
ATOM     59  O   UNL A   1      37.269  33.219  40.633  1.00  0.00    -0.237 OA
ATOM     60  O   UNL A   1      35.827  32.695  38.703  1.00  0.00    -0.744 OA
ENDBRANCH  53  57
ENDBRANCH  26  50
BRANCH  38  61
ATOM     61  C   UNL A   1      44.254  27.880  34.543  1.00  0.00     0.023 A 
ATOM     62  C   UNL A   1      44.121  26.684  35.269  1.00  0.00     0.031 A 
ATOM     63  C   UNL A   1      45.521  28.490  34.492  1.00  0.00     0.131 A 
ATOM     64  C   UNL A   1      45.235  26.149  35.937  1.00  0.00     0.055 A 
ATOM     65  C   UNL A   1      46.635  27.923  35.111  1.00  0.00     0.041 A 
ATOM     66  F   UNL A   1      45.700  29.637  33.820  1.00  0.00    -0.206 F 
ATOM     67  C   UNL A   1      46.494  26.749  35.845  1.00  0.00     0.022 A 
BRANCH  64  68
ATOM     68  S   UNL A   1      45.010  24.684  36.983  1.00  0.00     0.124 S 
ATOM     69  O   UNL A   1      43.881  25.080  37.819  1.00  0.00    -0.237 OA
ATOM     70  O   UNL A   1      44.741  23.637  36.002  1.00  0.00    -0.237 OA
ATOM     71  O   UNL A   1      46.287  24.562  37.683  1.00  0.00    -0.744 OA
ENDBRANCH  64  68
ENDBRANCH  38  61
ENDBRANCH  12  13
ENDBRANCH   5   7
ENDBRANCH   2   3
ENDBRANCH   1   2
BRANCH   1  72
ATOM     72  C   UNL A   1      31.652  29.831  26.308  1.00  0.00     0.118 C 
BRANCH  72  73
ATOM     73  N   UNL A   1      32.339  29.726  25.031  1.00  0.00    -0.352 N 
ATOM     74  C   UNL A   1      31.885  29.174  23.859  1.00  0.00     0.252 C 
ATOM     75  H   UNL A   1      33.248  30.100  25.004  1.00  0.00     0.163 HD
ATOM     76  O   UNL A   1      32.572  29.246  22.842  1.00  0.00    -0.269 OA
BRANCH  74  77
ATOM     77  C   UNL A   1      30.604  28.436  23.812  1.00  0.00     0.050 A 
ATOM     78  C   UNL A   1      29.509  29.148  23.301  1.00  0.00     0.014 A 
ATOM     79  C   UNL A   1      30.448  27.111  24.258  1.00  0.00     0.030 A 
ATOM     80  C   UNL A   1      28.263  28.534  23.189  1.00  0.00     0.001 A 
ATOM     81  C   UNL A   1      29.191  26.502  24.122  1.00  0.00     0.013 A 
ATOM     82  C   UNL A   1      28.108  27.208  23.591  1.00  0.00     0.001 A 
BRANCH  79  83
ATOM     83  C   UNL A   1      31.546  26.355  24.835  1.00  0.00     0.135 A 
ATOM     84  C   UNL A   1      31.908  26.024  26.120  1.00  0.00     0.051 A 
ATOM     85  O   UNL A   1      32.531  25.995  23.962  1.00  0.00    -0.457 OA
ATOM     86  C   UNL A   1      33.212  25.490  26.028  1.00  0.00     0.051 A 
ATOM     87  C   UNL A   1      33.576  25.473  24.684  1.00  0.00     0.128 A 
BRANCH  87  88
ATOM     88  C   UNL A   1      34.806  25.044  24.118  1.00  0.00     0.068 C 
ATOM     89  C   UNL A   1      35.088  23.739  24.039  1.00  0.00     0.084 C 
ATOM     90  S   UNL A   1      36.654  23.068  23.814  1.00  0.00    -0.054 SA
ATOM     91  C   UNL A   1      34.137  22.647  24.343  1.00  0.00     0.266 C 
ATOM     92  C   UNL A   1      36.179  21.553  24.600  1.00  0.00     0.148 C 
ATOM     93  N   UNL A   1      34.821  21.557  24.830  1.00  0.00    -0.288 N 
ATOM     94  O   UNL A   1      32.929  22.703  24.144  1.00  0.00    -0.268 OA
ATOM     95  S   UNL A   1      37.279  20.349  24.953  1.00  0.00    -0.052 S 
BRANCH  93  96
ATOM     96  C   UNL A   1      34.046  20.500  25.472  1.00  0.00     0.163 C 
BRANCH  96  97
ATOM     97  C   UNL A   1      33.756  19.337  24.535  1.00  0.00    -0.028 A 
ATOM     98  C   UNL A   1      32.650  19.374  23.677  1.00  0.00     0.005 A 
ATOM     99  C   UNL A   1      34.559  18.183  24.533  1.00  0.00     0.005 A 
ATOM    100  C   UNL A   1      32.358  18.290  22.843  1.00  0.00     0.000 A 
ATOM    101  C   UNL A   1      34.282  17.110  23.683  1.00  0.00     0.000 A 
ATOM    102  C   UNL A   1      33.177  17.162  22.841  1.00  0.00     0.000 A 
ENDBRANCH  96  97
ENDBRANCH  93  96
ENDBRANCH  87  88
ENDBRANCH  79  83
ENDBRANCH  74  77
ENDBRANCH  72  73
ENDBRANCH   1  72
TORSDOF 17
ENDMDL
MODEL 2
REMARK VINA RESULT:     -13.2      1.873      2.248
REMARK SMILES O=C(NCCCNC(=O)c1ccccc1-c1ccc(/C=C2/SC(=S)N(Cc3ccccc3)C2=O)o1)c1ccc(-c2c3nc(c(-c4cc(S(=O)(=O)[O-])ccc4F)c4ccc([nH]4)c(-c4cc(S(=O)(=O)[O-])ccc4F)c4nc(c(-c5cc(S(=O)(=O)[O-])ccc5F)c5ccc2[nH]5)C=C4)C=C3)cc1
REMARK SMILES IDX 5 1 4 2 3 3 1 4 2 5 36 7 37 8 98 9 38 10 97 11 39 12 40 13
REMARK SMILES IDX 41 14 91 15 42 16 96 17 90 18 92 19 43 20 95 21 89 22 88 23
REMARK SMILES IDX 44 25 76 26 56 27 75 28 57 29 60 30 74 31 93 32 58 33 59 34
REMARK SMILES IDX 73 36 94 37 61 38 45 39 46 40 54 41 47 42 53 43 55 44 52 45
REMARK SMILES IDX 48 46 49 47 50 48 51 49 77 50 78 51 86 52 79 53 85 54 87 55
REMARK SMILES IDX 84 56 80 57 81 58 82 59 83 60 62 61 63 62 71 63 64 64 70 65
REMARK SMILES IDX 72 66 69 67 65 68 66 69 67 70 68 71 6 72 7 73 8 74 9 76
REMARK SMILES IDX 10 77 11 78 15 79 12 80 14 81 13 82 16 83 17 84 35 85 18 86
REMARK SMILES IDX 19 87 20 88 21 89 22 90 33 91 23 92 25 93 34 94 24 95 26 96
REMARK SMILES IDX 27 97 28 98 32 99 29 100 31 101 30 102
REMARK H PARENT 3 6 92 24 60 35 7 75
REMARK Flexibility Score: inf
ROOT
ATOM      1  C   UNL A   1      32.132  30.489  27.053  1.00  0.00     0.042 C 
ENDROOT
BRANCH   1   2
ATOM      2  C   UNL A   1      33.284  31.484  27.012  1.00  0.00     0.118 C 
BRANCH   2   3
ATOM      3  N   UNL A   1      32.902  32.851  27.362  1.00  0.00    -0.352 N 
ATOM      4  O   UNL A   1      32.818  34.761  28.552  1.00  0.00    -0.269 OA
ATOM      5  C   UNL A   1      33.387  33.694  28.336  1.00  0.00     0.251 C 
ATOM      6  H   UNL A   1      32.180  33.230  26.812  1.00  0.00     0.163 HD
BRANCH   5   7
ATOM      7  C   UNL A   1      34.562  33.296  29.143  1.00  0.00     0.039 A 
ATOM      8  C   UNL A   1      35.841  33.734  28.797  1.00  0.00     0.014 A 
ATOM      9  C   UNL A   1      34.388  32.455  30.245  1.00  0.00     0.014 A 
ATOM     10  C   UNL A   1      36.953  33.162  29.401  1.00  0.00     0.010 A 
ATOM     11  C   UNL A   1      35.507  31.982  30.936  1.00  0.00     0.010 A 
ATOM     12  C   UNL A   1      36.802  32.295  30.490  1.00  0.00    -0.014 A 
BRANCH  12  13
ATOM     13  C   UNL A   1      38.004  31.765  31.182  1.00  0.00     0.031 A 
ATOM     14  C   UNL A   1      38.853  30.701  30.547  1.00  0.00     0.074 A 
ATOM     15  C   UNL A   1      38.320  32.248  32.399  1.00  0.00     0.049 A 
ATOM     16  N   UNL A   1      39.871  30.047  31.047  1.00  0.00    -0.248 NA
ATOM     17  C   UNL A   1      38.503  30.312  29.173  1.00  0.00     0.031 C 
ATOM     18  C   UNL A   1      37.577  33.295  33.106  1.00  0.00     0.029 A 
ATOM     19  N   UNL A   1      39.335  31.923  33.262  1.00  0.00    -0.354 N 
ATOM     20  C   UNL A   1      40.265  29.146  30.063  1.00  0.00     0.074 A 
ATOM     21  C   UNL A   1      39.352  29.320  28.952  1.00  0.00     0.031 C 
ATOM     22  C   UNL A   1      38.168  33.535  34.283  1.00  0.00     0.029 A 
ATOM     23  C   UNL A   1      39.270  32.597  34.458  1.00  0.00     0.049 A 
ATOM     24  H   UNL A   1      40.041  31.271  33.046  1.00  0.00     0.167 HD
ATOM     25  C   UNL A   1      41.294  28.260  30.091  1.00  0.00     0.034 A 
ATOM     26  C   UNL A   1      39.973  32.443  35.595  1.00  0.00     0.034 A 
ATOM     27  C   UNL A   1      42.184  28.107  31.220  1.00  0.00     0.049 A 
ATOM     28  C   UNL A   1      41.059  31.406  35.639  1.00  0.00     0.074 A 
ATOM     29  C   UNL A   1      43.279  27.271  31.350  1.00  0.00     0.029 A 
ATOM     30  N   UNL A   1      42.065  28.789  32.427  1.00  0.00    -0.354 N 
ATOM     31  N   UNL A   1      41.428  30.565  34.701  1.00  0.00    -0.248 NA
ATOM     32  C   UNL A   1      41.824  31.297  36.886  1.00  0.00     0.031 C 
ATOM     33  C   UNL A   1      43.765  27.382  32.657  1.00  0.00     0.029 A 
ATOM     34  C   UNL A   1      43.039  28.360  33.317  1.00  0.00     0.049 A 
ATOM     35  H   UNL A   1      41.388  29.478  32.622  1.00  0.00     0.167 HD
ATOM     36  C   UNL A   1      42.490  29.844  35.236  1.00  0.00     0.074 A 
ATOM     37  C   UNL A   1      42.699  30.350  36.578  1.00  0.00     0.031 C 
ATOM     38  C   UNL A   1      43.232  28.865  34.659  1.00  0.00     0.034 A 
BRANCH  25  39
ATOM     39  C   UNL A   1      41.462  27.348  28.894  1.00  0.00     0.023 A 
ATOM     40  C   UNL A   1      42.460  27.563  27.928  1.00  0.00     0.031 A 
ATOM     41  C   UNL A   1      40.570  26.280  28.685  1.00  0.00     0.131 A 
ATOM     42  C   UNL A   1      42.476  26.797  26.752  1.00  0.00     0.055 A 
ATOM     43  C   UNL A   1      40.654  25.457  27.559  1.00  0.00     0.041 A 
ATOM     44  F   UNL A   1      39.582  26.032  29.559  1.00  0.00    -0.206 F 
ATOM     45  C   UNL A   1      41.597  25.727  26.572  1.00  0.00     0.022 A 
BRANCH  42  46
ATOM     46  S   UNL A   1      43.526  27.348  25.378  1.00  0.00     0.124 S 
ATOM     47  O   UNL A   1      42.544  27.939  24.473  1.00  0.00    -0.237 OA
ATOM     48  O   UNL A   1      44.436  28.281  26.031  1.00  0.00    -0.237 OA
ATOM     49  O   UNL A   1      44.137  26.110  24.896  1.00  0.00    -0.744 OA
ENDBRANCH  42  46
ENDBRANCH  25  39
BRANCH  26  50
ATOM     50  C   UNL A   1      39.609  33.253  36.791  1.00  0.00     0.023 A 
ATOM     51  C   UNL A   1      40.274  34.448  37.095  1.00  0.00     0.031 A 
ATOM     52  C   UNL A   1      38.549  32.851  37.627  1.00  0.00     0.131 A 
ATOM     53  C   UNL A   1      39.882  35.194  38.219  1.00  0.00     0.055 A 
ATOM     54  C   UNL A   1      38.131  33.622  38.712  1.00  0.00     0.041 A 
ATOM     55  F   UNL A   1      37.874  31.719  37.371  1.00  0.00    -0.206 F 
ATOM     56  C   UNL A   1      38.805  34.799  39.016  1.00  0.00     0.022 A 
BRANCH  53  57
ATOM     57  S   UNL A   1      40.835  36.673  38.653  1.00  0.00     0.124 S 
ATOM     58  O   UNL A   1      41.563  36.221  39.833  1.00  0.00    -0.237 OA
ATOM     59  O   UNL A   1      41.632  36.886  37.449  1.00  0.00    -0.237 OA
ATOM     60  O   UNL A   1      39.806  37.681  38.902  1.00  0.00    -0.744 OA
ENDBRANCH  53  57
ENDBRANCH  26  50
BRANCH  38  61
ATOM     61  C   UNL A   1      44.388  28.312  35.455  1.00  0.00     0.023 A 
ATOM     62  C   UNL A   1      44.215  27.334  36.449  1.00  0.00     0.031 A 
ATOM     63  C   UNL A   1      45.695  28.757  35.182  1.00  0.00     0.131 A 
ATOM     64  C   UNL A   1      45.331  26.850  37.152  1.00  0.00     0.055 A 
ATOM     65  C   UNL A   1      46.805  28.232  35.844  1.00  0.00     0.041 A 
ATOM     66  F   UNL A   1      45.915  29.696  34.248  1.00  0.00    -0.206 F 
ATOM     67  C   UNL A   1      46.625  27.278  36.841  1.00  0.00     0.022 A 
BRANCH  64  68
ATOM     68  S   UNL A   1      45.069  25.694  38.525  1.00  0.00     0.124 S 
ATOM     69  O   UNL A   1      44.312  24.626  37.880  1.00  0.00    -0.237 OA
ATOM     70  O   UNL A   1      46.434  25.361  38.918  1.00  0.00    -0.237 OA
ATOM     71  O   UNL A   1      44.319  26.484  39.501  1.00  0.00    -0.744 OA
ENDBRANCH  64  68
ENDBRANCH  38  61
ENDBRANCH  12  13
ENDBRANCH   5   7
ENDBRANCH   2   3
ENDBRANCH   1   2
BRANCH   1  72
ATOM     72  C   UNL A   1      31.372  30.389  25.749  1.00  0.00     0.118 C 
BRANCH  72  73
ATOM     73  N   UNL A   1      32.165  29.942  24.616  1.00  0.00    -0.352 N 
ATOM     74  C   UNL A   1      31.819  29.056  23.626  1.00  0.00     0.252 C 
ATOM     75  H   UNL A   1      33.069  30.325  24.549  1.00  0.00     0.163 HD
ATOM     76  O   UNL A   1      32.588  28.853  22.688  1.00  0.00    -0.269 OA
BRANCH  74  77
ATOM     77  C   UNL A   1      30.556  28.289  23.699  1.00  0.00     0.050 A 
ATOM     78  C   UNL A   1      29.422  28.930  23.177  1.00  0.00     0.014 A 
ATOM     79  C   UNL A   1      30.451  27.005  24.265  1.00  0.00     0.030 A 
ATOM     80  C   UNL A   1      28.189  28.282  23.174  1.00  0.00     0.001 A 
ATOM     81  C   UNL A   1      29.205  26.360  24.238  1.00  0.00     0.013 A 
ATOM     82  C   UNL A   1      28.084  26.994  23.696  1.00  0.00     0.001 A 
BRANCH  79  83
ATOM     83  C   UNL A   1      31.591  26.326  24.856  1.00  0.00     0.135 A 
ATOM     84  C   UNL A   1      32.013  26.116  26.148  1.00  0.00     0.051 A 
ATOM     85  O   UNL A   1      32.548  25.914  23.976  1.00  0.00    -0.457 OA
ATOM     86  C   UNL A   1      33.326  25.604  26.046  1.00  0.00     0.051 A 
ATOM     87  C   UNL A   1      33.635  25.479  24.694  1.00  0.00     0.128 A 
BRANCH  87  88
ATOM     88  C   UNL A   1      34.851  25.030  24.114  1.00  0.00     0.068 C 
ATOM     89  C   UNL A   1      35.113  23.721  24.036  1.00  0.00     0.084 C 
ATOM     90  S   UNL A   1      36.666  23.026  23.794  1.00  0.00    -0.054 SA
ATOM     91  C   UNL A   1      34.149  22.645  24.355  1.00  0.00     0.266 C 
ATOM     92  C   UNL A   1      36.178  21.521  24.591  1.00  0.00     0.148 C 
ATOM     93  N   UNL A   1      34.823  21.546  24.838  1.00  0.00    -0.288 N 
ATOM     94  O   UNL A   1      32.940  22.718  24.171  1.00  0.00    -0.268 OA
ATOM     95  S   UNL A   1      37.264  20.302  24.934  1.00  0.00    -0.052 S 
BRANCH  93  96
ATOM     96  C   UNL A   1      34.041  20.502  25.493  1.00  0.00     0.163 C 
BRANCH  96  97
ATOM     97  C   UNL A   1      33.698  19.354  24.556  1.00  0.00    -0.028 A 
ATOM     98  C   UNL A   1      34.513  18.217  24.497  1.00  0.00     0.005 A 
ATOM     99  C   UNL A   1      32.586  19.418  23.698  1.00  0.00     0.005 A 
ATOM    100  C   UNL A   1      34.222  17.177  23.608  1.00  0.00     0.000 A 
ATOM    101  C   UNL A   1      32.281  18.369  22.828  1.00  0.00     0.000 A 
ATOM    102  C   UNL A   1      33.104  17.249  22.780  1.00  0.00     0.000 A 
ENDBRANCH  96  97
ENDBRANCH  93  96
ENDBRANCH  87  88
ENDBRANCH  79  83
ENDBRANCH  74  77
ENDBRANCH  72  73
ENDBRANCH   1  72
TORSDOF 17
ENDMDL
MODEL 3
REMARK VINA RESULT:     -12.8      1.911      7.509
REMARK SMILES O=C(NCCCNC(=O)c1ccccc1-c1ccc(/C=C2/SC(=S)N(Cc3ccccc3)C2=O)o1)c1ccc(-c2c3nc(c(-c4cc(S(=O)(=O)[O-])ccc4F)c4ccc([nH]4)c(-c4cc(S(=O)(=O)[O-])ccc4F)c4nc(c(-c5cc(S(=O)(=O)[O-])ccc5F)c5ccc2[nH]5)C=C4)C=C3)cc1
REMARK SMILES IDX 5 1 4 2 3 3 1 4 2 5 36 7 37 8 98 9 38 10 97 11 39 12 40 13
REMARK SMILES IDX 41 14 91 15 42 16 96 17 90 18 92 19 43 20 95 21 89 22 88 23
REMARK SMILES IDX 44 25 76 26 56 27 75 28 57 29 60 30 74 31 93 32 58 33 59 34
REMARK SMILES IDX 73 36 94 37 61 38 45 39 46 40 54 41 47 42 53 43 55 44 52 45
REMARK SMILES IDX 48 46 49 47 50 48 51 49 77 50 78 51 86 52 79 53 85 54 87 55
REMARK SMILES IDX 84 56 80 57 81 58 82 59 83 60 62 61 63 62 71 63 64 64 70 65
REMARK SMILES IDX 72 66 69 67 65 68 66 69 67 70 68 71 6 72 7 73 8 74 9 76
REMARK SMILES IDX 10 77 11 78 15 79 12 80 14 81 13 82 16 83 17 84 35 85 18 86
REMARK SMILES IDX 19 87 20 88 21 89 22 90 33 91 23 92 25 93 34 94 24 95 26 96
REMARK SMILES IDX 27 97 28 98 32 99 29 100 31 101 30 102
REMARK H PARENT 3 6 92 24 60 35 7 75
REMARK Flexibility Score: inf
ROOT
ATOM      1  C   UNL A   1      32.324  29.381  26.995  1.00  0.00     0.042 C 
ENDROOT
BRANCH   1   2
ATOM      2  C   UNL A   1      33.714  29.960  27.223  1.00  0.00     0.118 C 
BRANCH   2   3
ATOM      3  N   UNL A   1      33.711  31.316  27.769  1.00  0.00    -0.352 N 
ATOM      4  O   UNL A   1      34.331  33.053  29.060  1.00  0.00    -0.269 OA
ATOM      5  C   UNL A   1      34.605  31.945  28.605  1.00  0.00     0.251 C 
ATOM      6  H   UNL A   1      32.945  31.868  27.494  1.00  0.00     0.163 HD
BRANCH   5   7
ATOM      7  C   UNL A   1      35.867  31.272  28.984  1.00  0.00     0.039 A 
ATOM      8  C   UNL A   1      35.849  30.129  29.784  1.00  0.00     0.014 A 
ATOM      9  C   UNL A   1      37.086  31.803  28.556  1.00  0.00     0.014 A 
ATOM     10  C   UNL A   1      37.031  29.653  30.335  1.00  0.00     0.010 A 
ATOM     11  C   UNL A   1      38.283  31.241  29.010  1.00  0.00     0.010 A 
ATOM     12  C   UNL A   1      38.263  30.189  29.941  1.00  0.00    -0.014 A 
BRANCH  12  13
ATOM     13  C   UNL A   1      39.523  29.607  30.471  1.00  0.00     0.031 A 
ATOM     14  C   UNL A   1      40.170  30.166  31.707  1.00  0.00     0.074 A 
ATOM     15  C   UNL A   1      40.086  28.571  29.820  1.00  0.00     0.049 A 
ATOM     16  N   UNL A   1      41.320  29.857  32.250  1.00  0.00    -0.248 NA
ATOM     17  C   UNL A   1      39.432  31.220  32.417  1.00  0.00     0.031 C 
ATOM     18  C   UNL A   1      39.537  27.936  28.620  1.00  0.00     0.029 A 
ATOM     19  N   UNL A   1      41.241  27.875  30.064  1.00  0.00    -0.354 N 
ATOM     20  C   UNL A   1      41.462  30.699  33.348  1.00  0.00     0.074 A 
ATOM     21  C   UNL A   1      40.291  31.552  33.370  1.00  0.00     0.031 C 
ATOM     22  C   UNL A   1      40.344  26.937  28.241  1.00  0.00     0.029 A 
ATOM     23  C   UNL A   1      41.514  26.922  29.111  1.00  0.00     0.049 A 
ATOM     24  H   UNL A   1      41.819  28.041  30.844  1.00  0.00     0.167 HD
ATOM     25  C   UNL A   1      42.476  30.750  34.251  1.00  0.00     0.034 A 
ATOM     26  C   UNL A   1      42.606  26.161  28.915  1.00  0.00     0.034 A 
ATOM     27  C   UNL A   1      43.635  29.887  34.195  1.00  0.00     0.049 A 
ATOM     28  C   UNL A   1      43.754  26.281  29.877  1.00  0.00     0.074 A 
ATOM     29  C   UNL A   1      44.704  29.822  35.071  1.00  0.00     0.029 A 
ATOM     30  N   UNL A   1      43.888  28.954  33.195  1.00  0.00    -0.354 N 
ATOM     31  N   UNL A   1      43.874  27.074  30.915  1.00  0.00    -0.248 NA
ATOM     32  C   UNL A   1      44.909  25.406  29.645  1.00  0.00     0.031 C 
ATOM     33  C   UNL A   1      45.640  28.919  34.555  1.00  0.00     0.029 A 
ATOM     34  C   UNL A   1      45.115  28.343  33.409  1.00  0.00     0.049 A 
ATOM     35  H   UNL A   1      43.283  28.755  32.443  1.00  0.00     0.167 HD
ATOM     36  C   UNL A   1      45.109  26.774  31.480  1.00  0.00     0.074 A 
ATOM     37  C   UNL A   1      45.693  25.728  30.664  1.00  0.00     0.031 C 
ATOM     38  C   UNL A   1      45.694  27.307  32.582  1.00  0.00     0.034 A 
BRANCH  25  39
ATOM     39  C   UNL A   1      42.402  31.815  35.323  1.00  0.00     0.023 A 
ATOM     40  C   UNL A   1      41.463  31.758  36.367  1.00  0.00     0.031 A 
ATOM     41  C   UNL A   1      43.247  32.939  35.266  1.00  0.00     0.131 A 
ATOM     42  C   UNL A   1      41.318  32.846  37.242  1.00  0.00     0.055 A 
ATOM     43  C   UNL A   1      43.165  33.974  36.201  1.00  0.00     0.041 A 
ATOM     44  F   UNL A   1      44.153  33.066  34.283  1.00  0.00    -0.206 F 
ATOM     45  C   UNL A   1      42.181  33.942  37.184  1.00  0.00     0.022 A 
BRANCH  42  46
ATOM     46  S   UNL A   1      39.861  32.895  38.323  1.00  0.00     0.124 S 
ATOM     47  O   UNL A   1      39.458  34.295  38.213  1.00  0.00    -0.237 OA
ATOM     48  O   UNL A   1      38.971  31.924  37.697  1.00  0.00    -0.237 OA
ATOM     49  O   UNL A   1      40.390  32.509  39.630  1.00  0.00    -0.744 OA
ENDBRANCH  42  46
ENDBRANCH  25  39
BRANCH  26  50
ATOM     50  C   UNL A   1      42.671  25.277  27.717  1.00  0.00     0.023 A 
ATOM     51  C   UNL A   1      42.174  23.968  27.746  1.00  0.00     0.031 A 
ATOM     52  C   UNL A   1      43.202  25.760  26.505  1.00  0.00     0.131 A 
ATOM     53  C   UNL A   1      42.233  23.177  26.587  1.00  0.00     0.055 A 
ATOM     54  C   UNL A   1      43.211  24.987  25.343  1.00  0.00     0.041 A 
ATOM     55  F   UNL A   1      43.681  27.011  26.424  1.00  0.00    -0.206 F 
ATOM     56  C   UNL A   1      42.730  23.684  25.384  1.00  0.00     0.022 A 
BRANCH  53  57
ATOM     57  S   UNL A   1      41.690  21.450  26.687  1.00  0.00     0.124 S 
ATOM     58  O   UNL A   1      42.375  20.857  25.544  1.00  0.00    -0.237 OA
ATOM     59  O   UNL A   1      42.177  21.055  28.005  1.00  0.00    -0.237 OA
ATOM     60  O   UNL A   1      40.237  21.543  26.565  1.00  0.00    -0.744 OA
ENDBRANCH  53  57
ENDBRANCH  26  50
BRANCH  38  61
ATOM     61  C   UNL A   1      47.016  26.723  33.016  1.00  0.00     0.023 A 
ATOM     62  C   UNL A   1      47.099  25.590  33.845  1.00  0.00     0.031 A 
ATOM     63  C   UNL A   1      48.214  27.298  32.555  1.00  0.00     0.131 A 
ATOM     64  C   UNL A   1      48.358  25.085  34.208  1.00  0.00     0.055 A 
ATOM     65  C   UNL A   1      49.460  26.758  32.874  1.00  0.00     0.041 A 
ATOM     66  F   UNL A   1      48.191  28.385  31.768  1.00  0.00    -0.206 F 
ATOM     67  C   UNL A   1      49.537  25.649  33.711  1.00  0.00     0.022 A 
BRANCH  64  68
ATOM     68  S   UNL A   1      48.444  23.712  35.390  1.00  0.00     0.124 S 
ATOM     69  O   UNL A   1      49.869  23.676  35.708  1.00  0.00    -0.237 OA
ATOM     70  O   UNL A   1      47.563  24.166  36.462  1.00  0.00    -0.237 OA
ATOM     71  O   UNL A   1      47.950  22.569  34.625  1.00  0.00    -0.744 OA
ENDBRANCH  64  68
ENDBRANCH  38  61
ENDBRANCH  12  13
ENDBRANCH   5   7
ENDBRANCH   2   3
ENDBRANCH   1   2
BRANCH   1  72
ATOM     72  C   UNL A   1      31.616  29.962  25.791  1.00  0.00     0.118 C 
BRANCH  72  73
ATOM     73  N   UNL A   1      32.239  29.657  24.513  1.00  0.00    -0.352 N 
ATOM     74  C   UNL A   1      31.731  28.931  23.466  1.00  0.00     0.252 C 
ATOM     75  H   UNL A   1      33.144  30.020  24.382  1.00  0.00     0.163 HD
ATOM     76  O   UNL A   1      32.366  28.841  22.417  1.00  0.00    -0.269 OA
BRANCH  74  77
ATOM     77  C   UNL A   1      30.453  28.197  23.598  1.00  0.00     0.050 A 
ATOM     78  C   UNL A   1      29.323  28.844  23.076  1.00  0.00     0.014 A 
ATOM     79  C   UNL A   1      30.333  26.939  24.217  1.00  0.00     0.030 A 
ATOM     80  C   UNL A   1      28.075  28.225  23.127  1.00  0.00     0.001 A 
ATOM     81  C   UNL A   1      29.073  26.323  24.243  1.00  0.00     0.013 A 
ATOM     82  C   UNL A   1      27.953  26.961  23.702  1.00  0.00     0.001 A 
BRANCH  79  83
ATOM     83  C   UNL A   1      31.471  26.257  24.809  1.00  0.00     0.135 A 
ATOM     84  C   UNL A   1      31.879  26.025  26.102  1.00  0.00     0.051 A 
ATOM     85  O   UNL A   1      32.442  25.871  23.933  1.00  0.00    -0.457 OA
ATOM     86  C   UNL A   1      33.196  25.526  26.006  1.00  0.00     0.051 A 
ATOM     87  C   UNL A   1      33.524  25.430  24.656  1.00  0.00     0.128 A 
BRANCH  87  88
ATOM     88  C   UNL A   1      34.751  25.003  24.083  1.00  0.00     0.068 C 
ATOM     89  C   UNL A   1      35.038  23.698  24.010  1.00  0.00     0.084 C 
ATOM     90  S   UNL A   1      36.605  23.033  23.777  1.00  0.00    -0.054 SA
ATOM     91  C   UNL A   1      34.093  22.605  24.328  1.00  0.00     0.266 C 
ATOM     92  C   UNL A   1      36.142  21.521  24.577  1.00  0.00     0.148 C 
ATOM     93  N   UNL A   1      34.786  21.521  24.817  1.00  0.00    -0.288 N 
ATOM     94  O   UNL A   1      32.883  22.655  24.139  1.00  0.00    -0.268 OA
ATOM     95  S   UNL A   1      37.249  20.323  24.928  1.00  0.00    -0.052 S 
BRANCH  93  96
ATOM     96  C   UNL A   1      34.020  20.464  25.472  1.00  0.00     0.163 C 
BRANCH  96  97
ATOM     97  C   UNL A   1      33.696  19.311  24.535  1.00  0.00    -0.028 A 
ATOM     98  C   UNL A   1      34.514  18.175  24.496  1.00  0.00     0.005 A 
ATOM     99  C   UNL A   1      32.599  19.369  23.657  1.00  0.00     0.005 A 
ATOM    100  C   UNL A   1      34.241  17.130  23.607  1.00  0.00     0.000 A 
ATOM    101  C   UNL A   1      32.312  18.315  22.787  1.00  0.00     0.000 A 
ATOM    102  C   UNL A   1      33.137  17.196  22.759  1.00  0.00     0.000 A 
ENDBRANCH  96  97
ENDBRANCH  93  96
ENDBRANCH  87  88
ENDBRANCH  79  83
ENDBRANCH  74  77
ENDBRANCH  72  73
ENDBRANCH   1  72
TORSDOF 17
ENDMDL
