MODEL 1
REMARK VINA RESULT:     -12.2      0.000      0.000
REMARK SMILES O=C(NCCCNC(=O)[C@H]1CS[C@@H](c2cccc(OCc3ccc(Cl)cc3Cl)c2)[NH2+]1)c1ccc(-c2c3nc(c(-c4cc(S(=O)(=O)[O-])ccc4F)c4ccc([nH]4)c(-c4cc(S(=O)(=O)[O-])ccc4F)c4nc(c(-c5cc(S(=O)(=O)[O-])ccc5F)c5ccc2[nH]5)C=C4)C=C3)cc1
REMARK SMILES IDX 5 1 4 2 3 3 1 4 2 5 31 7 32 8 93 9 33 10 92 11 34 12 35 13
REMARK SMILES IDX 36 14 86 15 37 16 91 17 85 18 87 19 38 20 90 21 84 22 83 23
REMARK SMILES IDX 39 25 71 26 51 27 70 28 52 29 55 30 69 31 88 32 53 33 54 34
REMARK SMILES IDX 68 36 89 37 56 38 40 39 41 40 49 41 42 42 48 43 50 44 47 45
REMARK SMILES IDX 43 46 44 47 45 48 46 49 72 50 73 51 81 52 74 53 80 54 82 55
REMARK SMILES IDX 79 56 75 57 76 58 77 59 78 60 57 61 58 62 66 63 59 64 65 65
REMARK SMILES IDX 67 66 64 67 60 68 61 69 62 70 63 71 6 72 7 73 8 74 9 76
REMARK SMILES IDX 10 77 11 78 30 79 12 80 13 81 14 84 15 85 29 86 16 87 18 88
REMARK SMILES IDX 17 89 19 90 20 91 21 92 22 93 27 94 23 95 26 96 28 97 24 98
REMARK SMILES IDX 25 99
REMARK H PARENT 3 6 87 24 55 35 7 75 30 82 30 83
REMARK Flexibility Score: inf
ROOT
ATOM      1  C   UNL A   1      31.456  32.600  26.490  1.00  0.00     0.042 C 
ENDROOT
BRANCH   1   2
ATOM      2  C   UNL A   1      32.620  33.006  27.388  1.00  0.00     0.118 C 
BRANCH   2   3
ATOM      3  N   UNL A   1      32.512  34.387  27.834  1.00  0.00    -0.352 N 
ATOM      4  O   UNL A   1      32.720  36.130  29.236  1.00  0.00    -0.269 OA
ATOM      5  C   UNL A   1      33.134  35.031  28.878  1.00  0.00     0.251 C 
ATOM      6  H   UNL A   1      31.899  34.948  27.306  1.00  0.00     0.163 HD
BRANCH   5   7
ATOM      7  C   UNL A   1      34.289  34.411  29.565  1.00  0.00     0.039 A 
ATOM      8  C   UNL A   1      34.109  33.655  30.725  1.00  0.00     0.014 A 
ATOM      9  C   UNL A   1      35.564  34.540  29.008  1.00  0.00     0.014 A 
ATOM     10  C   UNL A   1      35.213  33.140  31.398  1.00  0.00     0.010 A 
ATOM     11  C   UNL A   1      36.662  33.944  29.636  1.00  0.00     0.010 A 
ATOM     12  C   UNL A   1      36.499  33.256  30.849  1.00  0.00    -0.014 A 
BRANCH  12  13
ATOM     13  C   UNL A   1      37.647  32.600  31.527  1.00  0.00     0.031 A 
ATOM     14  C   UNL A   1      38.369  31.450  30.886  1.00  0.00     0.074 A 
ATOM     15  C   UNL A   1      38.041  33.064  32.731  1.00  0.00     0.049 A 
ATOM     16  N   UNL A   1      39.370  30.742  31.347  1.00  0.00    -0.248 NA
ATOM     17  C   UNL A   1      37.898  31.030  29.559  1.00  0.00     0.031 C 
ATOM     18  C   UNL A   1      37.415  34.179  33.447  1.00  0.00     0.029 A 
ATOM     19  N   UNL A   1      39.060  32.671  33.559  1.00  0.00    -0.354 N 
ATOM     20  C   UNL A   1      39.643  29.786  30.374  1.00  0.00     0.074 A 
ATOM     21  C   UNL A   1      38.672  29.981  29.317  1.00  0.00     0.031 C 
ATOM     22  C   UNL A   1      38.085  34.403  34.585  1.00  0.00     0.029 A 
ATOM     23  C   UNL A   1      39.137  33.402  34.722  1.00  0.00     0.049 A 
ATOM     24  H   UNL A   1      39.678  31.935  33.343  1.00  0.00     0.167 HD
ATOM     25  C   UNL A   1      40.617  28.842  30.364  1.00  0.00     0.034 A 
ATOM     26  C   UNL A   1      39.941  33.266  35.794  1.00  0.00     0.034 A 
ATOM     27  C   UNL A   1      41.570  28.661  31.437  1.00  0.00     0.049 A 
ATOM     28  C   UNL A   1      40.970  32.169  35.788  1.00  0.00     0.074 A 
ATOM     29  C   UNL A   1      42.611  27.754  31.522  1.00  0.00     0.029 A 
ATOM     30  N   UNL A   1      41.588  29.392  32.620  1.00  0.00    -0.354 N 
ATOM     31  N   UNL A   1      41.225  31.281  34.855  1.00  0.00    -0.248 NA
ATOM     32  C   UNL A   1      41.823  32.058  36.978  1.00  0.00     0.031 C 
ATOM     33  C   UNL A   1      43.205  27.880  32.783  1.00  0.00     0.029 A 
ATOM     34  C   UNL A   1      42.597  28.930  33.453  1.00  0.00     0.049 A 
ATOM     35  H   UNL A   1      40.973  30.131  32.836  1.00  0.00     0.167 HD
ATOM     36  C   UNL A   1      42.287  30.522  35.335  1.00  0.00     0.074 A 
ATOM     37  C   UNL A   1      42.634  31.068  36.632  1.00  0.00     0.031 C 
ATOM     38  C   UNL A   1      42.924  29.474  34.752  1.00  0.00     0.034 A 
BRANCH  25  39
ATOM     39  C   UNL A   1      40.665  27.902  29.180  1.00  0.00     0.023 A 
ATOM     40  C   UNL A   1      41.604  28.058  28.145  1.00  0.00     0.031 A 
ATOM     41  C   UNL A   1      39.736  26.851  29.067  1.00  0.00     0.131 A 
ATOM     42  C   UNL A   1      41.543  27.234  27.010  1.00  0.00     0.055 A 
ATOM     43  C   UNL A   1      39.735  25.980  27.977  1.00  0.00     0.041 A 
ATOM     44  F   UNL A   1      38.800  26.662  30.011  1.00  0.00    -0.206 F 
ATOM     45  C   UNL A   1      40.632  26.179  26.930  1.00  0.00     0.022 A 
BRANCH  42  46
ATOM     46  S   UNL A   1      42.560  27.665  25.572  1.00  0.00     0.124 S 
ATOM     47  O   UNL A   1      43.874  27.857  26.184  1.00  0.00    -0.237 OA
ATOM     48  O   UNL A   1      42.419  26.490  24.721  1.00  0.00    -0.237 OA
ATOM     49  O   UNL A   1      41.937  28.885  25.062  1.00  0.00    -0.744 OA
ENDBRANCH  42  46
ENDBRANCH  25  39
BRANCH  26  50
ATOM     50  C   UNL A   1      39.774  34.165  36.971  1.00  0.00     0.023 A 
ATOM     51  C   UNL A   1      39.208  33.698  38.168  1.00  0.00     0.031 A 
ATOM     52  C   UNL A   1      40.164  35.515  36.909  1.00  0.00     0.131 A 
ATOM     53  C   UNL A   1      39.013  34.583  39.239  1.00  0.00     0.055 A 
ATOM     54  C   UNL A   1      40.022  36.377  37.997  1.00  0.00     0.041 A 
ATOM     55  F   UNL A   1      40.713  36.013  35.789  1.00  0.00    -0.206 F 
ATOM     56  C   UNL A   1      39.431  35.914  39.168  1.00  0.00     0.022 A 
BRANCH  53  57
ATOM     57  S   UNL A   1      38.128  33.988  40.705  1.00  0.00     0.124 S 
ATOM     58  O   UNL A   1      37.731  35.239  41.340  1.00  0.00    -0.237 OA
ATOM     59  O   UNL A   1      37.053  33.200  40.111  1.00  0.00    -0.237 OA
ATOM     60  O   UNL A   1      39.141  33.216  41.423  1.00  0.00    -0.744 OA
ENDBRANCH  53  57
ENDBRANCH  26  50
BRANCH  38  61
ATOM     61  C   UNL A   1      44.096  28.884  35.500  1.00  0.00     0.023 A 
ATOM     62  C   UNL A   1      43.943  27.818  36.403  1.00  0.00     0.031 A 
ATOM     63  C   UNL A   1      45.387  29.411  35.312  1.00  0.00     0.131 A 
ATOM     64  C   UNL A   1      45.051  27.351  37.128  1.00  0.00     0.055 A 
ATOM     65  C   UNL A   1      46.495  28.898  35.986  1.00  0.00     0.041 A 
ATOM     66  F   UNL A   1      45.591  30.433  34.467  1.00  0.00    -0.206 F 
ATOM     67  C   UNL A   1      46.329  27.871  36.910  1.00  0.00     0.022 A 
BRANCH  64  68
ATOM     68  S   UNL A   1      44.783  26.121  38.433  1.00  0.00     0.124 S 
ATOM     69  O   UNL A   1      44.797  24.871  37.680  1.00  0.00    -0.237 OA
ATOM     70  O   UNL A   1      45.923  26.347  39.315  1.00  0.00    -0.237 OA
ATOM     71  O   UNL A   1      43.485  26.493  38.994  1.00  0.00    -0.744 OA
ENDBRANCH  64  68
ENDBRANCH  38  61
ENDBRANCH  12  13
ENDBRANCH   5   7
ENDBRANCH   2   3
ENDBRANCH   1   2
BRANCH   1  72
ATOM     72  C   UNL A   1      31.271  31.087  26.379  1.00  0.00     0.118 C 
BRANCH  72  73
ATOM     73  N   UNL A   1      32.366  30.473  25.651  1.00  0.00    -0.351 N 
ATOM     74  C   UNL A   1      32.479  29.295  24.984  1.00  0.00     0.279 C 
ATOM     75  H   UNL A   1      33.187  31.017  25.638  1.00  0.00     0.163 HD
ATOM     76  O   UNL A   1      33.602  29.041  24.530  1.00  0.00    -0.268 OA
BRANCH  74  77
ATOM     77  C   UNL A   1      31.285  28.369  24.651  1.00  0.00     0.283 C 
ATOM     78  C   UNL A   1      30.891  28.155  23.189  1.00  0.00     0.151 C 
ATOM     79  N   UNL A   1      31.481  27.082  25.364  1.00  0.00    -0.321 N 
ATOM     80  S   UNL A   1      30.988  26.363  22.915  1.00  0.00    -0.088 SA
ATOM     81  C   UNL A   1      30.747  26.032  24.658  1.00  0.00     0.274 C 
ATOM     82  H   UNL A   1      31.129  27.164  26.318  1.00  0.00     0.348 HD
ATOM     83  H   UNL A   1      32.473  26.850  25.392  1.00  0.00     0.348 HD
BRANCH  81  84
ATOM     84  C   UNL A   1      31.160  24.682  25.210  1.00  0.00     0.024 A 
ATOM     85  C   UNL A   1      30.345  23.857  25.999  1.00  0.00     0.011 A 
ATOM     86  C   UNL A   1      32.367  24.149  24.709  1.00  0.00     0.057 A 
ATOM     87  C   UNL A   1      30.733  22.544  26.286  1.00  0.00     0.004 A 
ATOM     88  C   UNL A   1      32.683  22.803  24.882  1.00  0.00     0.120 A 
ATOM     89  C   UNL A   1      31.897  22.020  25.727  1.00  0.00     0.046 A 
BRANCH  88  90
ATOM     90  O   UNL A   1      33.591  22.099  24.136  1.00  0.00    -0.489 OA
BRANCH  90  91
ATOM     91  C   UNL A   1      34.500  21.228  24.803  1.00  0.00     0.267 C 
BRANCH  91  92
ATOM     92  C   UNL A   1      35.968  21.609  25.009  1.00  0.00     0.008 A 
ATOM     93  C   UNL A   1      36.880  20.534  24.869  1.00  0.00     0.010 A 
ATOM     94  C   UNL A   1      36.502  22.835  25.449  1.00  0.00     0.049 A 
ATOM     95  C   UNL A   1      38.227  20.654  25.223  1.00  0.00     0.021 A 
ATOM     96  C   UNL A   1      37.832  22.925  25.888  1.00  0.00     0.041 A 
ATOM     97  Cl  UNL A   1      35.696  24.358  25.370  1.00  0.00    -0.084 Cl
ATOM     98  C   UNL A   1      38.686  21.839  25.776  1.00  0.00     0.042 A 
ATOM     99  Cl  UNL A   1      40.321  21.972  26.289  1.00  0.00    -0.084 Cl
ENDBRANCH  91  92
ENDBRANCH  90  91
ENDBRANCH  88  90
ENDBRANCH  81  84
ENDBRANCH  74  77
ENDBRANCH  72  73
ENDBRANCH   1  72
TORSDOF 17
ENDMDL
MODEL 2
REMARK VINA RESULT:     -12.2      2.564      3.505
REMARK SMILES O=C(NCCCNC(=O)[C@H]1CS[C@@H](c2cccc(OCc3ccc(Cl)cc3Cl)c2)[NH2+]1)c1ccc(-c2c3nc(c(-c4cc(S(=O)(=O)[O-])ccc4F)c4ccc([nH]4)c(-c4cc(S(=O)(=O)[O-])ccc4F)c4nc(c(-c5cc(S(=O)(=O)[O-])ccc5F)c5ccc2[nH]5)C=C4)C=C3)cc1
REMARK SMILES IDX 5 1 4 2 3 3 1 4 2 5 31 7 32 8 93 9 33 10 92 11 34 12 35 13
REMARK SMILES IDX 36 14 86 15 37 16 91 17 85 18 87 19 38 20 90 21 84 22 83 23
REMARK SMILES IDX 39 25 71 26 51 27 70 28 52 29 55 30 69 31 88 32 53 33 54 34
REMARK SMILES IDX 68 36 89 37 56 38 40 39 41 40 49 41 42 42 48 43 50 44 47 45
REMARK SMILES IDX 43 46 44 47 45 48 46 49 72 50 73 51 81 52 74 53 80 54 82 55
REMARK SMILES IDX 79 56 75 57 76 58 77 59 78 60 57 61 58 62 66 63 59 64 65 65
REMARK SMILES IDX 67 66 64 67 60 68 61 69 62 70 63 71 6 72 7 73 8 74 9 76
REMARK SMILES IDX 10 77 11 78 30 79 12 80 13 81 14 84 15 85 29 86 16 87 18 88
REMARK SMILES IDX 17 89 19 90 20 91 21 92 22 93 27 94 23 95 26 96 28 97 24 98
REMARK SMILES IDX 25 99
REMARK H PARENT 3 6 87 24 55 35 7 75 30 82 30 83
REMARK Flexibility Score: inf
ROOT
ATOM      1  C   UNL A   1      34.298  28.961  23.767  1.00  0.00     0.042 C 
ENDROOT
BRANCH   1   2
ATOM      2  C   UNL A   1      33.907  28.788  25.231  1.00  0.00     0.118 C 
BRANCH   2   3
ATOM      3  N   UNL A   1      33.213  29.956  25.754  1.00  0.00    -0.352 N 
ATOM      4  O   UNL A   1      32.642  31.518  27.264  1.00  0.00    -0.269 OA
ATOM      5  C   UNL A   1      33.490  30.729  26.857  1.00  0.00     0.251 C 
ATOM      6  H   UNL A   1      32.423  30.236  25.238  1.00  0.00     0.163 HD
BRANCH   5   7
ATOM      7  C   UNL A   1      34.793  30.615  27.549  1.00  0.00     0.039 A 
ATOM      8  C   UNL A   1      35.644  31.717  27.657  1.00  0.00     0.014 A 
ATOM      9  C   UNL A   1      35.143  29.403  28.152  1.00  0.00     0.014 A 
ATOM     10  C   UNL A   1      36.895  31.574  28.248  1.00  0.00     0.010 A 
ATOM     11  C   UNL A   1      36.362  29.286  28.826  1.00  0.00     0.010 A 
ATOM     12  C   UNL A   1      37.259  30.366  28.861  1.00  0.00    -0.014 A 
BRANCH  12  13
ATOM     13  C   UNL A   1      38.554  30.272  29.585  1.00  0.00     0.031 A 
ATOM     14  C   UNL A   1      39.717  29.527  28.994  1.00  0.00     0.074 A 
ATOM     15  C   UNL A   1      38.673  30.878  30.783  1.00  0.00     0.049 A 
ATOM     16  N   UNL A   1      40.908  29.320  29.498  1.00  0.00    -0.248 NA
ATOM     17  C   UNL A   1      39.513  28.925  27.669  1.00  0.00     0.031 C 
ATOM     18  C   UNL A   1      37.610  31.633  31.452  1.00  0.00     0.029 A 
ATOM     19  N   UNL A   1      39.735  30.969  31.646  1.00  0.00    -0.354 N 
ATOM     20  C   UNL A   1      41.593  28.554  28.560  1.00  0.00     0.074 A 
ATOM     21  C   UNL A   1      40.666  28.301  27.475  1.00  0.00     0.031 C 
ATOM     22  C   UNL A   1      38.083  32.139  32.599  1.00  0.00     0.029 A 
ATOM     23  C   UNL A   1      39.455  31.683  32.788  1.00  0.00     0.049 A 
ATOM     24  H   UNL A   1      40.613  30.563  31.466  1.00  0.00     0.167 HD
ATOM     25  C   UNL A   1      42.876  28.114  28.600  1.00  0.00     0.034 A 
ATOM     26  C   UNL A   1      40.205  31.919  33.883  1.00  0.00     0.034 A 
ATOM     27  C   UNL A   1      43.778  28.373  29.700  1.00  0.00     0.049 A 
ATOM     28  C   UNL A   1      41.602  31.364  33.933  1.00  0.00     0.074 A 
ATOM     29  C   UNL A   1      45.103  27.996  29.835  1.00  0.00     0.029 A 
ATOM     30  N   UNL A   1      43.445  29.061  30.861  1.00  0.00    -0.354 N 
ATOM     31  N   UNL A   1      42.240  30.654  33.032  1.00  0.00    -0.248 NA
ATOM     32  C   UNL A   1      42.381  31.646  35.144  1.00  0.00     0.031 C 
ATOM     33  C   UNL A   1      45.544  28.383  31.105  1.00  0.00     0.029 A 
ATOM     34  C   UNL A   1      44.527  29.086  31.730  1.00  0.00     0.049 A 
ATOM     35  H   UNL A   1      42.568  29.472  31.041  1.00  0.00     0.167 HD
ATOM     36  C   UNL A   1      43.508  30.426  33.558  1.00  0.00     0.074 A 
ATOM     37  C   UNL A   1      43.546  31.089  34.846  1.00  0.00     0.031 C 
ATOM     38  C   UNL A   1      44.548  29.738  33.021  1.00  0.00     0.034 A 
BRANCH  25  39
ATOM     39  C   UNL A   1      43.358  27.264  27.446  1.00  0.00     0.023 A 
ATOM     40  C   UNL A   1      43.253  25.862  27.461  1.00  0.00     0.031 A 
ATOM     41  C   UNL A   1      43.961  27.863  26.324  1.00  0.00     0.131 A 
ATOM     42  C   UNL A   1      43.815  25.103  26.422  1.00  0.00     0.055 A 
ATOM     43  C   UNL A   1      44.440  27.108  25.252  1.00  0.00     0.041 A 
ATOM     44  F   UNL A   1      44.111  29.195  26.258  1.00  0.00    -0.206 F 
ATOM     45  C   UNL A   1      44.384  25.718  25.304  1.00  0.00     0.022 A 
BRANCH  42  46
ATOM     46  S   UNL A   1      43.936  23.306  26.630  1.00  0.00     0.124 S 
ATOM     47  O   UNL A   1      43.297  23.113  27.930  1.00  0.00    -0.237 OA
ATOM     48  O   UNL A   1      43.198  22.803  25.477  1.00  0.00    -0.237 OA
ATOM     49  O   UNL A   1      45.375  23.053  26.609  1.00  0.00    -0.744 OA
ENDBRANCH  42  46
ENDBRANCH  25  39
BRANCH  26  50
ATOM     50  C   UNL A   1      39.634  32.681  35.029  1.00  0.00     0.023 A 
ATOM     51  C   UNL A   1      38.985  32.025  36.086  1.00  0.00     0.031 A 
ATOM     52  C   UNL A   1      39.712  34.085  35.073  1.00  0.00     0.131 A 
ATOM     53  C   UNL A   1      38.408  32.775  37.123  1.00  0.00     0.055 A 
ATOM     54  C   UNL A   1      39.189  34.823  36.136  1.00  0.00     0.041 A 
ATOM     55  F   UNL A   1      40.324  34.762  34.088  1.00  0.00    -0.206 F 
ATOM     56  C   UNL A   1      38.520  34.166  37.164  1.00  0.00     0.022 A 
BRANCH  53  57
ATOM     57  S   UNL A   1      37.434  31.906  38.382  1.00  0.00     0.124 S 
ATOM     58  O   UNL A   1      36.211  32.699  38.410  1.00  0.00    -0.237 OA
ATOM     59  O   UNL A   1      37.320  30.569  37.809  1.00  0.00    -0.237 OA
ATOM     60  O   UNL A   1      38.267  32.000  39.579  1.00  0.00    -0.744 OA
ENDBRANCH  53  57
ENDBRANCH  26  50
BRANCH  38  61
ATOM     61  C   UNL A   1      45.834  29.715  33.812  1.00  0.00     0.023 A 
ATOM     62  C   UNL A   1      46.100  28.722  34.772  1.00  0.00     0.031 A 
ATOM     63  C   UNL A   1      46.803  30.714  33.609  1.00  0.00     0.131 A 
ATOM     64  C   UNL A   1      47.278  28.784  35.532  1.00  0.00     0.055 A 
ATOM     65  C   UNL A   1      48.002  30.732  34.322  1.00  0.00     0.041 A 
ATOM     66  F   UNL A   1      46.599  31.691  32.711  1.00  0.00    -0.206 F 
ATOM     67  C   UNL A   1      48.239  29.771  35.300  1.00  0.00     0.022 A 
BRANCH  64  68
ATOM     68  S   UNL A   1      47.494  27.615  36.902  1.00  0.00     0.124 S 
ATOM     69  O   UNL A   1      46.314  26.766  36.764  1.00  0.00    -0.237 OA
ATOM     70  O   UNL A   1      48.772  26.988  36.581  1.00  0.00    -0.237 OA
ATOM     71  O   UNL A   1      47.505  28.472  38.086  1.00  0.00    -0.744 OA
ENDBRANCH  64  68
ENDBRANCH  38  61
ENDBRANCH  12  13
ENDBRANCH   5   7
ENDBRANCH   2   3
ENDBRANCH   1   2
BRANCH   1  72
ATOM     72  C   UNL A   1      33.139  28.740  22.796  1.00  0.00     0.118 C 
BRANCH  72  73
ATOM     73  N   UNL A   1      33.346  27.553  21.988  1.00  0.00    -0.351 N 
ATOM     74  C   UNL A   1      33.249  26.226  22.264  1.00  0.00     0.279 C 
ATOM     75  H   UNL A   1      33.607  27.746  21.058  1.00  0.00     0.163 HD
ATOM     76  O   UNL A   1      33.574  25.462  21.346  1.00  0.00    -0.268 OA
BRANCH  74  77
ATOM     77  C   UNL A   1      32.635  25.653  23.564  1.00  0.00     0.283 C 
ATOM     78  C   UNL A   1      31.116  25.653  23.735  1.00  0.00     0.151 C 
ATOM     79  N   UNL A   1      33.217  24.309  23.800  1.00  0.00    -0.321 N 
ATOM     80  S   UNL A   1      30.656  23.919  24.011  1.00  0.00    -0.088 SA
ATOM     81  C   UNL A   1      32.292  23.529  24.623  1.00  0.00     0.274 C 
ATOM     82  H   UNL A   1      34.109  24.403  24.285  1.00  0.00     0.348 HD
ATOM     83  H   UNL A   1      33.368  23.836  22.910  1.00  0.00     0.348 HD
BRANCH  81  84
ATOM     84  C   UNL A   1      32.742  22.081  24.639  1.00  0.00     0.024 A 
ATOM     85  C   UNL A   1      32.190  21.064  23.847  1.00  0.00     0.011 A 
ATOM     86  C   UNL A   1      33.932  21.809  25.347  1.00  0.00     0.057 A 
ATOM     87  C   UNL A   1      32.806  19.810  23.776  1.00  0.00     0.004 A 
ATOM     88  C   UNL A   1      34.615  20.608  25.166  1.00  0.00     0.120 A 
ATOM     89  C   UNL A   1      34.016  19.585  24.432  1.00  0.00     0.046 A 
BRANCH  88  90
ATOM     90  O   UNL A   1      35.932  20.390  25.473  1.00  0.00    -0.489 OA
BRANCH  90  91
ATOM     91  C   UNL A   1      36.932  21.120  24.767  1.00  0.00     0.267 C 
BRANCH  91  92
ATOM     92  C   UNL A   1      37.771  22.200  25.455  1.00  0.00     0.008 A 
ATOM     93  C   UNL A   1      39.034  21.756  25.919  1.00  0.00     0.010 A 
ATOM     94  C   UNL A   1      37.397  23.512  25.801  1.00  0.00     0.049 A 
ATOM     95  C   UNL A   1      39.839  22.546  26.745  1.00  0.00     0.021 A 
ATOM     96  C   UNL A   1      38.165  24.265  26.703  1.00  0.00     0.041 A 
ATOM     97  Cl  UNL A   1      36.102  24.399  25.089  1.00  0.00    -0.084 Cl
ATOM     98  C   UNL A   1      39.377  23.781  27.172  1.00  0.00     0.042 A 
ATOM     99  Cl  UNL A   1      40.322  24.726  28.251  1.00  0.00    -0.084 Cl
ENDBRANCH  91  92
ENDBRANCH  90  91
ENDBRANCH  88  90
ENDBRANCH  81  84
ENDBRANCH  74  77
ENDBRANCH  72  73
ENDBRANCH   1  72
TORSDOF 17
ENDMDL
MODEL 3
REMARK VINA RESULT:     -12.2      5.016     10.641
REMARK SMILES O=C(NCCCNC(=O)[C@H]1CS[C@@H](c2cccc(OCc3ccc(Cl)cc3Cl)c2)[NH2+]1)c1ccc(-c2c3nc(c(-c4cc(S(=O)(=O)[O-])ccc4F)c4ccc([nH]4)c(-c4cc(S(=O)(=O)[O-])ccc4F)c4nc(c(-c5cc(S(=O)(=O)[O-])ccc5F)c5ccc2[nH]5)C=C4)C=C3)cc1
REMARK SMILES IDX 5 1 4 2 3 3 1 4 2 5 31 7 32 8 93 9 33 10 92 11 34 12 35 13
REMARK SMILES IDX 36 14 86 15 37 16 91 17 85 18 87 19 38 20 90 21 84 22 83 23
REMARK SMILES IDX 39 25 71 26 51 27 70 28 52 29 55 30 69 31 88 32 53 33 54 34
REMARK SMILES IDX 68 36 89 37 56 38 40 39 41 40 49 41 42 42 48 43 50 44 47 45
REMARK SMILES IDX 43 46 44 47 45 48 46 49 72 50 73 51 81 52 74 53 80 54 82 55
REMARK SMILES IDX 79 56 75 57 76 58 77 59 78 60 57 61 58 62 66 63 59 64 65 65
REMARK SMILES IDX 67 66 64 67 60 68 61 69 62 70 63 71 6 72 7 73 8 74 9 76
REMARK SMILES IDX 10 77 11 78 30 79 12 80 13 81 14 84 15 85 29 86 16 87 18 88
REMARK SMILES IDX 17 89 19 90 20 91 21 92 22 93 27 94 23 95 26 96 28 97 24 98
REMARK SMILES IDX 25 99
REMARK H PARENT 3 6 87 24 55 35 7 75 30 82 30 83
REMARK Flexibility Score: inf
ROOT
ATOM      1  C   UNL A   1      34.582  33.410  29.441  1.00  0.00     0.042 C 
ENDROOT
BRANCH   1   2
ATOM      2  C   UNL A   1      34.879  32.818  28.067  1.00  0.00     0.118 C 
BRANCH   2   3
ATOM      3  N   UNL A   1      34.120  31.601  27.819  1.00  0.00    -0.352 N 
ATOM      4  O   UNL A   1      33.774  29.472  27.194  1.00  0.00    -0.269 OA
ATOM      5  C   UNL A   1      34.555  30.310  27.634  1.00  0.00     0.251 C 
ATOM      6  H   UNL A   1      33.144  31.721  27.777  1.00  0.00     0.163 HD
BRANCH   5   7
ATOM      7  C   UNL A   1      35.947  29.929  27.960  1.00  0.00     0.039 A 
ATOM      8  C   UNL A   1      36.984  30.165  27.054  1.00  0.00     0.014 A 
ATOM      9  C   UNL A   1      36.230  29.383  29.215  1.00  0.00     0.014 A 
ATOM     10  C   UNL A   1      38.275  29.736  27.347  1.00  0.00     0.010 A 
ATOM     11  C   UNL A   1      37.544  29.036  29.544  1.00  0.00     0.010 A 
ATOM     12  C   UNL A   1      38.575  29.190  28.604  1.00  0.00    -0.014 A 
BRANCH  12  13
ATOM     13  C   UNL A   1      39.982  28.844  28.935  1.00  0.00     0.031 A 
ATOM     14  C   UNL A   1      40.808  29.732  29.822  1.00  0.00     0.074 A 
ATOM     15  C   UNL A   1      40.507  27.708  28.433  1.00  0.00     0.049 A 
ATOM     16  N   UNL A   1      42.057  29.599  30.191  1.00  0.00    -0.248 NA
ATOM     17  C   UNL A   1      40.149  30.932  30.355  1.00  0.00     0.031 C 
ATOM     18  C   UNL A   1      39.795  26.768  27.563  1.00  0.00     0.029 A 
ATOM     19  N   UNL A   1      41.746  27.143  28.585  1.00  0.00    -0.354 N 
ATOM     20  C   UNL A   1      42.340  30.703  30.989  1.00  0.00     0.074 A 
ATOM     21  C   UNL A   1      41.140  31.515  31.014  1.00  0.00     0.031 C 
ATOM     22  C   UNL A   1      40.595  25.728  27.290  1.00  0.00     0.029 A 
ATOM     23  C   UNL A   1      41.900  25.961  27.898  1.00  0.00     0.049 A 
ATOM     24  H   UNL A   1      42.459  27.544  29.134  1.00  0.00     0.167 HD
ATOM     25  C   UNL A   1      43.490  31.003  31.643  1.00  0.00     0.034 A 
ATOM     26  C   UNL A   1      42.978  25.168  27.744  1.00  0.00     0.034 A 
ATOM     27  C   UNL A   1      44.679  30.180  31.595  1.00  0.00     0.049 A 
ATOM     28  C   UNL A   1      44.262  25.556  28.425  1.00  0.00     0.074 A 
ATOM     29  C   UNL A   1      45.890  30.375  32.236  1.00  0.00     0.029 A 
ATOM     30  N   UNL A   1      44.812  29.013  30.850  1.00  0.00    -0.354 N 
ATOM     31  N   UNL A   1      44.509  26.595  29.188  1.00  0.00    -0.248 NA
ATOM     32  C   UNL A   1      45.409  24.663  28.229  1.00  0.00     0.031 C 
ATOM     33  C   UNL A   1      46.776  29.376  31.818  1.00  0.00     0.029 A 
ATOM     34  C   UNL A   1      46.094  28.501  30.988  1.00  0.00     0.049 A 
ATOM     35  H   UNL A   1      44.098  28.609  30.304  1.00  0.00     0.167 HD
ATOM     36  C   UNL A   1      45.836  26.466  29.585  1.00  0.00     0.074 A 
ATOM     37  C   UNL A   1      46.328  25.239  28.990  1.00  0.00     0.031 C 
ATOM     38  C   UNL A   1      46.578  27.283  30.376  1.00  0.00     0.034 A 
BRANCH  25  39
ATOM     39  C   UNL A   1      43.532  32.299  32.423  1.00  0.00     0.023 A 
ATOM     40  C   UNL A   1      42.947  32.419  33.695  1.00  0.00     0.031 A 
ATOM     41  C   UNL A   1      44.138  33.442  31.870  1.00  0.00     0.131 A 
ATOM     42  C   UNL A   1      42.908  33.668  34.336  1.00  0.00     0.055 A 
ATOM     43  C   UNL A   1      44.174  34.661  32.550  1.00  0.00     0.041 A 
ATOM     44  F   UNL A   1      44.695  33.399  30.650  1.00  0.00    -0.206 F 
ATOM     45  C   UNL A   1      43.541  34.784  33.784  1.00  0.00     0.022 A 
BRANCH  42  46
ATOM     46  S   UNL A   1      41.880  33.848  35.819  1.00  0.00     0.124 S 
ATOM     47  O   UNL A   1      40.627  34.344  35.254  1.00  0.00    -0.237 OA
ATOM     48  O   UNL A   1      41.846  32.490  36.348  1.00  0.00    -0.237 OA
ATOM     49  O   UNL A   1      42.613  34.817  36.630  1.00  0.00    -0.744 OA
ENDBRANCH  42  46
ENDBRANCH  25  39
BRANCH  26  50
ATOM     50  C   UNL A   1      42.896  23.956  26.881  1.00  0.00     0.023 A 
ATOM     51  C   UNL A   1      42.188  22.816  27.293  1.00  0.00     0.031 A 
ATOM     52  C   UNL A   1      43.543  23.914  25.633  1.00  0.00     0.131 A 
ATOM     53  C   UNL A   1      42.177  21.671  26.482  1.00  0.00     0.055 A 
ATOM     54  C   UNL A   1      43.479  22.793  24.803  1.00  0.00     0.041 A 
ATOM     55  F   UNL A   1      44.232  24.978  25.188  1.00  0.00    -0.206 F 
ATOM     56  C   UNL A   1      42.803  21.657  25.234  1.00  0.00     0.022 A 
BRANCH  53  57
ATOM     57  S   UNL A   1      41.396  20.164  27.122  1.00  0.00     0.124 S 
ATOM     58  O   UNL A   1      40.786  20.647  28.354  1.00  0.00    -0.237 OA
ATOM     59  O   UNL A   1      40.476  19.818  26.043  1.00  0.00    -0.237 OA
ATOM     60  O   UNL A   1      42.521  19.248  27.298  1.00  0.00    -0.744 OA
ENDBRANCH  53  57
ENDBRANCH  26  50
BRANCH  38  61
ATOM     61  C   UNL A   1      47.989  26.842  30.683  1.00  0.00     0.023 A 
ATOM     62  C   UNL A   1      48.270  25.872  31.661  1.00  0.00     0.031 A 
ATOM     63  C   UNL A   1      49.071  27.415  29.991  1.00  0.00     0.131 A 
ATOM     64  C   UNL A   1      49.603  25.547  31.960  1.00  0.00     0.055 A 
ATOM     65  C   UNL A   1      50.390  27.038  30.246  1.00  0.00     0.041 A 
ATOM     66  F   UNL A   1      48.863  28.350  29.051  1.00  0.00    -0.206 F 
ATOM     67  C   UNL A   1      50.663  26.109  31.245  1.00  0.00     0.022 A 
BRANCH  64  68
ATOM     68  S   UNL A   1      49.938  24.452  33.366  1.00  0.00     0.124 S 
ATOM     69  O   UNL A   1      50.517  23.284  32.709  1.00  0.00    -0.237 OA
ATOM     70  O   UNL A   1      50.855  25.249  34.173  1.00  0.00    -0.237 OA
ATOM     71  O   UNL A   1      48.618  24.239  33.958  1.00  0.00    -0.744 OA
ENDBRANCH  64  68
ENDBRANCH  38  61
ENDBRANCH  12  13
ENDBRANCH   5   7
ENDBRANCH   2   3
ENDBRANCH   1   2
BRANCH   1  72
ATOM     72  C   UNL A   1      35.253  32.655  30.587  1.00  0.00     0.118 C 
BRANCH  72  73
ATOM     73  N   UNL A   1      34.594  32.921  31.852  1.00  0.00    -0.351 N 
ATOM     74  C   UNL A   1      35.057  33.019  33.126  1.00  0.00     0.279 C 
ATOM     75  H   UNL A   1      33.622  33.058  31.771  1.00  0.00     0.163 HD
ATOM     76  O   UNL A   1      34.195  33.185  33.999  1.00  0.00    -0.268 OA
BRANCH  74  77
ATOM     77  C   UNL A   1      36.557  33.081  33.501  1.00  0.00     0.283 C 
ATOM     78  C   UNL A   1      36.955  33.482  34.922  1.00  0.00     0.151 C 
ATOM     79  N   UNL A   1      37.193  31.805  33.089  1.00  0.00    -0.321 N 
ATOM     80  S   UNL A   1      37.942  32.099  35.560  1.00  0.00    -0.088 SA
ATOM     81  C   UNL A   1      38.388  31.585  33.905  1.00  0.00     0.274 C 
ATOM     82  H   UNL A   1      37.455  31.857  32.105  1.00  0.00     0.348 HD
ATOM     83  H   UNL A   1      36.539  31.034  33.221  1.00  0.00     0.348 HD
BRANCH  81  84
ATOM     84  C   UNL A   1      38.883  30.169  33.686  1.00  0.00     0.024 A 
ATOM     85  C   UNL A   1      38.256  29.221  32.865  1.00  0.00     0.011 A 
ATOM     86  C   UNL A   1      40.171  29.878  34.183  1.00  0.00     0.057 A 
ATOM     87  C   UNL A   1      38.896  28.015  32.560  1.00  0.00     0.004 A 
ATOM     88  C   UNL A   1      40.860  28.740  33.767  1.00  0.00     0.120 A 
ATOM     89  C   UNL A   1      40.194  27.778  33.009  1.00  0.00     0.046 A 
BRANCH  88  90
ATOM     90  O   UNL A   1      42.214  28.555  33.858  1.00  0.00    -0.489 OA
BRANCH  90  91
ATOM     91  C   UNL A   1      42.821  27.527  33.080  1.00  0.00     0.267 C 
BRANCH  91  92
ATOM     92  C   UNL A   1      43.427  26.281  33.730  1.00  0.00     0.008 A 
ATOM     93  C   UNL A   1      44.629  25.831  33.131  1.00  0.00     0.010 A 
ATOM     94  C   UNL A   1      42.879  25.463  34.736  1.00  0.00     0.049 A 
ATOM     95  C   UNL A   1      45.206  24.601  33.460  1.00  0.00     0.021 A 
ATOM     96  C   UNL A   1      43.410  24.190  34.997  1.00  0.00     0.041 A 
ATOM     97  Cl  UNL A   1      41.644  25.937  35.843  1.00  0.00    -0.084 Cl
ATOM     98  C   UNL A   1      44.565  23.764  34.360  1.00  0.00     0.042 A 
ATOM     99  Cl  UNL A   1      45.222  22.216  34.712  1.00  0.00    -0.084 Cl
ENDBRANCH  91  92
ENDBRANCH  90  91
ENDBRANCH  88  90
ENDBRANCH  81  84
ENDBRANCH  74  77
ENDBRANCH  72  73
ENDBRANCH   1  72
TORSDOF 17
ENDMDL
