MODEL 1
REMARK VINA RESULT:     -13.0      0.000      0.000
REMARK SMILES COC(=O)c1ccc(C)c2c1[C@H]1C=CC[C@H]1[C@@H](c1ccc(C(=O)NCCCNC(=O)c3ccc(-c4c5nc(c(-c6cc(S(=O)(=O)[O-])ccc6F)c6ccc([nH]6)c(-c6cc(S(=O)(=O)[O-])ccc6F)c6nc(c(-c7cc(S(=O)(=O)[O-])ccc7F)c7ccc4[nH]7)C=C6)C=C5)cc3)cc1)N2
REMARK SMILES IDX 26 1 25 2 24 3 22 4 23 5 21 7 18 8 19 9 95 10 20 11 94 12
REMARK SMILES IDX 17 13 5 14 6 15 11 16 7 17 10 18 12 19 8 20 96 21 13 22
REMARK SMILES IDX 16 23 9 24 14 26 15 27 3 28 4 29 2 30 1 31 27 32 28 33 29 34
REMARK SMILES IDX 30 36 31 37 32 38 93 39 33 40 92 41 34 42 35 43 36 44 86 45
REMARK SMILES IDX 37 46 91 47 85 48 87 49 38 50 90 51 84 52 83 53 39 55 71 56
REMARK SMILES IDX 51 57 70 58 52 59 55 60 69 61 88 62 53 63 54 64 68 66 89 67
REMARK SMILES IDX 56 68 40 69 41 70 49 71 42 72 48 73 50 74 47 75 43 76 44 77
REMARK SMILES IDX 45 78 46 79 72 80 73 81 81 82 74 83 80 84 82 85 79 86 75 87
REMARK SMILES IDX 76 88 77 89 78 90 57 91 58 92 66 93 59 94 65 95 67 96 64 97
REMARK SMILES IDX 60 98 61 99 62 100 63 101
REMARK H PARENT 24 6 96 25 28 35 87 54 55 65
REMARK Flexibility Score: inf
ROOT
ATOM      1  C   UNL A   1      31.691  32.115  26.869  1.00  0.00     0.042 C 
ENDROOT
BRANCH   1   2
ATOM      2  C   UNL A   1      31.844  30.598  26.907  1.00  0.00     0.118 C 
BRANCH   2   3
ATOM      3  N   UNL A   1      33.126  30.244  27.470  1.00  0.00    -0.352 N 
ATOM      4  C   UNL A   1      34.056  29.329  27.084  1.00  0.00     0.251 C 
ATOM      5  O   UNL A   1      35.057  29.193  27.789  1.00  0.00    -0.269 OA
ATOM      6  H   UNL A   1      33.370  30.756  28.275  1.00  0.00     0.163 HD
BRANCH   4   7
ATOM      7  C   UNL A   1      33.941  28.554  25.829  1.00  0.00     0.039 A 
ATOM      8  C   UNL A   1      33.398  26.777  23.696  1.00  0.00    -0.025 A 
ATOM      9  C   UNL A   1      34.018  26.345  24.880  1.00  0.00     0.006 A 
ATOM     10  C   UNL A   1      33.266  28.161  23.527  1.00  0.00     0.006 A 
ATOM     11  C   UNL A   1      34.252  27.206  25.943  1.00  0.00     0.014 A 
ATOM     12  C   UNL A   1      33.487  29.037  24.599  1.00  0.00     0.014 A 
BRANCH   8  13
ATOM     13  C   UNL A   1      32.729  25.804  22.701  1.00  0.00     0.114 C 
ATOM     14  C   UNL A   1      32.611  22.901  25.736  1.00  0.00     0.065 A 
ATOM     15  C   UNL A   1      33.786  22.184  25.987  1.00  0.00     0.016 A 
ATOM     16  C   UNL A   1      32.464  23.657  24.553  1.00  0.00    -0.003 A 
ATOM     17  C   UNL A   1      34.817  22.187  25.054  1.00  0.00     0.006 A 
ATOM     18  C   UNL A   1      33.520  23.651  23.598  1.00  0.00     0.042 A 
ATOM     19  C   UNL A   1      31.216  24.484  24.290  1.00  0.00     0.050 C 
ATOM     20  C   UNL A   1      34.699  22.907  23.856  1.00  0.00    -0.028 A 
ATOM     21  N   UNL A   1      33.498  24.570  22.546  1.00  0.00    -0.377 N 
ATOM     22  C   UNL A   1      30.844  25.538  25.307  1.00  0.00    -0.023 C 
ATOM     23  C   UNL A   1      31.272  25.343  23.005  1.00  0.00     0.031 C 
ATOM     24  C   UNL A   1      35.935  22.987  22.996  1.00  0.00     0.046 C 
ATOM     25  H   UNL A   1      33.992  24.391  21.714  1.00  0.00     0.161 HD
ATOM     26  C   UNL A   1      30.275  26.604  24.728  1.00  0.00    -0.030 C 
ATOM     27  C   UNL A   1      30.243  26.457  23.242  1.00  0.00     0.034 C 
BRANCH  14  28
ATOM     28  C   UNL A   1      31.541  22.841  26.761  1.00  0.00     0.338 C 
ATOM     29  O   UNL A   1      31.641  23.283  27.884  1.00  0.00    -0.246 OA
BRANCH  28  30
ATOM     30  O   UNL A   1      30.480  22.179  26.227  1.00  0.00    -0.465 OA
ATOM     31  C   UNL A   1      29.240  22.447  26.884  1.00  0.00     0.282 C 
ENDBRANCH  28  30
ENDBRANCH  14  28
ENDBRANCH   8  13
ENDBRANCH   4   7
ENDBRANCH   2   3
ENDBRANCH   1   2
BRANCH   1  32
ATOM     32  C   UNL A   1      32.998  32.836  27.185  1.00  0.00     0.118 C 
BRANCH  32  33
ATOM     33  N   UNL A   1      32.746  34.191  27.660  1.00  0.00    -0.352 N 
ATOM     34  C   UNL A   1      33.186  34.776  28.818  1.00  0.00     0.251 C 
ATOM     35  H   UNL A   1      32.190  34.756  27.076  1.00  0.00     0.163 HD
ATOM     36  O   UNL A   1      32.636  35.779  29.260  1.00  0.00    -0.269 OA
BRANCH  34  37
ATOM     37  C   UNL A   1      34.348  34.187  29.502  1.00  0.00     0.039 A 
ATOM     38  C   UNL A   1      34.153  33.286  30.551  1.00  0.00     0.014 A 
ATOM     39  C   UNL A   1      35.635  34.545  29.089  1.00  0.00     0.014 A 
ATOM     40  C   UNL A   1      35.263  32.714  31.172  1.00  0.00     0.010 A 
ATOM     41  C   UNL A   1      36.735  33.934  29.670  1.00  0.00     0.010 A 
ATOM     42  C   UNL A   1      36.556  33.029  30.727  1.00  0.00    -0.014 A 
BRANCH  42  43
ATOM     43  C   UNL A   1      37.762  32.470  31.371  1.00  0.00     0.031 A 
ATOM     44  C   UNL A   1      38.462  31.313  30.720  1.00  0.00     0.074 A 
ATOM     45  C   UNL A   1      38.146  32.923  32.579  1.00  0.00     0.049 A 
ATOM     46  N   UNL A   1      39.430  30.572  31.187  1.00  0.00    -0.248 NA
ATOM     47  C   UNL A   1      37.993  30.918  29.379  1.00  0.00     0.031 C 
ATOM     48  C   UNL A   1      37.500  34.012  33.311  1.00  0.00     0.029 A 
ATOM     49  N   UNL A   1      39.142  32.496  33.420  1.00  0.00    -0.354 N 
ATOM     50  C   UNL A   1      39.671  29.614  30.211  1.00  0.00     0.074 A 
ATOM     51  C   UNL A   1      38.728  29.840  29.141  1.00  0.00     0.031 C 
ATOM     52  C   UNL A   1      38.105  34.156  34.501  1.00  0.00     0.029 A 
ATOM     53  C   UNL A   1      39.152  33.144  34.633  1.00  0.00     0.049 A 
ATOM     54  H   UNL A   1      39.789  31.794  33.178  1.00  0.00     0.167 HD
ATOM     55  C   UNL A   1      40.611  28.643  30.209  1.00  0.00     0.034 A 
ATOM     56  C   UNL A   1      39.897  32.927  35.737  1.00  0.00     0.034 A 
ATOM     57  C   UNL A   1      41.563  28.458  31.269  1.00  0.00     0.049 A 
ATOM     58  C   UNL A   1      40.953  31.853  35.701  1.00  0.00     0.074 A 
ATOM     59  C   UNL A   1      42.607  27.553  31.324  1.00  0.00     0.029 A 
ATOM     60  N   UNL A   1      41.592  29.183  32.450  1.00  0.00    -0.354 N 
ATOM     61  N   UNL A   1      41.236  31.014  34.732  1.00  0.00    -0.248 NA
ATOM     62  C   UNL A   1      41.802  31.697  36.890  1.00  0.00     0.031 C 
ATOM     63  C   UNL A   1      43.236  27.694  32.559  1.00  0.00     0.029 A 
ATOM     64  C   UNL A   1      42.627  28.732  33.248  1.00  0.00     0.049 A 
ATOM     65  H   UNL A   1      40.972  29.910  32.685  1.00  0.00     0.167 HD
ATOM     66  C   UNL A   1      42.311  30.255  35.181  1.00  0.00     0.074 A 
ATOM     67  C   UNL A   1      42.637  30.738  36.506  1.00  0.00     0.031 C 
ATOM     68  C   UNL A   1      42.968  29.251  34.550  1.00  0.00     0.034 A 
BRANCH  55  69
ATOM     69  C   UNL A   1      40.708  27.720  29.027  1.00  0.00     0.023 A 
ATOM     70  C   UNL A   1      41.625  28.001  27.999  1.00  0.00     0.031 A 
ATOM     71  C   UNL A   1      39.781  26.681  28.838  1.00  0.00     0.131 A 
ATOM     72  C   UNL A   1      41.558  27.285  26.799  1.00  0.00     0.055 A 
ATOM     73  C   UNL A   1      39.745  25.945  27.654  1.00  0.00     0.041 A 
ATOM     74  F   UNL A   1      38.891  26.378  29.796  1.00  0.00    -0.206 F 
ATOM     75  C   UNL A   1      40.626  26.256  26.621  1.00  0.00     0.022 A 
BRANCH  72  76
ATOM     76  S   UNL A   1      42.639  27.702  25.404  1.00  0.00     0.124 S 
ATOM     77  O   UNL A   1      42.668  26.448  24.655  1.00  0.00    -0.237 OA
ATOM     78  O   UNL A   1      41.908  28.793  24.769  1.00  0.00    -0.237 OA
ATOM     79  O   UNL A   1      43.901  28.068  26.040  1.00  0.00    -0.744 OA
ENDBRANCH  72  76
ENDBRANCH  55  69
BRANCH  56  80
ATOM     80  C   UNL A   1      39.675  33.779  36.939  1.00  0.00     0.023 A 
ATOM     81  C   UNL A   1      40.511  34.878  37.207  1.00  0.00     0.031 A 
ATOM     82  C   UNL A   1      38.696  33.444  37.889  1.00  0.00     0.131 A 
ATOM     83  C   UNL A   1      40.390  35.566  38.421  1.00  0.00     0.055 A 
ATOM     84  C   UNL A   1      38.536  34.173  39.069  1.00  0.00     0.041 A 
ATOM     85  F   UNL A   1      37.886  32.395  37.683  1.00  0.00    -0.206 F 
ATOM     86  C   UNL A   1      39.396  35.232  39.346  1.00  0.00     0.022 A 
BRANCH  83  87
ATOM     87  S   UNL A   1      41.589  36.845  38.888  1.00  0.00     0.124 S 
ATOM     88  O   UNL A   1      42.287  37.085  37.630  1.00  0.00    -0.237 OA
ATOM     89  O   UNL A   1      40.709  37.923  39.338  1.00  0.00    -0.237 OA
ATOM     90  O   UNL A   1      42.378  36.211  39.939  1.00  0.00    -0.744 OA
ENDBRANCH  83  87
ENDBRANCH  56  80
BRANCH  68  91
ATOM     91  C   UNL A   1      44.140  28.597  35.232  1.00  0.00     0.023 A 
ATOM     92  C   UNL A   1      43.910  27.528  36.121  1.00  0.00     0.031 A 
ATOM     93  C   UNL A   1      45.422  29.163  35.182  1.00  0.00     0.131 A 
ATOM     94  C   UNL A   1      44.934  27.102  36.971  1.00  0.00     0.055 A 
ATOM     95  C   UNL A   1      46.454  28.702  36.000  1.00  0.00     0.041 A 
ATOM     96  F   UNL A   1      45.680  30.192  34.357  1.00  0.00    -0.206 F 
ATOM     97  C   UNL A   1      46.207  27.679  36.912  1.00  0.00     0.022 A 
BRANCH  94  98
ATOM     98  S   UNL A   1      44.625  25.846  38.244  1.00  0.00     0.124 S 
ATOM     99  O   UNL A   1      43.844  26.594  39.226  1.00  0.00    -0.237 OA
ATOM    100  O   UNL A   1      43.886  24.831  37.500  1.00  0.00    -0.237 OA
ATOM    101  O   UNL A   1      45.961  25.458  38.684  1.00  0.00    -0.744 OA
ENDBRANCH  94  98
ENDBRANCH  68  91
ENDBRANCH  42  43
ENDBRANCH  34  37
ENDBRANCH  32  33
ENDBRANCH   1  32
TORSDOF 16
ENDMDL
MODEL 2
REMARK VINA RESULT:     -12.9      6.017     10.903
REMARK SMILES COC(=O)c1ccc(C)c2c1[C@H]1C=CC[C@H]1[C@@H](c1ccc(C(=O)NCCCNC(=O)c3ccc(-c4c5nc(c(-c6cc(S(=O)(=O)[O-])ccc6F)c6ccc([nH]6)c(-c6cc(S(=O)(=O)[O-])ccc6F)c6nc(c(-c7cc(S(=O)(=O)[O-])ccc7F)c7ccc4[nH]7)C=C6)C=C5)cc3)cc1)N2
REMARK SMILES IDX 26 1 25 2 24 3 22 4 23 5 21 7 18 8 19 9 95 10 20 11 94 12
REMARK SMILES IDX 17 13 5 14 6 15 11 16 7 17 10 18 12 19 8 20 96 21 13 22
REMARK SMILES IDX 16 23 9 24 14 26 15 27 3 28 4 29 2 30 1 31 27 32 28 33 29 34
REMARK SMILES IDX 30 36 31 37 32 38 93 39 33 40 92 41 34 42 35 43 36 44 86 45
REMARK SMILES IDX 37 46 91 47 85 48 87 49 38 50 90 51 84 52 83 53 39 55 71 56
REMARK SMILES IDX 51 57 70 58 52 59 55 60 69 61 88 62 53 63 54 64 68 66 89 67
REMARK SMILES IDX 56 68 40 69 41 70 49 71 42 72 48 73 50 74 47 75 43 76 44 77
REMARK SMILES IDX 45 78 46 79 72 80 73 81 81 82 74 83 80 84 82 85 79 86 75 87
REMARK SMILES IDX 76 88 77 89 78 90 57 91 58 92 66 93 59 94 65 95 67 96 64 97
REMARK SMILES IDX 60 98 61 99 62 100 63 101
REMARK H PARENT 24 6 96 25 28 35 87 54 55 65
REMARK Flexibility Score: inf
ROOT
ATOM      1  C   UNL A   1      38.159  19.828  24.986  1.00  0.00     0.042 C 
ENDROOT
BRANCH   1   2
ATOM      2  C   UNL A   1      37.454  21.086  24.489  1.00  0.00     0.118 C 
BRANCH   2   3
ATOM      3  N   UNL A   1      38.052  22.257  25.087  1.00  0.00    -0.352 N 
ATOM      4  C   UNL A   1      37.498  23.316  25.737  1.00  0.00     0.251 C 
ATOM      5  O   UNL A   1      38.249  24.220  26.106  1.00  0.00    -0.269 OA
ATOM      6  H   UNL A   1      39.032  22.295  25.010  1.00  0.00     0.163 HD
BRANCH   4   7
ATOM      7  C   UNL A   1      36.058  23.384  26.073  1.00  0.00     0.039 A 
ATOM      8  C   UNL A   1      33.245  23.636  26.221  1.00  0.00    -0.025 A 
ATOM      9  C   UNL A   1      34.070  24.725  25.893  1.00  0.00     0.006 A 
ATOM     10  C   UNL A   1      33.887  22.482  26.689  1.00  0.00     0.006 A 
ATOM     11  C   UNL A   1      35.447  24.596  25.784  1.00  0.00     0.014 A 
ATOM     12  C   UNL A   1      35.277  22.338  26.569  1.00  0.00     0.014 A 
BRANCH   8  13
ATOM     13  C   UNL A   1      31.730  23.617  25.923  1.00  0.00     0.114 C 
ATOM     14  C   UNL A   1      32.310  26.731  23.164  1.00  0.00     0.065 A 
ATOM     15  C   UNL A   1      32.417  28.030  23.672  1.00  0.00     0.016 A 
ATOM     16  C   UNL A   1      31.810  25.680  23.963  1.00  0.00    -0.003 A 
ATOM     17  C   UNL A   1      32.004  28.307  24.970  1.00  0.00     0.006 A 
ATOM     18  C   UNL A   1      31.381  25.971  25.290  1.00  0.00     0.042 A 
ATOM     19  C   UNL A   1      31.736  24.254  23.443  1.00  0.00     0.050 C 
ATOM     20  C   UNL A   1      31.479  27.294  25.788  1.00  0.00    -0.028 A 
ATOM     21  N   UNL A   1      31.112  24.919  26.168  1.00  0.00    -0.377 N 
ATOM     22  C   UNL A   1      33.018  23.614  22.965  1.00  0.00    -0.023 C 
ATOM     23  C   UNL A   1      31.276  23.211  24.489  1.00  0.00     0.031 C 
ATOM     24  C   UNL A   1      31.225  27.659  27.229  1.00  0.00     0.046 C 
ATOM     25  H   UNL A   1      30.515  25.051  26.940  1.00  0.00     0.161 HD
ATOM     26  C   UNL A   1      33.038  22.298  23.218  1.00  0.00    -0.030 C 
ATOM     27  C   UNL A   1      31.813  21.874  23.960  1.00  0.00     0.034 C 
BRANCH  14  28
ATOM     28  C   UNL A   1      32.748  26.505  21.766  1.00  0.00     0.338 C 
ATOM     29  O   UNL A   1      33.888  26.633  21.374  1.00  0.00    -0.246 OA
BRANCH  28  30
ATOM     30  O   UNL A   1      31.655  26.180  21.026  1.00  0.00    -0.465 OA
ATOM     31  C   UNL A   1      31.963  25.526  19.793  1.00  0.00     0.282 C 
ENDBRANCH  28  30
ENDBRANCH  14  28
ENDBRANCH   8  13
ENDBRANCH   4   7
ENDBRANCH   2   3
ENDBRANCH   1   2
BRANCH   1  32
ATOM     32  C   UNL A   1      39.112  20.118  26.142  1.00  0.00     0.118 C 
BRANCH  32  33
ATOM     33  N   UNL A   1      40.252  19.209  26.121  1.00  0.00    -0.352 N 
ATOM     34  C   UNL A   1      41.581  19.522  26.018  1.00  0.00     0.251 C 
ATOM     35  H   UNL A   1      40.039  18.250  26.188  1.00  0.00     0.163 HD
ATOM     36  O   UNL A   1      42.398  18.676  25.671  1.00  0.00    -0.269 OA
BRANCH  34  37
ATOM     37  C   UNL A   1      42.006  20.889  26.358  1.00  0.00     0.039 A 
ATOM     38  C   UNL A   1      42.106  21.855  25.355  1.00  0.00     0.014 A 
ATOM     39  C   UNL A   1      42.307  21.197  27.688  1.00  0.00     0.014 A 
ATOM     40  C   UNL A   1      42.483  23.153  25.695  1.00  0.00     0.010 A 
ATOM     41  C   UNL A   1      42.628  22.500  28.033  1.00  0.00     0.010 A 
ATOM     42  C   UNL A   1      42.735  23.482  27.036  1.00  0.00    -0.014 A 
BRANCH  42  43
ATOM     43  C   UNL A   1      43.164  24.836  27.442  1.00  0.00     0.031 A 
ATOM     44  C   UNL A   1      42.157  25.761  28.062  1.00  0.00     0.074 A 
ATOM     45  C   UNL A   1      44.407  25.261  27.148  1.00  0.00     0.049 A 
ATOM     46  N   UNL A   1      42.273  27.031  28.340  1.00  0.00    -0.248 NA
ATOM     47  C   UNL A   1      40.837  25.191  28.383  1.00  0.00     0.031 C 
ATOM     48  C   UNL A   1      45.441  24.449  26.504  1.00  0.00     0.029 A 
ATOM     49  N   UNL A   1      44.996  26.489  27.310  1.00  0.00    -0.354 N 
ATOM     50  C   UNL A   1      41.039  27.415  28.849  1.00  0.00     0.074 A 
ATOM     51  C   UNL A   1      40.176  26.258  28.809  1.00  0.00     0.031 C 
ATOM     52  C   UNL A   1      46.532  25.207  26.310  1.00  0.00     0.029 A 
ATOM     53  C   UNL A   1      46.261  26.566  26.776  1.00  0.00     0.049 A 
ATOM     54  H   UNL A   1      44.556  27.242  27.768  1.00  0.00     0.167 HD
ATOM     55  C   UNL A   1      40.673  28.627  29.321  1.00  0.00     0.034 A 
ATOM     56  C   UNL A   1      47.095  27.619  26.647  1.00  0.00     0.034 A 
ATOM     57  C   UNL A   1      41.559  29.755  29.385  1.00  0.00     0.049 A 
ATOM     58  C   UNL A   1      46.671  28.955  27.201  1.00  0.00     0.074 A 
ATOM     59  C   UNL A   1      41.306  31.005  29.921  1.00  0.00     0.029 A 
ATOM     60  N   UNL A   1      42.859  29.776  28.904  1.00  0.00    -0.354 N 
ATOM     61  N   UNL A   1      45.533  29.282  27.769  1.00  0.00    -0.248 NA
ATOM     62  C   UNL A   1      47.635  30.061  27.118  1.00  0.00     0.031 C 
ATOM     63  C   UNL A   1      42.434  31.798  29.719  1.00  0.00     0.029 A 
ATOM     64  C   UNL A   1      43.414  31.025  29.116  1.00  0.00     0.049 A 
ATOM     65  H   UNL A   1      43.318  29.018  28.478  1.00  0.00     0.167 HD
ATOM     66  C   UNL A   1      45.657  30.618  28.136  1.00  0.00     0.074 A 
ATOM     67  C   UNL A   1      46.983  31.038  27.736  1.00  0.00     0.031 C 
ATOM     68  C   UNL A   1      44.752  31.419  28.751  1.00  0.00     0.034 A 
BRANCH  55  69
ATOM     69  C   UNL A   1      39.278  28.816  29.849  1.00  0.00     0.023 A 
ATOM     70  C   UNL A   1      38.327  29.500  29.070  1.00  0.00     0.031 A 
ATOM     71  C   UNL A   1      38.951  28.485  31.174  1.00  0.00     0.131 A 
ATOM     72  C   UNL A   1      37.109  29.881  29.644  1.00  0.00     0.055 A 
ATOM     73  C   UNL A   1      37.719  28.834  31.729  1.00  0.00     0.041 A 
ATOM     74  F   UNL A   1      39.829  27.830  31.950  1.00  0.00    -0.206 F 
ATOM     75  C   UNL A   1      36.798  29.549  30.968  1.00  0.00     0.022 A 
BRANCH  72  76
ATOM     76  S   UNL A   1      35.910  30.871  28.712  1.00  0.00     0.124 S 
ATOM     77  O   UNL A   1      36.777  31.809  28.002  1.00  0.00    -0.237 OA
ATOM     78  O   UNL A   1      35.266  29.862  27.879  1.00  0.00    -0.237 OA
ATOM     79  O   UNL A   1      35.074  31.470  29.747  1.00  0.00    -0.744 OA
ENDBRANCH  72  76
ENDBRANCH  55  69
BRANCH  56  80
ATOM     80  C   UNL A   1      48.418  27.418  25.993  1.00  0.00     0.023 A 
ATOM     81  C   UNL A   1      48.574  27.614  24.608  1.00  0.00     0.031 A 
ATOM     82  C   UNL A   1      49.514  26.925  26.719  1.00  0.00     0.131 A 
ATOM     83  C   UNL A   1      49.778  27.263  23.986  1.00  0.00     0.055 A 
ATOM     84  C   UNL A   1      50.736  26.638  26.105  1.00  0.00     0.041 A 
ATOM     85  F   UNL A   1      49.409  26.708  28.039  1.00  0.00    -0.206 F 
ATOM     86  C   UNL A   1      50.866  26.794  24.728  1.00  0.00     0.022 A 
BRANCH  83  87
ATOM     87  S   UNL A   1      49.937  27.301  22.179  1.00  0.00     0.124 S 
ATOM     88  O   UNL A   1      48.860  26.410  21.758  1.00  0.00    -0.237 OA
ATOM     89  O   UNL A   1      49.729  28.720  21.894  1.00  0.00    -0.237 OA
ATOM     90  O   UNL A   1      51.290  26.813  21.941  1.00  0.00    -0.744 OA
ENDBRANCH  83  87
ENDBRANCH  56  80
BRANCH  68  91
ATOM     91  C   UNL A   1      45.134  32.837  29.083  1.00  0.00     0.023 A 
ATOM     92  C   UNL A   1      45.057  33.824  28.080  1.00  0.00     0.031 A 
ATOM     93  C   UNL A   1      45.773  33.156  30.290  1.00  0.00     0.131 A 
ATOM     94  C   UNL A   1      45.668  35.064  28.280  1.00  0.00     0.055 A 
ATOM     95  C   UNL A   1      46.341  34.413  30.502  1.00  0.00     0.041 A 
ATOM     96  F   UNL A   1      45.880  32.241  31.267  1.00  0.00    -0.206 F 
ATOM     97  C   UNL A   1      46.306  35.367  29.488  1.00  0.00     0.022 A 
BRANCH  94  98
ATOM     98  S   UNL A   1      45.736  36.295  26.948  1.00  0.00     0.124 S 
ATOM     99  O   UNL A   1      46.867  37.124  27.358  1.00  0.00    -0.237 OA
ATOM    100  O   UNL A   1      45.966  35.461  25.773  1.00  0.00    -0.237 OA
ATOM    101  O   UNL A   1      44.434  36.951  27.011  1.00  0.00    -0.744 OA
ENDBRANCH  94  98
ENDBRANCH  68  91
ENDBRANCH  42  43
ENDBRANCH  34  37
ENDBRANCH  32  33
ENDBRANCH   1  32
TORSDOF 16
ENDMDL
MODEL 3
REMARK VINA RESULT:     -12.9      1.910      2.189
REMARK SMILES COC(=O)c1ccc(C)c2c1[C@H]1C=CC[C@H]1[C@@H](c1ccc(C(=O)NCCCNC(=O)c3ccc(-c4c5nc(c(-c6cc(S(=O)(=O)[O-])ccc6F)c6ccc([nH]6)c(-c6cc(S(=O)(=O)[O-])ccc6F)c6nc(c(-c7cc(S(=O)(=O)[O-])ccc7F)c7ccc4[nH]7)C=C6)C=C5)cc3)cc1)N2
REMARK SMILES IDX 26 1 25 2 24 3 22 4 23 5 21 7 18 8 19 9 95 10 20 11 94 12
REMARK SMILES IDX 17 13 5 14 6 15 11 16 7 17 10 18 12 19 8 20 96 21 13 22
REMARK SMILES IDX 16 23 9 24 14 26 15 27 3 28 4 29 2 30 1 31 27 32 28 33 29 34
REMARK SMILES IDX 30 36 31 37 32 38 93 39 33 40 92 41 34 42 35 43 36 44 86 45
REMARK SMILES IDX 37 46 91 47 85 48 87 49 38 50 90 51 84 52 83 53 39 55 71 56
REMARK SMILES IDX 51 57 70 58 52 59 55 60 69 61 88 62 53 63 54 64 68 66 89 67
REMARK SMILES IDX 56 68 40 69 41 70 49 71 42 72 48 73 50 74 47 75 43 76 44 77
REMARK SMILES IDX 45 78 46 79 72 80 73 81 81 82 74 83 80 84 82 85 79 86 75 87
REMARK SMILES IDX 76 88 77 89 78 90 57 91 58 92 66 93 59 94 65 95 67 96 64 97
REMARK SMILES IDX 60 98 61 99 62 100 63 101
REMARK H PARENT 24 6 96 25 28 35 87 54 55 65
REMARK Flexibility Score: inf
ROOT
ATOM      1  C   UNL A   1      31.538  32.171  26.833  1.00  0.00     0.042 C 
ENDROOT
BRANCH   1   2
ATOM      2  C   UNL A   1      31.728  30.658  26.796  1.00  0.00     0.118 C 
BRANCH   2   3
ATOM      3  N   UNL A   1      32.990  30.304  27.403  1.00  0.00    -0.352 N 
ATOM      4  C   UNL A   1      33.928  29.382  27.053  1.00  0.00     0.251 C 
ATOM      5  O   UNL A   1      34.905  29.248  27.791  1.00  0.00    -0.269 OA
ATOM      6  H   UNL A   1      33.210  30.820  28.211  1.00  0.00     0.163 HD
BRANCH   4   7
ATOM      7  C   UNL A   1      33.850  28.598  25.800  1.00  0.00     0.039 A 
ATOM      8  C   UNL A   1      33.361  26.813  23.661  1.00  0.00    -0.025 A 
ATOM      9  C   UNL A   1      33.921  26.380  24.874  1.00  0.00     0.006 A 
ATOM     10  C   UNL A   1      33.265  28.199  23.475  1.00  0.00     0.006 A 
ATOM     11  C   UNL A   1      34.129  27.246  25.938  1.00  0.00     0.014 A 
ATOM     12  C   UNL A   1      33.459  29.080  24.549  1.00  0.00     0.014 A 
BRANCH   8  13
ATOM     13  C   UNL A   1      32.715  25.846  22.647  1.00  0.00     0.114 C 
ATOM     14  C   UNL A   1      32.305  23.015  25.724  1.00  0.00     0.065 A 
ATOM     15  C   UNL A   1      33.434  22.260  26.058  1.00  0.00     0.016 A 
ATOM     16  C   UNL A   1      32.257  23.751  24.520  1.00  0.00    -0.003 A 
ATOM     17  C   UNL A   1      34.517  22.204  25.190  1.00  0.00     0.006 A 
ATOM     18  C   UNL A   1      33.367  23.684  23.630  1.00  0.00     0.042 A 
ATOM     19  C   UNL A   1      31.060  24.618  24.167  1.00  0.00     0.050 C 
ATOM     20  C   UNL A   1      34.498  22.902  23.972  1.00  0.00    -0.028 A 
ATOM     21  N   UNL A   1      33.443  24.581  22.562  1.00  0.00    -0.377 N 
ATOM     22  C   UNL A   1      30.670  25.707  25.139  1.00  0.00    -0.023 C 
ATOM     23  C   UNL A   1      31.226  25.446  22.871  1.00  0.00     0.031 C 
ATOM     24  C   UNL A   1      35.786  22.917  23.187  1.00  0.00     0.046 C 
ATOM     25  H   UNL A   1      33.978  24.365  21.764  1.00  0.00     0.161 HD
ATOM     26  C   UNL A   1      30.178  26.781  24.506  1.00  0.00    -0.030 C 
ATOM     27  C   UNL A   1      30.228  26.603  23.025  1.00  0.00     0.034 C 
BRANCH  14  28
ATOM     28  C   UNL A   1      31.174  23.017  26.683  1.00  0.00     0.338 C 
ATOM     29  O   UNL A   1      31.142  23.667  27.705  1.00  0.00    -0.246 OA
BRANCH  28  30
ATOM     30  O   UNL A   1      30.232  22.148  26.230  1.00  0.00    -0.465 OA
ATOM     31  C   UNL A   1      29.022  22.156  26.990  1.00  0.00     0.282 C 
ENDBRANCH  28  30
ENDBRANCH  14  28
ENDBRANCH   8  13
ENDBRANCH   4   7
ENDBRANCH   2   3
ENDBRANCH   1   2
BRANCH   1  32
ATOM     32  C   UNL A   1      32.855  32.915  27.031  1.00  0.00     0.118 C 
BRANCH  32  33
ATOM     33  N   UNL A   1      32.631  34.226  27.628  1.00  0.00    -0.352 N 
ATOM     34  C   UNL A   1      33.119  34.711  28.813  1.00  0.00     0.251 C 
ATOM     35  H   UNL A   1      32.055  34.840  27.117  1.00  0.00     0.163 HD
ATOM     36  O   UNL A   1      32.594  35.674  29.359  1.00  0.00    -0.269 OA
BRANCH  34  37
ATOM     37  C   UNL A   1      34.304  34.062  29.398  1.00  0.00     0.039 A 
ATOM     38  C   UNL A   1      34.144  33.022  30.315  1.00  0.00     0.014 A 
ATOM     39  C   UNL A   1      35.577  34.506  29.025  1.00  0.00     0.014 A 
ATOM     40  C   UNL A   1      35.275  32.398  30.840  1.00  0.00     0.010 A 
ATOM     41  C   UNL A   1      36.698  33.850  29.506  1.00  0.00     0.010 A 
ATOM     42  C   UNL A   1      36.555  32.804  30.430  1.00  0.00    -0.014 A 
BRANCH  42  43
ATOM     43  C   UNL A   1      37.783  32.192  30.979  1.00  0.00     0.031 A 
ATOM     44  C   UNL A   1      38.487  31.135  30.180  1.00  0.00     0.074 A 
ATOM     45  C   UNL A   1      38.184  32.502  32.226  1.00  0.00     0.049 A 
ATOM     46  N   UNL A   1      39.475  30.361  30.535  1.00  0.00    -0.248 NA
ATOM     47  C   UNL A   1      37.997  30.897  28.810  1.00  0.00     0.031 C 
ATOM     48  C   UNL A   1      37.536  33.483  33.097  1.00  0.00     0.029 A 
ATOM     49  N   UNL A   1      39.203  31.994  32.991  1.00  0.00    -0.354 N 
ATOM     50  C   UNL A   1      39.711  29.532  29.446  1.00  0.00     0.074 A 
ATOM     51  C   UNL A   1      38.743  29.870  28.429  1.00  0.00     0.031 C 
ATOM     52  C   UNL A   1      38.162  33.493  34.284  1.00  0.00     0.029 A 
ATOM     53  C   UNL A   1      39.227  32.491  34.273  1.00  0.00     0.049 A 
ATOM     54  H   UNL A   1      39.856  31.339  32.653  1.00  0.00     0.167 HD
ATOM     55  C   UNL A   1      40.666  28.586  29.310  1.00  0.00     0.034 A 
ATOM     56  C   UNL A   1      39.998  32.155  35.329  1.00  0.00     0.034 A 
ATOM     57  C   UNL A   1      41.642  28.291  30.322  1.00  0.00     0.049 A 
ATOM     58  C   UNL A   1      41.069  31.112  35.144  1.00  0.00     0.074 A 
ATOM     59  C   UNL A   1      42.701  27.404  30.247  1.00  0.00     0.029 A 
ATOM     60  N   UNL A   1      41.684  28.868  31.581  1.00  0.00    -0.354 N 
ATOM     61  N   UNL A   1      41.345  30.402  34.074  1.00  0.00    -0.248 NA
ATOM     62  C   UNL A   1      41.945  30.828  36.289  1.00  0.00     0.031 C 
ATOM     63  C   UNL A   1      43.353  27.406  31.479  1.00  0.00     0.029 A 
ATOM     64  C   UNL A   1      42.741  28.342  32.299  1.00  0.00     0.049 A 
ATOM     65  H   UNL A   1      41.057  29.550  31.914  1.00  0.00     0.167 HD
ATOM     66  C   UNL A   1      42.442  29.614  34.408  1.00  0.00     0.074 A 
ATOM     67  C   UNL A   1      42.786  29.938  35.776  1.00  0.00     0.031 C 
ATOM     68  C   UNL A   1      43.101  28.706  33.648  1.00  0.00     0.034 A 
BRANCH  55  69
ATOM     69  C   UNL A   1      40.753  27.814  28.022  1.00  0.00     0.023 A 
ATOM     70  C   UNL A   1      40.175  26.535  27.938  1.00  0.00     0.031 A 
ATOM     71  C   UNL A   1      41.553  28.264  26.958  1.00  0.00     0.131 A 
ATOM     72  C   UNL A   1      40.452  25.724  26.833  1.00  0.00     0.055 A 
ATOM     73  C   UNL A   1      41.793  27.465  25.841  1.00  0.00     0.041 A 
ATOM     74  F   UNL A   1      42.120  29.480  26.998  1.00  0.00    -0.206 F 
ATOM     75  C   UNL A   1      41.254  26.182  25.782  1.00  0.00     0.022 A 
BRANCH  72  76
ATOM     76  S   UNL A   1      39.828  24.023  26.747  1.00  0.00     0.124 S 
ATOM     77  O   UNL A   1      40.989  23.299  26.235  1.00  0.00    -0.237 OA
ATOM     78  O   UNL A   1      39.487  23.755  28.139  1.00  0.00    -0.237 OA
ATOM     79  O   UNL A   1      38.702  24.112  25.822  1.00  0.00    -0.744 OA
ENDBRANCH  72  76
ENDBRANCH  55  69
BRANCH  56  80
ATOM     80  C   UNL A   1      39.787  32.851  36.629  1.00  0.00     0.023 A 
ATOM     81  C   UNL A   1      38.875  32.347  37.575  1.00  0.00     0.031 A 
ATOM     82  C   UNL A   1      40.408  34.081  36.898  1.00  0.00     0.131 A 
ATOM     83  C   UNL A   1      38.569  33.098  38.716  1.00  0.00     0.055 A 
ATOM     84  C   UNL A   1      40.148  34.797  38.069  1.00  0.00     0.041 A 
ATOM     85  F   UNL A   1      41.273  34.609  36.018  1.00  0.00    -0.206 F 
ATOM     86  C   UNL A   1      39.213  34.311  38.979  1.00  0.00     0.022 A 
BRANCH  83  87
ATOM     87  S   UNL A   1      37.245  32.579  39.843  1.00  0.00     0.124 S 
ATOM     88  O   UNL A   1      36.095  32.502  38.948  1.00  0.00    -0.237 OA
ATOM     89  O   UNL A   1      37.755  31.298  40.328  1.00  0.00    -0.237 OA
ATOM     90  O   UNL A   1      37.202  33.645  40.838  1.00  0.00    -0.744 OA
ENDBRANCH  83  87
ENDBRANCH  56  80
BRANCH  68  91
ATOM     91  C   UNL A   1      44.296  27.994  34.224  1.00  0.00     0.023 A 
ATOM     92  C   UNL A   1      44.097  26.853  35.026  1.00  0.00     0.031 A 
ATOM     93  C   UNL A   1      45.577  28.562  34.171  1.00  0.00     0.131 A 
ATOM     94  C   UNL A   1      45.153  26.354  35.795  1.00  0.00     0.055 A 
ATOM     95  C   UNL A   1      46.640  28.032  34.905  1.00  0.00     0.041 A 
ATOM     96  F   UNL A   1      45.807  29.658  33.429  1.00  0.00    -0.206 F 
ATOM     97  C   UNL A   1      46.425  26.934  35.735  1.00  0.00     0.022 A 
BRANCH  94  98
ATOM     98  S   UNL A   1      44.890  24.994  36.967  1.00  0.00     0.124 S 
ATOM     99  O   UNL A   1      43.511  25.222  37.394  1.00  0.00    -0.237 OA
ATOM    100  O   UNL A   1      45.097  23.820  36.125  1.00  0.00    -0.237 OA
ATOM    101  O   UNL A   1      45.899  25.218  37.996  1.00  0.00    -0.744 OA
ENDBRANCH  94  98
ENDBRANCH  68  91
ENDBRANCH  42  43
ENDBRANCH  34  37
ENDBRANCH  32  33
ENDBRANCH   1  32
TORSDOF 16
ENDMDL
