MODEL 1
REMARK VINA RESULT:     -10.4      0.000      0.000
REMARK SMILES CCCN(CC(=O)OC)C(=O)N1CC[C@H](C(=O)NCCCNC(=O)c2ccc(-c3c4nc(c(-c5cc(S(=O)(=O)[O-])ccc5F)c5ccc([nH]5)c(-c5cc(S(=O)(=O)[O-])ccc5F)c5nc(c(-c6cc(S(=O)(=O)[O-])ccc6F)c6ccc3[nH]6)C=C5)C=C4)cc2)[C@H]1C
REMARK SMILES IDX 19 1 18 2 16 3 17 4 15 6 12 7 13 8 88 9 14 10 89 11 10 12
REMARK SMILES IDX 11 13 4 14 3 15 2 16 1 17 5 18 6 19 7 20 8 21 9 22 20 23
REMARK SMILES IDX 21 24 22 25 23 26 24 28 25 29 26 30 87 31 27 32 86 33 28 34
REMARK SMILES IDX 29 35 30 36 80 37 31 38 85 39 79 40 81 41 32 42 84 43 78 44
REMARK SMILES IDX 77 45 33 47 65 48 45 49 64 50 46 51 49 52 63 53 82 54 47 55
REMARK SMILES IDX 48 56 62 58 83 59 50 60 34 61 35 62 43 63 36 64 42 65 44 66
REMARK SMILES IDX 41 67 37 68 38 69 39 70 40 71 66 72 67 73 75 74 68 75 74 76
REMARK SMILES IDX 76 77 73 78 69 79 70 80 71 81 72 82 51 83 52 84 60 85 53 86
REMARK SMILES IDX 59 87 61 88 58 89 54 90 55 91 56 92 57 93
REMARK H PARENT 18 5 22 27 81 46 49 57
REMARK Flexibility Score: inf
ROOT
ATOM      1  C   UNL A   1      31.751  30.245  25.894  1.00  0.00     0.117 C 
ENDROOT
BRANCH   1   2
ATOM      2  N   UNL A   1      31.237  30.184  24.543  1.00  0.00    -0.356 N 
ATOM      3  C   UNL A   1      30.737  29.181  23.787  1.00  0.00     0.225 C 
ATOM      4  O   UNL A   1      30.509  29.491  22.609  1.00  0.00    -0.275 OA
ATOM      5  H   UNL A   1      31.255  31.052  24.079  1.00  0.00     0.163 HD
BRANCH   3   6
ATOM      6  C   UNL A   1      30.276  27.820  24.322  1.00  0.00     0.102 C 
ATOM      7  N   UNL A   1      31.894  26.120  23.898  1.00  0.00    -0.321 N 
ATOM      8  C   UNL A   1      31.083  26.282  22.690  1.00  0.00     0.122 C 
ATOM      9  C   UNL A   1      31.250  26.836  25.006  1.00  0.00     0.096 C 
ATOM     10  C   UNL A   1      29.795  26.956  23.137  1.00  0.00     0.037 C 
ATOM     11  C   UNL A   1      30.415  25.901  25.906  1.00  0.00     0.032 C 
BRANCH   7  12
ATOM     12  C   UNL A   1      33.268  26.091  23.708  1.00  0.00     0.320 C 
ATOM     13  O   UNL A   1      33.794  26.877  22.917  1.00  0.00    -0.248 OA
BRANCH  12  14
ATOM     14  N   UNL A   1      34.020  25.126  24.351  1.00  0.00    -0.314 N 
BRANCH  14  15
ATOM     15  C   UNL A   1      34.582  24.047  23.526  1.00  0.00     0.122 C 
BRANCH  15  16
ATOM     16  C   UNL A   1      33.539  23.429  22.577  1.00  0.00     0.018 C 
ATOM     17  C   UNL A   1      32.843  22.196  23.143  1.00  0.00     0.006 C 
ENDBRANCH  15  16
ENDBRANCH  14  15
BRANCH  14  18
ATOM     18  C   UNL A   1      34.182  24.967  25.796  1.00  0.00     0.243 C 
BRANCH  18  19
ATOM     19  C   UNL A   1      33.628  23.671  26.402  1.00  0.00     0.325 C 
ATOM     20  O   UNL A   1      32.435  23.372  26.360  1.00  0.00    -0.250 OA
BRANCH  19  21
ATOM     21  O   UNL A   1      34.592  22.883  26.946  1.00  0.00    -0.468 OA
ATOM     22  C   UNL A   1      34.240  21.511  27.165  1.00  0.00     0.282 C 
ENDBRANCH  19  21
ENDBRANCH  18  19
ENDBRANCH  14  18
ENDBRANCH  12  14
ENDBRANCH   7  12
ENDBRANCH   3   6
ENDBRANCH   1   2
BRANCH   1  23
ATOM     23  C   UNL A   1      31.589  31.648  26.475  1.00  0.00     0.042 C 
BRANCH  23  24
ATOM     24  C   UNL A   1      32.822  32.161  27.216  1.00  0.00     0.118 C 
BRANCH  24  25
ATOM     25  N   UNL A   1      32.702  33.578  27.536  1.00  0.00    -0.352 N 
ATOM     26  C   UNL A   1      33.316  34.329  28.507  1.00  0.00     0.251 C 
ATOM     27  H   UNL A   1      32.078  34.079  26.962  1.00  0.00     0.163 HD
ATOM     28  O   UNL A   1      32.854  35.442  28.768  1.00  0.00    -0.269 OA
BRANCH  26  29
ATOM     29  C   UNL A   1      34.500  33.828  29.241  1.00  0.00     0.039 A 
ATOM     30  C   UNL A   1      34.309  32.903  30.275  1.00  0.00     0.014 A 
ATOM     31  C   UNL A   1      35.785  34.301  28.969  1.00  0.00     0.014 A 
ATOM     32  C   UNL A   1      35.406  32.411  30.987  1.00  0.00     0.010 A 
ATOM     33  C   UNL A   1      36.886  33.755  29.628  1.00  0.00     0.010 A 
ATOM     34  C   UNL A   1      36.709  32.807  30.647  1.00  0.00    -0.014 A 
BRANCH  34  35
ATOM     35  C   UNL A   1      37.897  32.240  31.337  1.00  0.00     0.031 A 
ATOM     36  C   UNL A   1      38.679  31.122  30.705  1.00  0.00     0.074 A 
ATOM     37  C   UNL A   1      38.215  32.673  32.571  1.00  0.00     0.049 A 
ATOM     38  N   UNL A   1      39.677  30.427  31.192  1.00  0.00    -0.248 NA
ATOM     39  C   UNL A   1      38.261  30.711  29.359  1.00  0.00     0.031 C 
ATOM     40  C   UNL A   1      37.498  33.715  33.309  1.00  0.00     0.029 A 
ATOM     41  N   UNL A   1      39.204  32.275  33.436  1.00  0.00    -0.354 N 
ATOM     42  C   UNL A   1      39.993  29.484  30.220  1.00  0.00     0.074 A 
ATOM     43  C   UNL A   1      39.037  29.660  29.145  1.00  0.00     0.031 C 
ATOM     44  C   UNL A   1      38.072  33.876  34.511  1.00  0.00     0.029 A 
ATOM     45  C   UNL A   1      39.165  32.919  34.650  1.00  0.00     0.049 A 
ATOM     46  H   UNL A   1      39.878  31.595  33.208  1.00  0.00     0.167 HD
ATOM     47  C   UNL A   1      40.997  28.570  30.216  1.00  0.00     0.034 A 
ATOM     48  C   UNL A   1      39.902  32.740  35.763  1.00  0.00     0.034 A 
ATOM     49  C   UNL A   1      41.938  28.414  31.301  1.00  0.00     0.049 A 
ATOM     50  C   UNL A   1      40.993  31.704  35.756  1.00  0.00     0.074 A 
ATOM     51  C   UNL A   1      43.043  27.584  31.373  1.00  0.00     0.029 A 
ATOM     52  N   UNL A   1      41.869  29.085  32.517  1.00  0.00    -0.354 N 
ATOM     53  N   UNL A   1      41.334  30.871  34.800  1.00  0.00    -0.248 NA
ATOM     54  C   UNL A   1      41.804  31.587  36.975  1.00  0.00     0.031 C 
ATOM     55  C   UNL A   1      43.594  27.696  32.656  1.00  0.00     0.029 A 
ATOM     56  C   UNL A   1      42.882  28.653  33.361  1.00  0.00     0.049 A 
ATOM     57  H   UNL A   1      41.198  29.769  32.746  1.00  0.00     0.167 HD
ATOM     58  C   UNL A   1      42.405  30.136  35.298  1.00  0.00     0.074 A 
ATOM     59  C   UNL A   1      42.667  30.641  36.632  1.00  0.00     0.031 C 
ATOM     60  C   UNL A   1      43.110  29.137  34.705  1.00  0.00     0.034 A 
BRANCH  47  61
ATOM     61  C   UNL A   1      41.092  27.653  29.017  1.00  0.00     0.023 A 
ATOM     62  C   UNL A   1      42.085  27.820  28.034  1.00  0.00     0.031 A 
ATOM     63  C   UNL A   1      40.142  26.636  28.817  1.00  0.00     0.131 A 
ATOM     64  C   UNL A   1      42.039  27.065  26.852  1.00  0.00     0.055 A 
ATOM     65  C   UNL A   1      40.159  25.822  27.681  1.00  0.00     0.041 A 
ATOM     66  F   UNL A   1      39.159  26.432  29.708  1.00  0.00    -0.206 F 
ATOM     67  C   UNL A   1      41.097  26.049  26.679  1.00  0.00     0.022 A 
BRANCH  64  68
ATOM     68  S   UNL A   1      43.104  27.564  25.469  1.00  0.00     0.124 S 
ATOM     69  O   UNL A   1      43.573  26.271  24.976  1.00  0.00    -0.237 OA
ATOM     70  O   UNL A   1      42.178  28.282  24.602  1.00  0.00    -0.237 OA
ATOM     71  O   UNL A   1      44.130  28.386  26.107  1.00  0.00    -0.744 OA
ENDBRANCH  64  68
ENDBRANCH  47  61
BRANCH  48  72
ATOM     72  C   UNL A   1      39.602  33.540  36.984  1.00  0.00     0.023 A 
ATOM     73  C   UNL A   1      38.875  32.995  38.052  1.00  0.00     0.031 A 
ATOM     74  C   UNL A   1      40.059  34.865  37.100  1.00  0.00     0.131 A 
ATOM     75  C   UNL A   1      38.609  33.780  39.186  1.00  0.00     0.055 A 
ATOM     76  C   UNL A   1      39.828  35.628  38.246  1.00  0.00     0.041 A 
ATOM     77  F   UNL A   1      40.770  35.428  36.108  1.00  0.00    -0.206 F 
ATOM     78  C   UNL A   1      39.093  35.088  39.294  1.00  0.00     0.022 A 
BRANCH  75  79
ATOM     79  S   UNL A   1      37.589  33.081  40.512  1.00  0.00     0.124 S 
ATOM     80  O   UNL A   1      38.356  31.898  40.886  1.00  0.00    -0.237 OA
ATOM     81  O   UNL A   1      37.569  34.168  41.485  1.00  0.00    -0.237 OA
ATOM     82  O   UNL A   1      36.311  32.816  39.855  1.00  0.00    -0.744 OA
ENDBRANCH  75  79
ENDBRANCH  48  72
BRANCH  60  83
ATOM     83  C   UNL A   1      44.241  28.534  35.502  1.00  0.00     0.023 A 
ATOM     84  C   UNL A   1      45.549  29.048  35.431  1.00  0.00     0.031 A 
ATOM     85  C   UNL A   1      44.011  27.426  36.337  1.00  0.00     0.131 A 
ATOM     86  C   UNL A   1      46.584  28.426  36.145  1.00  0.00     0.055 A 
ATOM     87  C   UNL A   1      45.033  26.849  37.092  1.00  0.00     0.041 A 
ATOM     88  F   UNL A   1      42.784  26.890  36.438  1.00  0.00    -0.206 F 
ATOM     89  C   UNL A   1      46.331  27.341  36.990  1.00  0.00     0.022 A 
BRANCH  86  90
ATOM     90  S   UNL A   1      48.286  29.000  35.893  1.00  0.00     0.124 S 
ATOM     91  O   UNL A   1      48.962  27.772  35.484  1.00  0.00    -0.237 OA
ATOM     92  O   UNL A   1      48.125  30.015  34.858  1.00  0.00    -0.237 OA
ATOM     93  O   UNL A   1      48.674  29.512  37.207  1.00  0.00    -0.744 OA
ENDBRANCH  86  90
ENDBRANCH  60  83
ENDBRANCH  34  35
ENDBRANCH  26  29
ENDBRANCH  24  25
ENDBRANCH  23  24
ENDBRANCH   1  23
TORSDOF 20
ENDMDL
MODEL 2
REMARK VINA RESULT:     -10.4      1.925      2.256
REMARK SMILES CCCN(CC(=O)OC)C(=O)N1CC[C@H](C(=O)NCCCNC(=O)c2ccc(-c3c4nc(c(-c5cc(S(=O)(=O)[O-])ccc5F)c5ccc([nH]5)c(-c5cc(S(=O)(=O)[O-])ccc5F)c5nc(c(-c6cc(S(=O)(=O)[O-])ccc6F)c6ccc3[nH]6)C=C5)C=C4)cc2)[C@H]1C
REMARK SMILES IDX 19 1 18 2 16 3 17 4 15 6 12 7 13 8 88 9 14 10 89 11 10 12
REMARK SMILES IDX 11 13 4 14 3 15 2 16 1 17 5 18 6 19 7 20 8 21 9 22 20 23
REMARK SMILES IDX 21 24 22 25 23 26 24 28 25 29 26 30 87 31 27 32 86 33 28 34
REMARK SMILES IDX 29 35 30 36 80 37 31 38 85 39 79 40 81 41 32 42 84 43 78 44
REMARK SMILES IDX 77 45 33 47 65 48 45 49 64 50 46 51 49 52 63 53 82 54 47 55
REMARK SMILES IDX 48 56 62 58 83 59 50 60 34 61 35 62 43 63 36 64 42 65 44 66
REMARK SMILES IDX 41 67 37 68 38 69 39 70 40 71 66 72 67 73 75 74 68 75 74 76
REMARK SMILES IDX 76 77 73 78 69 79 70 80 71 81 72 82 51 83 52 84 60 85 53 86
REMARK SMILES IDX 59 87 61 88 58 89 54 90 55 91 56 92 57 93
REMARK H PARENT 18 5 22 27 81 46 49 57
REMARK Flexibility Score: inf
ROOT
ATOM      1  C   UNL A   1      31.414  30.131  26.028  1.00  0.00     0.117 C 
ENDROOT
BRANCH   1   2
ATOM      2  N   UNL A   1      31.627  29.866  24.623  1.00  0.00    -0.356 N 
ATOM      3  C   UNL A   1      31.416  28.782  23.842  1.00  0.00     0.225 C 
ATOM      4  O   UNL A   1      31.846  28.890  22.686  1.00  0.00    -0.275 OA
ATOM      5  H   UNL A   1      32.004  30.632  24.133  1.00  0.00     0.163 HD
BRANCH   3   6
ATOM      6  C   UNL A   1      30.548  27.576  24.225  1.00  0.00     0.102 C 
ATOM      7  N   UNL A   1      31.789  25.542  24.138  1.00  0.00    -0.321 N 
ATOM      8  C   UNL A   1      31.332  25.850  22.782  1.00  0.00     0.122 C 
ATOM      9  C   UNL A   1      31.091  26.417  25.088  1.00  0.00     0.096 C 
ATOM     10  C   UNL A   1      30.165  26.811  22.941  1.00  0.00     0.037 C 
ATOM     11  C   UNL A   1      29.884  25.722  25.752  1.00  0.00     0.032 C 
BRANCH   7  12
ATOM     12  C   UNL A   1      33.127  25.196  24.264  1.00  0.00     0.320 C 
ATOM     13  O   UNL A   1      33.977  26.078  24.409  1.00  0.00    -0.248 OA
BRANCH  12  14
ATOM     14  N   UNL A   1      33.497  23.870  24.147  1.00  0.00    -0.314 N 
BRANCH  14  15
ATOM     15  C   UNL A   1      34.525  23.542  23.149  1.00  0.00     0.122 C 
BRANCH  15  16
ATOM     16  C   UNL A   1      35.720  22.790  23.763  1.00  0.00     0.018 C 
ATOM     17  C   UNL A   1      36.503  23.604  24.788  1.00  0.00     0.006 C 
ENDBRANCH  15  16
ENDBRANCH  14  15
BRANCH  14  18
ATOM     18  C   UNL A   1      32.856  22.726  24.795  1.00  0.00     0.243 C 
BRANCH  18  19
ATOM     19  C   UNL A   1      33.358  22.375  26.201  1.00  0.00     0.325 C 
ATOM     20  O   UNL A   1      33.609  23.227  27.052  1.00  0.00    -0.250 OA
BRANCH  19  21
ATOM     21  O   UNL A   1      33.456  21.036  26.412  1.00  0.00    -0.468 OA
ATOM     22  C   UNL A   1      33.362  20.203  25.249  1.00  0.00     0.282 C 
ENDBRANCH  19  21
ENDBRANCH  18  19
ENDBRANCH  14  18
ENDBRANCH  12  14
ENDBRANCH   7  12
ENDBRANCH   3   6
ENDBRANCH   1   2
BRANCH   1  23
ATOM     23  C   UNL A   1      31.418  31.633  26.305  1.00  0.00     0.042 C 
BRANCH  23  24
ATOM     24  C   UNL A   1      32.709  32.146  26.938  1.00  0.00     0.118 C 
BRANCH  24  25
ATOM     25  N   UNL A   1      32.578  33.531  27.375  1.00  0.00    -0.352 N 
ATOM     26  C   UNL A   1      33.205  34.210  28.389  1.00  0.00     0.251 C 
ATOM     27  H   UNL A   1      31.934  34.067  26.857  1.00  0.00     0.163 HD
ATOM     28  O   UNL A   1      32.734  35.291  28.749  1.00  0.00    -0.269 OA
BRANCH  26  29
ATOM     29  C   UNL A   1      34.411  33.669  29.055  1.00  0.00     0.039 A 
ATOM     30  C   UNL A   1      34.255  32.669  30.022  1.00  0.00     0.014 A 
ATOM     31  C   UNL A   1      35.685  34.175  28.787  1.00  0.00     0.014 A 
ATOM     32  C   UNL A   1      35.375  32.138  30.669  1.00  0.00     0.010 A 
ATOM     33  C   UNL A   1      36.807  33.594  29.376  1.00  0.00     0.010 A 
ATOM     34  C   UNL A   1      36.665  32.572  30.326  1.00  0.00    -0.014 A 
BRANCH  34  35
ATOM     35  C   UNL A   1      37.875  31.968  30.943  1.00  0.00     0.031 A 
ATOM     36  C   UNL A   1      38.661  30.921  30.204  1.00  0.00     0.074 A 
ATOM     37  C   UNL A   1      38.212  32.301  32.203  1.00  0.00     0.049 A 
ATOM     38  N   UNL A   1      39.678  30.205  30.611  1.00  0.00    -0.248 NA
ATOM     39  C   UNL A   1      38.221  30.618  28.836  1.00  0.00     0.031 C 
ATOM     40  C   UNL A   1      37.494  33.266  33.040  1.00  0.00     0.029 A 
ATOM     41  N   UNL A   1      39.224  31.849  33.012  1.00  0.00    -0.354 N 
ATOM     42  C   UNL A   1      39.988  29.352  29.557  1.00  0.00     0.074 A 
ATOM     43  C   UNL A   1      39.008  29.602  28.520  1.00  0.00     0.031 C 
ATOM     44  C   UNL A   1      38.091  33.335  34.240  1.00  0.00     0.029 A 
ATOM     45  C   UNL A   1      39.200  32.388  34.277  1.00  0.00     0.049 A 
ATOM     46  H   UNL A   1      39.904  31.202  32.714  1.00  0.00     0.167 HD
ATOM     47  C   UNL A   1      41.006  28.458  29.457  1.00  0.00     0.034 A 
ATOM     48  C   UNL A   1      39.963  32.128  35.357  1.00  0.00     0.034 A 
ATOM     49  C   UNL A   1      41.971  28.227  30.506  1.00  0.00     0.049 A 
ATOM     50  C   UNL A   1      41.069  31.114  35.241  1.00  0.00     0.074 A 
ATOM     51  C   UNL A   1      43.090  27.413  30.487  1.00  0.00     0.029 A 
ATOM     52  N   UNL A   1      41.917  28.792  31.776  1.00  0.00    -0.354 N 
ATOM     53  N   UNL A   1      41.402  30.371  34.211  1.00  0.00    -0.248 NA
ATOM     54  C   UNL A   1      41.906  30.909  36.429  1.00  0.00     0.031 C 
ATOM     55  C   UNL A   1      43.666  27.425  31.763  1.00  0.00     0.029 A 
ATOM     56  C   UNL A   1      42.954  28.308  32.561  1.00  0.00     0.049 A 
ATOM     57  H   UNL A   1      41.241  29.443  32.074  1.00  0.00     0.167 HD
ATOM     58  C   UNL A   1      42.494  29.615  34.624  1.00  0.00     0.074 A 
ATOM     59  C   UNL A   1      42.776  30.010  35.991  1.00  0.00     0.031 C 
ATOM     60  C   UNL A   1      43.202  28.681  33.936  1.00  0.00     0.034 A 
BRANCH  47  61
ATOM     61  C   UNL A   1      41.090  27.647  28.182  1.00  0.00     0.023 A 
ATOM     62  C   UNL A   1      40.730  26.288  28.146  1.00  0.00     0.031 A 
ATOM     63  C   UNL A   1      41.594  28.221  27.002  1.00  0.00     0.131 A 
ATOM     64  C   UNL A   1      40.983  25.524  26.995  1.00  0.00     0.055 A 
ATOM     65  C   UNL A   1      41.754  27.477  25.830  1.00  0.00     0.041 A 
ATOM     66  F   UNL A   1      41.970  29.509  26.972  1.00  0.00    -0.206 F 
ATOM     67  C   UNL A   1      41.470  26.115  25.828  1.00  0.00     0.022 A 
BRANCH  64  68
ATOM     68  S   UNL A   1      40.850  23.718  27.114  1.00  0.00     0.124 S 
ATOM     69  O   UNL A   1      41.443  23.462  28.425  1.00  0.00    -0.237 OA
ATOM     70  O   UNL A   1      39.411  23.501  27.010  1.00  0.00    -0.237 OA
ATOM     71  O   UNL A   1      41.638  23.241  25.980  1.00  0.00    -0.744 OA
ENDBRANCH  64  68
ENDBRANCH  47  61
BRANCH  48  72
ATOM     72  C   UNL A   1      39.676  32.817  36.646  1.00  0.00     0.023 A 
ATOM     73  C   UNL A   1      38.702  32.333  37.530  1.00  0.00     0.031 A 
ATOM     74  C   UNL A   1      40.394  33.969  37.015  1.00  0.00     0.131 A 
ATOM     75  C   UNL A   1      38.457  33.010  38.736  1.00  0.00     0.055 A 
ATOM     76  C   UNL A   1      40.176  34.615  38.233  1.00  0.00     0.041 A 
ATOM     77  F   UNL A   1      41.346  34.465  36.207  1.00  0.00    -0.206 F 
ATOM     78  C   UNL A   1      39.198  34.140  39.098  1.00  0.00     0.022 A 
BRANCH  75  79
ATOM     79  S   UNL A   1      37.128  32.415  39.817  1.00  0.00     0.124 S 
ATOM     80  O   UNL A   1      37.509  31.022  40.018  1.00  0.00    -0.237 OA
ATOM     81  O   UNL A   1      37.265  33.292  40.976  1.00  0.00    -0.237 OA
ATOM     82  O   UNL A   1      35.921  32.626  39.021  1.00  0.00    -0.744 OA
ENDBRANCH  75  79
ENDBRANCH  48  72
BRANCH  60  83
ATOM     83  C   UNL A   1      44.359  28.031  34.657  1.00  0.00     0.023 A 
ATOM     84  C   UNL A   1      44.202  26.826  35.364  1.00  0.00     0.031 A 
ATOM     85  C   UNL A   1      45.631  28.629  34.641  1.00  0.00     0.131 A 
ATOM     86  C   UNL A   1      45.289  26.281  36.065  1.00  0.00     0.055 A 
ATOM     87  C   UNL A   1      46.723  28.050  35.291  1.00  0.00     0.041 A 
ATOM     88  F   UNL A   1      45.837  29.783  33.987  1.00  0.00    -0.206 F 
ATOM     89  C   UNL A   1      46.552  26.875  36.018  1.00  0.00     0.022 A 
BRANCH  86  90
ATOM     90  S   UNL A   1      45.011  24.827  37.112  1.00  0.00     0.124 S 
ATOM     91  O   UNL A   1      43.787  25.192  37.819  1.00  0.00    -0.237 OA
ATOM     92  O   UNL A   1      44.885  23.753  36.132  1.00  0.00    -0.237 OA
ATOM     93  O   UNL A   1      46.212  24.768  37.944  1.00  0.00    -0.744 OA
ENDBRANCH  86  90
ENDBRANCH  60  83
ENDBRANCH  34  35
ENDBRANCH  26  29
ENDBRANCH  24  25
ENDBRANCH  23  24
ENDBRANCH   1  23
TORSDOF 20
ENDMDL
MODEL 3
REMARK VINA RESULT:     -10.2      5.485     10.826
REMARK SMILES CCCN(CC(=O)OC)C(=O)N1CC[C@H](C(=O)NCCCNC(=O)c2ccc(-c3c4nc(c(-c5cc(S(=O)(=O)[O-])ccc5F)c5ccc([nH]5)c(-c5cc(S(=O)(=O)[O-])ccc5F)c5nc(c(-c6cc(S(=O)(=O)[O-])ccc6F)c6ccc3[nH]6)C=C5)C=C4)cc2)[C@H]1C
REMARK SMILES IDX 19 1 18 2 16 3 17 4 15 6 12 7 13 8 88 9 14 10 89 11 10 12
REMARK SMILES IDX 11 13 4 14 3 15 2 16 1 17 5 18 6 19 7 20 8 21 9 22 20 23
REMARK SMILES IDX 21 24 22 25 23 26 24 28 25 29 26 30 87 31 27 32 86 33 28 34
REMARK SMILES IDX 29 35 30 36 80 37 31 38 85 39 79 40 81 41 32 42 84 43 78 44
REMARK SMILES IDX 77 45 33 47 65 48 45 49 64 50 46 51 49 52 63 53 82 54 47 55
REMARK SMILES IDX 48 56 62 58 83 59 50 60 34 61 35 62 43 63 36 64 42 65 44 66
REMARK SMILES IDX 41 67 37 68 38 69 39 70 40 71 66 72 67 73 75 74 68 75 74 76
REMARK SMILES IDX 76 77 73 78 69 79 70 80 71 81 72 82 51 83 52 84 60 85 53 86
REMARK SMILES IDX 59 87 61 88 58 89 54 90 55 91 56 92 57 93
REMARK H PARENT 18 5 22 27 81 46 49 57
REMARK Flexibility Score: inf
ROOT
ATOM      1  C   UNL A   1      35.032  21.587  26.233  1.00  0.00     0.117 C 
ENDROOT
BRANCH   1   2
ATOM      2  N   UNL A   1      33.595  21.452  26.135  1.00  0.00    -0.356 N 
ATOM      3  C   UNL A   1      32.665  22.015  25.332  1.00  0.00     0.225 C 
ATOM      4  O   UNL A   1      31.494  21.743  25.632  1.00  0.00    -0.275 OA
ATOM      5  H   UNL A   1      33.216  20.821  26.788  1.00  0.00     0.163 HD
BRANCH   3   6
ATOM      6  C   UNL A   1      32.964  22.762  24.026  1.00  0.00     0.102 C 
ATOM      7  N   UNL A   1      31.870  24.879  23.959  1.00  0.00    -0.321 N 
ATOM      8  C   UNL A   1      30.908  23.861  23.533  1.00  0.00     0.122 C 
ATOM      9  C   UNL A   1      33.212  24.285  23.993  1.00  0.00     0.096 C 
ATOM     10  C   UNL A   1      31.734  22.660  23.100  1.00  0.00     0.037 C 
ATOM     11  C   UNL A   1      34.028  24.599  22.721  1.00  0.00     0.032 C 
BRANCH   7  12
ATOM     12  C   UNL A   1      31.416  25.786  24.907  1.00  0.00     0.320 C 
ATOM     13  O   UNL A   1      31.172  25.403  26.054  1.00  0.00    -0.248 OA
BRANCH  12  14
ATOM     14  N   UNL A   1      31.167  27.091  24.530  1.00  0.00    -0.314 N 
BRANCH  14  15
ATOM     15  C   UNL A   1      30.517  27.306  23.229  1.00  0.00     0.122 C 
BRANCH  15  16
ATOM     16  C   UNL A   1      29.073  27.820  23.372  1.00  0.00     0.018 C 
ATOM     17  C   UNL A   1      28.077  26.749  23.803  1.00  0.00     0.006 C 
ENDBRANCH  15  16
ENDBRANCH  14  15
BRANCH  14  18
ATOM     18  C   UNL A   1      31.632  28.300  25.212  1.00  0.00     0.243 C 
BRANCH  18  19
ATOM     19  C   UNL A   1      33.055  28.762  24.877  1.00  0.00     0.325 C 
ATOM     20  O   UNL A   1      33.354  29.272  23.798  1.00  0.00    -0.250 OA
BRANCH  19  21
ATOM     21  O   UNL A   1      33.927  28.585  25.904  1.00  0.00    -0.468 OA
ATOM     22  C   UNL A   1      33.457  28.957  27.206  1.00  0.00     0.282 C 
ENDBRANCH  19  21
ENDBRANCH  18  19
ENDBRANCH  14  18
ENDBRANCH  12  14
ENDBRANCH   7  12
ENDBRANCH   3   6
ENDBRANCH   1   2
BRANCH   1  23
ATOM     23  C   UNL A   1      35.730  20.780  25.140  1.00  0.00     0.042 C 
BRANCH  23  24
ATOM     24  C   UNL A   1      37.183  21.183  24.901  1.00  0.00     0.118 C 
BRANCH  24  25
ATOM     25  N   UNL A   1      38.105  20.136  25.324  1.00  0.00    -0.352 N 
ATOM     26  C   UNL A   1      39.395  20.215  25.786  1.00  0.00     0.251 C 
ATOM     27  H   UNL A   1      37.743  19.221  25.269  1.00  0.00     0.163 HD
ATOM     28  O   UNL A   1      40.070  19.184  25.818  1.00  0.00    -0.269 OA
BRANCH  26  29
ATOM     29  C   UNL A   1      39.982  21.500  26.229  1.00  0.00     0.039 A 
ATOM     30  C   UNL A   1      41.271  21.499  26.777  1.00  0.00     0.014 A 
ATOM     31  C   UNL A   1      39.260  22.694  26.169  1.00  0.00     0.014 A 
ATOM     32  C   UNL A   1      41.852  22.696  27.204  1.00  0.00     0.010 A 
ATOM     33  C   UNL A   1      39.867  23.898  26.525  1.00  0.00     0.010 A 
ATOM     34  C   UNL A   1      41.168  23.912  27.050  1.00  0.00    -0.014 A 
BRANCH  34  35
ATOM     35  C   UNL A   1      41.796  25.206  27.424  1.00  0.00     0.031 A 
ATOM     36  C   UNL A   1      41.024  26.220  28.222  1.00  0.00     0.074 A 
ATOM     37  C   UNL A   1      43.028  25.501  26.969  1.00  0.00     0.049 A 
ATOM     38  N   UNL A   1      41.356  27.441  28.558  1.00  0.00    -0.248 NA
ATOM     39  C   UNL A   1      39.687  25.815  28.675  1.00  0.00     0.031 C 
ATOM     40  C   UNL A   1      43.853  24.619  26.142  1.00  0.00     0.029 A 
ATOM     41  N   UNL A   1      43.792  26.632  27.113  1.00  0.00    -0.354 N 
ATOM     42  C   UNL A   1      40.262  27.958  29.243  1.00  0.00     0.074 A 
ATOM     43  C   UNL A   1      39.236  26.935  29.218  1.00  0.00     0.031 C 
ATOM     44  C   UNL A   1      45.008  25.240  25.855  1.00  0.00     0.029 A 
ATOM     45  C   UNL A   1      44.987  26.579  26.435  1.00  0.00     0.049 A 
ATOM     46  H   UNL A   1      43.512  27.407  27.652  1.00  0.00     0.167 HD
ATOM     47  C   UNL A   1      40.133  29.165  29.852  1.00  0.00     0.034 A 
ATOM     48  C   UNL A   1      45.945  27.511  26.269  1.00  0.00     0.034 A 
ATOM     49  C   UNL A   1      41.171  30.169  29.864  1.00  0.00     0.049 A 
ATOM     50  C   UNL A   1      45.776  28.854  26.926  1.00  0.00     0.074 A 
ATOM     51  C   UNL A   1      41.187  31.389  30.517  1.00  0.00     0.029 A 
ATOM     52  N   UNL A   1      42.371  30.080  29.166  1.00  0.00    -0.354 N 
ATOM     53  N   UNL A   1      44.769  29.303  27.639  1.00  0.00    -0.248 NA
ATOM     54  C   UNL A   1      46.874  29.815  26.760  1.00  0.00     0.031 C 
ATOM     55  C   UNL A   1      42.356  32.068  30.154  1.00  0.00     0.029 A 
ATOM     56  C   UNL A   1      43.111  31.242  29.335  1.00  0.00     0.049 A 
ATOM     57  H   UNL A   1      42.655  29.304  28.630  1.00  0.00     0.167 HD
ATOM     58  C   UNL A   1      45.116  30.596  28.017  1.00  0.00     0.074 A 
ATOM     59  C   UNL A   1      46.436  30.846  27.469  1.00  0.00     0.031 C 
ATOM     60  C   UNL A   1      44.410  31.495  28.752  1.00  0.00     0.034 A 
BRANCH  47  61
ATOM     61  C   UNL A   1      38.807  29.464  30.517  1.00  0.00     0.023 A 
ATOM     62  C   UNL A   1      37.863  30.327  29.930  1.00  0.00     0.031 A 
ATOM     63  C   UNL A   1      38.505  28.931  31.783  1.00  0.00     0.131 A 
ATOM     64  C   UNL A   1      36.724  30.719  30.650  1.00  0.00     0.055 A 
ATOM     65  C   UNL A   1      37.321  29.250  32.454  1.00  0.00     0.041 A 
ATOM     66  F   UNL A   1      39.368  28.114  32.405  1.00  0.00    -0.206 F 
ATOM     67  C   UNL A   1      36.434  30.166  31.899  1.00  0.00     0.022 A 
BRANCH  64  68
ATOM     68  S   UNL A   1      35.735  32.101  30.014  1.00  0.00     0.124 S 
ATOM     69  O   UNL A   1      36.722  33.179  29.978  1.00  0.00    -0.237 OA
ATOM     70  O   UNL A   1      35.288  31.599  28.720  1.00  0.00    -0.237 OA
ATOM     71  O   UNL A   1      34.686  32.263  31.019  1.00  0.00    -0.744 OA
ENDBRANCH  64  68
ENDBRANCH  47  61
BRANCH  48  72
ATOM     72  C   UNL A   1      47.128  27.210  25.415  1.00  0.00     0.023 A 
ATOM     73  C   UNL A   1      47.186  27.624  24.077  1.00  0.00     0.031 A 
ATOM     74  C   UNL A   1      48.230  26.512  25.942  1.00  0.00     0.131 A 
ATOM     75  C   UNL A   1      48.317  27.320  23.302  1.00  0.00     0.055 A 
ATOM     76  C   UNL A   1      49.369  26.247  25.179  1.00  0.00     0.041 A 
ATOM     77  F   UNL A   1      48.227  26.104  27.222  1.00  0.00    -0.206 F 
ATOM     78  C   UNL A   1      49.414  26.646  23.849  1.00  0.00     0.022 A 
BRANCH  75  79
ATOM     79  S   UNL A   1      48.325  27.787  21.549  1.00  0.00     0.124 S 
ATOM     80  O   UNL A   1      48.538  26.500  20.898  1.00  0.00    -0.237 OA
ATOM     81  O   UNL A   1      47.000  28.378  21.387  1.00  0.00    -0.237 OA
ATOM     82  O   UNL A   1      49.438  28.729  21.453  1.00  0.00    -0.744 OA
ENDBRANCH  75  79
ENDBRANCH  48  72
BRANCH  60  83
ATOM     83  C   UNL A   1      45.064  32.830  29.011  1.00  0.00     0.023 A 
ATOM     84  C   UNL A   1      44.839  33.936  28.171  1.00  0.00     0.031 A 
ATOM     85  C   UNL A   1      45.927  32.998  30.108  1.00  0.00     0.131 A 
ATOM     86  C   UNL A   1      45.507  35.146  28.414  1.00  0.00     0.055 A 
ATOM     87  C   UNL A   1      46.542  34.222  30.380  1.00  0.00     0.041 A 
ATOM     88  F   UNL A   1      46.183  31.975  30.939  1.00  0.00    -0.206 F 
ATOM     89  C   UNL A   1      46.342  35.302  29.524  1.00  0.00     0.022 A 
BRANCH  86  90
ATOM     90  S   UNL A   1      45.336  36.494  27.213  1.00  0.00     0.124 S 
ATOM     91  O   UNL A   1      46.326  36.129  26.205  1.00  0.00    -0.237 OA
ATOM     92  O   UNL A   1      43.940  36.379  26.807  1.00  0.00    -0.237 OA
ATOM     93  O   UNL A   1      45.657  37.690  27.991  1.00  0.00    -0.744 OA
ENDBRANCH  86  90
ENDBRANCH  60  83
ENDBRANCH  34  35
ENDBRANCH  26  29
ENDBRANCH  24  25
ENDBRANCH  23  24
ENDBRANCH   1  23
TORSDOF 20
ENDMDL
