MODEL 1
REMARK VINA RESULT:     -12.5      0.000      0.000
REMARK SMILES O=C(NCCCNC(=O)c1cc(Sc2nccn3cnnc23)ccn1)c1ccc(-c2c3nc(c(-c4cc(S(=O)(=O)[O-])ccc4F)c4ccc([nH]4)c(-c4cc(S(=O)(=O)[O-])ccc4F)c4nc(c(-c5cc(S(=O)(=O)[O-])ccc5F)c5ccc2[nH]5)C=C4)C=C3)cc1
REMARK SMILES IDX 4 1 3 2 1 3 2 4 26 6 27 7 88 8 28 9 87 10 29 11 30 12 31 13
REMARK SMILES IDX 81 14 32 15 86 16 80 17 82 18 33 19 85 20 79 21 78 22 34 24
REMARK SMILES IDX 66 25 46 26 65 27 47 28 50 29 64 30 83 31 48 32 49 33 63 35
REMARK SMILES IDX 84 36 51 37 35 38 36 39 44 40 37 41 43 42 45 43 42 44 38 45
REMARK SMILES IDX 39 46 40 47 41 48 67 49 68 50 76 51 69 52 75 53 77 54 74 55
REMARK SMILES IDX 70 56 71 57 72 58 73 59 52 60 53 61 61 62 54 63 60 64 62 65
REMARK SMILES IDX 59 66 55 67 56 68 57 69 58 70 5 71 6 72 7 73 8 74 9 76 10 77
REMARK SMILES IDX 11 78 25 79 12 80 24 81 23 82 13 83 14 84 15 85 22 86 16 87
REMARK SMILES IDX 18 88 21 89 17 90 19 91 20 92
REMARK H PARENT 3 5 82 23 50 34 7 75
REMARK Flexibility Score: inf
ROOT
ATOM      1  C   UNL A   1      32.786  32.197  27.345  1.00  0.00     0.118 C 
ENDROOT
BRANCH   1   2
ATOM      2  N   UNL A   1      32.452  33.609  27.628  1.00  0.00    -0.352 N 
ATOM      3  O   UNL A   1      32.523  35.503  28.914  1.00  0.00    -0.269 OA
ATOM      4  C   UNL A   1      33.036  34.435  28.590  1.00  0.00     0.251 C 
ATOM      5  H   UNL A   1      31.741  34.010  27.078  1.00  0.00     0.163 HD
BRANCH   4   6
ATOM      6  C   UNL A   1      34.314  33.987  29.175  1.00  0.00     0.039 A 
ATOM      7  C   UNL A   1      34.450  33.116  30.257  1.00  0.00     0.014 A 
ATOM      8  C   UNL A   1      35.415  34.346  28.428  1.00  0.00     0.014 A 
ATOM      9  C   UNL A   1      35.713  32.560  30.482  1.00  0.00     0.010 A 
ATOM     10  C   UNL A   1      36.426  33.447  28.366  1.00  0.00     0.010 A 
ATOM     11  C   UNL A   1      36.705  32.724  29.499  1.00  0.00    -0.014 A 
BRANCH  11  12
ATOM     12  C   UNL A   1      38.055  32.185  29.572  1.00  0.00     0.031 A 
ATOM     13  C   UNL A   1      38.195  30.802  29.069  1.00  0.00     0.074 A 
ATOM     14  C   UNL A   1      39.134  32.937  29.902  1.00  0.00     0.049 A 
ATOM     15  N   UNL A   1      38.299  29.728  29.775  1.00  0.00    -0.248 NA
ATOM     16  C   UNL A   1      38.007  30.561  27.632  1.00  0.00     0.031 C 
ATOM     17  C   UNL A   1      39.255  34.394  30.108  1.00  0.00     0.029 A 
ATOM     18  N   UNL A   1      40.420  32.534  30.050  1.00  0.00    -0.354 N 
ATOM     19  C   UNL A   1      38.424  28.685  28.865  1.00  0.00     0.074 A 
ATOM     20  C   UNL A   1      38.027  29.227  27.589  1.00  0.00     0.031 C 
ATOM     21  C   UNL A   1      40.554  34.761  30.093  1.00  0.00     0.029 A 
ATOM     22  C   UNL A   1      41.356  33.558  30.107  1.00  0.00     0.049 A 
ATOM     23  H   UNL A   1      40.672  31.584  30.112  1.00  0.00     0.167 HD
ATOM     24  C   UNL A   1      39.060  27.527  29.205  1.00  0.00     0.034 A 
ATOM     25  C   UNL A   1      42.703  33.429  30.161  1.00  0.00     0.034 A 
ATOM     26  C   UNL A   1      39.300  27.471  30.626  1.00  0.00     0.049 A 
ATOM     27  C   UNL A   1      42.983  32.044  30.621  1.00  0.00     0.074 A 
ATOM     28  C   UNL A   1      38.485  27.453  31.740  1.00  0.00     0.029 A 
ATOM     29  N   UNL A   1      40.541  27.865  31.074  1.00  0.00    -0.354 N 
ATOM     30  N   UNL A   1      42.701  31.613  31.821  1.00  0.00    -0.248 NA
ATOM     31  C   UNL A   1      43.098  31.017  29.596  1.00  0.00     0.031 C 
ATOM     32  C   UNL A   1      39.137  28.296  32.685  1.00  0.00     0.029 A 
ATOM     33  C   UNL A   1      40.353  28.714  32.137  1.00  0.00     0.049 A 
ATOM     34  H   UNL A   1      41.408  27.587  30.700  1.00  0.00     0.167 HD
ATOM     35  C   UNL A   1      42.164  30.349  31.621  1.00  0.00     0.074 A 
ATOM     36  C   UNL A   1      42.504  30.007  30.238  1.00  0.00     0.031 C 
ATOM     37  C   UNL A   1      41.239  29.816  32.475  1.00  0.00     0.034 A 
BRANCH  24  38
ATOM     38  C   UNL A   1      39.760  26.618  28.227  1.00  0.00     0.023 A 
ATOM     39  C   UNL A   1      40.846  27.029  27.434  1.00  0.00     0.031 A 
ATOM     40  C   UNL A   1      39.484  25.236  28.222  1.00  0.00     0.131 A 
ATOM     41  C   UNL A   1      41.594  26.117  26.679  1.00  0.00     0.055 A 
ATOM     42  C   UNL A   1      40.272  24.314  27.522  1.00  0.00     0.041 A 
ATOM     43  F   UNL A   1      38.469  24.729  28.940  1.00  0.00    -0.206 F 
ATOM     44  C   UNL A   1      41.336  24.753  26.745  1.00  0.00     0.022 A 
BRANCH  41  45
ATOM     45  S   UNL A   1      42.931  26.700  25.601  1.00  0.00     0.124 S 
ATOM     46  O   UNL A   1      43.377  25.459  24.978  1.00  0.00    -0.237 OA
ATOM     47  O   UNL A   1      42.220  27.629  24.725  1.00  0.00    -0.237 OA
ATOM     48  O   UNL A   1      43.870  27.324  26.528  1.00  0.00    -0.744 OA
ENDBRANCH  41  45
ENDBRANCH  24  38
BRANCH  25  49
ATOM     49  C   UNL A   1      43.653  34.187  29.310  1.00  0.00     0.023 A 
ATOM     50  C   UNL A   1      43.644  33.998  27.914  1.00  0.00     0.031 A 
ATOM     51  C   UNL A   1      44.765  34.841  29.865  1.00  0.00     0.131 A 
ATOM     52  C   UNL A   1      44.741  34.389  27.134  1.00  0.00     0.055 A 
ATOM     53  C   UNL A   1      45.848  35.257  29.079  1.00  0.00     0.041 A 
ATOM     54  F   UNL A   1      44.852  35.024  31.192  1.00  0.00    -0.206 F 
ATOM     55  C   UNL A   1      45.848  35.014  27.709  1.00  0.00     0.022 A 
BRANCH  52  56
ATOM     56  S   UNL A   1      44.797  33.983  25.366  1.00  0.00     0.124 S 
ATOM     57  O   UNL A   1      44.897  32.526  25.389  1.00  0.00    -0.237 OA
ATOM     58  O   UNL A   1      43.523  34.519  24.900  1.00  0.00    -0.237 OA
ATOM     59  O   UNL A   1      45.990  34.680  24.894  1.00  0.00    -0.744 OA
ENDBRANCH  52  56
ENDBRANCH  25  49
BRANCH  37  60
ATOM     60  C   UNL A   1      40.924  30.538  33.773  1.00  0.00     0.023 A 
ATOM     61  C   UNL A   1      40.047  31.633  33.699  1.00  0.00     0.031 A 
ATOM     62  C   UNL A   1      41.626  30.359  34.983  1.00  0.00     0.131 A 
ATOM     63  C   UNL A   1      39.938  32.533  34.766  1.00  0.00     0.055 A 
ATOM     64  C   UNL A   1      41.463  31.221  36.074  1.00  0.00     0.041 A 
ATOM     65  F   UNL A   1      42.553  29.406  35.120  1.00  0.00    -0.206 F 
ATOM     66  C   UNL A   1      40.629  32.328  35.961  1.00  0.00     0.022 A 
BRANCH  63  67
ATOM     67  S   UNL A   1      39.020  34.080  34.559  1.00  0.00     0.124 S 
ATOM     68  O   UNL A   1      40.081  35.023  34.213  1.00  0.00    -0.237 OA
ATOM     69  O   UNL A   1      38.097  33.750  33.475  1.00  0.00    -0.237 OA
ATOM     70  O   UNL A   1      38.393  34.296  35.859  1.00  0.00    -0.744 OA
ENDBRANCH  63  67
ENDBRANCH  37  60
ENDBRANCH  11  12
ENDBRANCH   4   6
ENDBRANCH   1   2
BRANCH   1  71
ATOM     71  C   UNL A   1      31.737  31.426  26.581  1.00  0.00     0.042 C 
BRANCH  71  72
ATOM     72  C   UNL A   1      32.205  30.027  26.198  1.00  0.00     0.118 C 
BRANCH  72  73
ATOM     73  N   UNL A   1      32.967  29.941  24.953  1.00  0.00    -0.351 N 
ATOM     74  C   UNL A   1      32.879  29.027  23.913  1.00  0.00     0.269 C 
ATOM     75  H   UNL A   1      33.648  30.642  24.832  1.00  0.00     0.163 HD
ATOM     76  O   UNL A   1      33.571  29.174  22.911  1.00  0.00    -0.268 OA
BRANCH  74  77
ATOM     77  C   UNL A   1      31.902  27.906  24.010  1.00  0.00     0.129 A 
ATOM     78  C   UNL A   1      32.390  26.609  24.021  1.00  0.00     0.049 A 
ATOM     79  N   UNL A   1      30.591  28.214  23.943  1.00  0.00    -0.251 NA
ATOM     80  C   UNL A   1      31.518  25.565  23.755  1.00  0.00     0.018 A 
ATOM     81  C   UNL A   1      29.740  27.180  23.816  1.00  0.00     0.113 A 
ATOM     82  C   UNL A   1      30.153  25.861  23.681  1.00  0.00     0.035 A 
BRANCH  80  83
ATOM     83  S   UNL A   1      32.056  23.889  23.419  1.00  0.00    -0.066 SA
BRANCH  83  84
ATOM     84  C   UNL A   1      33.392  23.599  24.511  1.00  0.00     0.146 A 
ATOM     85  N   UNL A   1      33.200  23.553  25.804  1.00  0.00    -0.244 NA
ATOM     86  C   UNL A   1      34.692  23.361  23.943  1.00  0.00     0.193 A 
ATOM     87  C   UNL A   1      34.289  23.307  26.623  1.00  0.00     0.131 A 
ATOM     88  N   UNL A   1      35.727  23.090  24.800  1.00  0.00    -0.285 N 
ATOM     89  N   UNL A   1      35.120  23.329  22.701  1.00  0.00    -0.128 NA
ATOM     90  C   UNL A   1      35.532  23.071  26.166  1.00  0.00     0.114 A 
ATOM     91  C   UNL A   1      36.814  22.878  24.008  1.00  0.00     0.230 A 
ATOM     92  N   UNL A   1      36.469  23.018  22.744  1.00  0.00    -0.138 NA
ENDBRANCH  83  84
ENDBRANCH  80  83
ENDBRANCH  74  77
ENDBRANCH  72  73
ENDBRANCH  71  72
ENDBRANCH   1  71
TORSDOF 15
ENDMDL
MODEL 2
REMARK VINA RESULT:     -12.2      4.143      9.562
REMARK SMILES O=C(NCCCNC(=O)c1cc(Sc2nccn3cnnc23)ccn1)c1ccc(-c2c3nc(c(-c4cc(S(=O)(=O)[O-])ccc4F)c4ccc([nH]4)c(-c4cc(S(=O)(=O)[O-])ccc4F)c4nc(c(-c5cc(S(=O)(=O)[O-])ccc5F)c5ccc2[nH]5)C=C4)C=C3)cc1
REMARK SMILES IDX 4 1 3 2 1 3 2 4 26 6 27 7 88 8 28 9 87 10 29 11 30 12 31 13
REMARK SMILES IDX 81 14 32 15 86 16 80 17 82 18 33 19 85 20 79 21 78 22 34 24
REMARK SMILES IDX 66 25 46 26 65 27 47 28 50 29 64 30 83 31 48 32 49 33 63 35
REMARK SMILES IDX 84 36 51 37 35 38 36 39 44 40 37 41 43 42 45 43 42 44 38 45
REMARK SMILES IDX 39 46 40 47 41 48 67 49 68 50 76 51 69 52 75 53 77 54 74 55
REMARK SMILES IDX 70 56 71 57 72 58 73 59 52 60 53 61 61 62 54 63 60 64 62 65
REMARK SMILES IDX 59 66 55 67 56 68 57 69 58 70 5 71 6 72 7 73 8 74 9 76 10 77
REMARK SMILES IDX 11 78 25 79 12 80 24 81 23 82 13 83 14 84 15 85 22 86 16 87
REMARK SMILES IDX 18 88 21 89 17 90 19 91 20 92
REMARK H PARENT 3 5 82 23 50 34 7 75
REMARK Flexibility Score: inf
ROOT
ATOM      1  C   UNL A   1      38.745  20.966  25.379  1.00  0.00     0.118 C 
ENDROOT
BRANCH   1   2
ATOM      2  N   UNL A   1      39.503  19.707  25.539  1.00  0.00    -0.352 N 
ATOM      3  O   UNL A   1      41.442  18.505  25.744  1.00  0.00    -0.269 OA
ATOM      4  C   UNL A   1      40.850  19.572  25.882  1.00  0.00     0.251 C 
ATOM      5  H   UNL A   1      39.003  18.873  25.387  1.00  0.00     0.163 HD
BRANCH   4   6
ATOM      6  C   UNL A   1      41.521  20.757  26.448  1.00  0.00     0.039 A 
ATOM      7  C   UNL A   1      42.185  21.742  25.716  1.00  0.00     0.014 A 
ATOM      8  C   UNL A   1      41.271  20.939  27.791  1.00  0.00     0.014 A 
ATOM      9  C   UNL A   1      42.491  22.938  26.372  1.00  0.00     0.010 A 
ATOM     10  C   UNL A   1      41.127  22.218  28.214  1.00  0.00     0.010 A 
ATOM     11  C   UNL A   1      41.929  23.172  27.639  1.00  0.00    -0.014 A 
BRANCH  11  12
ATOM     12  C   UNL A   1      42.128  24.374  28.436  1.00  0.00     0.031 A 
ATOM     13  C   UNL A   1      41.043  25.372  28.327  1.00  0.00     0.074 A 
ATOM     14  C   UNL A   1      43.129  24.502  29.343  1.00  0.00     0.049 A 
ATOM     15  N   UNL A   1      41.062  26.464  27.641  1.00  0.00    -0.248 NA
ATOM     16  C   UNL A   1      39.726  25.033  28.881  1.00  0.00     0.031 C 
ATOM     17  C   UNL A   1      44.101  23.508  29.838  1.00  0.00     0.029 A 
ATOM     18  N   UNL A   1      43.438  25.585  30.098  1.00  0.00    -0.354 N 
ATOM     19  C   UNL A   1      39.833  27.074  27.863  1.00  0.00     0.074 A 
ATOM     20  C   UNL A   1      38.991  26.060  28.448  1.00  0.00     0.031 C 
ATOM     21  C   UNL A   1      44.695  23.957  30.964  1.00  0.00     0.029 A 
ATOM     22  C   UNL A   1      44.323  25.343  31.140  1.00  0.00     0.049 A 
ATOM     23  H   UNL A   1      43.063  26.478  29.919  1.00  0.00     0.167 HD
ATOM     24  C   UNL A   1      39.688  28.426  27.753  1.00  0.00     0.034 A 
ATOM     25  C   UNL A   1      44.723  26.223  32.090  1.00  0.00     0.034 A 
ATOM     26  C   UNL A   1      40.853  29.019  27.142  1.00  0.00     0.049 A 
ATOM     27  C   UNL A   1      44.439  27.582  31.563  1.00  0.00     0.074 A 
ATOM     28  C   UNL A   1      41.460  28.896  25.909  1.00  0.00     0.029 A 
ATOM     29  N   UNL A   1      41.806  29.550  27.980  1.00  0.00    -0.354 N 
ATOM     30  N   UNL A   1      45.065  28.104  30.542  1.00  0.00    -0.248 NA
ATOM     31  C   UNL A   1      43.125  28.140  31.844  1.00  0.00     0.031 C 
ATOM     32  C   UNL A   1      42.857  28.891  26.188  1.00  0.00     0.029 A 
ATOM     33  C   UNL A   1      43.033  29.098  27.559  1.00  0.00     0.049 A 
ATOM     34  H   UNL A   1      41.639  30.146  28.745  1.00  0.00     0.167 HD
ATOM     35  C   UNL A   1      44.068  28.716  29.795  1.00  0.00     0.074 A 
ATOM     36  C   UNL A   1      42.906  28.769  30.686  1.00  0.00     0.031 C 
ATOM     37  C   UNL A   1      44.163  28.850  28.438  1.00  0.00     0.034 A 
BRANCH  24  38
ATOM     38  C   UNL A   1      38.659  29.239  28.495  1.00  0.00     0.023 A 
ATOM     39  C   UNL A   1      38.652  29.381  29.895  1.00  0.00     0.031 A 
ATOM     40  C   UNL A   1      37.771  30.075  27.789  1.00  0.00     0.131 A 
ATOM     41  C   UNL A   1      37.805  30.290  30.539  1.00  0.00     0.055 A 
ATOM     42  C   UNL A   1      36.972  31.033  28.426  1.00  0.00     0.041 A 
ATOM     43  F   UNL A   1      37.689  30.025  26.450  1.00  0.00    -0.206 F 
ATOM     44  C   UNL A   1      36.986  31.145  29.810  1.00  0.00     0.022 A 
BRANCH  41  45
ATOM     45  S   UNL A   1      37.764  30.379  32.350  1.00  0.00     0.124 S 
ATOM     46  O   UNL A   1      37.131  29.113  32.700  1.00  0.00    -0.237 OA
ATOM     47  O   UNL A   1      39.185  30.488  32.672  1.00  0.00    -0.237 OA
ATOM     48  O   UNL A   1      36.979  31.582  32.615  1.00  0.00    -0.744 OA
ENDBRANCH  41  45
ENDBRANCH  24  38
BRANCH  25  49
ATOM     49  C   UNL A   1      44.756  25.929  33.544  1.00  0.00     0.023 A 
ATOM     50  C   UNL A   1      43.550  25.829  34.264  1.00  0.00     0.031 A 
ATOM     51  C   UNL A   1      45.941  26.062  34.286  1.00  0.00     0.131 A 
ATOM     52  C   UNL A   1      43.542  25.931  35.662  1.00  0.00     0.055 A 
ATOM     53  C   UNL A   1      45.934  26.135  35.686  1.00  0.00     0.041 A 
ATOM     54  F   UNL A   1      47.122  26.195  33.661  1.00  0.00    -0.206 F 
ATOM     55  C   UNL A   1      44.728  26.089  36.379  1.00  0.00     0.022 A 
BRANCH  52  56
ATOM     56  S   UNL A   1      41.970  25.978  36.567  1.00  0.00     0.124 S 
ATOM     57  O   UNL A   1      41.497  24.603  36.431  1.00  0.00    -0.237 OA
ATOM     58  O   UNL A   1      42.411  26.362  37.903  1.00  0.00    -0.237 OA
ATOM     59  O   UNL A   1      41.190  26.978  35.845  1.00  0.00    -0.744 OA
ENDBRANCH  52  56
ENDBRANCH  25  49
BRANCH  37  60
ATOM     60  C   UNL A   1      45.468  28.493  27.747  1.00  0.00     0.023 A 
ATOM     61  C   UNL A   1      45.604  27.175  27.282  1.00  0.00     0.031 A 
ATOM     62  C   UNL A   1      46.629  29.292  27.760  1.00  0.00     0.131 A 
ATOM     63  C   UNL A   1      46.859  26.674  26.914  1.00  0.00     0.055 A 
ATOM     64  C   UNL A   1      47.870  28.811  27.326  1.00  0.00     0.041 A 
ATOM     65  F   UNL A   1      46.624  30.527  28.274  1.00  0.00    -0.206 F 
ATOM     66  C   UNL A   1      47.994  27.487  26.919  1.00  0.00     0.022 A 
BRANCH  63  67
ATOM     67  S   UNL A   1      47.071  24.907  26.579  1.00  0.00     0.124 S 
ATOM     68  O   UNL A   1      47.369  24.899  25.149  1.00  0.00    -0.237 OA
ATOM     69  O   UNL A   1      48.189  24.559  27.453  1.00  0.00    -0.237 OA
ATOM     70  O   UNL A   1      45.788  24.320  26.953  1.00  0.00    -0.744 OA
ENDBRANCH  63  67
ENDBRANCH  37  60
ENDBRANCH  11  12
ENDBRANCH   4   6
ENDBRANCH   1   2
BRANCH   1  71
ATOM     71  C   UNL A   1      37.256  20.805  25.193  1.00  0.00     0.042 C 
BRANCH  71  72
ATOM     72  C   UNL A   1      36.478  22.040  25.628  1.00  0.00     0.118 C 
BRANCH  72  73
ATOM     73  N   UNL A   1      35.502  21.821  26.694  1.00  0.00    -0.351 N 
ATOM     74  C   UNL A   1      34.117  21.889  26.666  1.00  0.00     0.269 C 
ATOM     75  H   UNL A   1      35.887  21.588  27.570  1.00  0.00     0.163 HD
ATOM     76  O   UNL A   1      33.471  21.597  27.667  1.00  0.00    -0.268 OA
BRANCH  74  77
ATOM     77  C   UNL A   1      33.432  22.266  25.397  1.00  0.00     0.129 A 
ATOM     78  C   UNL A   1      32.811  23.504  25.330  1.00  0.00     0.049 A 
ATOM     79  N   UNL A   1      33.339  21.326  24.435  1.00  0.00    -0.251 NA
ATOM     80  C   UNL A   1      31.886  23.732  24.322  1.00  0.00     0.018 A 
ATOM     81  C   UNL A   1      32.537  21.613  23.394  1.00  0.00     0.113 A 
ATOM     82  C   UNL A   1      31.772  22.770  23.314  1.00  0.00     0.035 A 
BRANCH  80  83
ATOM     83  S   UNL A   1      30.781  25.142  24.298  1.00  0.00    -0.066 SA
BRANCH  83  84
ATOM     84  C   UNL A   1      31.796  26.538  24.583  1.00  0.00     0.146 A 
ATOM     85  N   UNL A   1      32.562  27.011  23.635  1.00  0.00    -0.244 NA
ATOM     86  C   UNL A   1      31.722  27.177  25.870  1.00  0.00     0.193 A 
ATOM     87  C   UNL A   1      33.336  28.127  23.910  1.00  0.00     0.131 A 
ATOM     88  N   UNL A   1      32.487  28.297  26.075  1.00  0.00    -0.285 N 
ATOM     89  N   UNL A   1      31.024  26.909  26.950  1.00  0.00    -0.128 NA
ATOM     90  C   UNL A   1      33.318  28.780  25.085  1.00  0.00     0.114 A 
ATOM     91  C   UNL A   1      32.205  28.707  27.342  1.00  0.00     0.230 A 
ATOM     92  N   UNL A   1      31.329  27.886  27.884  1.00  0.00    -0.138 NA
ENDBRANCH  83  84
ENDBRANCH  80  83
ENDBRANCH  74  77
ENDBRANCH  72  73
ENDBRANCH  71  72
ENDBRANCH   1  71
TORSDOF 15
ENDMDL
MODEL 3
REMARK VINA RESULT:     -12.1      1.619      1.942
REMARK SMILES O=C(NCCCNC(=O)c1cc(Sc2nccn3cnnc23)ccn1)c1ccc(-c2c3nc(c(-c4cc(S(=O)(=O)[O-])ccc4F)c4ccc([nH]4)c(-c4cc(S(=O)(=O)[O-])ccc4F)c4nc(c(-c5cc(S(=O)(=O)[O-])ccc5F)c5ccc2[nH]5)C=C4)C=C3)cc1
REMARK SMILES IDX 4 1 3 2 1 3 2 4 26 6 27 7 88 8 28 9 87 10 29 11 30 12 31 13
REMARK SMILES IDX 81 14 32 15 86 16 80 17 82 18 33 19 85 20 79 21 78 22 34 24
REMARK SMILES IDX 66 25 46 26 65 27 47 28 50 29 64 30 83 31 48 32 49 33 63 35
REMARK SMILES IDX 84 36 51 37 35 38 36 39 44 40 37 41 43 42 45 43 42 44 38 45
REMARK SMILES IDX 39 46 40 47 41 48 67 49 68 50 76 51 69 52 75 53 77 54 74 55
REMARK SMILES IDX 70 56 71 57 72 58 73 59 52 60 53 61 61 62 54 63 60 64 62 65
REMARK SMILES IDX 59 66 55 67 56 68 57 69 58 70 5 71 6 72 7 73 8 74 9 76 10 77
REMARK SMILES IDX 11 78 25 79 12 80 24 81 23 82 13 83 14 84 15 85 22 86 16 87
REMARK SMILES IDX 18 88 21 89 17 90 19 91 20 92
REMARK H PARENT 3 5 82 23 50 34 7 75
REMARK Flexibility Score: inf
ROOT
ATOM      1  C   UNL A   1      32.923  31.298  27.172  1.00  0.00     0.118 C 
ENDROOT
BRANCH   1   2
ATOM      2  N   UNL A   1      32.485  32.706  27.283  1.00  0.00    -0.352 N 
ATOM      3  O   UNL A   1      32.387  34.734  28.342  1.00  0.00    -0.269 OA
ATOM      4  C   UNL A   1      32.982  33.676  28.155  1.00  0.00     0.251 C 
ATOM      5  H   UNL A   1      31.766  32.989  26.674  1.00  0.00     0.163 HD
BRANCH   4   6
ATOM      6  C   UNL A   1      34.269  33.390  28.816  1.00  0.00     0.039 A 
ATOM      7  C   UNL A   1      34.437  32.618  29.966  1.00  0.00     0.014 A 
ATOM      8  C   UNL A   1      35.364  33.790  28.082  1.00  0.00     0.014 A 
ATOM      9  C   UNL A   1      35.733  32.196  30.277  1.00  0.00     0.010 A 
ATOM     10  C   UNL A   1      36.451  32.984  28.124  1.00  0.00     0.010 A 
ATOM     11  C   UNL A   1      36.746  32.375  29.319  1.00  0.00    -0.014 A 
BRANCH  11  12
ATOM     12  C   UNL A   1      38.134  31.967  29.479  1.00  0.00     0.031 A 
ATOM     13  C   UNL A   1      38.415  30.569  29.090  1.00  0.00     0.074 A 
ATOM     14  C   UNL A   1      39.129  32.837  29.786  1.00  0.00     0.049 A 
ATOM     15  N   UNL A   1      38.583  29.565  29.881  1.00  0.00    -0.248 NA
ATOM     16  C   UNL A   1      38.307  30.206  27.671  1.00  0.00     0.031 C 
ATOM     17  C   UNL A   1      39.113  34.310  29.882  1.00  0.00     0.029 A 
ATOM     18  N   UNL A   1      40.438  32.564  30.008  1.00  0.00    -0.354 N 
ATOM     19  C   UNL A   1      38.836  28.472  29.060  1.00  0.00     0.074 A 
ATOM     20  C   UNL A   1      38.446  28.879  27.733  1.00  0.00     0.031 C 
ATOM     21  C   UNL A   1      40.375  34.791  29.882  1.00  0.00     0.029 A 
ATOM     22  C   UNL A   1      41.277  33.669  30.018  1.00  0.00     0.049 A 
ATOM     23  H   UNL A   1      40.769  31.647  30.152  1.00  0.00     0.167 HD
ATOM     24  C   UNL A   1      39.557  27.405  29.510  1.00  0.00     0.034 A 
ATOM     25  C   UNL A   1      42.628  33.666  30.127  1.00  0.00     0.034 A 
ATOM     26  C   UNL A   1      39.743  27.477  30.939  1.00  0.00     0.049 A 
ATOM     27  C   UNL A   1      43.009  32.351  30.703  1.00  0.00     0.074 A 
ATOM     28  C   UNL A   1      38.888  27.468  32.022  1.00  0.00     0.029 A 
ATOM     29  N   UNL A   1      40.925  28.013  31.396  1.00  0.00    -0.354 N 
ATOM     30  N   UNL A   1      42.717  31.987  31.923  1.00  0.00    -0.248 NA
ATOM     31  C   UNL A   1      43.254  31.265  29.765  1.00  0.00     0.031 C 
ATOM     32  C   UNL A   1      39.424  28.435  32.920  1.00  0.00     0.029 A 
ATOM     33  C   UNL A   1      40.620  28.919  32.383  1.00  0.00     0.049 A 
ATOM     34  H   UNL A   1      41.827  27.788  31.075  1.00  0.00     0.167 HD
ATOM     35  C   UNL A   1      42.301  30.668  31.804  1.00  0.00     0.074 A 
ATOM     36  C   UNL A   1      42.726  30.256  30.464  1.00  0.00     0.031 C 
ATOM     37  C   UNL A   1      41.391  30.119  32.664  1.00  0.00     0.034 A 
BRANCH  24  38
ATOM     38  C   UNL A   1      40.373  26.492  28.631  1.00  0.00     0.023 A 
ATOM     39  C   UNL A   1      39.973  25.186  28.296  1.00  0.00     0.031 A 
ATOM     40  C   UNL A   1      41.485  26.994  27.926  1.00  0.00     0.131 A 
ATOM     41  C   UNL A   1      40.651  24.433  27.330  1.00  0.00     0.055 A 
ATOM     42  C   UNL A   1      42.123  26.269  26.912  1.00  0.00     0.041 A 
ATOM     43  F   UNL A   1      41.957  28.228  28.164  1.00  0.00    -0.206 F 
ATOM     44  C   UNL A   1      41.706  24.979  26.607  1.00  0.00     0.022 A 
BRANCH  41  45
ATOM     45  S   UNL A   1      40.159  22.721  26.990  1.00  0.00     0.124 S 
ATOM     46  O   UNL A   1      38.758  22.879  26.615  1.00  0.00    -0.237 OA
ATOM     47  O   UNL A   1      41.069  22.361  25.905  1.00  0.00    -0.237 OA
ATOM     48  O   UNL A   1      40.409  22.037  28.255  1.00  0.00    -0.744 OA
ENDBRANCH  41  45
ENDBRANCH  24  38
BRANCH  25  49
ATOM     49  C   UNL A   1      43.542  34.442  29.253  1.00  0.00     0.023 A 
ATOM     50  C   UNL A   1      43.607  34.149  27.877  1.00  0.00     0.031 A 
ATOM     51  C   UNL A   1      44.568  35.234  29.793  1.00  0.00     0.131 A 
ATOM     52  C   UNL A   1      44.696  34.578  27.106  1.00  0.00     0.055 A 
ATOM     53  C   UNL A   1      45.642  35.686  29.014  1.00  0.00     0.041 A 
ATOM     54  F   UNL A   1      44.584  35.523  31.104  1.00  0.00    -0.206 F 
ATOM     55  C   UNL A   1      45.719  35.342  27.668  1.00  0.00     0.022 A 
BRANCH  52  56
ATOM     56  S   UNL A   1      44.860  34.048  25.378  1.00  0.00     0.124 S 
ATOM     57  O   UNL A   1      44.897  32.593  25.506  1.00  0.00    -0.237 OA
ATOM     58  O   UNL A   1      43.646  34.596  24.785  1.00  0.00    -0.237 OA
ATOM     59  O   UNL A   1      46.111  34.666  24.950  1.00  0.00    -0.744 OA
ENDBRANCH  52  56
ENDBRANCH  25  49
BRANCH  37  60
ATOM     60  C   UNL A   1      40.962  30.904  33.891  1.00  0.00     0.023 A 
ATOM     61  C   UNL A   1      39.812  31.700  33.769  1.00  0.00     0.031 A 
ATOM     62  C   UNL A   1      41.754  31.093  35.042  1.00  0.00     0.131 A 
ATOM     63  C   UNL A   1      39.516  32.678  34.727  1.00  0.00     0.055 A 
ATOM     64  C   UNL A   1      41.419  32.023  36.033  1.00  0.00     0.041 A 
ATOM     65  F   UNL A   1      42.917  30.454  35.204  1.00  0.00    -0.206 F 
ATOM     66  C   UNL A   1      40.304  32.837  35.868  1.00  0.00     0.022 A 
BRANCH  63  67
ATOM     67  S   UNL A   1      38.192  33.876  34.424  1.00  0.00     0.124 S 
ATOM     68  O   UNL A   1      38.813  35.131  34.838  1.00  0.00    -0.237 OA
ATOM     69  O   UNL A   1      37.968  33.733  32.987  1.00  0.00    -0.237 OA
ATOM     70  O   UNL A   1      37.095  33.413  35.269  1.00  0.00    -0.744 OA
ENDBRANCH  63  67
ENDBRANCH  37  60
ENDBRANCH  11  12
ENDBRANCH   4   6
ENDBRANCH   1   2
BRANCH   1  71
ATOM     71  C   UNL A   1      31.831  30.305  26.857  1.00  0.00     0.042 C 
BRANCH  71  72
ATOM     72  C   UNL A   1      31.697  30.044  25.361  1.00  0.00     0.118 C 
BRANCH  72  73
ATOM     73  N   UNL A   1      32.932  29.659  24.680  1.00  0.00    -0.351 N 
ATOM     74  C   UNL A   1      33.279  28.465  24.065  1.00  0.00     0.269 C 
ATOM     75  H   UNL A   1      33.626  30.357  24.653  1.00  0.00     0.163 HD
ATOM     76  O   UNL A   1      34.354  28.369  23.482  1.00  0.00    -0.268 OA
BRANCH  74  77
ATOM     77  C   UNL A   1      32.312  27.332  24.078  1.00  0.00     0.129 A 
ATOM     78  C   UNL A   1      32.176  26.598  25.246  1.00  0.00     0.049 A 
ATOM     79  N   UNL A   1      31.725  27.000  22.910  1.00  0.00    -0.251 NA
ATOM     80  C   UNL A   1      31.570  25.352  25.186  1.00  0.00     0.018 A 
ATOM     81  C   UNL A   1      31.027  25.849  22.898  1.00  0.00     0.113 A 
ATOM     82  C   UNL A   1      30.955  24.987  23.984  1.00  0.00     0.035 A 
BRANCH  80  83
ATOM     83  S   UNL A   1      31.612  24.167  26.528  1.00  0.00    -0.066 SA
BRANCH  83  84
ATOM     84  C   UNL A   1      33.014  23.166  26.225  1.00  0.00     0.146 A 
ATOM     85  N   UNL A   1      34.217  23.601  26.497  1.00  0.00    -0.244 NA
ATOM     86  C   UNL A   1      32.800  21.836  25.719  1.00  0.00     0.193 A 
ATOM     87  C   UNL A   1      35.292  22.762  26.250  1.00  0.00     0.131 A 
ATOM     88  N   UNL A   1      33.899  21.039  25.524  1.00  0.00    -0.285 N 
ATOM     89  N   UNL A   1      31.709  21.178  25.399  1.00  0.00    -0.128 NA
ATOM     90  C   UNL A   1      35.171  21.507  25.783  1.00  0.00     0.114 A 
ATOM     91  C   UNL A   1      33.414  19.848  25.078  1.00  0.00     0.230 A 
ATOM     92  N   UNL A   1      32.101  19.912  24.996  1.00  0.00    -0.138 NA
ENDBRANCH  83  84
ENDBRANCH  80  83
ENDBRANCH  74  77
ENDBRANCH  72  73
ENDBRANCH  71  72
ENDBRANCH   1  71
TORSDOF 15
ENDMDL
