MODEL 1
REMARK VINA RESULT:     -12.4      0.000      0.000
REMARK SMILES CC(C)n1c(CCC(=O)NCCCNC(=O)c2ccc(-c3c4nc(c(-c5cc(S(=O)(=O)[O-])ccc5F)c5ccc([nH]5)c(-c5cc(S(=O)(=O)[O-])ccc5F)c5nc(c(-c6cc(S(=O)(=O)[O-])ccc6F)c6ccc3[nH]6)C=C5)C=C4)cc2)ccc1-c1ccc(F)cc1
REMARK SMILES IDX 12 1 11 2 10 3 8 4 9 5 7 7 6 8 5 9 4 10 82 11 80 12 81 13
REMARK SMILES IDX 2 14 1 15 3 16 83 17 84 18 89 19 85 20 88 21 86 22 87 23
REMARK SMILES IDX 13 24 14 25 15 26 16 28 17 29 18 30 79 31 19 32 78 33 20 34
REMARK SMILES IDX 21 35 22 36 72 37 23 38 77 39 71 40 73 41 24 42 76 43 70 44
REMARK SMILES IDX 69 45 25 47 57 48 37 49 56 50 38 51 41 52 55 53 74 54 39 55
REMARK SMILES IDX 40 56 54 58 75 59 42 60 26 61 27 62 35 63 28 64 34 65 36 66
REMARK SMILES IDX 33 67 29 68 30 69 31 70 32 71 58 72 59 73 67 74 60 75 66 76
REMARK SMILES IDX 68 77 65 78 61 79 62 80 63 81 64 82 43 83 44 84 52 85 45 86
REMARK SMILES IDX 51 87 53 88 50 89 46 90 47 91 48 92 49 93
REMARK H PARENT 10 6 14 27 73 46 41 57
REMARK Flexibility Score: inf
ROOT
ATOM      1  C   UNL A   1      37.723  21.964  25.538  1.00  0.00     0.042 C 
ENDROOT
BRANCH   1   2
ATOM      2  C   UNL A   1      36.743  21.496  24.398  1.00  0.00     0.117 C 
BRANCH   2   3
ATOM      3  N   UNL A   1      35.289  21.623  24.650  1.00  0.00    -0.356 N 
ATOM      4  C   UNL A   1      34.295  22.457  24.198  1.00  0.00     0.220 C 
ATOM      5  O   UNL A   1      33.131  22.082  24.398  1.00  0.00    -0.275 OA
ATOM      6  H   UNL A   1      34.957  20.952  25.292  1.00  0.00     0.163 HD
BRANCH   4   7
ATOM      7  C   UNL A   1      34.502  23.793  23.485  1.00  0.00     0.106 C 
BRANCH   7   8
ATOM      8  C   UNL A   1      33.297  24.262  22.627  1.00  0.00     0.064 C 
BRANCH   8   9
ATOM      9  C   UNL A   1      32.993  25.712  22.849  1.00  0.00     0.019 A 
ATOM     10  N   UNL A   1      32.304  26.231  23.938  1.00  0.00    -0.342 N 
ATOM     11  C   UNL A   1      32.541  27.618  23.943  1.00  0.00     0.048 A 
ATOM     12  C   UNL A   1      33.383  26.772  22.046  1.00  0.00     0.024 A 
ATOM     13  C   UNL A   1      33.113  27.968  22.737  1.00  0.00     0.029 A 
BRANCH  10  14
ATOM     14  C   UNL A   1      31.541  25.436  24.936  1.00  0.00     0.081 C 
ATOM     15  C   UNL A   1      32.253  25.196  26.278  1.00  0.00     0.031 C 
ATOM     16  C   UNL A   1      30.097  25.869  25.280  1.00  0.00     0.031 C 
ENDBRANCH  10  14
BRANCH  11  17
ATOM     17  C   UNL A   1      32.626  28.345  25.188  1.00  0.00    -0.002 A 
ATOM     18  C   UNL A   1      31.674  29.024  25.922  1.00  0.00     0.013 A 
ATOM     19  C   UNL A   1      33.949  28.554  25.525  1.00  0.00     0.013 A 
ATOM     20  C   UNL A   1      32.140  29.833  26.953  1.00  0.00     0.040 A 
ATOM     21  C   UNL A   1      34.328  28.860  26.785  1.00  0.00     0.040 A 
ATOM     22  C   UNL A   1      33.505  29.855  27.199  1.00  0.00     0.123 A 
ATOM     23  F   UNL A   1      34.047  31.074  27.068  1.00  0.00    -0.207 F 
ENDBRANCH  11  17
ENDBRANCH   8   9
ENDBRANCH   7   8
ENDBRANCH   4   7
ENDBRANCH   2   3
ENDBRANCH   1   2
BRANCH   1  24
ATOM     24  C   UNL A   1      38.193  23.414  25.980  1.00  0.00     0.118 C 
BRANCH  24  25
ATOM     25  N   UNL A   1      39.683  23.510  26.287  1.00  0.00    -0.352 N 
ATOM     26  C   UNL A   1      40.593  24.303  27.013  1.00  0.00     0.251 C 
ATOM     27  H   UNL A   1      40.165  22.782  25.831  1.00  0.00     0.163 HD
ATOM     28  O   UNL A   1      41.704  23.813  27.241  1.00  0.00    -0.269 OA
BRANCH  26  29
ATOM     29  C   UNL A   1      40.393  25.725  27.429  1.00  0.00     0.039 A 
ATOM     30  C   UNL A   1      40.364  26.844  26.614  1.00  0.00     0.014 A 
ATOM     31  C   UNL A   1      39.666  25.951  28.571  1.00  0.00     0.014 A 
ATOM     32  C   UNL A   1      40.176  28.129  27.198  1.00  0.00     0.010 A 
ATOM     33  C   UNL A   1      39.683  27.158  29.244  1.00  0.00     0.010 A 
ATOM     34  C   UNL A   1      40.107  28.295  28.598  1.00  0.00    -0.014 A 
BRANCH  34  35
ATOM     35  C   UNL A   1      40.266  29.608  29.336  1.00  0.00     0.031 A 
ATOM     36  C   UNL A   1      38.923  30.255  29.820  1.00  0.00     0.074 A 
ATOM     37  C   UNL A   1      41.542  30.096  29.507  1.00  0.00     0.049 A 
ATOM     38  N   UNL A   1      38.269  31.280  29.349  1.00  0.00    -0.248 NA
ATOM     39  C   UNL A   1      38.082  29.530  30.822  1.00  0.00     0.031 C 
ATOM     40  C   UNL A   1      42.796  29.320  29.314  1.00  0.00     0.029 A 
ATOM     41  N   UNL A   1      42.075  31.319  29.866  1.00  0.00    -0.354 N 
ATOM     42  C   UNL A   1      37.076  31.426  30.117  1.00  0.00     0.074 A 
ATOM     43  C   UNL A   1      36.905  30.168  30.780  1.00  0.00     0.031 C 
ATOM     44  C   UNL A   1      43.894  30.106  29.369  1.00  0.00     0.029 A 
ATOM     45  C   UNL A   1      43.486  31.466  29.648  1.00  0.00     0.049 A 
ATOM     46  H   UNL A   1      41.524  32.042  30.247  1.00  0.00     0.167 HD
ATOM     47  C   UNL A   1      36.490  32.634  30.430  1.00  0.00     0.034 A 
ATOM     48  C   UNL A   1      44.252  32.608  29.639  1.00  0.00     0.034 A 
ATOM     49  C   UNL A   1      37.429  33.659  30.096  1.00  0.00     0.049 A 
ATOM     50  C   UNL A   1      43.305  33.652  30.038  1.00  0.00     0.074 A 
ATOM     51  C   UNL A   1      37.968  34.116  28.924  1.00  0.00     0.029 A 
ATOM     52  N   UNL A   1      38.217  34.088  31.149  1.00  0.00    -0.354 N 
ATOM     53  N   UNL A   1      42.878  33.836  31.246  1.00  0.00    -0.248 NA
ATOM     54  C   UNL A   1      42.760  34.536  29.000  1.00  0.00     0.031 C 
ATOM     55  C   UNL A   1      39.324  34.287  29.270  1.00  0.00     0.029 A 
ATOM     56  C   UNL A   1      39.479  34.249  30.663  1.00  0.00     0.049 A 
ATOM     57  H   UNL A   1      37.921  34.247  32.074  1.00  0.00     0.167 HD
ATOM     58  C   UNL A   1      41.772  34.616  31.046  1.00  0.00     0.074 A 
ATOM     59  C   UNL A   1      41.944  35.264  29.759  1.00  0.00     0.031 C 
ATOM     60  C   UNL A   1      40.596  34.206  31.584  1.00  0.00     0.034 A 
BRANCH  47  61
ATOM     61  C   UNL A   1      35.381  33.097  31.380  1.00  0.00     0.023 A 
ATOM     62  C   UNL A   1      34.596  34.200  30.926  1.00  0.00     0.031 A 
ATOM     63  C   UNL A   1      35.190  32.744  32.719  1.00  0.00     0.131 A 
ATOM     64  C   UNL A   1      33.858  35.007  31.803  1.00  0.00     0.055 A 
ATOM     65  C   UNL A   1      34.389  33.513  33.586  1.00  0.00     0.041 A 
ATOM     66  F   UNL A   1      35.788  31.682  33.265  1.00  0.00    -0.206 F 
ATOM     67  C   UNL A   1      33.759  34.675  33.145  1.00  0.00     0.022 A 
BRANCH  64  68
ATOM     68  S   UNL A   1      33.213  36.587  31.177  1.00  0.00     0.124 S 
ATOM     69  O   UNL A   1      33.539  36.509  29.760  1.00  0.00    -0.237 OA
ATOM     70  O   UNL A   1      31.800  36.501  31.519  1.00  0.00    -0.237 OA
ATOM     71  O   UNL A   1      33.975  37.586  31.938  1.00  0.00    -0.744 OA
ENDBRANCH  64  68
ENDBRANCH  47  61
BRANCH  48  72
ATOM     72  C   UNL A   1      45.642  33.149  29.294  1.00  0.00     0.023 A 
ATOM     73  C   UNL A   1      46.222  33.302  28.024  1.00  0.00     0.031 A 
ATOM     74  C   UNL A   1      46.440  33.676  30.369  1.00  0.00     0.131 A 
ATOM     75  C   UNL A   1      47.456  34.016  27.884  1.00  0.00     0.055 A 
ATOM     76  C   UNL A   1      47.578  34.461  30.215  1.00  0.00     0.041 A 
ATOM     77  F   UNL A   1      46.142  33.460  31.659  1.00  0.00    -0.206 F 
ATOM     78  C   UNL A   1      48.088  34.650  28.958  1.00  0.00     0.022 A 
BRANCH  75  79
ATOM     79  S   UNL A   1      48.308  34.168  26.281  1.00  0.00     0.124 S 
ATOM     80  O   UNL A   1      48.952  32.865  26.159  1.00  0.00    -0.237 OA
ATOM     81  O   UNL A   1      47.216  34.435  25.353  1.00  0.00    -0.237 OA
ATOM     82  O   UNL A   1      49.222  35.292  26.493  1.00  0.00    -0.744 OA
ENDBRANCH  75  79
ENDBRANCH  48  72
BRANCH  60  83
ATOM     83  C   UNL A   1      40.740  33.362  32.856  1.00  0.00     0.023 A 
ATOM     84  C   UNL A   1      40.559  31.961  32.813  1.00  0.00     0.031 A 
ATOM     85  C   UNL A   1      40.909  33.908  34.137  1.00  0.00     0.131 A 
ATOM     86  C   UNL A   1      40.510  31.190  33.993  1.00  0.00     0.055 A 
ATOM     87  C   UNL A   1      40.879  33.144  35.316  1.00  0.00     0.041 A 
ATOM     88  F   UNL A   1      41.082  35.219  34.290  1.00  0.00    -0.206 F 
ATOM     89  C   UNL A   1      40.673  31.775  35.247  1.00  0.00     0.022 A 
BRANCH  86  90
ATOM     90  S   UNL A   1      40.232  29.399  33.877  1.00  0.00     0.124 S 
ATOM     91  O   UNL A   1      40.935  28.888  35.047  1.00  0.00    -0.237 OA
ATOM     92  O   UNL A   1      38.776  29.301  33.910  1.00  0.00    -0.237 OA
ATOM     93  O   UNL A   1      40.836  29.043  32.591  1.00  0.00    -0.744 OA
ENDBRANCH  86  90
ENDBRANCH  60  83
ENDBRANCH  34  35
ENDBRANCH  26  29
ENDBRANCH  24  25
ENDBRANCH   1  24
TORSDOF 17
ENDMDL
MODEL 2
REMARK VINA RESULT:     -12.0      1.353      2.108
REMARK SMILES CC(C)n1c(CCC(=O)NCCCNC(=O)c2ccc(-c3c4nc(c(-c5cc(S(=O)(=O)[O-])ccc5F)c5ccc([nH]5)c(-c5cc(S(=O)(=O)[O-])ccc5F)c5nc(c(-c6cc(S(=O)(=O)[O-])ccc6F)c6ccc3[nH]6)C=C5)C=C4)cc2)ccc1-c1ccc(F)cc1
REMARK SMILES IDX 12 1 11 2 10 3 8 4 9 5 7 7 6 8 5 9 4 10 82 11 80 12 81 13
REMARK SMILES IDX 2 14 1 15 3 16 83 17 84 18 89 19 85 20 88 21 86 22 87 23
REMARK SMILES IDX 13 24 14 25 15 26 16 28 17 29 18 30 79 31 19 32 78 33 20 34
REMARK SMILES IDX 21 35 22 36 72 37 23 38 77 39 71 40 73 41 24 42 76 43 70 44
REMARK SMILES IDX 69 45 25 47 57 48 37 49 56 50 38 51 41 52 55 53 74 54 39 55
REMARK SMILES IDX 40 56 54 58 75 59 42 60 26 61 27 62 35 63 28 64 34 65 36 66
REMARK SMILES IDX 33 67 29 68 30 69 31 70 32 71 58 72 59 73 67 74 60 75 66 76
REMARK SMILES IDX 68 77 65 78 61 79 62 80 63 81 64 82 43 83 44 84 52 85 45 86
REMARK SMILES IDX 51 87 53 88 50 89 46 90 47 91 48 92 49 93
REMARK H PARENT 10 6 14 27 73 46 41 57
REMARK Flexibility Score: inf
ROOT
ATOM      1  C   UNL A   1      37.321  22.524  24.991  1.00  0.00     0.042 C 
ENDROOT
BRANCH   1   2
ATOM      2  C   UNL A   1      36.241  22.655  23.853  1.00  0.00     0.117 C 
BRANCH   2   3
ATOM      3  N   UNL A   1      34.834  22.360  24.207  1.00  0.00    -0.356 N 
ATOM      4  C   UNL A   1      33.808  23.072  24.781  1.00  0.00     0.220 C 
ATOM      5  O   UNL A   1      32.671  22.596  24.652  1.00  0.00    -0.275 OA
ATOM      6  H   UNL A   1      34.572  21.438  23.978  1.00  0.00     0.163 HD
BRANCH   4   7
ATOM      7  C   UNL A   1      33.950  24.380  25.558  1.00  0.00     0.106 C 
BRANCH   7   8
ATOM      8  C   UNL A   1      34.237  25.626  24.680  1.00  0.00     0.064 C 
BRANCH   8   9
ATOM      9  C   UNL A   1      33.297  26.750  24.993  1.00  0.00     0.019 A 
ATOM     10  N   UNL A   1      32.606  27.504  24.053  1.00  0.00    -0.342 N 
ATOM     11  C   UNL A   1      31.594  28.190  24.748  1.00  0.00     0.048 A 
ATOM     12  C   UNL A   1      32.920  27.188  26.252  1.00  0.00     0.024 A 
ATOM     13  C   UNL A   1      31.843  28.082  26.102  1.00  0.00     0.029 A 
BRANCH  10  14
ATOM     14  C   UNL A   1      32.860  27.502  22.588  1.00  0.00     0.081 C 
ATOM     15  C   UNL A   1      34.133  28.238  22.134  1.00  0.00     0.031 C 
ATOM     16  C   UNL A   1      32.844  26.153  21.835  1.00  0.00     0.031 C 
ENDBRANCH  10  14
BRANCH  11  17
ATOM     17  C   UNL A   1      30.323  28.462  24.118  1.00  0.00    -0.002 A 
ATOM     18  C   UNL A   1      29.336  27.622  23.641  1.00  0.00     0.013 A 
ATOM     19  C   UNL A   1      30.250  29.791  23.752  1.00  0.00     0.013 A 
ATOM     20  C   UNL A   1      28.344  28.205  22.859  1.00  0.00     0.040 A 
ATOM     21  C   UNL A   1      29.073  30.402  23.497  1.00  0.00     0.040 A 
ATOM     22  C   UNL A   1      28.390  29.578  22.664  1.00  0.00     0.123 A 
ATOM     23  F   UNL A   1      28.498  29.926  21.374  1.00  0.00    -0.207 F 
ENDBRANCH  11  17
ENDBRANCH   8   9
ENDBRANCH   7   8
ENDBRANCH   4   7
ENDBRANCH   2   3
ENDBRANCH   1   2
BRANCH   1  24
ATOM     24  C   UNL A   1      37.806  23.557  26.094  1.00  0.00     0.118 C 
BRANCH  24  25
ATOM     25  N   UNL A   1      39.318  23.586  26.287  1.00  0.00    -0.352 N 
ATOM     26  C   UNL A   1      40.317  24.345  26.925  1.00  0.00     0.251 C 
ATOM     27  H   UNL A   1      39.729  22.827  25.810  1.00  0.00     0.163 HD
ATOM     28  O   UNL A   1      41.417  23.807  27.080  1.00  0.00    -0.269 OA
BRANCH  26  29
ATOM     29  C   UNL A   1      40.216  25.782  27.326  1.00  0.00     0.039 A 
ATOM     30  C   UNL A   1      40.446  26.895  26.534  1.00  0.00     0.014 A 
ATOM     31  C   UNL A   1      39.344  26.095  28.339  1.00  0.00     0.014 A 
ATOM     32  C   UNL A   1      40.315  28.194  27.100  1.00  0.00     0.010 A 
ATOM     33  C   UNL A   1      39.390  27.294  29.025  1.00  0.00     0.010 A 
ATOM     34  C   UNL A   1      40.040  28.372  28.472  1.00  0.00    -0.014 A 
BRANCH  34  35
ATOM     35  C   UNL A   1      40.226  29.661  29.247  1.00  0.00     0.031 A 
ATOM     36  C   UNL A   1      38.897  30.330  29.738  1.00  0.00     0.074 A 
ATOM     37  C   UNL A   1      41.513  30.111  29.440  1.00  0.00     0.049 A 
ATOM     38  N   UNL A   1      38.273  31.383  29.289  1.00  0.00    -0.248 NA
ATOM     39  C   UNL A   1      38.030  29.600  30.714  1.00  0.00     0.031 C 
ATOM     40  C   UNL A   1      42.749  29.308  29.236  1.00  0.00     0.029 A 
ATOM     41  N   UNL A   1      42.075  31.310  29.836  1.00  0.00    -0.354 N 
ATOM     42  C   UNL A   1      37.078  31.539  30.052  1.00  0.00     0.074 A 
ATOM     43  C   UNL A   1      36.870  30.269  30.680  1.00  0.00     0.031 C 
ATOM     44  C   UNL A   1      43.866  30.064  29.320  1.00  0.00     0.029 A 
ATOM     45  C   UNL A   1      43.491  31.426  29.632  1.00  0.00     0.049 A 
ATOM     46  H   UNL A   1      41.539  32.036  30.232  1.00  0.00     0.167 HD
ATOM     47  C   UNL A   1      36.521  32.753  30.393  1.00  0.00     0.034 A 
ATOM     48  C   UNL A   1      44.285  32.548  29.660  1.00  0.00     0.034 A 
ATOM     49  C   UNL A   1      37.488  33.762  30.093  1.00  0.00     0.049 A 
ATOM     50  C   UNL A   1      43.362  33.605  30.079  1.00  0.00     0.074 A 
ATOM     51  C   UNL A   1      38.048  34.236  28.938  1.00  0.00     0.029 A 
ATOM     52  N   UNL A   1      38.278  34.143  31.164  1.00  0.00    -0.354 N 
ATOM     53  N   UNL A   1      42.931  33.768  31.288  1.00  0.00    -0.248 NA
ATOM     54  C   UNL A   1      42.849  34.530  29.061  1.00  0.00     0.031 C 
ATOM     55  C   UNL A   1      39.406  34.363  29.299  1.00  0.00     0.029 A 
ATOM     56  C   UNL A   1      39.549  34.284  30.692  1.00  0.00     0.049 A 
ATOM     57  H   UNL A   1      37.979  34.284  32.090  1.00  0.00     0.167 HD
ATOM     58  C   UNL A   1      41.847  34.582  31.101  1.00  0.00     0.074 A 
ATOM     59  C   UNL A   1      42.046  35.259  29.833  1.00  0.00     0.031 C 
ATOM     60  C   UNL A   1      40.656  34.188  31.619  1.00  0.00     0.034 A 
BRANCH  47  61
ATOM     61  C   UNL A   1      35.417  33.219  31.347  1.00  0.00     0.023 A 
ATOM     62  C   UNL A   1      34.540  34.225  30.836  1.00  0.00     0.031 A 
ATOM     63  C   UNL A   1      35.298  32.969  32.717  1.00  0.00     0.131 A 
ATOM     64  C   UNL A   1      33.779  35.051  31.674  1.00  0.00     0.055 A 
ATOM     65  C   UNL A   1      34.476  33.753  33.550  1.00  0.00     0.041 A 
ATOM     66  F   UNL A   1      35.988  32.000  33.324  1.00  0.00    -0.206 F 
ATOM     67  C   UNL A   1      33.750  34.828  33.041  1.00  0.00     0.022 A 
BRANCH  64  68
ATOM     68  S   UNL A   1      33.002  36.526  30.947  1.00  0.00     0.124 S 
ATOM     69  O   UNL A   1      31.595  36.154  30.934  1.00  0.00    -0.237 OA
ATOM     70  O   UNL A   1      33.383  37.571  31.888  1.00  0.00    -0.237 OA
ATOM     71  O   UNL A   1      33.634  36.621  29.625  1.00  0.00    -0.744 OA
ENDBRANCH  64  68
ENDBRANCH  47  61
BRANCH  48  72
ATOM     72  C   UNL A   1      45.692  33.062  29.340  1.00  0.00     0.023 A 
ATOM     73  C   UNL A   1      46.305  33.183  28.081  1.00  0.00     0.031 A 
ATOM     74  C   UNL A   1      46.471  33.595  30.425  1.00  0.00     0.131 A 
ATOM     75  C   UNL A   1      47.552  33.876  27.959  1.00  0.00     0.055 A 
ATOM     76  C   UNL A   1      47.625  34.360  30.285  1.00  0.00     0.041 A 
ATOM     77  F   UNL A   1      46.139  33.406  31.710  1.00  0.00    -0.206 F 
ATOM     78  C   UNL A   1      48.168  34.520  29.038  1.00  0.00     0.022 A 
BRANCH  75  79
ATOM     79  S   UNL A   1      48.445  33.988  26.376  1.00  0.00     0.124 S 
ATOM     80  O   UNL A   1      47.364  34.283  25.442  1.00  0.00    -0.237 OA
ATOM     81  O   UNL A   1      49.401  35.063  26.613  1.00  0.00    -0.237 OA
ATOM     82  O   UNL A   1      49.040  32.659  26.232  1.00  0.00    -0.744 OA
ENDBRANCH  75  79
ENDBRANCH  48  72
BRANCH  60  83
ATOM     83  C   UNL A   1      40.768  33.307  32.869  1.00  0.00     0.023 A 
ATOM     84  C   UNL A   1      40.585  31.909  32.781  1.00  0.00     0.031 A 
ATOM     85  C   UNL A   1      40.908  33.816  34.169  1.00  0.00     0.131 A 
ATOM     86  C   UNL A   1      40.507  31.104  33.937  1.00  0.00     0.055 A 
ATOM     87  C   UNL A   1      40.849  33.018  35.324  1.00  0.00     0.041 A 
ATOM     88  F   UNL A   1      41.080  35.120  34.364  1.00  0.00    -0.206 F 
ATOM     89  C   UNL A   1      40.641  31.652  35.210  1.00  0.00     0.022 A 
BRANCH  86  90
ATOM     90  S   UNL A   1      40.227  29.318  33.762  1.00  0.00     0.124 S 
ATOM     91  O   UNL A   1      40.950  28.997  32.538  1.00  0.00    -0.237 OA
ATOM     92  O   UNL A   1      40.792  28.785  34.999  1.00  0.00    -0.237 OA
ATOM     93  O   UNL A   1      38.770  29.209  33.663  1.00  0.00    -0.744 OA
ENDBRANCH  86  90
ENDBRANCH  60  83
ENDBRANCH  34  35
ENDBRANCH  26  29
ENDBRANCH  24  25
ENDBRANCH   1  24
TORSDOF 17
ENDMDL
MODEL 3
REMARK VINA RESULT:     -11.9      4.652     10.436
REMARK SMILES CC(C)n1c(CCC(=O)NCCCNC(=O)c2ccc(-c3c4nc(c(-c5cc(S(=O)(=O)[O-])ccc5F)c5ccc([nH]5)c(-c5cc(S(=O)(=O)[O-])ccc5F)c5nc(c(-c6cc(S(=O)(=O)[O-])ccc6F)c6ccc3[nH]6)C=C5)C=C4)cc2)ccc1-c1ccc(F)cc1
REMARK SMILES IDX 12 1 11 2 10 3 8 4 9 5 7 7 6 8 5 9 4 10 82 11 80 12 81 13
REMARK SMILES IDX 2 14 1 15 3 16 83 17 84 18 89 19 85 20 88 21 86 22 87 23
REMARK SMILES IDX 13 24 14 25 15 26 16 28 17 29 18 30 79 31 19 32 78 33 20 34
REMARK SMILES IDX 21 35 22 36 72 37 23 38 77 39 71 40 73 41 24 42 76 43 70 44
REMARK SMILES IDX 69 45 25 47 57 48 37 49 56 50 38 51 41 52 55 53 74 54 39 55
REMARK SMILES IDX 40 56 54 58 75 59 42 60 26 61 27 62 35 63 28 64 34 65 36 66
REMARK SMILES IDX 33 67 29 68 30 69 31 70 32 71 58 72 59 73 67 74 60 75 66 76
REMARK SMILES IDX 68 77 65 78 61 79 62 80 63 81 64 82 43 83 44 84 52 85 45 86
REMARK SMILES IDX 51 87 53 88 50 89 46 90 47 91 48 92 49 93
REMARK H PARENT 10 6 14 27 73 46 41 57
REMARK Flexibility Score: inf
ROOT
ATOM      1  C   UNL A   1      33.324  30.308  26.529  1.00  0.00     0.042 C 
ENDROOT
BRANCH   1   2
ATOM      2  C   UNL A   1      32.263  29.651  25.569  1.00  0.00     0.117 C 
BRANCH   2   3
ATOM      3  N   UNL A   1      31.398  28.587  26.128  1.00  0.00    -0.356 N 
ATOM      4  C   UNL A   1      31.431  27.214  26.134  1.00  0.00     0.220 C 
ATOM      5  O   UNL A   1      30.696  26.651  26.959  1.00  0.00    -0.275 OA
ATOM      6  H   UNL A   1      30.617  28.949  26.608  1.00  0.00     0.163 HD
BRANCH   4   7
ATOM      7  C   UNL A   1      32.281  26.333  25.219  1.00  0.00     0.106 C 
BRANCH   7   8
ATOM      8  C   UNL A   1      31.712  24.909  24.980  1.00  0.00     0.064 C 
BRANCH   8   9
ATOM      9  C   UNL A   1      32.586  23.857  25.591  1.00  0.00     0.019 A 
ATOM     10  N   UNL A   1      33.517  23.087  24.904  1.00  0.00    -0.342 N 
ATOM     11  C   UNL A   1      34.347  22.496  25.873  1.00  0.00     0.048 A 
ATOM     12  C   UNL A   1      32.652  23.511  26.931  1.00  0.00     0.024 A 
ATOM     13  C   UNL A   1      33.765  22.669  27.113  1.00  0.00     0.029 A 
BRANCH  10  14
ATOM     14  C   UNL A   1      33.636  22.992  23.426  1.00  0.00     0.081 C 
ATOM     15  C   UNL A   1      32.465  22.298  22.708  1.00  0.00     0.031 C 
ATOM     16  C   UNL A   1      33.940  24.277  22.622  1.00  0.00     0.031 C 
ENDBRANCH  10  14
BRANCH  11  17
ATOM     17  C   UNL A   1      35.745  22.256  25.597  1.00  0.00    -0.002 A 
ATOM     18  C   UNL A   1      36.411  21.136  25.140  1.00  0.00     0.013 A 
ATOM     19  C   UNL A   1      36.513  23.279  26.117  1.00  0.00     0.013 A 
ATOM     20  C   UNL A   1      37.800  21.160  25.221  1.00  0.00     0.040 A 
ATOM     21  C   UNL A   1      37.775  23.513  25.696  1.00  0.00     0.040 A 
ATOM     22  C   UNL A   1      38.406  22.313  25.699  1.00  0.00     0.123 A 
ATOM     23  F   UNL A   1      39.140  22.107  26.801  1.00  0.00    -0.207 F 
ENDBRANCH  11  17
ENDBRANCH   8   9
ENDBRANCH   7   8
ENDBRANCH   4   7
ENDBRANCH   2   3
ENDBRANCH   1   2
BRANCH   1  24
ATOM     24  C   UNL A   1      34.264  29.671  27.639  1.00  0.00     0.118 C 
BRANCH  24  25
ATOM     25  N   UNL A   1      35.095  30.696  28.401  1.00  0.00    -0.352 N 
ATOM     26  C   UNL A   1      36.424  30.934  28.803  1.00  0.00     0.251 C 
ATOM     27  H   UNL A   1      34.516  31.430  28.712  1.00  0.00     0.163 HD
ATOM     28  O   UNL A   1      36.708  32.086  29.145  1.00  0.00    -0.269 OA
BRANCH  26  29
ATOM     29  C   UNL A   1      37.494  29.904  28.975  1.00  0.00     0.039 A 
ATOM     30  C   UNL A   1      37.504  28.839  29.859  1.00  0.00     0.014 A 
ATOM     31  C   UNL A   1      38.277  29.620  27.883  1.00  0.00     0.014 A 
ATOM     32  C   UNL A   1      38.627  27.966  29.890  1.00  0.00     0.010 A 
ATOM     33  C   UNL A   1      39.485  28.957  27.979  1.00  0.00     0.010 A 
ATOM     34  C   UNL A   1      39.770  28.213  29.100  1.00  0.00    -0.014 A 
BRANCH  34  35
ATOM     35  C   UNL A   1      41.132  27.582  29.301  1.00  0.00     0.031 A 
ATOM     36  C   UNL A   1      41.534  26.527  28.213  1.00  0.00     0.074 A 
ATOM     37  C   UNL A   1      41.869  27.983  30.393  1.00  0.00     0.049 A 
ATOM     38  N   UNL A   1      41.576  25.226  28.283  1.00  0.00    -0.248 NA
ATOM     39  C   UNL A   1      41.694  26.969  26.793  1.00  0.00     0.031 C 
ATOM     40  C   UNL A   1      41.599  29.190  31.219  1.00  0.00     0.029 A 
ATOM     41  N   UNL A   1      42.978  27.490  31.052  1.00  0.00    -0.354 N 
ATOM     42  C   UNL A   1      41.956  24.734  26.999  1.00  0.00     0.074 A 
ATOM     43  C   UNL A   1      41.721  25.823  26.099  1.00  0.00     0.031 C 
ATOM     44  C   UNL A   1      42.368  29.227  32.330  1.00  0.00     0.029 A 
ATOM     45  C   UNL A   1      43.251  28.081  32.331  1.00  0.00     0.049 A 
ATOM     46  H   UNL A   1      43.545  26.780  30.669  1.00  0.00     0.167 HD
ATOM     47  C   UNL A   1      42.735  23.616  26.789  1.00  0.00     0.034 A 
ATOM     48  C   UNL A   1      44.086  27.645  33.332  1.00  0.00     0.034 A 
ATOM     49  C   UNL A   1      43.293  23.245  28.052  1.00  0.00     0.049 A 
ATOM     50  C   UNL A   1      44.746  26.481  32.737  1.00  0.00     0.074 A 
ATOM     51  C   UNL A   1      42.770  22.777  29.227  1.00  0.00     0.029 A 
ATOM     52  N   UNL A   1      44.563  23.739  28.291  1.00  0.00    -0.354 N 
ATOM     53  N   UNL A   1      45.688  26.543  31.852  1.00  0.00    -0.248 NA
ATOM     54  C   UNL A   1      44.293  25.141  33.131  1.00  0.00     0.031 C 
ATOM     55  C   UNL A   1      43.485  23.524  30.186  1.00  0.00     0.029 A 
ATOM     56  C   UNL A   1      44.596  24.142  29.593  1.00  0.00     0.049 A 
ATOM     57  H   UNL A   1      45.302  23.790  27.644  1.00  0.00     0.167 HD
ATOM     58  C   UNL A   1      45.690  25.273  31.343  1.00  0.00     0.074 A 
ATOM     59  C   UNL A   1      45.091  24.417  32.350  1.00  0.00     0.031 C 
ATOM     60  C   UNL A   1      45.579  25.124  29.998  1.00  0.00     0.034 A 
BRANCH  47  61
ATOM     61  C   UNL A   1      43.458  22.998  25.588  1.00  0.00     0.023 A 
ATOM     62  C   UNL A   1      43.352  21.579  25.464  1.00  0.00     0.031 A 
ATOM     63  C   UNL A   1      44.395  23.599  24.743  1.00  0.00     0.131 A 
ATOM     64  C   UNL A   1      44.265  20.821  24.717  1.00  0.00     0.055 A 
ATOM     65  C   UNL A   1      45.265  22.841  23.935  1.00  0.00     0.041 A 
ATOM     66  F   UNL A   1      44.548  24.924  24.682  1.00  0.00    -0.206 F 
ATOM     67  C   UNL A   1      45.237  21.448  23.954  1.00  0.00     0.022 A 
BRANCH  64  68
ATOM     68  S   UNL A   1      44.261  19.016  24.934  1.00  0.00     0.124 S 
ATOM     69  O   UNL A   1      45.323  18.825  25.911  1.00  0.00    -0.237 OA
ATOM     70  O   UNL A   1      42.903  18.765  25.400  1.00  0.00    -0.237 OA
ATOM     71  O   UNL A   1      44.556  18.515  23.586  1.00  0.00    -0.744 OA
ENDBRANCH  64  68
ENDBRANCH  47  61
BRANCH  48  72
ATOM     72  C   UNL A   1      44.477  27.883  34.793  1.00  0.00     0.023 A 
ATOM     73  C   UNL A   1      44.447  26.967  35.859  1.00  0.00     0.031 A 
ATOM     74  C   UNL A   1      45.051  29.157  35.132  1.00  0.00     0.131 A 
ATOM     75  C   UNL A   1      45.043  27.314  37.114  1.00  0.00     0.055 A 
ATOM     76  C   UNL A   1      45.724  29.446  36.315  1.00  0.00     0.041 A 
ATOM     77  F   UNL A   1      44.997  30.213  34.307  1.00  0.00    -0.206 F 
ATOM     78  C   UNL A   1      45.737  28.512  37.316  1.00  0.00     0.022 A 
BRANCH  75  79
ATOM     79  S   UNL A   1      44.957  26.213  38.562  1.00  0.00     0.124 S 
ATOM     80  O   UNL A   1      46.174  26.570  39.283  1.00  0.00    -0.237 OA
ATOM     81  O   UNL A   1      43.700  26.598  39.193  1.00  0.00    -0.237 OA
ATOM     82  O   UNL A   1      44.961  24.876  37.968  1.00  0.00    -0.744 OA
ENDBRANCH  75  79
ENDBRANCH  48  72
BRANCH  60  83
ATOM     83  C   UNL A   1      46.136  26.296  29.182  1.00  0.00     0.023 A 
ATOM     84  C   UNL A   1      45.267  27.266  28.633  1.00  0.00     0.031 A 
ATOM     85  C   UNL A   1      47.482  26.412  28.806  1.00  0.00     0.131 A 
ATOM     86  C   UNL A   1      45.735  28.247  27.734  1.00  0.00     0.055 A 
ATOM     87  C   UNL A   1      47.960  27.398  27.926  1.00  0.00     0.041 A 
ATOM     88  F   UNL A   1      48.383  25.547  29.264  1.00  0.00    -0.206 F 
ATOM     89  C   UNL A   1      47.081  28.321  27.380  1.00  0.00     0.022 A 
BRANCH  86  90
ATOM     90  S   UNL A   1      44.563  29.441  27.027  1.00  0.00     0.124 S 
ATOM     91  O   UNL A   1      44.119  28.773  25.809  1.00  0.00    -0.237 OA
ATOM     92  O   UNL A   1      43.566  29.573  28.085  1.00  0.00    -0.237 OA
ATOM     93  O   UNL A   1      45.381  30.635  26.810  1.00  0.00    -0.744 OA
ENDBRANCH  86  90
ENDBRANCH  60  83
ENDBRANCH  34  35
ENDBRANCH  26  29
ENDBRANCH  24  25
ENDBRANCH   1  24
TORSDOF 17
ENDMDL
