MODEL 1
REMARK VINA RESULT:     -10.7      0.000      0.000
REMARK SMILES CCOc1ccccc1[C@@H](O)[C@@H](C)[C@@H](C)C(=O)NCCCNC(=O)c1ccc(-c2c3nc(c(-c4cc(S(=O)(=O)[O-])ccc4F)c4ccc([nH]4)c(-c4cc(S(=O)(=O)[O-])ccc4F)c4nc(c(-c5cc(S(=O)(=O)[O-])ccc5F)c5ccc2[nH]5)C=C4)C=C3)cc1
REMARK SMILES IDX 19 1 18 2 16 3 17 4 14 6 15 7 12 8 13 9 10 10 9 11 4 12 5 13
REMARK SMILES IDX 6 14 8 15 7 16 3 17 2 18 1 19 11 20 20 22 21 23 22 24 23 25
REMARK SMILES IDX 24 27 25 28 26 29 87 30 27 31 86 32 28 33 29 34 30 35 80 36
REMARK SMILES IDX 31 37 85 38 79 39 81 40 32 41 84 42 78 43 77 44 33 46 65 47
REMARK SMILES IDX 45 48 64 49 46 50 49 51 63 52 82 53 47 54 48 55 62 57 83 58
REMARK SMILES IDX 50 59 34 60 35 61 43 62 36 63 42 64 44 65 41 66 37 67 38 68
REMARK SMILES IDX 39 69 40 70 66 71 67 72 75 73 68 74 74 75 76 76 73 77 69 78
REMARK SMILES IDX 70 79 71 80 72 81 51 82 52 83 60 84 53 85 59 86 61 87 58 88
REMARK SMILES IDX 54 89 55 90 56 91 57 92
REMARK H PARENT 18 5 11 21 22 26 81 45 49 56
REMARK Flexibility Score: inf
ROOT
ATOM      1  C   UNL A   1      31.165  31.039  26.353  1.00  0.00     0.117 C 
ENDROOT
BRANCH   1   2
ATOM      2  N   UNL A   1      32.083  30.368  25.448  1.00  0.00    -0.356 N 
ATOM      3  C   UNL A   1      32.320  29.049  25.227  1.00  0.00     0.223 C 
ATOM      4  O   UNL A   1      33.182  28.753  24.395  1.00  0.00    -0.275 OA
ATOM      5  H   UNL A   1      32.630  30.976  24.900  1.00  0.00     0.163 HD
BRANCH   3   6
ATOM      6  C   UNL A   1      31.547  27.948  25.953  1.00  0.00     0.081 C 
ATOM      7  C   UNL A   1      31.938  27.940  27.431  1.00  0.00     0.018 C 
BRANCH   6   8
ATOM      8  C   UNL A   1      31.569  26.597  25.181  1.00  0.00     0.031 C 
ATOM      9  C   UNL A   1      30.121  26.075  25.075  1.00  0.00     0.011 C 
BRANCH   8  10
ATOM     10  C   UNL A   1      32.568  25.567  25.766  1.00  0.00     0.152 C 
BRANCH  10  11
ATOM     11  C   UNL A   1      32.429  24.180  25.174  1.00  0.00     0.023 A 
ATOM     12  C   UNL A   1      32.933  23.878  23.901  1.00  0.00     0.125 A 
ATOM     13  C   UNL A   1      32.858  22.583  23.390  1.00  0.00     0.047 A 
ATOM     14  C   UNL A   1      32.283  21.565  24.154  1.00  0.00     0.004 A 
ATOM     15  C   UNL A   1      31.832  23.147  25.921  1.00  0.00     0.010 A 
ATOM     16  C   UNL A   1      31.762  21.849  25.415  1.00  0.00     0.001 A 
BRANCH  12  17
ATOM     17  O   UNL A   1      33.396  24.888  23.101  1.00  0.00    -0.493 OA
BRANCH  17  18
ATOM     18  C   UNL A   1      32.844  24.842  21.781  1.00  0.00     0.226 C 
ATOM     19  C   UNL A   1      31.865  25.998  21.643  1.00  0.00     0.049 C 
ENDBRANCH  17  18
ENDBRANCH  12  17
ENDBRANCH  10  11
BRANCH  10  20
ATOM     20  O   UNL A   1      33.903  26.021  25.505  1.00  0.00    -0.388 OA
ATOM     21  H   UNL A   1      33.977  26.293  24.577  1.00  0.00     0.211 HD
ENDBRANCH  10  20
ENDBRANCH   8  10
ENDBRANCH   6   8
ENDBRANCH   3   6
ENDBRANCH   1   2
BRANCH   1  22
ATOM     22  C   UNL A   1      31.425  32.542  26.442  1.00  0.00     0.042 C 
BRANCH  22  23
ATOM     23  C   UNL A   1      32.635  32.919  27.285  1.00  0.00     0.118 C 
BRANCH  23  24
ATOM     24  N   UNL A   1      32.575  34.297  27.747  1.00  0.00    -0.352 N 
ATOM     25  C   UNL A   1      33.214  34.913  28.788  1.00  0.00     0.251 C 
ATOM     26  H   UNL A   1      31.978  34.881  27.225  1.00  0.00     0.163 HD
ATOM     27  O   UNL A   1      32.813  36.025  29.150  1.00  0.00    -0.269 OA
BRANCH  25  28
ATOM     28  C   UNL A   1      34.352  34.277  29.484  1.00  0.00     0.039 A 
ATOM     29  C   UNL A   1      34.091  33.466  30.593  1.00  0.00     0.014 A 
ATOM     30  C   UNL A   1      35.676  34.516  29.101  1.00  0.00     0.014 A 
ATOM     31  C   UNL A   1      35.145  32.864  31.284  1.00  0.00     0.010 A 
ATOM     32  C   UNL A   1      36.723  33.851  29.741  1.00  0.00     0.010 A 
ATOM     33  C   UNL A   1      36.470  33.028  30.846  1.00  0.00    -0.014 A 
BRANCH  33  34
ATOM     34  C   UNL A   1      37.591  32.352  31.550  1.00  0.00     0.031 A 
ATOM     35  C   UNL A   1      38.322  31.210  30.894  1.00  0.00     0.074 A 
ATOM     36  C   UNL A   1      37.932  32.753  32.791  1.00  0.00     0.049 A 
ATOM     37  N   UNL A   1      39.302  30.478  31.361  1.00  0.00    -0.248 NA
ATOM     38  C   UNL A   1      37.877  30.824  29.545  1.00  0.00     0.031 C 
ATOM     39  C   UNL A   1      37.268  33.820  33.545  1.00  0.00     0.029 A 
ATOM     40  N   UNL A   1      38.917  32.313  33.639  1.00  0.00    -0.354 N 
ATOM     41  C   UNL A   1      39.591  29.549  30.367  1.00  0.00     0.074 A 
ATOM     42  C   UNL A   1      38.638  29.768  29.300  1.00  0.00     0.031 C 
ATOM     43  C   UNL A   1      37.882  33.968  34.730  1.00  0.00     0.029 A 
ATOM     44  C   UNL A   1      38.955  32.985  34.840  1.00  0.00     0.049 A 
ATOM     45  H   UNL A   1      39.539  31.585  33.410  1.00  0.00     0.167 HD
ATOM     46  C   UNL A   1      40.577  28.617  30.334  1.00  0.00     0.034 A 
ATOM     47  C   UNL A   1      39.758  32.823  35.910  1.00  0.00     0.034 A 
ATOM     48  C   UNL A   1      41.526  28.414  31.401  1.00  0.00     0.049 A 
ATOM     49  C   UNL A   1      40.841  31.773  35.849  1.00  0.00     0.074 A 
ATOM     50  C   UNL A   1      42.577  27.515  31.463  1.00  0.00     0.029 A 
ATOM     51  N   UNL A   1      41.543  29.123  32.596  1.00  0.00    -0.354 N 
ATOM     52  N   UNL A   1      41.122  30.931  34.883  1.00  0.00    -0.248 NA
ATOM     53  C   UNL A   1      41.724  31.668  37.017  1.00  0.00     0.031 C 
ATOM     54  C   UNL A   1      43.195  27.644  32.712  1.00  0.00     0.029 A 
ATOM     55  C   UNL A   1      42.572  28.670  33.405  1.00  0.00     0.049 A 
ATOM     56  H   UNL A   1      40.914  29.843  32.833  1.00  0.00     0.167 HD
ATOM     57  C   UNL A   1      42.234  30.215  35.317  1.00  0.00     0.074 A 
ATOM     58  C   UNL A   1      42.586  30.747  36.617  1.00  0.00     0.031 C 
ATOM     59  C   UNL A   1      42.904  29.206  34.703  1.00  0.00     0.034 A 
BRANCH  46  60
ATOM     60  C   UNL A   1      40.669  27.745  29.105  1.00  0.00     0.023 A 
ATOM     61  C   UNL A   1      41.603  28.008  28.087  1.00  0.00     0.031 A 
ATOM     62  C   UNL A   1      39.813  26.641  28.945  1.00  0.00     0.131 A 
ATOM     63  C   UNL A   1      41.619  27.216  26.930  1.00  0.00     0.055 A 
ATOM     64  C   UNL A   1      39.885  25.812  27.823  1.00  0.00     0.041 A 
ATOM     65  F   UNL A   1      38.889  26.351  29.875  1.00  0.00    -0.206 F 
ATOM     66  C   UNL A   1      40.784  26.104  26.801  1.00  0.00     0.022 A 
BRANCH  63  67
ATOM     67  S   UNL A   1      42.674  27.725  25.544  1.00  0.00     0.124 S 
ATOM     68  O   UNL A   1      42.646  26.532  24.701  1.00  0.00    -0.237 OA
ATOM     69  O   UNL A   1      41.970  28.892  25.024  1.00  0.00    -0.237 OA
ATOM     70  O   UNL A   1      43.960  28.003  26.177  1.00  0.00    -0.744 OA
ENDBRANCH  63  67
ENDBRANCH  46  60
BRANCH  47  71
ATOM     71  C   UNL A   1      39.577  33.657  37.133  1.00  0.00     0.023 A 
ATOM     72  C   UNL A   1      38.880  33.165  38.248  1.00  0.00     0.031 A 
ATOM     73  C   UNL A   1      40.036  34.985  37.178  1.00  0.00     0.131 A 
ATOM     74  C   UNL A   1      38.604  34.013  39.331  1.00  0.00     0.055 A 
ATOM     75  C   UNL A   1      39.811  35.808  38.284  1.00  0.00     0.041 A 
ATOM     76  F   UNL A   1      40.712  35.506  36.142  1.00  0.00    -0.206 F 
ATOM     77  C   UNL A   1      39.073  35.327  39.362  1.00  0.00     0.022 A 
BRANCH  74  78
ATOM     78  S   UNL A   1      37.514  33.408  40.650  1.00  0.00     0.124 S 
ATOM     79  O   UNL A   1      36.398  32.863  39.887  1.00  0.00    -0.237 OA
ATOM     80  O   UNL A   1      38.368  32.435  41.323  1.00  0.00    -0.237 OA
ATOM     81  O   UNL A   1      37.214  34.612  41.422  1.00  0.00    -0.744 OA
ENDBRANCH  74  78
ENDBRANCH  47  71
BRANCH  59  82
ATOM     82  C   UNL A   1      44.105  28.651  35.427  1.00  0.00     0.023 A 
ATOM     83  C   UNL A   1      43.983  27.608  36.362  1.00  0.00     0.031 A 
ATOM     84  C   UNL A   1      45.380  29.199  35.208  1.00  0.00     0.131 A 
ATOM     85  C   UNL A   1      45.104  27.193  37.097  1.00  0.00     0.055 A 
ATOM     86  C   UNL A   1      46.503  28.739  35.896  1.00  0.00     0.041 A 
ATOM     87  F   UNL A   1      45.554  30.196  34.327  1.00  0.00    -0.206 F 
ATOM     88  C   UNL A   1      46.366  27.743  36.859  1.00  0.00     0.022 A 
BRANCH  85  89
ATOM     89  S   UNL A   1      44.866  26.003  38.445  1.00  0.00     0.124 S 
ATOM     90  O   UNL A   1      43.797  26.628  39.216  1.00  0.00    -0.237 OA
ATOM     91  O   UNL A   1      44.505  24.786  37.725  1.00  0.00    -0.237 OA
ATOM     92  O   UNL A   1      46.170  25.970  39.105  1.00  0.00    -0.744 OA
ENDBRANCH  85  89
ENDBRANCH  59  82
ENDBRANCH  33  34
ENDBRANCH  25  28
ENDBRANCH  23  24
ENDBRANCH  22  23
ENDBRANCH   1  22
TORSDOF 19
ENDMDL
MODEL 2
REMARK VINA RESULT:     -10.7      3.776      8.700
REMARK SMILES CCOc1ccccc1[C@@H](O)[C@@H](C)[C@@H](C)C(=O)NCCCNC(=O)c1ccc(-c2c3nc(c(-c4cc(S(=O)(=O)[O-])ccc4F)c4ccc([nH]4)c(-c4cc(S(=O)(=O)[O-])ccc4F)c4nc(c(-c5cc(S(=O)(=O)[O-])ccc5F)c5ccc2[nH]5)C=C4)C=C3)cc1
REMARK SMILES IDX 19 1 18 2 16 3 17 4 14 6 15 7 12 8 13 9 10 10 9 11 4 12 5 13
REMARK SMILES IDX 6 14 8 15 7 16 3 17 2 18 1 19 11 20 20 22 21 23 22 24 23 25
REMARK SMILES IDX 24 27 25 28 26 29 87 30 27 31 86 32 28 33 29 34 30 35 80 36
REMARK SMILES IDX 31 37 85 38 79 39 81 40 32 41 84 42 78 43 77 44 33 46 65 47
REMARK SMILES IDX 45 48 64 49 46 50 49 51 63 52 82 53 47 54 48 55 62 57 83 58
REMARK SMILES IDX 50 59 34 60 35 61 43 62 36 63 42 64 44 65 41 66 37 67 38 68
REMARK SMILES IDX 39 69 40 70 66 71 67 72 75 73 68 74 74 75 76 76 73 77 69 78
REMARK SMILES IDX 70 79 71 80 72 81 51 82 52 83 60 84 53 85 59 86 61 87 58 88
REMARK SMILES IDX 54 89 55 90 56 91 57 92
REMARK H PARENT 18 5 11 21 22 26 81 45 49 56
REMARK Flexibility Score: inf
ROOT
ATOM      1  C   UNL A   1      31.907  28.603  24.316  1.00  0.00     0.117 C 
ENDROOT
BRANCH   1   2
ATOM      2  N   UNL A   1      31.307  27.733  25.314  1.00  0.00    -0.356 N 
ATOM      3  C   UNL A   1      31.149  26.384  25.348  1.00  0.00     0.223 C 
ATOM      4  O   UNL A   1      30.580  25.899  26.331  1.00  0.00    -0.275 OA
ATOM      5  H   UNL A   1      30.951  28.204  26.102  1.00  0.00     0.163 HD
BRANCH   3   6
ATOM      6  C   UNL A   1      31.667  25.474  24.236  1.00  0.00     0.081 C 
ATOM      7  C   UNL A   1      30.663  24.346  23.991  1.00  0.00     0.018 C 
BRANCH   6   8
ATOM      8  C   UNL A   1      33.164  25.093  24.427  1.00  0.00     0.031 C 
ATOM      9  C   UNL A   1      33.860  25.156  23.050  1.00  0.00     0.011 C 
BRANCH   8  10
ATOM     10  C   UNL A   1      33.371  23.753  25.176  1.00  0.00     0.152 C 
BRANCH  10  11
ATOM     11  C   UNL A   1      34.808  23.277  25.186  1.00  0.00     0.023 A 
ATOM     12  C   UNL A   1      35.180  22.068  24.583  1.00  0.00     0.125 A 
ATOM     13  C   UNL A   1      36.516  21.669  24.541  1.00  0.00     0.047 A 
ATOM     14  C   UNL A   1      37.503  22.484  25.097  1.00  0.00     0.004 A 
ATOM     15  C   UNL A   1      35.815  24.076  25.761  1.00  0.00     0.010 A 
ATOM     16  C   UNL A   1      37.153  23.683  25.714  1.00  0.00     0.001 A 
BRANCH  12  17
ATOM     17  O   UNL A   1      34.211  21.210  24.137  1.00  0.00    -0.493 OA
BRANCH  17  18
ATOM     18  C   UNL A   1      34.146  20.003  24.905  1.00  0.00     0.226 C 
ATOM     19  C   UNL A   1      32.700  19.530  24.910  1.00  0.00     0.049 C 
ENDBRANCH  17  18
ENDBRANCH  12  17
ENDBRANCH  10  11
BRANCH  10  20
ATOM     20  O   UNL A   1      32.957  23.919  26.538  1.00  0.00    -0.388 OA
ATOM     21  H   UNL A   1      32.101  23.481  26.672  1.00  0.00     0.211 HD
ENDBRANCH  10  20
ENDBRANCH   8  10
ENDBRANCH   6   8
ENDBRANCH   3   6
ENDBRANCH   1   2
BRANCH   1  22
ATOM     22  C   UNL A   1      33.396  28.836  24.564  1.00  0.00     0.042 C 
BRANCH  22  23
ATOM     23  C   UNL A   1      33.778  28.943  26.034  1.00  0.00     0.118 C 
BRANCH  23  24
ATOM     24  N   UNL A   1      33.689  30.307  26.528  1.00  0.00    -0.352 N 
ATOM     25  C   UNL A   1      34.401  30.946  27.505  1.00  0.00     0.251 C 
ATOM     26  H   UNL A   1      33.005  30.861  26.086  1.00  0.00     0.163 HD
ATOM     27  O   UNL A   1      33.977  32.027  27.932  1.00  0.00    -0.269 OA
BRANCH  25  28
ATOM     28  C   UNL A   1      35.644  30.370  28.061  1.00  0.00     0.039 A 
ATOM     29  C   UNL A   1      36.816  30.450  27.303  1.00  0.00     0.014 A 
ATOM     30  C   UNL A   1      35.660  29.699  29.288  1.00  0.00     0.014 A 
ATOM     31  C   UNL A   1      38.004  29.902  27.791  1.00  0.00     0.010 A 
ATOM     32  C   UNL A   1      36.862  29.222  29.811  1.00  0.00     0.010 A 
ATOM     33  C   UNL A   1      38.045  29.308  29.063  1.00  0.00    -0.014 A 
BRANCH  33  34
ATOM     34  C   UNL A   1      39.316  28.763  29.607  1.00  0.00     0.031 A 
ATOM     35  C   UNL A   1      39.953  29.387  30.821  1.00  0.00     0.074 A 
ATOM     36  C   UNL A   1      39.910  27.722  28.989  1.00  0.00     0.049 A 
ATOM     37  N   UNL A   1      41.073  29.073  31.421  1.00  0.00    -0.248 NA
ATOM     38  C   UNL A   1      39.250  30.530  31.426  1.00  0.00     0.031 C 
ATOM     39  C   UNL A   1      39.409  27.062  27.780  1.00  0.00     0.029 A 
ATOM     40  N   UNL A   1      41.060  27.035  29.287  1.00  0.00    -0.354 N 
ATOM     41  C   UNL A   1      41.209  29.976  32.471  1.00  0.00     0.074 A 
ATOM     42  C   UNL A   1      40.090  30.890  32.385  1.00  0.00     0.031 C 
ATOM     43  C   UNL A   1      40.233  26.052  27.458  1.00  0.00     0.029 A 
ATOM     44  C   UNL A   1      41.339  26.015  28.408  1.00  0.00     0.049 A 
ATOM     45  H   UNL A   1      41.632  27.254  30.058  1.00  0.00     0.167 HD
ATOM     46  C   UNL A   1      42.162  30.022  33.436  1.00  0.00     0.034 A 
ATOM     47  C   UNL A   1      42.372  25.150  28.369  1.00  0.00     0.034 A 
ATOM     48  C   UNL A   1      43.269  29.099  33.516  1.00  0.00     0.049 A 
ATOM     49  C   UNL A   1      43.423  25.229  29.449  1.00  0.00     0.074 A 
ATOM     50  C   UNL A   1      44.278  29.041  34.461  1.00  0.00     0.029 A 
ATOM     51  N   UNL A   1      43.511  28.068  32.617  1.00  0.00    -0.354 N 
ATOM     52  N   UNL A   1      43.511  26.066  30.457  1.00  0.00    -0.248 NA
ATOM     53  C   UNL A   1      44.501  24.235  29.395  1.00  0.00     0.031 C 
ATOM     54  C   UNL A   1      45.157  28.011  34.107  1.00  0.00     0.029 A 
ATOM     55  C   UNL A   1      44.660  27.382  32.975  1.00  0.00     0.049 A 
ATOM     56  H   UNL A   1      42.948  27.856  31.837  1.00  0.00     0.167 HD
ATOM     57  C   UNL A   1      44.641  25.678  31.172  1.00  0.00     0.074 A 
ATOM     58  C   UNL A   1      45.180  24.516  30.496  1.00  0.00     0.031 C 
ATOM     59  C   UNL A   1      45.188  26.231  32.285  1.00  0.00     0.034 A 
BRANCH  46  60
ATOM     60  C   UNL A   1      42.049  31.111  34.474  1.00  0.00     0.023 A 
ATOM     61  C   UNL A   1      42.652  32.368  34.287  1.00  0.00     0.031 A 
ATOM     62  C   UNL A   1      41.335  30.894  35.665  1.00  0.00     0.131 A 
ATOM     63  C   UNL A   1      42.581  33.337  35.299  1.00  0.00     0.055 A 
ATOM     64  C   UNL A   1      41.206  31.889  36.637  1.00  0.00     0.041 A 
ATOM     65  F   UNL A   1      40.754  29.708  35.908  1.00  0.00    -0.206 F 
ATOM     66  C   UNL A   1      41.841  33.115  36.463  1.00  0.00     0.022 A 
BRANCH  63  67
ATOM     67  S   UNL A   1      43.564  34.851  35.122  1.00  0.00     0.124 S 
ATOM     68  O   UNL A   1      42.600  35.753  34.493  1.00  0.00    -0.237 OA
ATOM     69  O   UNL A   1      43.922  35.160  36.502  1.00  0.00    -0.237 OA
ATOM     70  O   UNL A   1      44.673  34.441  34.265  1.00  0.00    -0.744 OA
ENDBRANCH  63  67
ENDBRANCH  46  60
BRANCH  47  71
ATOM     71  C   UNL A   1      42.482  24.141  27.276  1.00  0.00     0.023 A 
ATOM     72  C   UNL A   1      41.876  22.879  27.391  1.00  0.00     0.031 A 
ATOM     73  C   UNL A   1      43.255  24.396  26.130  1.00  0.00     0.131 A 
ATOM     74  C   UNL A   1      42.107  21.899  26.414  1.00  0.00     0.055 A 
ATOM     75  C   UNL A   1      43.433  23.438  25.130  1.00  0.00     0.041 A 
ATOM     76  F   UNL A   1      43.853  25.587  25.965  1.00  0.00    -0.206 F 
ATOM     77  C   UNL A   1      42.872  22.174  25.279  1.00  0.00     0.022 A 
BRANCH  74  78
ATOM     78  S   UNL A   1      41.491  20.218  26.709  1.00  0.00     0.124 S 
ATOM     79  O   UNL A   1      40.116  20.473  27.122  1.00  0.00    -0.237 OA
ATOM     80  O   UNL A   1      41.664  19.601  25.399  1.00  0.00    -0.237 OA
ATOM     81  O   UNL A   1      42.374  19.713  27.758  1.00  0.00    -0.744 OA
ENDBRANCH  74  78
ENDBRANCH  47  71
BRANCH  59  82
ATOM     82  C   UNL A   1      46.412  25.551  32.848  1.00  0.00     0.023 A 
ATOM     83  C   UNL A   1      46.309  24.532  33.810  1.00  0.00     0.031 A 
ATOM     84  C   UNL A   1      47.696  25.956  32.445  1.00  0.00     0.131 A 
ATOM     85  C   UNL A   1      47.470  24.000  34.391  1.00  0.00     0.055 A 
ATOM     86  C   UNL A   1      48.848  25.379  32.981  1.00  0.00     0.041 A 
ATOM     87  F   UNL A   1      47.852  26.925  31.529  1.00  0.00    -0.206 F 
ATOM     88  C   UNL A   1      48.739  24.407  33.972  1.00  0.00     0.022 A 
BRANCH  85  89
ATOM     89  S   UNL A   1      47.296  22.849  35.782  1.00  0.00     0.124 S 
ATOM     90  O   UNL A   1      48.510  22.049  35.668  1.00  0.00    -0.237 OA
ATOM     91  O   UNL A   1      47.232  23.751  36.927  1.00  0.00    -0.237 OA
ATOM     92  O   UNL A   1      46.054  22.137  35.483  1.00  0.00    -0.744 OA
ENDBRANCH  85  89
ENDBRANCH  59  82
ENDBRANCH  33  34
ENDBRANCH  25  28
ENDBRANCH  23  24
ENDBRANCH  22  23
ENDBRANCH   1  22
TORSDOF 19
ENDMDL
MODEL 3
REMARK VINA RESULT:     -10.6      4.264     10.520
REMARK SMILES CCOc1ccccc1[C@@H](O)[C@@H](C)[C@@H](C)C(=O)NCCCNC(=O)c1ccc(-c2c3nc(c(-c4cc(S(=O)(=O)[O-])ccc4F)c4ccc([nH]4)c(-c4cc(S(=O)(=O)[O-])ccc4F)c4nc(c(-c5cc(S(=O)(=O)[O-])ccc5F)c5ccc2[nH]5)C=C4)C=C3)cc1
REMARK SMILES IDX 19 1 18 2 16 3 17 4 14 6 15 7 12 8 13 9 10 10 9 11 4 12 5 13
REMARK SMILES IDX 6 14 8 15 7 16 3 17 2 18 1 19 11 20 20 22 21 23 22 24 23 25
REMARK SMILES IDX 24 27 25 28 26 29 87 30 27 31 86 32 28 33 29 34 30 35 80 36
REMARK SMILES IDX 31 37 85 38 79 39 81 40 32 41 84 42 78 43 77 44 33 46 65 47
REMARK SMILES IDX 45 48 64 49 46 50 49 51 63 52 82 53 47 54 48 55 62 57 83 58
REMARK SMILES IDX 50 59 34 60 35 61 43 62 36 63 42 64 44 65 41 66 37 67 38 68
REMARK SMILES IDX 39 69 40 70 66 71 67 72 75 73 68 74 74 75 76 76 73 77 69 78
REMARK SMILES IDX 70 79 71 80 72 81 51 82 52 83 60 84 53 85 59 86 61 87 58 88
REMARK SMILES IDX 54 89 55 90 56 91 57 92
REMARK H PARENT 18 5 11 21 22 26 81 45 49 56
REMARK Flexibility Score: inf
ROOT
ATOM      1  C   UNL A   1      33.757  34.602  30.075  1.00  0.00     0.117 C 
ENDROOT
BRANCH   1   2
ATOM      2  N   UNL A   1      34.042  35.587  31.105  1.00  0.00    -0.356 N 
ATOM      3  C   UNL A   1      34.539  35.451  32.362  1.00  0.00     0.223 C 
ATOM      4  O   UNL A   1      34.669  36.474  33.040  1.00  0.00    -0.275 OA
ATOM      5  H   UNL A   1      33.836  36.515  30.847  1.00  0.00     0.163 HD
BRANCH   3   6
ATOM      6  C   UNL A   1      34.954  34.096  32.933  1.00  0.00     0.081 C 
ATOM      7  C   UNL A   1      35.129  34.213  34.447  1.00  0.00     0.018 C 
BRANCH   6   8
ATOM      8  C   UNL A   1      36.096  33.428  32.113  1.00  0.00     0.031 C 
ATOM      9  C   UNL A   1      35.827  31.909  32.054  1.00  0.00     0.011 C 
BRANCH   8  10
ATOM     10  C   UNL A   1      37.515  33.797  32.615  1.00  0.00     0.152 C 
BRANCH  10  11
ATOM     11  C   UNL A   1      38.489  34.119  31.502  1.00  0.00     0.023 A 
ATOM     12  C   UNL A   1      39.854  34.306  31.760  1.00  0.00     0.125 A 
ATOM     13  C   UNL A   1      40.755  34.538  30.720  1.00  0.00     0.047 A 
ATOM     14  C   UNL A   1      40.300  34.578  29.401  1.00  0.00     0.004 A 
ATOM     15  C   UNL A   1      38.044  34.184  30.167  1.00  0.00     0.010 A 
ATOM     16  C   UNL A   1      38.944  34.410  29.125  1.00  0.00     0.001 A 
BRANCH  12  17
ATOM     17  O   UNL A   1      40.293  34.382  33.054  1.00  0.00    -0.493 OA
BRANCH  17  18
ATOM     18  C   UNL A   1      41.720  34.443  33.151  1.00  0.00     0.226 C 
ATOM     19  C   UNL A   1      42.082  35.700  33.928  1.00  0.00     0.049 C 
ENDBRANCH  17  18
ENDBRANCH  12  17
ENDBRANCH  10  11
BRANCH  10  20
ATOM     20  O   UNL A   1      37.418  34.953  33.458  1.00  0.00    -0.388 OA
ATOM     21  H   UNL A   1      37.674  34.715  34.364  1.00  0.00     0.211 HD
ENDBRANCH  10  20
ENDBRANCH   8  10
ENDBRANCH   6   8
ENDBRANCH   3   6
ENDBRANCH   1   2
BRANCH   1  22
ATOM     22  C   UNL A   1      34.439  34.930  28.748  1.00  0.00     0.042 C 
BRANCH  22  23
ATOM     23  C   UNL A   1      35.172  33.757  28.112  1.00  0.00     0.118 C 
BRANCH  23  24
ATOM     24  N   UNL A   1      34.268  32.682  27.736  1.00  0.00    -0.352 N 
ATOM     25  C   UNL A   1      34.485  31.336  27.626  1.00  0.00     0.251 C 
ATOM     26  H   UNL A   1      33.350  32.971  27.526  1.00  0.00     0.163 HD
ATOM     27  O   UNL A   1      33.640  30.648  27.041  1.00  0.00    -0.269 OA
BRANCH  25  28
ATOM     28  C   UNL A   1      35.700  30.700  28.178  1.00  0.00     0.039 A 
ATOM     29  C   UNL A   1      36.944  31.066  27.655  1.00  0.00     0.014 A 
ATOM     30  C   UNL A   1      35.629  29.704  29.157  1.00  0.00     0.014 A 
ATOM     31  C   UNL A   1      38.110  30.471  28.142  1.00  0.00     0.010 A 
ATOM     32  C   UNL A   1      36.798  29.168  29.699  1.00  0.00     0.010 A 
ATOM     33  C   UNL A   1      38.050  29.538  29.190  1.00  0.00    -0.014 A 
BRANCH  33  34
ATOM     34  C   UNL A   1      39.292  28.935  29.743  1.00  0.00     0.031 A 
ATOM     35  C   UNL A   1      39.888  29.464  31.021  1.00  0.00     0.074 A 
ATOM     36  C   UNL A   1      39.894  27.930  29.078  1.00  0.00     0.049 A 
ATOM     37  N   UNL A   1      40.979  29.091  31.641  1.00  0.00    -0.248 NA
ATOM     38  C   UNL A   1      39.178  30.574  31.677  1.00  0.00     0.031 C 
ATOM     39  C   UNL A   1      39.433  27.363  27.807  1.00  0.00     0.029 A 
ATOM     40  N   UNL A   1      41.022  27.205  29.372  1.00  0.00    -0.354 N 
ATOM     41  C   UNL A   1      41.086  29.916  32.755  1.00  0.00     0.074 A 
ATOM     42  C   UNL A   1      39.984  30.853  32.690  1.00  0.00     0.031 C 
ATOM     43  C   UNL A   1      40.255  26.364  27.448  1.00  0.00     0.029 A 
ATOM     44  C   UNL A   1      41.322  26.243  28.435  1.00  0.00     0.049 A 
ATOM     45  H   UNL A   1      41.566  27.360  30.177  1.00  0.00     0.167 HD
ATOM     46  C   UNL A   1      42.001  29.880  33.757  1.00  0.00     0.034 A 
ATOM     47  C   UNL A   1      42.343  25.366  28.376  1.00  0.00     0.034 A 
ATOM     48  C   UNL A   1      43.090  28.935  33.815  1.00  0.00     0.049 A 
ATOM     49  C   UNL A   1      43.352  25.353  29.498  1.00  0.00     0.074 A 
ATOM     50  C   UNL A   1      44.060  28.796  34.793  1.00  0.00     0.029 A 
ATOM     51  N   UNL A   1      43.354  27.966  32.857  1.00  0.00    -0.354 N 
ATOM     52  N   UNL A   1      43.412  26.116  30.565  1.00  0.00    -0.248 NA
ATOM     53  C   UNL A   1      44.417  24.347  29.418  1.00  0.00     0.031 C 
ATOM     54  C   UNL A   1      44.938  27.779  34.401  1.00  0.00     0.029 A 
ATOM     55  C   UNL A   1      44.478  27.237  33.211  1.00  0.00     0.049 A 
ATOM     56  H   UNL A   1      42.819  27.817  32.043  1.00  0.00     0.167 HD
ATOM     57  C   UNL A   1      44.506  25.662  31.294  1.00  0.00     0.074 A 
ATOM     58  C   UNL A   1      45.056  24.541  30.561  1.00  0.00     0.031 C 
ATOM     59  C   UNL A   1      45.017  26.128  32.463  1.00  0.00     0.034 A 
BRANCH  46  60
ATOM     60  C   UNL A   1      41.862  30.897  34.863  1.00  0.00     0.023 A 
ATOM     61  C   UNL A   1      40.687  30.992  35.630  1.00  0.00     0.031 A 
ATOM     62  C   UNL A   1      42.912  31.785  35.155  1.00  0.00     0.131 A 
ATOM     63  C   UNL A   1      40.567  31.990  36.608  1.00  0.00     0.055 A 
ATOM     64  C   UNL A   1      42.814  32.728  36.180  1.00  0.00     0.041 A 
ATOM     65  F   UNL A   1      44.052  31.755  34.445  1.00  0.00    -0.206 F 
ATOM     66  C   UNL A   1      41.631  32.843  36.906  1.00  0.00     0.022 A 
BRANCH  63  67
ATOM     67  S   UNL A   1      38.958  32.229  37.411  1.00  0.00     0.124 S 
ATOM     68  O   UNL A   1      38.483  33.447  36.758  1.00  0.00    -0.237 OA
ATOM     69  O   UNL A   1      38.248  31.002  37.069  1.00  0.00    -0.237 OA
ATOM     70  O   UNL A   1      39.299  32.379  38.823  1.00  0.00    -0.744 OA
ENDBRANCH  63  67
ENDBRANCH  46  60
BRANCH  47  71
ATOM     71  C   UNL A   1      42.482  24.432  27.221  1.00  0.00     0.023 A 
ATOM     72  C   UNL A   1      41.907  23.152  27.250  1.00  0.00     0.031 A 
ATOM     73  C   UNL A   1      43.253  24.781  26.098  1.00  0.00     0.131 A 
ATOM     74  C   UNL A   1      42.166  22.243  26.213  1.00  0.00     0.055 A 
ATOM     75  C   UNL A   1      43.459  23.894  25.039  1.00  0.00     0.041 A 
ATOM     76  F   UNL A   1      43.822  25.994  26.013  1.00  0.00    -0.206 F 
ATOM     77  C   UNL A   1      42.928  22.609  25.103  1.00  0.00     0.022 A 
BRANCH  74  78
ATOM     78  S   UNL A   1      41.590  20.532  26.396  1.00  0.00     0.124 S 
ATOM     79  O   UNL A   1      42.373  19.844  25.377  1.00  0.00    -0.237 OA
ATOM     80  O   UNL A   1      41.944  20.243  27.782  1.00  0.00    -0.237 OA
ATOM     81  O   UNL A   1      40.157  20.626  26.125  1.00  0.00    -0.744 OA
ENDBRANCH  74  78
ENDBRANCH  47  71
BRANCH  59  82
ATOM     82  C   UNL A   1      46.207  25.390  33.024  1.00  0.00     0.023 A 
ATOM     83  C   UNL A   1      46.052  24.281  33.873  1.00  0.00     0.031 A 
ATOM     84  C   UNL A   1      47.511  25.828  32.736  1.00  0.00     0.131 A 
ATOM     85  C   UNL A   1      47.179  23.690  34.464  1.00  0.00     0.055 A 
ATOM     86  C   UNL A   1      48.632  25.196  33.277  1.00  0.00     0.041 A 
ATOM     87  F   UNL A   1      47.718  26.881  31.931  1.00  0.00    -0.206 F 
ATOM     88  C   UNL A   1      48.469  24.131  34.159  1.00  0.00     0.022 A 
BRANCH  85  89
ATOM     89  S   UNL A   1      46.928  22.408  35.722  1.00  0.00     0.124 S 
ATOM     90  O   UNL A   1      48.252  22.312  36.326  1.00  0.00    -0.237 OA
ATOM     91  O   UNL A   1      45.886  22.993  36.560  1.00  0.00    -0.237 OA
ATOM     92  O   UNL A   1      46.514  21.241  34.943  1.00  0.00    -0.744 OA
ENDBRANCH  85  89
ENDBRANCH  59  82
ENDBRANCH  33  34
ENDBRANCH  25  28
ENDBRANCH  23  24
ENDBRANCH  22  23
ENDBRANCH   1  22
TORSDOF 19
ENDMDL
