MODEL 1
REMARK VINA RESULT:     -11.2      0.000      0.000
REMARK SMILES CS(=O)(=O)CCSCc1cc(F)cc(/C=C/C(=O)NCCCNC(=O)c2ccc(-c3c4nc(c(-c5cc(S(=O)(=O)[O-])ccc5F)c5ccc([nH]5)c(-c5cc(S(=O)(=O)[O-])ccc5F)c5nc(c(-c6cc(S(=O)(=O)[O-])ccc6F)c6ccc3[nH]6)C=C5)C=C4)cc2)c1
REMARK SMILES IDX 17 1 18 2 19 3 16 5 15 6 14 7 9 8 10 9 89 10 11 11 12 12
REMARK SMILES IDX 13 13 8 14 7 15 6 16 5 17 2 18 1 19 3 20 4 21 20 22 21 23
REMARK SMILES IDX 22 24 23 25 24 26 25 28 26 29 27 30 88 31 28 32 87 33 29 34
REMARK SMILES IDX 30 35 31 36 81 37 32 38 86 39 80 40 82 41 33 42 85 43 79 44
REMARK SMILES IDX 78 45 34 47 66 48 46 49 65 50 47 51 50 52 64 53 83 54 48 55
REMARK SMILES IDX 49 56 63 58 84 59 51 60 35 61 36 62 44 63 37 64 43 65 45 66
REMARK SMILES IDX 42 67 38 68 39 69 40 70 41 71 67 72 68 73 76 74 69 75 75 76
REMARK SMILES IDX 77 77 74 78 70 79 71 80 72 81 73 82 52 83 53 84 61 85 54 86
REMARK SMILES IDX 60 87 62 88 59 89 55 90 56 91 57 92 58 93
REMARK H PARENT 19 4 23 27 82 46 50 57
REMARK Flexibility Score: inf
ROOT
ATOM      1  C   UNL A   1      34.149  20.506  24.823  1.00  0.00     0.244 C 
ATOM      2  O   UNL A   1      33.231  19.697  24.951  1.00  0.00    -0.270 OA
ATOM      3  N   UNL A   1      35.419  20.091  25.051  1.00  0.00    -0.352 N 
ATOM      4  H   UNL A   1      35.484  19.165  25.377  1.00  0.00     0.163 HD
ENDROOT
BRANCH   1   5
ATOM      5  C   UNL A   1      33.824  21.871  24.343  1.00  0.00     0.072 C 
ATOM      6  C   UNL A   1      33.422  22.223  23.114  1.00  0.00     0.014 C 
BRANCH   6   7
ATOM      7  C   UNL A   1      33.173  23.605  22.663  1.00  0.00    -0.022 A 
ATOM      8  C   UNL A   1      32.590  25.920  23.291  1.00  0.00    -0.035 A 
ATOM      9  C   UNL A   1      32.461  26.233  21.938  1.00  0.00     0.043 A 
ATOM     10  C   UNL A   1      32.920  24.589  23.634  1.00  0.00     0.013 A 
ATOM     11  C   UNL A   1      32.752  25.275  20.972  1.00  0.00     0.124 A 
ATOM     12  F   UNL A   1      32.682  25.611  19.677  1.00  0.00    -0.207 F 
ATOM     13  C   UNL A   1      33.105  23.974  21.318  1.00  0.00     0.047 A 
BRANCH   8  14
ATOM     14  C   UNL A   1      32.348  26.889  24.422  1.00  0.00     0.105 C 
BRANCH  14  15
ATOM     15  S   UNL A   1      31.723  28.560  24.066  1.00  0.00    -0.156 SA
BRANCH  15  16
ATOM     16  C   UNL A   1      29.958  28.279  23.674  1.00  0.00     0.086 C 
BRANCH  16  17
ATOM     17  C   UNL A   1      29.416  29.033  22.473  1.00  0.00     0.147 C 
BRANCH  17  18
ATOM     18  S   UNL A   1      28.348  30.401  22.873  1.00  0.00     0.148 S 
ATOM     19  C   UNL A   1      28.189  31.298  21.345  1.00  0.00     0.158 C 
ATOM     20  O   UNL A   1      29.071  31.260  23.797  1.00  0.00    -0.229 OA
ATOM     21  O   UNL A   1      27.043  29.890  23.232  1.00  0.00    -0.229 OA
ENDBRANCH  17  18
ENDBRANCH  16  17
ENDBRANCH  15  16
ENDBRANCH  14  15
ENDBRANCH   8  14
ENDBRANCH   6   7
ENDBRANCH   1   5
BRANCH   3  22
ATOM     22  C   UNL A   1      36.702  20.755  24.904  1.00  0.00     0.118 C 
BRANCH  22  23
ATOM     23  C   UNL A   1      37.857  19.770  25.069  1.00  0.00     0.042 C 
BRANCH  23  24
ATOM     24  C   UNL A   1      39.091  20.386  25.729  1.00  0.00     0.118 C 
BRANCH  24  25
ATOM     25  N   UNL A   1      40.129  19.393  25.985  1.00  0.00    -0.352 N 
ATOM     26  C   UNL A   1      41.483  19.559  26.148  1.00  0.00     0.251 C 
ATOM     27  H   UNL A   1      39.811  18.463  26.051  1.00  0.00     0.163 HD
ATOM     28  O   UNL A   1      42.221  18.579  26.110  1.00  0.00    -0.269 OA
BRANCH  26  29
ATOM     29  C   UNL A   1      42.043  20.911  26.355  1.00  0.00     0.039 A 
ATOM     30  C   UNL A   1      42.368  21.693  25.244  1.00  0.00     0.014 A 
ATOM     31  C   UNL A   1      42.259  21.400  27.646  1.00  0.00     0.014 A 
ATOM     32  C   UNL A   1      42.837  22.996  25.428  1.00  0.00     0.010 A 
ATOM     33  C   UNL A   1      42.658  22.721  27.827  1.00  0.00     0.010 A 
ATOM     34  C   UNL A   1      42.944  23.534  26.721  1.00  0.00    -0.014 A 
BRANCH  34  35
ATOM     35  C   UNL A   1      43.337  24.949  26.948  1.00  0.00     0.031 A 
ATOM     36  C   UNL A   1      44.753  25.387  26.688  1.00  0.00     0.074 A 
ATOM     37  C   UNL A   1      42.442  25.813  27.463  1.00  0.00     0.049 A 
ATOM     38  N   UNL A   1      45.325  26.529  26.961  1.00  0.00    -0.248 NA
ATOM     39  C   UNL A   1      45.648  24.399  26.064  1.00  0.00     0.031 C 
ATOM     40  C   UNL A   1      41.044  25.500  27.773  1.00  0.00     0.029 A 
ATOM     41  N   UNL A   1      42.572  27.130  27.828  1.00  0.00    -0.354 N 
ATOM     42  C   UNL A   1      46.648  26.397  26.555  1.00  0.00     0.074 A 
ATOM     43  C   UNL A   1      46.805  25.045  26.063  1.00  0.00     0.031 C 
ATOM     44  C   UNL A   1      40.442  26.599  28.253  1.00  0.00     0.029 A 
ATOM     45  C   UNL A   1      41.420  27.679  28.342  1.00  0.00     0.049 A 
ATOM     46  H   UNL A   1      43.412  27.635  27.729  1.00  0.00     0.167 HD
ATOM     47  C   UNL A   1      47.635  27.325  26.575  1.00  0.00     0.034 A 
ATOM     48  C   UNL A   1      41.181  28.905  28.848  1.00  0.00     0.034 A 
ATOM     49  C   UNL A   1      47.459  28.674  27.052  1.00  0.00     0.049 A 
ATOM     50  C   UNL A   1      42.304  29.905  28.896  1.00  0.00     0.074 A 
ATOM     51  C   UNL A   1      48.385  29.701  27.079  1.00  0.00     0.029 A 
ATOM     52  N   UNL A   1      46.283  29.184  27.583  1.00  0.00    -0.354 N 
ATOM     53  N   UNL A   1      43.551  29.762  28.515  1.00  0.00    -0.248 NA
ATOM     54  C   UNL A   1      41.989  31.231  29.445  1.00  0.00     0.031 C 
ATOM     55  C   UNL A   1      47.790  30.812  27.683  1.00  0.00     0.029 A 
ATOM     56  C   UNL A   1      46.468  30.504  27.964  1.00  0.00     0.049 A 
ATOM     57  H   UNL A   1      45.440  28.683  27.675  1.00  0.00     0.167 HD
ATOM     58  C   UNL A   1      44.165  30.987  28.754  1.00  0.00     0.074 A 
ATOM     59  C   UNL A   1      43.149  31.859  29.309  1.00  0.00     0.031 C 
ATOM     60  C   UNL A   1      45.450  31.358  28.530  1.00  0.00     0.034 A 
BRANCH  47  61
ATOM     61  C   UNL A   1      48.997  26.912  26.082  1.00  0.00     0.023 A 
ATOM     62  C   UNL A   1      49.518  27.396  24.870  1.00  0.00     0.031 A 
ATOM     63  C   UNL A   1      49.798  26.047  26.848  1.00  0.00     0.131 A 
ATOM     64  C   UNL A   1      50.787  26.981  24.440  1.00  0.00     0.055 A 
ATOM     65  C   UNL A   1      51.086  25.688  26.445  1.00  0.00     0.041 A 
ATOM     66  F   UNL A   1      49.343  25.540  28.005  1.00  0.00    -0.206 F 
ATOM     67  C   UNL A   1      51.585  26.151  25.231  1.00  0.00     0.022 A 
BRANCH  64  68
ATOM     68  S   UNL A   1      51.354  27.481  22.791  1.00  0.00     0.124 S 
ATOM     69  O   UNL A   1      51.089  28.917  22.814  1.00  0.00    -0.237 OA
ATOM     70  O   UNL A   1      52.758  27.090  22.807  1.00  0.00    -0.237 OA
ATOM     71  O   UNL A   1      50.503  26.710  21.888  1.00  0.00    -0.744 OA
ENDBRANCH  64  68
ENDBRANCH  47  61
BRANCH  48  72
ATOM     72  C   UNL A   1      39.824  29.248  29.357  1.00  0.00     0.023 A 
ATOM     73  C   UNL A   1      39.566  29.307  30.734  1.00  0.00     0.031 A 
ATOM     74  C   UNL A   1      38.769  29.532  28.471  1.00  0.00     0.131 A 
ATOM     75  C   UNL A   1      38.276  29.624  31.189  1.00  0.00     0.055 A 
ATOM     76  C   UNL A   1      37.499  29.884  28.929  1.00  0.00     0.041 A 
ATOM     77  F   UNL A   1      38.969  29.500  27.144  1.00  0.00    -0.206 F 
ATOM     78  C   UNL A   1      37.245  29.926  30.297  1.00  0.00     0.022 A 
BRANCH  75  79
ATOM     79  S   UNL A   1      37.957  29.615  32.975  1.00  0.00     0.124 S 
ATOM     80  O   UNL A   1      37.357  28.298  33.162  1.00  0.00    -0.237 OA
ATOM     81  O   UNL A   1      39.295  29.797  33.525  1.00  0.00    -0.237 OA
ATOM     82  O   UNL A   1      37.052  30.747  33.163  1.00  0.00    -0.744 OA
ENDBRANCH  75  79
ENDBRANCH  48  72
BRANCH  60  83
ATOM     83  C   UNL A   1      45.828  32.781  28.850  1.00  0.00     0.023 A 
ATOM     84  C   UNL A   1      45.718  33.805  27.895  1.00  0.00     0.031 A 
ATOM     85  C   UNL A   1      46.271  33.119  30.141  1.00  0.00     0.131 A 
ATOM     86  C   UNL A   1      46.083  35.116  28.236  1.00  0.00     0.055 A 
ATOM     87  C   UNL A   1      46.580  34.434  30.489  1.00  0.00     0.041 A 
ATOM     88  F   UNL A   1      46.394  32.178  31.090  1.00  0.00    -0.206 F 
ATOM     89  C   UNL A   1      46.495  35.440  29.531  1.00  0.00     0.022 A 
BRANCH  86  90
ATOM     90  S   UNL A   1      46.065  36.388  26.944  1.00  0.00     0.124 S 
ATOM     91  O   UNL A   1      47.084  37.316  27.420  1.00  0.00    -0.237 OA
ATOM     92  O   UNL A   1      46.406  35.626  25.746  1.00  0.00    -0.237 OA
ATOM     93  O   UNL A   1      44.695  36.897  26.983  1.00  0.00    -0.744 OA
ENDBRANCH  86  90
ENDBRANCH  60  83
ENDBRANCH  34  35
ENDBRANCH  26  29
ENDBRANCH  24  25
ENDBRANCH  23  24
ENDBRANCH  22  23
ENDBRANCH   3  22
TORSDOF 19
ENDMDL
MODEL 2
REMARK VINA RESULT:     -11.2      1.664      7.979
REMARK SMILES CS(=O)(=O)CCSCc1cc(F)cc(/C=C/C(=O)NCCCNC(=O)c2ccc(-c3c4nc(c(-c5cc(S(=O)(=O)[O-])ccc5F)c5ccc([nH]5)c(-c5cc(S(=O)(=O)[O-])ccc5F)c5nc(c(-c6cc(S(=O)(=O)[O-])ccc6F)c6ccc3[nH]6)C=C5)C=C4)cc2)c1
REMARK SMILES IDX 17 1 18 2 19 3 16 5 15 6 14 7 9 8 10 9 89 10 11 11 12 12
REMARK SMILES IDX 13 13 8 14 7 15 6 16 5 17 2 18 1 19 3 20 4 21 20 22 21 23
REMARK SMILES IDX 22 24 23 25 24 26 25 28 26 29 27 30 88 31 28 32 87 33 29 34
REMARK SMILES IDX 30 35 31 36 81 37 32 38 86 39 80 40 82 41 33 42 85 43 79 44
REMARK SMILES IDX 78 45 34 47 66 48 46 49 65 50 47 51 50 52 64 53 83 54 48 55
REMARK SMILES IDX 49 56 63 58 84 59 51 60 35 61 36 62 44 63 37 64 43 65 45 66
REMARK SMILES IDX 42 67 38 68 39 69 40 70 41 71 67 72 68 73 76 74 69 75 75 76
REMARK SMILES IDX 77 77 74 78 70 79 71 80 72 81 73 82 52 83 53 84 61 85 54 86
REMARK SMILES IDX 60 87 62 88 59 89 55 90 56 91 57 92 58 93
REMARK H PARENT 19 4 23 27 82 46 50 57
REMARK Flexibility Score: inf
ROOT
ATOM      1  C   UNL A   1      37.470  23.574  25.605  1.00  0.00     0.244 C 
ATOM      2  O   UNL A   1      38.149  24.358  26.267  1.00  0.00    -0.270 OA
ATOM      3  N   UNL A   1      37.999  22.369  25.279  1.00  0.00    -0.352 N 
ATOM      4  H   UNL A   1      38.937  22.257  25.553  1.00  0.00     0.163 HD
ENDROOT
BRANCH   1   5
ATOM      5  C   UNL A   1      36.076  23.955  25.273  1.00  0.00     0.072 C 
ATOM      6  C   UNL A   1      35.077  24.202  26.132  1.00  0.00     0.014 C 
BRANCH   6   7
ATOM      7  C   UNL A   1      33.687  24.514  25.753  1.00  0.00    -0.022 A 
ATOM      8  C   UNL A   1      31.784  26.076  25.940  1.00  0.00    -0.035 A 
ATOM      9  C   UNL A   1      30.977  25.138  25.295  1.00  0.00     0.043 A 
ATOM     10  C   UNL A   1      33.133  25.731  26.185  1.00  0.00     0.013 A 
ATOM     11  C   UNL A   1      31.530  23.950  24.827  1.00  0.00     0.124 A 
ATOM     12  F   UNL A   1      30.753  23.088  24.157  1.00  0.00    -0.207 F 
ATOM     13  C   UNL A   1      32.866  23.631  25.047  1.00  0.00     0.047 A 
BRANCH   8  14
ATOM     14  C   UNL A   1      31.306  27.415  26.446  1.00  0.00     0.105 C 
BRANCH  14  15
ATOM     15  S   UNL A   1      32.426  28.848  26.412  1.00  0.00    -0.156 SA
BRANCH  15  16
ATOM     16  C   UNL A   1      32.001  29.684  24.841  1.00  0.00     0.086 C 
BRANCH  16  17
ATOM     17  C   UNL A   1      30.588  29.464  24.332  1.00  0.00     0.147 C 
BRANCH  17  18
ATOM     18  S   UNL A   1      30.475  28.475  22.856  1.00  0.00     0.148 S 
ATOM     19  C   UNL A   1      32.089  27.745  22.689  1.00  0.00     0.158 C 
ATOM     20  O   UNL A   1      30.302  29.384  21.735  1.00  0.00    -0.229 OA
ATOM     21  O   UNL A   1      29.521  27.409  23.076  1.00  0.00    -0.229 OA
ENDBRANCH  17  18
ENDBRANCH  16  17
ENDBRANCH  15  16
ENDBRANCH  14  15
ENDBRANCH   8  14
ENDBRANCH   6   7
ENDBRANCH   1   5
BRANCH   3  22
ATOM     22  C   UNL A   1      37.441  21.211  24.603  1.00  0.00     0.118 C 
BRANCH  22  23
ATOM     23  C   UNL A   1      38.175  19.931  25.000  1.00  0.00     0.042 C 
BRANCH  23  24
ATOM     24  C   UNL A   1      39.252  20.154  26.062  1.00  0.00     0.118 C 
BRANCH  24  25
ATOM     25  N   UNL A   1      40.271  19.111  26.036  1.00  0.00    -0.352 N 
ATOM     26  C   UNL A   1      41.640  19.219  26.025  1.00  0.00     0.251 C 
ATOM     27  H   UNL A   1      39.925  18.189  26.023  1.00  0.00     0.163 HD
ATOM     28  O   UNL A   1      42.323  18.236  25.755  1.00  0.00    -0.269 OA
BRANCH  26  29
ATOM     29  C   UNL A   1      42.282  20.517  26.326  1.00  0.00     0.039 A 
ATOM     30  C   UNL A   1      42.670  21.347  25.272  1.00  0.00     0.014 A 
ATOM     31  C   UNL A   1      42.510  20.906  27.649  1.00  0.00     0.014 A 
ATOM     32  C   UNL A   1      43.219  22.603  25.547  1.00  0.00     0.010 A 
ATOM     33  C   UNL A   1      42.989  22.183  27.921  1.00  0.00     0.010 A 
ATOM     34  C   UNL A   1      43.342  23.048  26.873  1.00  0.00    -0.014 A 
BRANCH  34  35
ATOM     35  C   UNL A   1      43.820  24.416  27.197  1.00  0.00     0.031 A 
ATOM     36  C   UNL A   1      42.857  25.443  27.727  1.00  0.00     0.074 A 
ATOM     37  C   UNL A   1      45.098  24.753  26.937  1.00  0.00     0.049 A 
ATOM     38  N   UNL A   1      43.043  26.721  27.928  1.00  0.00    -0.248 NA
ATOM     39  C   UNL A   1      41.498  24.976  28.044  1.00  0.00     0.031 C 
ATOM     40  C   UNL A   1      46.121  23.848  26.407  1.00  0.00     0.029 A 
ATOM     41  N   UNL A   1      45.757  25.950  27.073  1.00  0.00    -0.354 N 
ATOM     42  C   UNL A   1      41.826  27.214  28.384  1.00  0.00     0.074 A 
ATOM     43  C   UNL A   1      40.895  26.107  28.381  1.00  0.00     0.031 C 
ATOM     44  C   UNL A   1      47.280  24.513  26.289  1.00  0.00     0.029 A 
ATOM     45  C   UNL A   1      47.074  25.904  26.680  1.00  0.00     0.049 A 
ATOM     46  H   UNL A   1      45.327  26.763  27.422  1.00  0.00     0.167 HD
ATOM     47  C   UNL A   1      41.521  28.472  28.786  1.00  0.00     0.034 A 
ATOM     48  C   UNL A   1      48.006  26.875  26.617  1.00  0.00     0.034 A 
ATOM     49  C   UNL A   1      42.464  29.561  28.800  1.00  0.00     0.049 A 
ATOM     50  C   UNL A   1      47.632  28.273  27.031  1.00  0.00     0.074 A 
ATOM     51  C   UNL A   1      42.265  30.863  29.224  1.00  0.00     0.029 A 
ATOM     52  N   UNL A   1      43.782  29.479  28.375  1.00  0.00    -0.354 N 
ATOM     53  N   UNL A   1      46.474  28.724  27.453  1.00  0.00    -0.248 NA
ATOM     54  C   UNL A   1      48.686  29.292  26.957  1.00  0.00     0.031 C 
ATOM     55  C   UNL A   1      43.440  31.583  28.996  1.00  0.00     0.029 A 
ATOM     56  C   UNL A   1      44.400  30.713  28.502  1.00  0.00     0.049 A 
ATOM     57  H   UNL A   1      44.216  28.664  28.033  1.00  0.00     0.167 HD
ATOM     58  C   UNL A   1      46.668  30.075  27.720  1.00  0.00     0.074 A 
ATOM     59  C   UNL A   1      48.055  30.365  27.415  1.00  0.00     0.031 C 
ATOM     60  C   UNL A   1      45.780  30.992  28.180  1.00  0.00     0.034 A 
BRANCH  47  61
ATOM     61  C   UNL A   1      40.106  28.743  29.228  1.00  0.00     0.023 A 
ATOM     62  C   UNL A   1      39.751  28.759  30.587  1.00  0.00     0.031 A 
ATOM     63  C   UNL A   1      39.106  29.020  28.279  1.00  0.00     0.131 A 
ATOM     64  C   UNL A   1      38.422  29.008  30.959  1.00  0.00     0.055 A 
ATOM     65  C   UNL A   1      37.799  29.330  28.659  1.00  0.00     0.041 A 
ATOM     66  F   UNL A   1      39.386  29.000  26.966  1.00  0.00    -0.206 F 
ATOM     67  C   UNL A   1      37.449  29.318  30.006  1.00  0.00     0.022 A 
BRANCH  64  68
ATOM     68  S   UNL A   1      37.962  28.845  32.706  1.00  0.00     0.124 S 
ATOM     69  O   UNL A   1      37.861  27.395  32.848  1.00  0.00    -0.237 OA
ATOM     70  O   UNL A   1      39.085  29.476  33.389  1.00  0.00    -0.237 OA
ATOM     71  O   UNL A   1      36.694  29.564  32.795  1.00  0.00    -0.744 OA
ENDBRANCH  64  68
ENDBRANCH  47  61
BRANCH  48  72
ATOM     72  C   UNL A   1      49.380  26.558  26.137  1.00  0.00     0.023 A 
ATOM     73  C   UNL A   1      49.867  27.104  24.940  1.00  0.00     0.031 A 
ATOM     74  C   UNL A   1      50.229  25.714  26.875  1.00  0.00     0.131 A 
ATOM     75  C   UNL A   1      51.162  26.783  24.502  1.00  0.00     0.055 A 
ATOM     76  C   UNL A   1      51.529  25.429  26.456  1.00  0.00     0.041 A 
ATOM     77  F   UNL A   1      49.813  25.177  28.033  1.00  0.00    -0.206 F 
ATOM     78  C   UNL A   1      52.000  25.961  25.259  1.00  0.00     0.022 A 
BRANCH  75  79
ATOM     79  S   UNL A   1      51.731  27.441  22.912  1.00  0.00     0.124 S 
ATOM     80  O   UNL A   1      53.132  27.733  23.195  1.00  0.00    -0.237 OA
ATOM     81  O   UNL A   1      51.476  26.323  22.009  1.00  0.00    -0.237 OA
ATOM     82  O   UNL A   1      50.878  28.610  22.703  1.00  0.00    -0.744 OA
ENDBRANCH  75  79
ENDBRANCH  48  72
BRANCH  60  83
ATOM     83  C   UNL A   1      46.287  32.390  28.419  1.00  0.00     0.023 A 
ATOM     84  C   UNL A   1      46.270  33.363  27.406  1.00  0.00     0.031 A 
ATOM     85  C   UNL A   1      46.763  32.760  29.689  1.00  0.00     0.131 A 
ATOM     86  C   UNL A   1      46.754  34.652  27.671  1.00  0.00     0.055 A 
ATOM     87  C   UNL A   1      47.192  34.059  29.962  1.00  0.00     0.041 A 
ATOM     88  F   UNL A   1      46.801  31.868  30.692  1.00  0.00    -0.206 F 
ATOM     89  C   UNL A   1      47.197  35.012  28.947  1.00  0.00     0.022 A 
BRANCH  86  90
ATOM     90  S   UNL A   1      46.849  35.844  26.309  1.00  0.00     0.124 S 
ATOM     91  O   UNL A   1      46.636  34.990  25.145  1.00  0.00    -0.237 OA
ATOM     92  O   UNL A   1      45.767  36.772  26.625  1.00  0.00    -0.237 OA
ATOM     93  O   UNL A   1      48.195  36.400  26.431  1.00  0.00    -0.744 OA
ENDBRANCH  86  90
ENDBRANCH  60  83
ENDBRANCH  34  35
ENDBRANCH  26  29
ENDBRANCH  24  25
ENDBRANCH  23  24
ENDBRANCH  22  23
ENDBRANCH   3  22
TORSDOF 19
ENDMDL
MODEL 3
REMARK VINA RESULT:     -11.2      1.467      7.908
REMARK SMILES CS(=O)(=O)CCSCc1cc(F)cc(/C=C/C(=O)NCCCNC(=O)c2ccc(-c3c4nc(c(-c5cc(S(=O)(=O)[O-])ccc5F)c5ccc([nH]5)c(-c5cc(S(=O)(=O)[O-])ccc5F)c5nc(c(-c6cc(S(=O)(=O)[O-])ccc6F)c6ccc3[nH]6)C=C5)C=C4)cc2)c1
REMARK SMILES IDX 17 1 18 2 19 3 16 5 15 6 14 7 9 8 10 9 89 10 11 11 12 12
REMARK SMILES IDX 13 13 8 14 7 15 6 16 5 17 2 18 1 19 3 20 4 21 20 22 21 23
REMARK SMILES IDX 22 24 23 25 24 26 25 28 26 29 27 30 88 31 28 32 87 33 29 34
REMARK SMILES IDX 30 35 31 36 81 37 32 38 86 39 80 40 82 41 33 42 85 43 79 44
REMARK SMILES IDX 78 45 34 47 66 48 46 49 65 50 47 51 50 52 64 53 83 54 48 55
REMARK SMILES IDX 49 56 63 58 84 59 51 60 35 61 36 62 44 63 37 64 43 65 45 66
REMARK SMILES IDX 42 67 38 68 39 69 40 70 41 71 67 72 68 73 76 74 69 75 75 76
REMARK SMILES IDX 77 77 74 78 70 79 71 80 72 81 73 82 52 83 53 84 61 85 54 86
REMARK SMILES IDX 60 87 62 88 59 89 55 90 56 91 57 92 58 93
REMARK H PARENT 19 4 23 27 82 46 50 57
REMARK Flexibility Score: inf
ROOT
ATOM      1  C   UNL A   1      34.466  21.473  26.191  1.00  0.00     0.244 C 
ATOM      2  O   UNL A   1      33.741  21.000  27.065  1.00  0.00    -0.270 OA
ATOM      3  N   UNL A   1      35.654  20.873  25.935  1.00  0.00    -0.352 N 
ATOM      4  H   UNL A   1      35.865  20.128  26.544  1.00  0.00     0.163 HD
ENDROOT
BRANCH   1   5
ATOM      5  C   UNL A   1      33.962  22.624  25.404  1.00  0.00     0.072 C 
ATOM      6  C   UNL A   1      33.660  22.643  24.098  1.00  0.00     0.014 C 
BRANCH   6   7
ATOM      7  C   UNL A   1      33.224  23.833  23.343  1.00  0.00    -0.022 A 
ATOM      8  C   UNL A   1      32.148  26.054  23.408  1.00  0.00    -0.035 A 
ATOM      9  C   UNL A   1      32.144  26.069  22.013  1.00  0.00     0.043 A 
ATOM     10  C   UNL A   1      32.669  24.910  24.055  1.00  0.00     0.013 A 
ATOM     11  C   UNL A   1      32.731  25.026  21.304  1.00  0.00     0.124 A 
ATOM     12  F   UNL A   1      32.771  25.087  19.966  1.00  0.00    -0.207 F 
ATOM     13  C   UNL A   1      33.267  23.916  21.950  1.00  0.00     0.047 A 
BRANCH   8  14
ATOM     14  C   UNL A   1      31.587  27.150  24.280  1.00  0.00     0.105 C 
BRANCH  14  15
ATOM     15  S   UNL A   1      31.902  28.892  23.861  1.00  0.00    -0.156 SA
BRANCH  15  16
ATOM     16  C   UNL A   1      30.462  29.350  22.830  1.00  0.00     0.086 C 
BRANCH  16  17
ATOM     17  C   UNL A   1      29.572  30.449  23.381  1.00  0.00     0.147 C 
BRANCH  17  18
ATOM     18  S   UNL A   1      28.103  30.764  22.426  1.00  0.00     0.148 S 
ATOM     19  C   UNL A   1      28.262  32.463  21.921  1.00  0.00     0.158 C 
ATOM     20  O   UNL A   1      26.971  30.696  23.335  1.00  0.00    -0.229 OA
ATOM     21  O   UNL A   1      28.127  29.938  21.238  1.00  0.00    -0.229 OA
ENDBRANCH  17  18
ENDBRANCH  16  17
ENDBRANCH  15  16
ENDBRANCH  14  15
ENDBRANCH   8  14
ENDBRANCH   6   7
ENDBRANCH   1   5
BRANCH   3  22
ATOM     22  C   UNL A   1      36.675  21.121  24.933  1.00  0.00     0.118 C 
BRANCH  22  23
ATOM     23  C   UNL A   1      37.765  20.052  24.977  1.00  0.00     0.042 C 
BRANCH  23  24
ATOM     24  C   UNL A   1      39.020  20.495  25.730  1.00  0.00     0.118 C 
BRANCH  24  25
ATOM     25  N   UNL A   1      39.967  19.400  25.909  1.00  0.00    -0.352 N 
ATOM     26  C   UNL A   1      41.329  19.435  26.081  1.00  0.00     0.251 C 
ATOM     27  H   UNL A   1      39.570  18.499  25.905  1.00  0.00     0.163 HD
ATOM     28  O   UNL A   1      41.980  18.401  25.969  1.00  0.00    -0.269 OA
BRANCH  26  29
ATOM     29  C   UNL A   1      42.003  20.715  26.388  1.00  0.00     0.039 A 
ATOM     30  C   UNL A   1      42.366  21.564  25.340  1.00  0.00     0.014 A 
ATOM     31  C   UNL A   1      42.288  21.068  27.710  1.00  0.00     0.014 A 
ATOM     32  C   UNL A   1      42.945  22.804  25.623  1.00  0.00     0.010 A 
ATOM     33  C   UNL A   1      42.798  22.331  27.994  1.00  0.00     0.010 A 
ATOM     34  C   UNL A   1      43.125  23.215  26.954  1.00  0.00    -0.014 A 
BRANCH  34  35
ATOM     35  C   UNL A   1      43.638  24.567  27.291  1.00  0.00     0.031 A 
ATOM     36  C   UNL A   1      42.695  25.625  27.797  1.00  0.00     0.074 A 
ATOM     37  C   UNL A   1      44.933  24.863  27.065  1.00  0.00     0.049 A 
ATOM     38  N   UNL A   1      42.917  26.895  28.004  1.00  0.00    -0.248 NA
ATOM     39  C   UNL A   1      41.314  25.200  28.078  1.00  0.00     0.031 C 
ATOM     40  C   UNL A   1      45.940  23.926  26.561  1.00  0.00     0.029 A 
ATOM     41  N   UNL A   1      45.626  26.038  27.220  1.00  0.00    -0.354 N 
ATOM     42  C   UNL A   1      41.704  27.427  28.429  1.00  0.00     0.074 A 
ATOM     43  C   UNL A   1      40.739  26.350  28.401  1.00  0.00     0.031 C 
ATOM     44  C   UNL A   1      47.123  24.553  26.474  1.00  0.00     0.029 A 
ATOM     45  C   UNL A   1      46.951  25.951  26.860  1.00  0.00     0.049 A 
ATOM     46  H   UNL A   1      45.213  26.865  27.558  1.00  0.00     0.167 HD
ATOM     47  C   UNL A   1      41.429  28.694  28.824  1.00  0.00     0.034 A 
ATOM     48  C   UNL A   1      47.915  26.891  26.824  1.00  0.00     0.034 A 
ATOM     49  C   UNL A   1      42.406  29.753  28.864  1.00  0.00     0.049 A 
ATOM     50  C   UNL A   1      47.574  28.301  27.228  1.00  0.00     0.074 A 
ATOM     51  C   UNL A   1      42.237  31.060  29.284  1.00  0.00     0.029 A 
ATOM     52  N   UNL A   1      43.731  29.628  28.473  1.00  0.00    -0.354 N 
ATOM     53  N   UNL A   1      46.421  28.788  27.621  1.00  0.00    -0.248 NA
ATOM     54  C   UNL A   1      48.662  29.285  27.183  1.00  0.00     0.031 C 
ATOM     55  C   UNL A   1      43.441  31.742  29.087  1.00  0.00     0.029 A 
ATOM     56  C   UNL A   1      44.384  30.842  28.617  1.00  0.00     0.049 A 
ATOM     57  H   UNL A   1      44.148  28.800  28.142  1.00  0.00     0.167 HD
ATOM     58  C   UNL A   1      46.651  30.133  27.894  1.00  0.00     0.074 A 
ATOM     59  C   UNL A   1      48.053  30.378  27.625  1.00  0.00     0.031 C 
ATOM     60  C   UNL A   1      45.780  31.077  28.332  1.00  0.00     0.034 A 
BRANCH  47  61
ATOM     61  C   UNL A   1      40.013  29.010  29.229  1.00  0.00     0.023 A 
ATOM     62  C   UNL A   1      39.625  29.042  30.579  1.00  0.00     0.031 A 
ATOM     63  C   UNL A   1      39.046  29.314  28.255  1.00  0.00     0.131 A 
ATOM     64  C   UNL A   1      38.295  29.332  30.917  1.00  0.00     0.055 A 
ATOM     65  C   UNL A   1      37.740  29.665  28.601  1.00  0.00     0.041 A 
ATOM     66  F   UNL A   1      39.358  29.280  26.949  1.00  0.00    -0.206 F 
ATOM     67  C   UNL A   1      37.356  29.669  29.938  1.00  0.00     0.022 A 
BRANCH  64  68
ATOM     68  S   UNL A   1      37.786  29.190  32.651  1.00  0.00     0.124 S 
ATOM     69  O   UNL A   1      36.477  29.837  32.627  1.00  0.00    -0.237 OA
ATOM     70  O   UNL A   1      37.781  27.747  32.863  1.00  0.00    -0.237 OA
ATOM     71  O   UNL A   1      38.823  29.922  33.374  1.00  0.00    -0.744 OA
ENDBRANCH  64  68
ENDBRANCH  47  61
BRANCH  48  72
ATOM     72  C   UNL A   1      49.290  26.531  26.379  1.00  0.00     0.023 A 
ATOM     73  C   UNL A   1      49.785  26.975  25.144  1.00  0.00     0.031 A 
ATOM     74  C   UNL A   1      50.131  25.746  27.188  1.00  0.00     0.131 A 
ATOM     75  C   UNL A   1      51.082  26.615  24.742  1.00  0.00     0.055 A 
ATOM     76  C   UNL A   1      51.432  25.423  26.801  1.00  0.00     0.041 A 
ATOM     77  F   UNL A   1      49.706  25.307  28.383  1.00  0.00    -0.206 F 
ATOM     78  C   UNL A   1      51.912  25.854  25.568  1.00  0.00     0.022 A 
BRANCH  75  79
ATOM     79  S   UNL A   1      51.663  27.139  23.107  1.00  0.00     0.124 S 
ATOM     80  O   UNL A   1      52.879  26.349  22.956  1.00  0.00    -0.237 OA
ATOM     81  O   UNL A   1      50.543  26.767  22.250  1.00  0.00    -0.237 OA
ATOM     82  O   UNL A   1      51.868  28.578  23.265  1.00  0.00    -0.744 OA
ENDBRANCH  75  79
ENDBRANCH  48  72
BRANCH  60  83
ATOM     83  C   UNL A   1      46.325  32.458  28.585  1.00  0.00     0.023 A 
ATOM     84  C   UNL A   1      46.805  32.841  29.848  1.00  0.00     0.031 A 
ATOM     85  C   UNL A   1      46.396  33.392  27.535  1.00  0.00     0.131 A 
ATOM     86  C   UNL A   1      47.302  34.138  30.040  1.00  0.00     0.055 A 
ATOM     87  C   UNL A   1      46.941  34.662  27.719  1.00  0.00     0.041 A 
ATOM     88  F   UNL A   1      45.950  33.076  26.309  1.00  0.00    -0.206 F 
ATOM     89  C   UNL A   1      47.391  35.045  28.979  1.00  0.00     0.022 A 
BRANCH  86  90
ATOM     90  S   UNL A   1      47.783  34.648  31.712  1.00  0.00     0.124 S 
ATOM     91  O   UNL A   1      46.527  34.512  32.442  1.00  0.00    -0.237 OA
ATOM     92  O   UNL A   1      48.824  33.682  32.049  1.00  0.00    -0.237 OA
ATOM     93  O   UNL A   1      48.249  36.022  31.532  1.00  0.00    -0.744 OA
ENDBRANCH  86  90
ENDBRANCH  60  83
ENDBRANCH  34  35
ENDBRANCH  26  29
ENDBRANCH  24  25
ENDBRANCH  23  24
ENDBRANCH  22  23
ENDBRANCH   3  22
TORSDOF 19
ENDMDL
