MODEL 1
REMARK VINA RESULT:     -11.0      0.000      0.000
REMARK SMILES C[C@H]([NH2+]CC1(O)CCCC1)[C@H](C)C(=O)NCCCNC(=O)c1ccc(-c2c3nc(c(-c4cc(S(=O)(=O)[O-])ccc4F)c4ccc([nH]4)c(-c4cc(S(=O)(=O)[O-])ccc4F)c4nc(c(-c5cc(S(=O)(=O)[O-])ccc5F)c5ccc2[nH]5)C=C4)C=C3)cc1
REMARK SMILES IDX 16 1 15 2 13 3 14 4 11 6 12 7 2 8 1 9 3 10 4 13 5 14 7 15
REMARK SMILES IDX 10 16 8 17 9 18 6 19 17 21 18 22 19 23 20 24 21 26 22 27
REMARK SMILES IDX 23 28 84 29 24 30 83 31 25 32 26 33 27 34 77 35 28 36 82 37
REMARK SMILES IDX 76 38 78 39 29 40 81 41 75 42 74 43 30 45 62 46 42 47 61 48
REMARK SMILES IDX 43 49 46 50 60 51 79 52 44 53 45 54 59 56 80 57 47 58 31 59
REMARK SMILES IDX 32 60 40 61 33 62 39 63 41 64 38 65 34 66 35 67 36 68 37 69
REMARK SMILES IDX 63 70 64 71 72 72 65 73 71 74 73 75 70 76 66 77 67 78 68 79
REMARK SMILES IDX 69 80 48 81 49 82 57 83 50 84 56 85 58 86 55 87 51 88 52 89
REMARK SMILES IDX 53 90 54 91
REMARK H PARENT 15 5 3 11 3 12 6 20 19 25 78 44 46 55
REMARK Flexibility Score: inf
ROOT
ATOM      1  C   UNL A   1      32.057  27.411  27.022  1.00  0.00     0.117 C 
ENDROOT
BRANCH   1   2
ATOM      2  N   UNL A   1      30.819  26.731  26.750  1.00  0.00    -0.356 N 
ATOM      3  C   UNL A   1      30.487  25.952  25.688  1.00  0.00     0.228 C 
ATOM      4  O   UNL A   1      29.461  25.270  25.803  1.00  0.00    -0.275 OA
ATOM      5  H   UNL A   1      30.114  26.847  27.427  1.00  0.00     0.163 HD
BRANCH   3   6
ATOM      6  C   UNL A   1      31.242  25.973  24.350  1.00  0.00     0.133 C 
ATOM      7  C   UNL A   1      30.872  24.719  23.552  1.00  0.00     0.024 C 
BRANCH   6   8
ATOM      8  C   UNL A   1      31.437  27.304  23.542  1.00  0.00     0.191 C 
ATOM      9  C   UNL A   1      32.888  27.719  23.245  1.00  0.00     0.076 C 
BRANCH   8  10
ATOM     10  N   UNL A   1      30.560  28.473  23.779  1.00  0.00    -0.341 N 
ATOM     11  H   UNL A   1      31.144  29.307  23.711  1.00  0.00     0.346 HD
ATOM     12  H   UNL A   1      30.144  28.295  24.692  1.00  0.00     0.346 HD
BRANCH  10  13
ATOM     13  C   UNL A   1      29.412  28.670  22.885  1.00  0.00     0.296 C 
BRANCH  13  14
ATOM     14  C   UNL A   1      29.386  30.092  22.286  1.00  0.00     0.113 C 
ATOM     15  C   UNL A   1      29.146  31.184  23.326  1.00  0.00     0.041 C 
ATOM     16  C   UNL A   1      28.222  30.292  21.310  1.00  0.00     0.041 C 
ATOM     17  C   UNL A   1      28.654  32.380  22.513  1.00  0.00     0.003 C 
ATOM     18  C   UNL A   1      28.033  31.807  21.237  1.00  0.00     0.003 C 
BRANCH  14  19
ATOM     19  O   UNL A   1      30.632  30.312  21.603  1.00  0.00    -0.384 OA
ATOM     20  H   UNL A   1      31.141  30.992  22.071  1.00  0.00     0.211 HD
ENDBRANCH  14  19
ENDBRANCH  13  14
ENDBRANCH  10  13
ENDBRANCH   8  10
ENDBRANCH   6   8
ENDBRANCH   3   6
ENDBRANCH   1   2
BRANCH   1  21
ATOM     21  C   UNL A   1      31.936  28.907  27.207  1.00  0.00     0.042 C 
BRANCH  21  22
ATOM     22  C   UNL A   1      33.023  29.684  26.491  1.00  0.00     0.118 C 
BRANCH  22  23
ATOM     23  N   UNL A   1      33.006  31.106  26.825  1.00  0.00    -0.352 N 
ATOM     24  C   UNL A   1      33.854  31.841  27.615  1.00  0.00     0.251 C 
ATOM     25  H   UNL A   1      32.269  31.617  26.419  1.00  0.00     0.163 HD
ATOM     26  O   UNL A   1      33.543  32.990  27.925  1.00  0.00    -0.269 OA
BRANCH  24  27
ATOM     27  C   UNL A   1      35.112  31.245  28.105  1.00  0.00     0.039 A 
ATOM     28  C   UNL A   1      36.298  31.975  28.002  1.00  0.00     0.014 A 
ATOM     29  C   UNL A   1      35.120  29.971  28.676  1.00  0.00     0.014 A 
ATOM     30  C   UNL A   1      37.475  31.454  28.540  1.00  0.00     0.010 A 
ATOM     31  C   UNL A   1      36.262  29.506  29.311  1.00  0.00     0.010 A 
ATOM     32  C   UNL A   1      37.457  30.235  29.239  1.00  0.00    -0.014 A 
BRANCH  32  33
ATOM     33  C   UNL A   1      38.676  29.688  29.882  1.00  0.00     0.031 A 
ATOM     34  C   UNL A   1      39.097  30.195  31.234  1.00  0.00     0.074 A 
ATOM     35  C   UNL A   1      39.437  28.796  29.216  1.00  0.00     0.049 A 
ATOM     36  N   UNL A   1      40.175  29.922  31.922  1.00  0.00    -0.248 NA
ATOM     37  C   UNL A   1      38.204  31.170  31.882  1.00  0.00     0.031 C 
ATOM     38  C   UNL A   1      39.150  28.270  27.878  1.00  0.00     0.029 A 
ATOM     39  N   UNL A   1      40.609  28.178  29.568  1.00  0.00    -0.354 N 
ATOM     40  C   UNL A   1      40.097  30.702  33.072  1.00  0.00     0.074 A 
ATOM     41  C   UNL A   1      38.906  31.512  32.950  1.00  0.00     0.031 C 
ATOM     42  C   UNL A   1      40.100  27.385  27.540  1.00  0.00     0.029 A 
ATOM     43  C   UNL A   1      41.093  27.320  28.607  1.00  0.00     0.049 A 
ATOM     44  H   UNL A   1      41.063  28.334  30.428  1.00  0.00     0.167 HD
ATOM     45  C   UNL A   1      40.927  30.716  34.143  1.00  0.00     0.034 A 
ATOM     46  C   UNL A   1      42.216  26.576  28.585  1.00  0.00     0.034 A 
ATOM     47  C   UNL A   1      42.100  29.884  34.249  1.00  0.00     0.049 A 
ATOM     48  C   UNL A   1      43.138  26.628  29.778  1.00  0.00     0.074 A 
ATOM     49  C   UNL A   1      42.985  29.774  35.308  1.00  0.00     0.029 A 
ATOM     50  N   UNL A   1      42.558  29.025  33.258  1.00  0.00    -0.354 N 
ATOM     51  N   UNL A   1      43.023  27.331  30.881  1.00  0.00    -0.248 NA
ATOM     52  C   UNL A   1      44.333  25.777  29.727  1.00  0.00     0.031 C 
ATOM     53  C   UNL A   1      44.014  28.908  34.928  1.00  0.00     0.029 A 
ATOM     54  C   UNL A   1      43.729  28.407  33.668  1.00  0.00     0.049 A 
ATOM     55  H   UNL A   1      42.114  28.877  32.392  1.00  0.00     0.167 HD
ATOM     56  C   UNL A   1      44.115  26.980  31.670  1.00  0.00     0.074 A 
ATOM     57  C   UNL A   1      44.864  25.991  30.921  1.00  0.00     0.031 C 
ATOM     58  C   UNL A   1      44.467  27.428  32.903  1.00  0.00     0.034 A 
BRANCH  45  59
ATOM     59  C   UNL A   1      40.601  31.675  35.264  1.00  0.00     0.023 A 
ATOM     60  C   UNL A   1      39.582  31.405  36.195  1.00  0.00     0.031 A 
ATOM     61  C   UNL A   1      41.299  32.888  35.391  1.00  0.00     0.131 A 
ATOM     62  C   UNL A   1      39.235  32.366  37.156  1.00  0.00     0.055 A 
ATOM     63  C   UNL A   1      41.009  33.803  36.405  1.00  0.00     0.041 A 
ATOM     64  F   UNL A   1      42.267  33.215  34.519  1.00  0.00    -0.206 F 
ATOM     65  C   UNL A   1      39.961  33.552  37.286  1.00  0.00     0.022 A 
BRANCH  62  66
ATOM     66  S   UNL A   1      37.728  32.112  38.131  1.00  0.00     0.124 S 
ATOM     67  O   UNL A   1      37.394  30.729  37.801  1.00  0.00    -0.237 OA
ATOM     68  O   UNL A   1      38.189  32.349  39.494  1.00  0.00    -0.237 OA
ATOM     69  O   UNL A   1      36.803  33.112  37.601  1.00  0.00    -0.744 OA
ENDBRANCH  62  66
ENDBRANCH  45  59
BRANCH  46  70
ATOM     70  C   UNL A   1      42.542  25.728  27.401  1.00  0.00     0.023 A 
ATOM     71  C   UNL A   1      42.106  24.396  27.327  1.00  0.00     0.031 A 
ATOM     72  C   UNL A   1      43.330  26.223  26.346  1.00  0.00     0.131 A 
ATOM     73  C   UNL A   1      42.506  23.588  26.250  1.00  0.00     0.055 A 
ATOM     74  C   UNL A   1      43.675  25.433  25.249  1.00  0.00     0.041 A 
ATOM     75  F   UNL A   1      43.768  27.492  26.363  1.00  0.00    -0.206 F 
ATOM     76  C   UNL A   1      43.274  24.102  25.203  1.00  0.00     0.022 A 
BRANCH  73  77
ATOM     77  S   UNL A   1      42.086  21.824  26.286  1.00  0.00     0.124 S 
ATOM     78  O   UNL A   1      40.656  21.854  26.007  1.00  0.00    -0.237 OA
ATOM     79  O   UNL A   1      42.936  21.290  25.227  1.00  0.00    -0.237 OA
ATOM     80  O   UNL A   1      42.451  21.417  27.642  1.00  0.00    -0.744 OA
ENDBRANCH  73  77
ENDBRANCH  46  70
BRANCH  58  81
ATOM     81  C   UNL A   1      45.691  26.812  33.534  1.00  0.00     0.023 A 
ATOM     82  C   UNL A   1      45.624  25.615  34.269  1.00  0.00     0.031 A 
ATOM     83  C   UNL A   1      46.943  27.438  33.404  1.00  0.00     0.131 A 
ATOM     84  C   UNL A   1      46.775  25.115  34.894  1.00  0.00     0.055 A 
ATOM     85  C   UNL A   1      48.098  26.899  33.970  1.00  0.00     0.041 A 
ATOM     86  F   UNL A   1      47.065  28.586  32.716  1.00  0.00    -0.206 F 
ATOM     87  C   UNL A   1      48.015  25.738  34.733  1.00  0.00     0.022 A 
BRANCH  84  88
ATOM     88  S   UNL A   1      46.611  23.692  36.007  1.00  0.00     0.124 S 
ATOM     89  O   UNL A   1      46.928  24.284  37.303  1.00  0.00    -0.237 OA
ATOM     90  O   UNL A   1      45.220  23.299  35.809  1.00  0.00    -0.237 OA
ATOM     91  O   UNL A   1      47.601  22.743  35.499  1.00  0.00    -0.744 OA
ENDBRANCH  84  88
ENDBRANCH  58  81
ENDBRANCH  32  33
ENDBRANCH  24  27
ENDBRANCH  22  23
ENDBRANCH  21  22
ENDBRANCH   1  21
TORSDOF 18
ENDMDL
MODEL 2
REMARK VINA RESULT:     -10.9      5.540     10.610
REMARK SMILES C[C@H]([NH2+]CC1(O)CCCC1)[C@H](C)C(=O)NCCCNC(=O)c1ccc(-c2c3nc(c(-c4cc(S(=O)(=O)[O-])ccc4F)c4ccc([nH]4)c(-c4cc(S(=O)(=O)[O-])ccc4F)c4nc(c(-c5cc(S(=O)(=O)[O-])ccc5F)c5ccc2[nH]5)C=C4)C=C3)cc1
REMARK SMILES IDX 16 1 15 2 13 3 14 4 11 6 12 7 2 8 1 9 3 10 4 13 5 14 7 15
REMARK SMILES IDX 10 16 8 17 9 18 6 19 17 21 18 22 19 23 20 24 21 26 22 27
REMARK SMILES IDX 23 28 84 29 24 30 83 31 25 32 26 33 27 34 77 35 28 36 82 37
REMARK SMILES IDX 76 38 78 39 29 40 81 41 75 42 74 43 30 45 62 46 42 47 61 48
REMARK SMILES IDX 43 49 46 50 60 51 79 52 44 53 45 54 59 56 80 57 47 58 31 59
REMARK SMILES IDX 32 60 40 61 33 62 39 63 41 64 38 65 34 66 35 67 36 68 37 69
REMARK SMILES IDX 63 70 64 71 72 72 65 73 71 74 73 75 70 76 66 77 67 78 68 79
REMARK SMILES IDX 69 80 48 81 49 82 57 83 50 84 56 85 58 86 55 87 51 88 52 89
REMARK SMILES IDX 53 90 54 91
REMARK H PARENT 15 5 3 11 3 12 6 20 19 25 78 44 46 55
REMARK Flexibility Score: inf
ROOT
ATOM      1  C   UNL A   1      35.982  23.362  23.822  1.00  0.00     0.117 C 
ENDROOT
BRANCH   1   2
ATOM      2  N   UNL A   1      34.720  23.437  23.136  1.00  0.00    -0.356 N 
ATOM      3  C   UNL A   1      33.479  23.637  23.651  1.00  0.00     0.228 C 
ATOM      4  O   UNL A   1      32.586  23.920  22.843  1.00  0.00    -0.275 OA
ATOM      5  H   UNL A   1      34.761  23.328  22.159  1.00  0.00     0.163 HD
BRANCH   3   6
ATOM      6  C   UNL A   1      33.126  23.415  25.129  1.00  0.00     0.133 C 
ATOM      7  C   UNL A   1      33.317  24.731  25.889  1.00  0.00     0.024 C 
BRANCH   6   8
ATOM      8  C   UNL A   1      31.914  22.514  25.555  1.00  0.00     0.191 C 
ATOM      9  C   UNL A   1      30.903  23.141  26.531  1.00  0.00     0.076 C 
BRANCH   8  10
ATOM     10  N   UNL A   1      32.090  21.063  25.790  1.00  0.00    -0.341 N 
ATOM     11  H   UNL A   1      31.292  20.589  25.366  1.00  0.00     0.346 HD
ATOM     12  H   UNL A   1      32.169  20.979  26.803  1.00  0.00     0.346 HD
BRANCH  10  13
ATOM     13  C   UNL A   1      33.305  20.420  25.275  1.00  0.00     0.296 C 
BRANCH  13  14
ATOM     14  C   UNL A   1      33.011  19.028  24.676  1.00  0.00     0.113 C 
ATOM     15  C   UNL A   1      34.268  18.200  24.421  1.00  0.00     0.041 C 
ATOM     16  C   UNL A   1      32.376  19.115  23.285  1.00  0.00     0.041 C 
ATOM     17  C   UNL A   1      33.829  17.150  23.402  1.00  0.00     0.003 C 
ATOM     18  C   UNL A   1      32.639  17.749  22.652  1.00  0.00     0.003 C 
BRANCH  14  19
ATOM     19  O   UNL A   1      32.123  18.336  25.569  1.00  0.00    -0.384 OA
ATOM     20  H   UNL A   1      32.465  18.396  26.475  1.00  0.00     0.211 HD
ENDBRANCH  14  19
ENDBRANCH  13  14
ENDBRANCH  10  13
ENDBRANCH   8  10
ENDBRANCH   6   8
ENDBRANCH   3   6
ENDBRANCH   1   2
BRANCH   1  21
ATOM     21  C   UNL A   1      36.462  21.959  24.124  1.00  0.00     0.042 C 
BRANCH  21  22
ATOM     22  C   UNL A   1      36.813  21.754  25.584  1.00  0.00     0.118 C 
BRANCH  22  23
ATOM     23  N   UNL A   1      37.883  20.777  25.769  1.00  0.00    -0.352 N 
ATOM     24  C   UNL A   1      39.203  20.959  26.101  1.00  0.00     0.251 C 
ATOM     25  H   UNL A   1      37.616  19.839  25.634  1.00  0.00     0.163 HD
ATOM     26  O   UNL A   1      39.983  20.014  26.009  1.00  0.00    -0.269 OA
BRANCH  24  27
ATOM     27  C   UNL A   1      39.679  22.286  26.538  1.00  0.00     0.039 A 
ATOM     28  C   UNL A   1      40.723  22.366  27.462  1.00  0.00     0.014 A 
ATOM     29  C   UNL A   1      39.104  23.451  26.028  1.00  0.00     0.014 A 
ATOM     30  C   UNL A   1      41.235  23.614  27.815  1.00  0.00     0.010 A 
ATOM     31  C   UNL A   1      39.688  24.682  26.289  1.00  0.00     0.010 A 
ATOM     32  C   UNL A   1      40.752  24.780  27.196  1.00  0.00    -0.014 A 
BRANCH  32  33
ATOM     33  C   UNL A   1      41.322  26.115  27.499  1.00  0.00     0.031 A 
ATOM     34  C   UNL A   1      42.700  26.466  27.005  1.00  0.00     0.074 A 
ATOM     35  C   UNL A   1      40.632  26.974  28.275  1.00  0.00     0.049 A 
ATOM     36  N   UNL A   1      43.416  27.535  27.240  1.00  0.00    -0.248 NA
ATOM     37  C   UNL A   1      43.376  25.464  26.166  1.00  0.00     0.031 C 
ATOM     38  C   UNL A   1      39.307  26.720  28.848  1.00  0.00     0.029 A 
ATOM     39  N   UNL A   1      40.949  28.231  28.722  1.00  0.00    -0.354 N 
ATOM     40  C   UNL A   1      44.630  27.324  26.594  1.00  0.00     0.074 A 
ATOM     41  C   UNL A   1      44.579  25.997  26.023  1.00  0.00     0.031 C 
ATOM     42  C   UNL A   1      38.913  27.800  29.541  1.00  0.00     0.029 A 
ATOM     43  C   UNL A   1      39.974  28.801  29.510  1.00  0.00     0.049 A 
ATOM     44  H   UNL A   1      41.794  28.684  28.502  1.00  0.00     0.167 HD
ATOM     45  C   UNL A   1      45.679  28.173  26.464  1.00  0.00     0.034 A 
ATOM     46  C   UNL A   1      39.947  29.989  30.145  1.00  0.00     0.034 A 
ATOM     47  C   UNL A   1      45.699  29.501  27.027  1.00  0.00     0.049 A 
ATOM     48  C   UNL A   1      41.135  30.907  30.006  1.00  0.00     0.074 A 
ATOM     49  C   UNL A   1      46.682  30.469  26.916  1.00  0.00     0.029 A 
ATOM     50  N   UNL A   1      44.693  30.045  27.816  1.00  0.00    -0.354 N 
ATOM     51  N   UNL A   1      42.255  30.715  29.347  1.00  0.00    -0.248 NA
ATOM     52  C   UNL A   1      41.051  32.205  30.685  1.00  0.00     0.031 C 
ATOM     53  C   UNL A   1      46.305  31.566  27.695  1.00  0.00     0.029 A 
ATOM     54  C   UNL A   1      45.046  31.322  28.224  1.00  0.00     0.049 A 
ATOM     55  H   UNL A   1      43.852  29.590  28.050  1.00  0.00     0.167 HD
ATOM     56  C   UNL A   1      42.994  31.885  29.507  1.00  0.00     0.074 A 
ATOM     57  C   UNL A   1      42.183  32.779  30.308  1.00  0.00     0.031 C 
ATOM     58  C   UNL A   1      44.227  32.196  29.031  1.00  0.00     0.034 A 
BRANCH  45  59
ATOM     59  C   UNL A   1      46.886  27.679  25.704  1.00  0.00     0.023 A 
ATOM     60  C   UNL A   1      47.120  28.045  24.366  1.00  0.00     0.031 A 
ATOM     61  C   UNL A   1      47.805  26.806  26.313  1.00  0.00     0.131 A 
ATOM     62  C   UNL A   1      48.191  27.480  23.659  1.00  0.00     0.055 A 
ATOM     63  C   UNL A   1      48.921  26.317  25.632  1.00  0.00     0.041 A 
ATOM     64  F   UNL A   1      47.625  26.400  27.580  1.00  0.00    -0.206 F 
ATOM     65  C   UNL A   1      49.111  26.641  24.291  1.00  0.00     0.022 A 
BRANCH  62  66
ATOM     66  S   UNL A   1      48.278  27.738  21.867  1.00  0.00     0.124 S 
ATOM     67  O   UNL A   1      46.961  28.304  21.587  1.00  0.00    -0.237 OA
ATOM     68  O   UNL A   1      49.407  28.651  21.733  1.00  0.00    -0.237 OA
ATOM     69  O   UNL A   1      48.496  26.394  21.337  1.00  0.00    -0.744 OA
ENDBRANCH  62  66
ENDBRANCH  45  59
BRANCH  46  70
ATOM     70  C   UNL A   1      38.769  30.381  30.972  1.00  0.00     0.023 A 
ATOM     71  C   UNL A   1      37.682  31.063  30.403  1.00  0.00     0.031 A 
ATOM     72  C   UNL A   1      38.730  30.117  32.353  1.00  0.00     0.131 A 
ATOM     73  C   UNL A   1      36.629  31.506  31.219  1.00  0.00     0.055 A 
ATOM     74  C   UNL A   1      37.652  30.507  33.150  1.00  0.00     0.041 A 
ATOM     75  F   UNL A   1      39.739  29.461  32.948  1.00  0.00    -0.206 F 
ATOM     76  C   UNL A   1      36.599  31.220  32.585  1.00  0.00     0.022 A 
BRANCH  73  77
ATOM     77  S   UNL A   1      35.342  32.551  30.483  1.00  0.00     0.124 S 
ATOM     78  O   UNL A   1      36.069  33.791  30.240  1.00  0.00    -0.237 OA
ATOM     79  O   UNL A   1      34.970  31.782  29.299  1.00  0.00    -0.237 OA
ATOM     80  O   UNL A   1      34.321  32.617  31.526  1.00  0.00    -0.744 OA
ENDBRANCH  73  77
ENDBRANCH  46  70
BRANCH  58  81
ATOM     81  C   UNL A   1      44.748  33.581  29.328  1.00  0.00     0.023 A 
ATOM     82  C   UNL A   1      45.448  33.872  30.511  1.00  0.00     0.031 A 
ATOM     83  C   UNL A   1      44.531  34.627  28.413  1.00  0.00     0.131 A 
ATOM     84  C   UNL A   1      45.855  35.189  30.776  1.00  0.00     0.055 A 
ATOM     85  C   UNL A   1      44.999  35.919  28.649  1.00  0.00     0.041 A 
ATOM     86  F   UNL A   1      43.865  34.407  27.268  1.00  0.00    -0.206 F 
ATOM     87  C   UNL A   1      45.653  36.209  29.843  1.00  0.00     0.022 A 
BRANCH  84  88
ATOM     88  S   UNL A   1      46.563  35.570  32.401  1.00  0.00     0.124 S 
ATOM     89  O   UNL A   1      46.657  34.246  33.008  1.00  0.00    -0.237 OA
ATOM     90  O   UNL A   1      47.831  36.201  32.049  1.00  0.00    -0.237 OA
ATOM     91  O   UNL A   1      45.575  36.462  33.005  1.00  0.00    -0.744 OA
ENDBRANCH  84  88
ENDBRANCH  58  81
ENDBRANCH  32  33
ENDBRANCH  24  27
ENDBRANCH  22  23
ENDBRANCH  21  22
ENDBRANCH   1  21
TORSDOF 18
ENDMDL
MODEL 3
REMARK VINA RESULT:     -10.8      2.795      8.452
REMARK SMILES C[C@H]([NH2+]CC1(O)CCCC1)[C@H](C)C(=O)NCCCNC(=O)c1ccc(-c2c3nc(c(-c4cc(S(=O)(=O)[O-])ccc4F)c4ccc([nH]4)c(-c4cc(S(=O)(=O)[O-])ccc4F)c4nc(c(-c5cc(S(=O)(=O)[O-])ccc5F)c5ccc2[nH]5)C=C4)C=C3)cc1
REMARK SMILES IDX 16 1 15 2 13 3 14 4 11 6 12 7 2 8 1 9 3 10 4 13 5 14 7 15
REMARK SMILES IDX 10 16 8 17 9 18 6 19 17 21 18 22 19 23 20 24 21 26 22 27
REMARK SMILES IDX 23 28 84 29 24 30 83 31 25 32 26 33 27 34 77 35 28 36 82 37
REMARK SMILES IDX 76 38 78 39 29 40 81 41 75 42 74 43 30 45 62 46 42 47 61 48
REMARK SMILES IDX 43 49 46 50 60 51 79 52 44 53 45 54 59 56 80 57 47 58 31 59
REMARK SMILES IDX 32 60 40 61 33 62 39 63 41 64 38 65 34 66 35 67 36 68 37 69
REMARK SMILES IDX 63 70 64 71 72 72 65 73 71 74 73 75 70 76 66 77 67 78 68 79
REMARK SMILES IDX 69 80 48 81 49 82 57 83 50 84 56 85 58 86 55 87 51 88 52 89
REMARK SMILES IDX 53 90 54 91
REMARK H PARENT 15 5 3 11 3 12 6 20 19 25 78 44 46 55
REMARK Flexibility Score: inf
ROOT
ATOM      1  C   UNL A   1      31.386  30.757  25.508  1.00  0.00     0.117 C 
ENDROOT
BRANCH   1   2
ATOM      2  N   UNL A   1      32.131  29.577  25.855  1.00  0.00    -0.356 N 
ATOM      3  C   UNL A   1      32.850  28.752  25.050  1.00  0.00     0.228 C 
ATOM      4  O   UNL A   1      33.611  27.957  25.613  1.00  0.00    -0.275 OA
ATOM      5  H   UNL A   1      32.120  29.334  26.809  1.00  0.00     0.163 HD
BRANCH   3   6
ATOM      6  C   UNL A   1      32.672  28.687  23.526  1.00  0.00     0.133 C 
ATOM      7  C   UNL A   1      34.048  28.782  22.860  1.00  0.00     0.024 C 
BRANCH   6   8
ATOM      8  C   UNL A   1      31.623  27.724  22.865  1.00  0.00     0.191 C 
ATOM      9  C   UNL A   1      32.170  26.409  22.285  1.00  0.00     0.076 C 
BRANCH   8  10
ATOM     10  N   UNL A   1      30.495  28.258  22.068  1.00  0.00    -0.341 N 
ATOM     11  H   UNL A   1      30.336  27.610  21.297  1.00  0.00     0.346 HD
ATOM     12  H   UNL A   1      30.795  29.197  21.805  1.00  0.00     0.346 HD
BRANCH  10  13
ATOM     13  C   UNL A   1      29.207  28.462  22.741  1.00  0.00     0.296 C 
BRANCH  13  14
ATOM     14  C   UNL A   1      28.578  29.825  22.382  1.00  0.00     0.113 C 
ATOM     15  C   UNL A   1      29.610  30.920  22.126  1.00  0.00     0.041 C 
ATOM     16  C   UNL A   1      27.748  30.405  23.531  1.00  0.00     0.041 C 
ATOM     17  C   UNL A   1      28.832  32.223  22.302  1.00  0.00     0.003 C 
ATOM     18  C   UNL A   1      27.659  31.901  23.229  1.00  0.00     0.003 C 
BRANCH  14  19
ATOM     19  O   UNL A   1      27.742  29.641  21.227  1.00  0.00    -0.384 OA
ATOM     20  H   UNL A   1      28.076  28.897  20.701  1.00  0.00     0.211 HD
ENDBRANCH  14  19
ENDBRANCH  13  14
ENDBRANCH  10  13
ENDBRANCH   8  10
ENDBRANCH   6   8
ENDBRANCH   3   6
ENDBRANCH   1   2
BRANCH   1  21
ATOM     21  C   UNL A   1      31.304  31.804  26.597  1.00  0.00     0.042 C 
BRANCH  21  22
ATOM     22  C   UNL A   1      32.657  32.369  26.980  1.00  0.00     0.118 C 
BRANCH  22  23
ATOM     23  N   UNL A   1      32.567  33.733  27.495  1.00  0.00    -0.352 N 
ATOM     24  C   UNL A   1      33.262  34.346  28.508  1.00  0.00     0.251 C 
ATOM     25  H   UNL A   1      31.903  34.303  27.044  1.00  0.00     0.163 HD
ATOM     26  O   UNL A   1      32.890  35.445  28.914  1.00  0.00    -0.269 OA
BRANCH  24  27
ATOM     27  C   UNL A   1      34.428  33.675  29.117  1.00  0.00     0.039 A 
ATOM     28  C   UNL A   1      35.712  34.133  28.816  1.00  0.00     0.014 A 
ATOM     29  C   UNL A   1      34.253  32.603  29.993  1.00  0.00     0.014 A 
ATOM     30  C   UNL A   1      36.813  33.561  29.453  1.00  0.00     0.010 A 
ATOM     31  C   UNL A   1      35.334  32.114  30.711  1.00  0.00     0.010 A 
ATOM     32  C   UNL A   1      36.629  32.577  30.440  1.00  0.00    -0.014 A 
BRANCH  32  33
ATOM     33  C   UNL A   1      37.774  31.998  31.184  1.00  0.00     0.031 A 
ATOM     34  C   UNL A   1      38.577  30.884  30.568  1.00  0.00     0.074 A 
ATOM     35  C   UNL A   1      38.038  32.423  32.436  1.00  0.00     0.049 A 
ATOM     36  N   UNL A   1      39.548  30.178  31.087  1.00  0.00    -0.248 NA
ATOM     37  C   UNL A   1      38.212  30.486  29.199  1.00  0.00     0.031 C 
ATOM     38  C   UNL A   1      37.295  33.465  33.151  1.00  0.00     0.029 A 
ATOM     39  N   UNL A   1      38.999  32.030  33.332  1.00  0.00    -0.354 N 
ATOM     40  C   UNL A   1      39.895  29.245  30.116  1.00  0.00     0.074 A 
ATOM     41  C   UNL A   1      38.982  29.427  29.010  1.00  0.00     0.031 C 
ATOM     42  C   UNL A   1      37.849  33.650  34.359  1.00  0.00     0.029 A 
ATOM     43  C   UNL A   1      38.949  32.707  34.530  1.00  0.00     0.049 A 
ATOM     44  H   UNL A   1      39.662  31.329  33.138  1.00  0.00     0.167 HD
ATOM     45  C   UNL A   1      40.905  28.340  30.134  1.00  0.00     0.034 A 
ATOM     46  C   UNL A   1      39.696  32.571  35.642  1.00  0.00     0.034 A 
ATOM     47  C   UNL A   1      41.815  28.190  31.242  1.00  0.00     0.049 A 
ATOM     48  C   UNL A   1      40.798  31.541  35.648  1.00  0.00     0.074 A 
ATOM     49  C   UNL A   1      42.907  27.346  31.351  1.00  0.00     0.029 A 
ATOM     50  N   UNL A   1      41.737  28.895  32.437  1.00  0.00    -0.354 N 
ATOM     51  N   UNL A   1      41.149  30.701  34.702  1.00  0.00    -0.248 NA
ATOM     52  C   UNL A   1      41.610  31.448  36.867  1.00  0.00     0.031 C 
ATOM     53  C   UNL A   1      43.441  27.487  32.636  1.00  0.00     0.029 A 
ATOM     54  C   UNL A   1      42.739  28.481  33.300  1.00  0.00     0.049 A 
ATOM     55  H   UNL A   1      41.067  29.586  32.641  1.00  0.00     0.167 HD
ATOM     56  C   UNL A   1      42.246  30.004  35.201  1.00  0.00     0.074 A 
ATOM     57  C   UNL A   1      42.506  30.536  36.523  1.00  0.00     0.031 C 
ATOM     58  C   UNL A   1      42.978  29.018  34.620  1.00  0.00     0.034 A 
BRANCH  45  59
ATOM     59  C   UNL A   1      41.055  27.439  28.931  1.00  0.00     0.023 A 
ATOM     60  C   UNL A   1      42.067  27.642  27.976  1.00  0.00     0.031 A 
ATOM     61  C   UNL A   1      40.158  26.378  28.719  1.00  0.00     0.131 A 
ATOM     62  C   UNL A   1      42.109  26.852  26.818  1.00  0.00     0.055 A 
ATOM     63  C   UNL A   1      40.258  25.538  27.608  1.00  0.00     0.041 A 
ATOM     64  F   UNL A   1      39.155  26.147  29.582  1.00  0.00    -0.206 F 
ATOM     65  C   UNL A   1      41.229  25.783  26.640  1.00  0.00     0.022 A 
BRANCH  62  66
ATOM     66  S   UNL A   1      43.230  27.339  25.478  1.00  0.00     0.124 S 
ATOM     67  O   UNL A   1      42.344  28.131  24.627  1.00  0.00    -0.237 OA
ATOM     68  O   UNL A   1      44.265  28.081  26.187  1.00  0.00    -0.237 OA
ATOM     69  O   UNL A   1      43.655  26.064  24.906  1.00  0.00    -0.744 OA
ENDBRANCH  62  66
ENDBRANCH  45  59
BRANCH  46  70
ATOM     70  C   UNL A   1      39.433  33.417  36.842  1.00  0.00     0.023 A 
ATOM     71  C   UNL A   1      40.199  34.566  37.098  1.00  0.00     0.031 A 
ATOM     72  C   UNL A   1      38.439  33.068  37.775  1.00  0.00     0.131 A 
ATOM     73  C   UNL A   1      39.997  35.293  38.282  1.00  0.00     0.055 A 
ATOM     74  C   UNL A   1      38.202  33.828  38.921  1.00  0.00     0.041 A 
ATOM     75  F   UNL A   1      37.673  31.984  37.576  1.00  0.00    -0.206 F 
ATOM     76  C   UNL A   1      38.994  34.940  39.188  1.00  0.00     0.022 A 
BRANCH  73  77
ATOM     77  S   UNL A   1      41.133  36.652  38.670  1.00  0.00     0.124 S 
ATOM     78  O   UNL A   1      41.741  36.909  37.370  1.00  0.00    -0.237 OA
ATOM     79  O   UNL A   1      40.220  37.676  39.166  1.00  0.00    -0.237 OA
ATOM     80  O   UNL A   1      42.024  36.074  39.674  1.00  0.00    -0.744 OA
ENDBRANCH  73  77
ENDBRANCH  46  70
BRANCH  58  81
ATOM     81  C   UNL A   1      44.158  28.489  35.398  1.00  0.00     0.023 A 
ATOM     82  C   UNL A   1      44.021  27.461  36.346  1.00  0.00     0.031 A 
ATOM     83  C   UNL A   1      45.439  29.031  35.190  1.00  0.00     0.131 A 
ATOM     84  C   UNL A   1      45.134  27.048  37.093  1.00  0.00     0.055 A 
ATOM     85  C   UNL A   1      46.555  28.568  35.887  1.00  0.00     0.041 A 
ATOM     86  F   UNL A   1      45.628  30.019  34.300  1.00  0.00    -0.206 F 
ATOM     87  C   UNL A   1      46.403  27.581  36.856  1.00  0.00     0.022 A 
BRANCH  84  88
ATOM     88  S   UNL A   1      44.881  25.875  38.452  1.00  0.00     0.124 S 
ATOM     89  O   UNL A   1      43.809  26.514  39.209  1.00  0.00    -0.237 OA
ATOM     90  O   UNL A   1      44.519  24.650  37.745  1.00  0.00    -0.237 OA
ATOM     91  O   UNL A   1      46.180  25.841  39.123  1.00  0.00    -0.744 OA
ENDBRANCH  84  88
ENDBRANCH  58  81
ENDBRANCH  32  33
ENDBRANCH  24  27
ENDBRANCH  22  23
ENDBRANCH  21  22
ENDBRANCH   1  21
TORSDOF 18
ENDMDL
