MODEL 1
REMARK VINA RESULT:     -12.3      0.000      0.000
REMARK SMILES O=C(NCCCNC(=O)c1cccnc1C[N@@H+]1CCC[C@H]1c1ccccn1)c1ccc(-c2c3nc(c(-c4cc(S(=O)(=O)[O-])ccc4F)c4ccc([nH]4)c(-c4cc(S(=O)(=O)[O-])ccc4F)c4nc(c(-c5cc(S(=O)(=O)[O-])ccc5F)c5ccc2[nH]5)C=C4)C=C3)cc1
REMARK SMILES IDX 5 1 4 2 3 3 1 4 2 5 28 7 29 8 90 9 30 10 89 11 31 12 32 13
REMARK SMILES IDX 33 14 83 15 34 16 88 17 82 18 84 19 35 20 87 21 81 22 80 23
REMARK SMILES IDX 36 25 68 26 48 27 67 28 49 29 52 30 66 31 85 32 50 33 51 34
REMARK SMILES IDX 65 36 86 37 53 38 37 39 38 40 46 41 39 42 45 43 47 44 44 45
REMARK SMILES IDX 40 46 41 47 42 48 43 49 69 50 70 51 78 52 71 53 77 54 79 55
REMARK SMILES IDX 76 56 72 57 73 58 74 59 75 60 54 61 55 62 63 63 56 64 62 65
REMARK SMILES IDX 64 66 61 67 57 68 58 69 59 70 60 71 6 72 7 73 8 74 9 76
REMARK SMILES IDX 10 77 11 78 15 79 12 80 14 81 13 82 16 83 17 84 18 85 21 86
REMARK SMILES IDX 19 88 20 89 22 90 23 91 27 92 24 93 26 94 25 95
REMARK H PARENT 3 6 84 24 52 35 7 75 17 87
REMARK Flexibility Score: inf
ROOT
ATOM      1  C   UNL A   1      31.496  31.819  26.717  1.00  0.00     0.042 C 
ENDROOT
BRANCH   1   2
ATOM      2  C   UNL A   1      32.790  32.482  27.153  1.00  0.00     0.118 C 
BRANCH   2   3
ATOM      3  N   UNL A   1      32.588  33.844  27.637  1.00  0.00    -0.352 N 
ATOM      4  O   UNL A   1      32.761  35.589  29.050  1.00  0.00    -0.269 OA
ATOM      5  C   UNL A   1      33.204  34.508  28.673  1.00  0.00     0.251 C 
ATOM      6  H   UNL A   1      31.911  34.366  27.150  1.00  0.00     0.163 HD
BRANCH   5   7
ATOM      7  C   UNL A   1      34.385  33.911  29.332  1.00  0.00     0.039 A 
ATOM      8  C   UNL A   1      34.226  32.894  30.274  1.00  0.00     0.014 A 
ATOM      9  C   UNL A   1      35.667  34.356  28.996  1.00  0.00     0.014 A 
ATOM     10  C   UNL A   1      35.319  32.440  30.996  1.00  0.00     0.010 A 
ATOM     11  C   UNL A   1      36.783  33.810  29.641  1.00  0.00     0.010 A 
ATOM     12  C   UNL A   1      36.615  32.859  30.659  1.00  0.00    -0.014 A 
BRANCH  12  13
ATOM     13  C   UNL A   1      37.769  32.182  31.303  1.00  0.00     0.031 A 
ATOM     14  C   UNL A   1      38.514  31.073  30.616  1.00  0.00     0.074 A 
ATOM     15  C   UNL A   1      38.150  32.615  32.523  1.00  0.00     0.049 A 
ATOM     16  N   UNL A   1      39.540  30.386  31.050  1.00  0.00    -0.248 NA
ATOM     17  C   UNL A   1      38.049  30.676  29.279  1.00  0.00     0.031 C 
ATOM     18  C   UNL A   1      37.489  33.687  33.276  1.00  0.00     0.029 A 
ATOM     19  N   UNL A   1      39.182  32.232  33.338  1.00  0.00    -0.354 N 
ATOM     20  C   UNL A   1      39.835  29.464  30.052  1.00  0.00     0.074 A 
ATOM     21  C   UNL A   1      38.866  29.668  28.996  1.00  0.00     0.031 C 
ATOM     22  C   UNL A   1      38.158  33.905  34.416  1.00  0.00     0.029 A 
ATOM     23  C   UNL A   1      39.234  32.931  34.523  1.00  0.00     0.049 A 
ATOM     24  H   UNL A   1      39.825  31.525  33.100  1.00  0.00     0.167 HD
ATOM     25  C   UNL A   1      40.824  28.537  30.031  1.00  0.00     0.034 A 
ATOM     26  C   UNL A   1      40.031  32.778  35.598  1.00  0.00     0.034 A 
ATOM     27  C   UNL A   1      41.784  28.361  31.097  1.00  0.00     0.049 A 
ATOM     28  C   UNL A   1      41.082  31.703  35.560  1.00  0.00     0.074 A 
ATOM     29  C   UNL A   1      42.860  27.491  31.148  1.00  0.00     0.029 A 
ATOM     30  N   UNL A   1      41.775  29.049  32.304  1.00  0.00    -0.354 N 
ATOM     31  N   UNL A   1      41.374  30.871  34.586  1.00  0.00    -0.248 NA
ATOM     32  C   UNL A   1      41.909  31.544  36.761  1.00  0.00     0.031 C 
ATOM     33  C   UNL A   1      43.446  27.591  32.414  1.00  0.00     0.029 A 
ATOM     34  C   UNL A   1      42.794  28.586  33.124  1.00  0.00     0.049 A 
ATOM     35  H   UNL A   1      41.138  29.761  32.543  1.00  0.00     0.167 HD
ATOM     36  C   UNL A   1      42.434  30.102  35.056  1.00  0.00     0.074 A 
ATOM     37  C   UNL A   1      42.749  30.594  36.381  1.00  0.00     0.031 C 
ATOM     38  C   UNL A   1      43.084  29.076  34.451  1.00  0.00     0.034 A 
BRANCH  25  39
ATOM     39  C   UNL A   1      40.901  27.602  28.849  1.00  0.00     0.023 A 
ATOM     40  C   UNL A   1      41.850  27.766  27.825  1.00  0.00     0.031 A 
ATOM     41  C   UNL A   1      40.036  26.495  28.774  1.00  0.00     0.131 A 
ATOM     42  C   UNL A   1      41.889  26.854  26.757  1.00  0.00     0.055 A 
ATOM     43  C   UNL A   1      40.122  25.558  27.744  1.00  0.00     0.041 A 
ATOM     44  F   UNL A   1      39.096  26.300  29.712  1.00  0.00    -0.206 F 
ATOM     45  C   UNL A   1      41.051  25.738  26.724  1.00  0.00     0.022 A 
BRANCH  42  46
ATOM     46  S   UNL A   1      42.997  27.194  25.360  1.00  0.00     0.124 S 
ATOM     47  O   UNL A   1      44.211  27.630  26.044  1.00  0.00    -0.237 OA
ATOM     48  O   UNL A   1      43.071  25.900  24.692  1.00  0.00    -0.237 OA
ATOM     49  O   UNL A   1      42.300  28.241  24.615  1.00  0.00    -0.744 OA
ENDBRANCH  42  46
ENDBRANCH  25  39
BRANCH  26  50
ATOM     50  C   UNL A   1      39.824  33.609  36.819  1.00  0.00     0.023 A 
ATOM     51  C   UNL A   1      39.202  33.079  37.959  1.00  0.00     0.031 A 
ATOM     52  C   UNL A   1      40.182  34.970  36.839  1.00  0.00     0.131 A 
ATOM     53  C   UNL A   1      38.896  33.919  39.042  1.00  0.00     0.055 A 
ATOM     54  C   UNL A   1      39.945  35.782  37.949  1.00  0.00     0.041 A 
ATOM     55  F   UNL A   1      40.777  35.534  35.775  1.00  0.00    -0.206 F 
ATOM     56  C   UNL A   1      39.279  35.262  39.051  1.00  0.00     0.022 A 
BRANCH  53  57
ATOM     57  S   UNL A   1      37.864  33.259  40.379  1.00  0.00     0.124 S 
ATOM     58  O   UNL A   1      37.800  34.395  41.292  1.00  0.00    -0.237 OA
ATOM     59  O   UNL A   1      36.631  32.931  39.674  1.00  0.00    -0.237 OA
ATOM     60  O   UNL A   1      38.629  32.111  40.862  1.00  0.00    -0.744 OA
ENDBRANCH  53  57
ENDBRANCH  26  50
BRANCH  38  61
ATOM     61  C   UNL A   1      44.220  28.448  35.219  1.00  0.00     0.023 A 
ATOM     62  C   UNL A   1      43.994  27.431  36.162  1.00  0.00     0.031 A 
ATOM     63  C   UNL A   1      45.539  28.893  35.027  1.00  0.00     0.131 A 
ATOM     64  C   UNL A   1      45.062  26.937  36.926  1.00  0.00     0.055 A 
ATOM     65  C   UNL A   1      46.608  28.349  35.740  1.00  0.00     0.041 A 
ATOM     66  F   UNL A   1      45.811  29.867  34.143  1.00  0.00    -0.206 F 
ATOM     67  C   UNL A   1      46.370  27.376  36.707  1.00  0.00     0.022 A 
BRANCH  64  68
ATOM     68  S   UNL A   1      44.703  25.788  38.282  1.00  0.00     0.124 S 
ATOM     69  O   UNL A   1      43.902  26.618  39.176  1.00  0.00    -0.237 OA
ATOM     70  O   UNL A   1      43.991  24.713  37.601  1.00  0.00    -0.237 OA
ATOM     71  O   UNL A   1      46.027  25.430  38.787  1.00  0.00    -0.744 OA
ENDBRANCH  64  68
ENDBRANCH  38  61
ENDBRANCH  12  13
ENDBRANCH   5   7
ENDBRANCH   2   3
ENDBRANCH   1   2
BRANCH   1  72
ATOM     72  C   UNL A   1      31.573  30.306  26.640  1.00  0.00     0.118 C 
BRANCH  72  73
ATOM     73  N   UNL A   1      32.652  29.831  25.786  1.00  0.00    -0.352 N 
ATOM     74  C   UNL A   1      32.619  28.940  24.744  1.00  0.00     0.253 C 
ATOM     75  H   UNL A   1      33.541  30.205  25.987  1.00  0.00     0.163 HD
ATOM     76  O   UNL A   1      33.643  28.651  24.136  1.00  0.00    -0.269 OA
BRANCH  74  77
ATOM     77  C   UNL A   1      31.331  28.367  24.318  1.00  0.00     0.067 A 
ATOM     78  C   UNL A   1      30.559  29.084  23.394  1.00  0.00     0.017 A 
ATOM     79  C   UNL A   1      30.881  27.122  24.763  1.00  0.00     0.107 A 
ATOM     80  C   UNL A   1      29.331  28.584  22.987  1.00  0.00     0.021 A 
ATOM     81  N   UNL A   1      29.696  26.607  24.313  1.00  0.00    -0.254 NA
ATOM     82  C   UNL A   1      28.949  27.348  23.467  1.00  0.00     0.111 A 
BRANCH  79  83
ATOM     83  C   UNL A   1      31.638  26.273  25.778  1.00  0.00     0.321 C 
BRANCH  83  84
ATOM     84  N   UNL A   1      32.108  24.938  25.351  1.00  0.00    -0.322 N 
ATOM     85  C   UNL A   1      31.095  23.889  25.398  1.00  0.00     0.263 C 
ATOM     86  C   UNL A   1      33.293  24.462  26.088  1.00  0.00     0.234 C 
ATOM     87  H   UNL A   1      32.356  25.103  24.375  1.00  0.00     0.349 HD
ATOM     88  C   UNL A   1      31.376  23.046  26.629  1.00  0.00     0.068 C 
ATOM     89  C   UNL A   1      32.807  23.359  27.034  1.00  0.00     0.078 C 
BRANCH  86  90
ATOM     90  C   UNL A   1      34.427  24.006  25.172  1.00  0.00     0.098 A 
ATOM     91  C   UNL A   1      34.186  23.547  23.875  1.00  0.00     0.030 A 
ATOM     92  N   UNL A   1      35.683  24.041  25.699  1.00  0.00    -0.255 NA
ATOM     93  C   UNL A   1      35.256  23.109  23.098  1.00  0.00     0.004 A 
ATOM     94  C   UNL A   1      36.700  23.616  24.915  1.00  0.00     0.111 A 
ATOM     95  C   UNL A   1      36.539  23.145  23.624  1.00  0.00     0.020 A 
ENDBRANCH  86  90
ENDBRANCH  83  84
ENDBRANCH  79  83
ENDBRANCH  74  77
ENDBRANCH  72  73
ENDBRANCH   1  72
TORSDOF 16
ENDMDL
MODEL 2
REMARK VINA RESULT:     -12.2      2.239      8.102
REMARK SMILES O=C(NCCCNC(=O)c1cccnc1C[N@@H+]1CCC[C@H]1c1ccccn1)c1ccc(-c2c3nc(c(-c4cc(S(=O)(=O)[O-])ccc4F)c4ccc([nH]4)c(-c4cc(S(=O)(=O)[O-])ccc4F)c4nc(c(-c5cc(S(=O)(=O)[O-])ccc5F)c5ccc2[nH]5)C=C4)C=C3)cc1
REMARK SMILES IDX 5 1 4 2 3 3 1 4 2 5 28 7 29 8 90 9 30 10 89 11 31 12 32 13
REMARK SMILES IDX 33 14 83 15 34 16 88 17 82 18 84 19 35 20 87 21 81 22 80 23
REMARK SMILES IDX 36 25 68 26 48 27 67 28 49 29 52 30 66 31 85 32 50 33 51 34
REMARK SMILES IDX 65 36 86 37 53 38 37 39 38 40 46 41 39 42 45 43 47 44 44 45
REMARK SMILES IDX 40 46 41 47 42 48 43 49 69 50 70 51 78 52 71 53 77 54 79 55
REMARK SMILES IDX 76 56 72 57 73 58 74 59 75 60 54 61 55 62 63 63 56 64 62 65
REMARK SMILES IDX 64 66 61 67 57 68 58 69 59 70 60 71 6 72 7 73 8 74 9 76
REMARK SMILES IDX 10 77 11 78 15 79 12 80 14 81 13 82 16 83 17 84 18 85 21 86
REMARK SMILES IDX 19 88 20 89 22 90 23 91 27 92 24 93 26 94 25 95
REMARK H PARENT 3 6 84 24 52 35 7 75 17 87
REMARK Flexibility Score: inf
ROOT
ATOM      1  C   UNL A   1      33.723  29.254  23.975  1.00  0.00     0.042 C 
ENDROOT
BRANCH   1   2
ATOM      2  C   UNL A   1      32.988  29.179  25.301  1.00  0.00     0.118 C 
BRANCH   2   3
ATOM      3  N   UNL A   1      32.494  30.479  25.743  1.00  0.00    -0.352 N 
ATOM      4  O   UNL A   1      32.252  32.246  27.118  1.00  0.00    -0.269 OA
ATOM      5  C   UNL A   1      32.920  31.271  26.784  1.00  0.00     0.251 C 
ATOM      6  H   UNL A   1      31.745  30.843  25.220  1.00  0.00     0.163 HD
BRANCH   5   7
ATOM      7  C   UNL A   1      34.171  30.940  27.499  1.00  0.00     0.039 A 
ATOM      8  C   UNL A   1      35.089  31.942  27.813  1.00  0.00     0.014 A 
ATOM      9  C   UNL A   1      34.425  29.618  27.878  1.00  0.00     0.014 A 
ATOM     10  C   UNL A   1      36.323  31.609  28.350  1.00  0.00     0.010 A 
ATOM     11  C   UNL A   1      35.621  29.300  28.531  1.00  0.00     0.010 A 
ATOM     12  C   UNL A   1      36.588  30.292  28.756  1.00  0.00    -0.014 A 
BRANCH  12  13
ATOM     13  C   UNL A   1      37.826  30.024  29.528  1.00  0.00     0.031 A 
ATOM     14  C   UNL A   1      38.000  30.520  30.935  1.00  0.00     0.074 A 
ATOM     15  C   UNL A   1      38.791  29.290  28.934  1.00  0.00     0.049 A 
ATOM     16  N   UNL A   1      39.024  30.366  31.737  1.00  0.00    -0.248 NA
ATOM     17  C   UNL A   1      36.893  31.293  31.519  1.00  0.00     0.031 C 
ATOM     18  C   UNL A   1      38.719  28.762  27.567  1.00  0.00     0.029 A 
ATOM     19  N   UNL A   1      40.002  28.846  29.392  1.00  0.00    -0.354 N 
ATOM     20  C   UNL A   1      38.696  31.035  32.911  1.00  0.00     0.074 A 
ATOM     21  C   UNL A   1      37.384  31.613  32.710  1.00  0.00     0.031 C 
ATOM     22  C   UNL A   1      39.812  28.029  27.317  1.00  0.00     0.029 A 
ATOM     23  C   UNL A   1      40.705  28.112  28.463  1.00  0.00     0.049 A 
ATOM     24  H   UNL A   1      40.339  29.032  30.299  1.00  0.00     0.167 HD
ATOM     25  C   UNL A   1      39.431  31.151  34.044  1.00  0.00     0.034 A 
ATOM     26  C   UNL A   1      41.949  27.598  28.509  1.00  0.00     0.034 A 
ATOM     27  C   UNL A   1      40.736  30.556  34.220  1.00  0.00     0.049 A 
ATOM     28  C   UNL A   1      42.756  27.793  29.763  1.00  0.00     0.074 A 
ATOM     29  C   UNL A   1      41.539  30.565  35.349  1.00  0.00     0.029 A 
ATOM     30  N   UNL A   1      41.441  29.866  33.241  1.00  0.00    -0.354 N 
ATOM     31  N   UNL A   1      42.410  28.390  30.881  1.00  0.00    -0.248 NA
ATOM     32  C   UNL A   1      44.118  27.249  29.765  1.00  0.00     0.031 C 
ATOM     33  C   UNL A   1      42.757  29.959  35.027  1.00  0.00     0.029 A 
ATOM     34  C   UNL A   1      42.685  29.490  33.725  1.00  0.00     0.049 A 
ATOM     35  H   UNL A   1      41.105  29.672  32.336  1.00  0.00     0.167 HD
ATOM     36  C   UNL A   1      43.510  28.275  31.724  1.00  0.00     0.074 A 
ATOM     37  C   UNL A   1      44.512  27.522  30.999  1.00  0.00     0.031 C 
ATOM     38  C   UNL A   1      43.681  28.754  32.982  1.00  0.00     0.034 A 
BRANCH  25  39
ATOM     39  C   UNL A   1      38.879  31.989  35.172  1.00  0.00     0.023 A 
ATOM     40  C   UNL A   1      38.354  31.416  36.343  1.00  0.00     0.031 A 
ATOM     41  C   UNL A   1      38.925  33.393  35.089  1.00  0.00     0.131 A 
ATOM     42  C   UNL A   1      37.869  32.244  37.369  1.00  0.00     0.055 A 
ATOM     43  C   UNL A   1      38.501  34.210  36.138  1.00  0.00     0.041 A 
ATOM     44  F   UNL A   1      39.396  33.995  33.985  1.00  0.00    -0.206 F 
ATOM     45  C   UNL A   1      37.965  33.635  37.285  1.00  0.00     0.022 A 
BRANCH  42  46
ATOM     46  S   UNL A   1      37.031  31.479  38.785  1.00  0.00     0.124 S 
ATOM     47  O   UNL A   1      36.849  30.108  38.316  1.00  0.00    -0.237 OA
ATOM     48  O   UNL A   1      37.996  31.663  39.862  1.00  0.00    -0.237 OA
ATOM     49  O   UNL A   1      35.798  32.254  38.914  1.00  0.00    -0.744 OA
ENDBRANCH  42  46
ENDBRANCH  25  39
BRANCH  26  50
ATOM     50  C   UNL A   1      42.532  26.915  27.317  1.00  0.00     0.023 A 
ATOM     51  C   UNL A   1      42.328  25.545  27.096  1.00  0.00     0.031 A 
ATOM     52  C   UNL A   1      43.363  27.609  26.418  1.00  0.00     0.131 A 
ATOM     53  C   UNL A   1      43.000  24.900  26.046  1.00  0.00     0.055 A 
ATOM     54  C   UNL A   1      43.967  26.979  25.330  1.00  0.00     0.041 A 
ATOM     55  F   UNL A   1      43.597  28.922  26.582  1.00  0.00    -0.206 F 
ATOM     56  C   UNL A   1      43.804  25.611  25.152  1.00  0.00     0.022 A 
BRANCH  53  57
ATOM     57  S   UNL A   1      42.918  23.091  25.953  1.00  0.00     0.124 S 
ATOM     58  O   UNL A   1      43.135  22.857  24.530  1.00  0.00    -0.237 OA
ATOM     59  O   UNL A   1      44.003  22.694  26.842  1.00  0.00    -0.237 OA
ATOM     60  O   UNL A   1      41.573  22.788  26.438  1.00  0.00    -0.744 OA
ENDBRANCH  53  57
ENDBRANCH  26  50
BRANCH  38  61
ATOM     61  C   UNL A   1      44.996  28.442  33.652  1.00  0.00     0.023 A 
ATOM     62  C   UNL A   1      45.173  27.274  34.413  1.00  0.00     0.031 A 
ATOM     63  C   UNL A   1      46.073  29.339  33.553  1.00  0.00     0.131 A 
ATOM     64  C   UNL A   1      46.379  27.065  35.099  1.00  0.00     0.055 A 
ATOM     65  C   UNL A   1      47.294  29.092  34.182  1.00  0.00     0.041 A 
ATOM     66  F   UNL A   1      45.956  30.475  32.845  1.00  0.00    -0.206 F 
ATOM     67  C   UNL A   1      47.446  27.956  34.973  1.00  0.00     0.022 A 
BRANCH  64  68
ATOM     68  S   UNL A   1      46.494  25.663  36.245  1.00  0.00     0.124 S 
ATOM     69  O   UNL A   1      46.464  26.330  37.542  1.00  0.00    -0.237 OA
ATOM     70  O   UNL A   1      45.312  24.880  35.901  1.00  0.00    -0.237 OA
ATOM     71  O   UNL A   1      47.771  25.041  35.896  1.00  0.00    -0.744 OA
ENDBRANCH  64  68
ENDBRANCH  38  61
ENDBRANCH  12  13
ENDBRANCH   5   7
ENDBRANCH   2   3
ENDBRANCH   1   2
BRANCH   1  72
ATOM     72  C   UNL A   1      32.859  28.928  22.770  1.00  0.00     0.118 C 
BRANCH  72  73
ATOM     73  N   UNL A   1      33.346  27.785  22.010  1.00  0.00    -0.352 N 
ATOM     74  C   UNL A   1      33.135  26.445  22.211  1.00  0.00     0.253 C 
ATOM     75  H   UNL A   1      33.913  28.007  21.236  1.00  0.00     0.163 HD
ATOM     76  O   UNL A   1      33.638  25.615  21.463  1.00  0.00    -0.269 OA
BRANCH  74  77
ATOM     77  C   UNL A   1      32.252  26.002  23.302  1.00  0.00     0.067 A 
ATOM     78  C   UNL A   1      30.866  26.096  23.114  1.00  0.00     0.017 A 
ATOM     79  C   UNL A   1      32.744  25.454  24.489  1.00  0.00     0.107 A 
ATOM     80  C   UNL A   1      30.005  25.708  24.130  1.00  0.00     0.021 A 
ATOM     81  N   UNL A   1      31.888  25.019  25.464  1.00  0.00    -0.254 NA
ATOM     82  C   UNL A   1      30.560  25.175  25.275  1.00  0.00     0.111 A 
BRANCH  79  83
ATOM     83  C   UNL A   1      34.231  25.324  24.797  1.00  0.00     0.321 C 
BRANCH  83  84
ATOM     84  N   UNL A   1      34.755  23.982  25.128  1.00  0.00    -0.322 N 
ATOM     85  C   UNL A   1      36.038  23.981  25.824  1.00  0.00     0.263 C 
ATOM     86  C   UNL A   1      34.867  23.086  23.962  1.00  0.00     0.234 C 
ATOM     87  H   UNL A   1      34.042  23.627  25.765  1.00  0.00     0.349 HD
ATOM     88  C   UNL A   1      37.101  23.602  24.809  1.00  0.00     0.068 C 
ATOM     89  C   UNL A   1      36.361  22.965  23.645  1.00  0.00     0.078 C 
BRANCH  86  90
ATOM     90  C   UNL A   1      34.192  21.733  24.178  1.00  0.00     0.098 A 
ATOM     91  C   UNL A   1      32.826  21.548  23.957  1.00  0.00     0.030 A 
ATOM     92  N   UNL A   1      34.989  20.723  24.629  1.00  0.00    -0.255 NA
ATOM     93  C   UNL A   1      32.257  20.301  24.206  1.00  0.00     0.004 A 
ATOM     94  C   UNL A   1      34.407  19.522  24.852  1.00  0.00     0.111 A 
ATOM     95  C   UNL A   1      33.062  19.266  24.660  1.00  0.00     0.020 A 
ENDBRANCH  86  90
ENDBRANCH  83  84
ENDBRANCH  79  83
ENDBRANCH  74  77
ENDBRANCH  72  73
ENDBRANCH   1  72
TORSDOF 16
ENDMDL
MODEL 3
REMARK VINA RESULT:     -12.2      5.483     11.478
REMARK SMILES O=C(NCCCNC(=O)c1cccnc1C[N@@H+]1CCC[C@H]1c1ccccn1)c1ccc(-c2c3nc(c(-c4cc(S(=O)(=O)[O-])ccc4F)c4ccc([nH]4)c(-c4cc(S(=O)(=O)[O-])ccc4F)c4nc(c(-c5cc(S(=O)(=O)[O-])ccc5F)c5ccc2[nH]5)C=C4)C=C3)cc1
REMARK SMILES IDX 5 1 4 2 3 3 1 4 2 5 28 7 29 8 90 9 30 10 89 11 31 12 32 13
REMARK SMILES IDX 33 14 83 15 34 16 88 17 82 18 84 19 35 20 87 21 81 22 80 23
REMARK SMILES IDX 36 25 68 26 48 27 67 28 49 29 52 30 66 31 85 32 50 33 51 34
REMARK SMILES IDX 65 36 86 37 53 38 37 39 38 40 46 41 39 42 45 43 47 44 44 45
REMARK SMILES IDX 40 46 41 47 42 48 43 49 69 50 70 51 78 52 71 53 77 54 79 55
REMARK SMILES IDX 76 56 72 57 73 58 74 59 75 60 54 61 55 62 63 63 56 64 62 65
REMARK SMILES IDX 64 66 61 67 57 68 58 69 59 70 60 71 6 72 7 73 8 74 9 76
REMARK SMILES IDX 10 77 11 78 15 79 12 80 14 81 13 82 16 83 17 84 18 85 21 86
REMARK SMILES IDX 19 88 20 89 22 90 23 91 27 92 24 93 26 94 25 95
REMARK H PARENT 3 6 84 24 52 35 7 75 17 87
REMARK Flexibility Score: inf
ROOT
ATOM      1  C   UNL A   1      37.944  19.896  25.008  1.00  0.00     0.042 C 
ENDROOT
BRANCH   1   2
ATOM      2  C   UNL A   1      39.086  20.358  25.894  1.00  0.00     0.118 C 
BRANCH   2   3
ATOM      3  N   UNL A   1      40.186  19.401  25.938  1.00  0.00    -0.352 N 
ATOM      4  O   UNL A   1      42.324  18.696  25.888  1.00  0.00    -0.269 OA
ATOM      5  C   UNL A   1      41.538  19.622  26.064  1.00  0.00     0.251 C 
ATOM      6  H   UNL A   1      39.922  18.456  25.867  1.00  0.00     0.163 HD
BRANCH   5   7
ATOM      7  C   UNL A   1      42.035  20.973  26.399  1.00  0.00     0.039 A 
ATOM      8  C   UNL A   1      42.212  21.926  25.395  1.00  0.00     0.014 A 
ATOM      9  C   UNL A   1      42.312  21.302  27.729  1.00  0.00     0.014 A 
ATOM     10  C   UNL A   1      42.817  23.139  25.689  1.00  0.00     0.010 A 
ATOM     11  C   UNL A   1      42.809  22.572  28.041  1.00  0.00     0.010 A 
ATOM     12  C   UNL A   1      43.082  23.495  27.021  1.00  0.00    -0.014 A 
BRANCH  12  13
ATOM     13  C   UNL A   1      43.517  24.884  27.309  1.00  0.00     0.031 A 
ATOM     14  C   UNL A   1      42.565  25.910  27.856  1.00  0.00     0.074 A 
ATOM     15  C   UNL A   1      44.812  25.195  27.092  1.00  0.00     0.049 A 
ATOM     16  N   UNL A   1      42.797  27.162  28.158  1.00  0.00    -0.248 NA
ATOM     17  C   UNL A   1      41.177  25.485  28.087  1.00  0.00     0.031 C 
ATOM     18  C   UNL A   1      45.818  24.268  26.560  1.00  0.00     0.029 A 
ATOM     19  N   UNL A   1      45.513  26.353  27.299  1.00  0.00    -0.354 N 
ATOM     20  C   UNL A   1      41.585  27.682  28.597  1.00  0.00     0.074 A 
ATOM     21  C   UNL A   1      40.614  26.613  28.504  1.00  0.00     0.031 C 
ATOM     22  C   UNL A   1      47.010  24.879  26.528  1.00  0.00     0.029 A 
ATOM     23  C   UNL A   1      46.840  26.263  26.943  1.00  0.00     0.049 A 
ATOM     24  H   UNL A   1      45.107  27.172  27.667  1.00  0.00     0.167 HD
ATOM     25  C   UNL A   1      41.318  28.938  29.033  1.00  0.00     0.034 A 
ATOM     26  C   UNL A   1      47.806  27.201  26.912  1.00  0.00     0.034 A 
ATOM     27  C   UNL A   1      42.310  29.985  29.123  1.00  0.00     0.049 A 
ATOM     28  C   UNL A   1      47.460  28.597  27.352  1.00  0.00     0.074 A 
ATOM     29  C   UNL A   1      42.157  31.274  29.605  1.00  0.00     0.029 A 
ATOM     30  N   UNL A   1      43.631  29.876  28.704  1.00  0.00    -0.354 N 
ATOM     31  N   UNL A   1      46.317  29.057  27.808  1.00  0.00    -0.248 NA
ATOM     32  C   UNL A   1      48.528  29.599  27.274  1.00  0.00     0.031 C 
ATOM     33  C   UNL A   1      43.355  31.966  29.400  1.00  0.00     0.029 A 
ATOM     34  C   UNL A   1      44.286  31.087  28.872  1.00  0.00     0.049 A 
ATOM     35  H   UNL A   1      44.041  29.057  28.343  1.00  0.00     0.167 HD
ATOM     36  C   UNL A   1      46.539  30.402  28.087  1.00  0.00     0.074 A 
ATOM     37  C   UNL A   1      47.930  30.665  27.782  1.00  0.00     0.031 C 
ATOM     38  C   UNL A   1      45.670  31.337  28.547  1.00  0.00     0.034 A 
BRANCH  25  39
ATOM     39  C   UNL A   1      39.895  29.280  29.401  1.00  0.00     0.023 A 
ATOM     40  C   UNL A   1      39.468  29.369  30.737  1.00  0.00     0.031 A 
ATOM     41  C   UNL A   1      38.960  29.571  28.390  1.00  0.00     0.131 A 
ATOM     42  C   UNL A   1      38.135  29.708  31.023  1.00  0.00     0.055 A 
ATOM     43  C   UNL A   1      37.655  29.970  28.682  1.00  0.00     0.041 A 
ATOM     44  F   UNL A   1      39.307  29.482  27.096  1.00  0.00    -0.206 F 
ATOM     45  C   UNL A   1      37.235  30.035  30.006  1.00  0.00     0.022 A 
BRANCH  42  46
ATOM     46  S   UNL A   1      37.566  29.634  32.745  1.00  0.00     0.124 S 
ATOM     47  O   UNL A   1      36.296  30.351  32.669  1.00  0.00    -0.237 OA
ATOM     48  O   UNL A   1      37.475  28.199  32.987  1.00  0.00    -0.237 OA
ATOM     49  O   UNL A   1      38.619  30.325  33.486  1.00  0.00    -0.744 OA
ENDBRANCH  42  46
ENDBRANCH  25  39
BRANCH  26  50
ATOM     50  C   UNL A   1      49.164  26.874  26.387  1.00  0.00     0.023 A 
ATOM     51  C   UNL A   1      49.598  27.365  25.147  1.00  0.00     0.031 A 
ATOM     52  C   UNL A   1      50.022  26.006  27.087  1.00  0.00     0.131 A 
ATOM     53  C   UNL A   1      50.823  26.931  24.615  1.00  0.00     0.055 A 
ATOM     54  C   UNL A   1      51.272  25.638  26.588  1.00  0.00     0.041 A 
ATOM     55  F   UNL A   1      49.658  25.501  28.278  1.00  0.00    -0.206 F 
ATOM     56  C   UNL A   1      51.669  26.085  25.334  1.00  0.00     0.022 A 
BRANCH  53  57
ATOM     57  S   UNL A   1      51.224  27.380  22.905  1.00  0.00     0.124 S 
ATOM     58  O   UNL A   1      50.165  26.704  22.164  1.00  0.00    -0.237 OA
ATOM     59  O   UNL A   1      51.149  28.835  22.949  1.00  0.00    -0.237 OA
ATOM     60  O   UNL A   1      52.566  26.831  22.717  1.00  0.00    -0.744 OA
ENDBRANCH  53  57
ENDBRANCH  26  50
BRANCH  38  61
ATOM     61  C   UNL A   1      46.224  32.722  28.772  1.00  0.00     0.023 A 
ATOM     62  C   UNL A   1      46.124  33.722  27.788  1.00  0.00     0.031 A 
ATOM     63  C   UNL A   1      46.886  33.036  29.971  1.00  0.00     0.131 A 
ATOM     64  C   UNL A   1      46.735  34.968  27.995  1.00  0.00     0.055 A 
ATOM     65  C   UNL A   1      47.431  34.300  30.199  1.00  0.00     0.041 A 
ATOM     66  F   UNL A   1      47.017  32.117  30.942  1.00  0.00    -0.206 F 
ATOM     67  C   UNL A   1      47.370  35.269  29.202  1.00  0.00     0.022 A 
BRANCH  64  68
ATOM     68  S   UNL A   1      46.777  36.153  26.623  1.00  0.00     0.124 S 
ATOM     69  O   UNL A   1      48.124  36.700  26.738  1.00  0.00    -0.237 OA
ATOM     70  O   UNL A   1      46.532  35.299  25.465  1.00  0.00    -0.237 OA
ATOM     71  O   UNL A   1      45.698  37.086  26.943  1.00  0.00    -0.744 OA
ENDBRANCH  64  68
ENDBRANCH  38  61
ENDBRANCH  12  13
ENDBRANCH   5   7
ENDBRANCH   2   3
ENDBRANCH   1   2
BRANCH   1  72
ATOM     72  C   UNL A   1      36.817  20.904  24.875  1.00  0.00     0.118 C 
BRANCH  72  73
ATOM     73  N   UNL A   1      36.093  21.120  26.120  1.00  0.00    -0.352 N 
ATOM     74  C   UNL A   1      34.760  21.364  26.327  1.00  0.00     0.253 C 
ATOM     75  H   UNL A   1      36.643  21.085  26.936  1.00  0.00     0.163 HD
ATOM     76  O   UNL A   1      34.324  21.529  27.460  1.00  0.00    -0.269 OA
BRANCH  74  77
ATOM     77  C   UNL A   1      33.835  21.374  25.182  1.00  0.00     0.067 A 
ATOM     78  C   UNL A   1      33.331  20.148  24.725  1.00  0.00     0.017 A 
ATOM     79  C   UNL A   1      33.410  22.556  24.571  1.00  0.00     0.107 A 
ATOM     80  C   UNL A   1      32.474  20.119  23.635  1.00  0.00     0.021 A 
ATOM     81  N   UNL A   1      32.519  22.525  23.534  1.00  0.00    -0.254 NA
ATOM     82  C   UNL A   1      32.097  21.325  23.080  1.00  0.00     0.111 A 
BRANCH  79  83
ATOM     83  C   UNL A   1      33.911  23.936  24.982  1.00  0.00     0.321 C 
BRANCH  83  84
ATOM     84  N   UNL A   1      33.096  24.711  25.942  1.00  0.00    -0.322 N 
ATOM     85  C   UNL A   1      32.124  23.924  26.693  1.00  0.00     0.263 C 
ATOM     86  C   UNL A   1      32.387  25.852  25.332  1.00  0.00     0.234 C 
ATOM     87  H   UNL A   1      33.804  25.056  26.591  1.00  0.00     0.349 HD
ATOM     88  C   UNL A   1      30.760  24.190  26.082  1.00  0.00     0.068 C 
ATOM     89  C   UNL A   1      30.907  25.462  25.264  1.00  0.00     0.078 C 
BRANCH  86  90
ATOM     90  C   UNL A   1      32.624  27.169  26.068  1.00  0.00     0.098 A 
ATOM     91  C   UNL A   1      31.566  27.962  26.516  1.00  0.00     0.030 A 
ATOM     92  N   UNL A   1      33.923  27.544  26.235  1.00  0.00    -0.255 NA
ATOM     93  C   UNL A   1      31.842  29.172  27.150  1.00  0.00     0.004 A 
ATOM     94  C   UNL A   1      34.157  28.721  26.861  1.00  0.00     0.111 A 
ATOM     95  C   UNL A   1      33.162  29.561  27.328  1.00  0.00     0.020 A 
ENDBRANCH  86  90
ENDBRANCH  83  84
ENDBRANCH  79  83
ENDBRANCH  74  77
ENDBRANCH  72  73
ENDBRANCH   1  72
TORSDOF 16
ENDMDL
