MODEL 1
REMARK VINA RESULT:     -12.7      0.000      0.000
REMARK SMILES O=C(NCCCNC(=O)C1CCN(S(=O)(=O)c2ccc3nc(O)sc3c2)CC1)c1ccc(-c2c3nc(c(-c4cc(S(=O)(=O)[O-])ccc4F)c4ccc([nH]4)c(-c4cc(S(=O)(=O)[O-])ccc4F)c4nc(c(-c5cc(S(=O)(=O)[O-])ccc5F)c5ccc2[nH]5)C=C4)C=C3)cc1
REMARK SMILES IDX 5 1 4 2 3 3 1 4 2 5 29 7 30 8 91 9 31 10 90 11 32 12 33 13
REMARK SMILES IDX 34 14 84 15 35 16 89 17 83 18 85 19 36 20 88 21 82 22 81 23
REMARK SMILES IDX 37 25 69 26 49 27 68 28 50 29 53 30 67 31 86 32 51 33 52 34
REMARK SMILES IDX 66 36 87 37 54 38 38 39 39 40 47 41 40 42 46 43 48 44 45 45
REMARK SMILES IDX 41 46 42 47 43 48 44 49 70 50 71 51 79 52 72 53 78 54 80 55
REMARK SMILES IDX 77 56 73 57 74 58 75 59 76 60 55 61 56 62 64 63 57 64 63 65
REMARK SMILES IDX 65 66 62 67 58 68 59 69 60 70 61 71 6 72 7 73 8 74 9 76
REMARK SMILES IDX 10 77 11 78 28 79 12 80 27 81 13 82 14 83 15 84 16 85 17 86
REMARK SMILES IDX 18 87 26 88 19 89 25 90 20 91 24 92 21 93 22 94 23 95
REMARK H PARENT 3 6 85 24 53 35 7 75 23 96
REMARK Flexibility Score: inf
ROOT
ATOM      1  C   UNL A   1      38.220  20.934  25.279  1.00  0.00     0.042 C 
ENDROOT
BRANCH   1   2
ATOM      2  C   UNL A   1      38.951  22.021  26.072  1.00  0.00     0.118 C 
BRANCH   2   3
ATOM      3  N   UNL A   1      39.883  21.407  26.999  1.00  0.00    -0.352 N 
ATOM      4  O   UNL A   1      41.933  20.710  27.472  1.00  0.00    -0.269 OA
ATOM      5  C   UNL A   1      41.206  21.673  27.217  1.00  0.00     0.251 C 
ATOM      6  H   UNL A   1      39.504  20.690  27.558  1.00  0.00     0.163 HD
BRANCH   5   7
ATOM      7  C   UNL A   1      41.763  23.052  27.271  1.00  0.00     0.039 A 
ATOM      8  C   UNL A   1      41.338  23.855  28.343  1.00  0.00     0.014 A 
ATOM      9  C   UNL A   1      42.500  23.637  26.237  1.00  0.00     0.014 A 
ATOM     10  C   UNL A   1      41.605  25.223  28.364  1.00  0.00     0.010 A 
ATOM     11  C   UNL A   1      42.784  25.009  26.268  1.00  0.00     0.010 A 
ATOM     12  C   UNL A   1      42.323  25.812  27.320  1.00  0.00    -0.014 A 
BRANCH  12  13
ATOM     13  C   UNL A   1      42.619  27.258  27.417  1.00  0.00     0.031 A 
ATOM     14  C   UNL A   1      41.413  28.137  27.333  1.00  0.00     0.074 A 
ATOM     15  C   UNL A   1      43.752  27.709  28.004  1.00  0.00     0.049 A 
ATOM     16  N   UNL A   1      40.618  28.314  28.348  1.00  0.00    -0.248 NA
ATOM     17  C   UNL A   1      40.870  28.630  26.068  1.00  0.00     0.031 C 
ATOM     18  C   UNL A   1      44.431  26.985  29.090  1.00  0.00     0.029 A 
ATOM     19  N   UNL A   1      44.390  28.932  27.969  1.00  0.00    -0.354 N 
ATOM     20  C   UNL A   1      39.461  28.907  27.873  1.00  0.00     0.074 A 
ATOM     21  C   UNL A   1      39.667  29.091  26.453  1.00  0.00     0.031 C 
ATOM     22  C   UNL A   1      45.254  27.837  29.735  1.00  0.00     0.029 A 
ATOM     23  C   UNL A   1      45.281  29.119  29.033  1.00  0.00     0.049 A 
ATOM     24  H   UNL A   1      44.234  29.605  27.268  1.00  0.00     0.167 HD
ATOM     25  C   UNL A   1      38.407  29.209  28.682  1.00  0.00     0.034 A 
ATOM     26  C   UNL A   1      45.513  30.316  29.646  1.00  0.00     0.034 A 
ATOM     27  C   UNL A   1      38.592  28.882  30.070  1.00  0.00     0.049 A 
ATOM     28  C   UNL A   1      44.178  30.535  30.329  1.00  0.00     0.074 A 
ATOM     29  C   UNL A   1      38.191  27.914  30.964  1.00  0.00     0.029 A 
ATOM     30  N   UNL A   1      39.416  29.698  30.810  1.00  0.00    -0.354 N 
ATOM     31  N   UNL A   1      43.741  29.928  31.401  1.00  0.00    -0.248 NA
ATOM     32  C   UNL A   1      43.142  31.215  29.551  1.00  0.00     0.031 C 
ATOM     33  C   UNL A   1      39.156  27.949  32.025  1.00  0.00     0.029 A 
ATOM     34  C   UNL A   1      40.114  28.907  31.686  1.00  0.00     0.049 A 
ATOM     35  H   UNL A   1      39.491  30.677  30.726  1.00  0.00     0.167 HD
ATOM     36  C   UNL A   1      42.345  29.925  31.292  1.00  0.00     0.074 A 
ATOM     37  C   UNL A   1      42.052  30.739  30.130  1.00  0.00     0.031 C 
ATOM     38  C   UNL A   1      41.510  29.135  32.032  1.00  0.00     0.034 A 
BRANCH  25  39
ATOM     39  C   UNL A   1      37.257  30.051  28.275  1.00  0.00     0.023 A 
ATOM     40  C   UNL A   1      36.056  29.551  27.748  1.00  0.00     0.031 A 
ATOM     41  C   UNL A   1      37.333  31.418  28.604  1.00  0.00     0.131 A 
ATOM     42  C   UNL A   1      34.965  30.427  27.595  1.00  0.00     0.055 A 
ATOM     43  C   UNL A   1      36.247  32.274  28.466  1.00  0.00     0.041 A 
ATOM     44  F   UNL A   1      38.469  31.926  29.113  1.00  0.00    -0.206 F 
ATOM     45  C   UNL A   1      35.051  31.777  27.965  1.00  0.00     0.022 A 
BRANCH  42  46
ATOM     46  S   UNL A   1      33.365  29.863  26.945  1.00  0.00     0.124 S 
ATOM     47  O   UNL A   1      33.131  28.643  27.712  1.00  0.00    -0.237 OA
ATOM     48  O   UNL A   1      32.492  30.986  27.277  1.00  0.00    -0.237 OA
ATOM     49  O   UNL A   1      33.615  29.667  25.521  1.00  0.00    -0.744 OA
ENDBRANCH  42  46
ENDBRANCH  25  39
BRANCH  26  50
ATOM     50  C   UNL A   1      46.165  31.374  28.796  1.00  0.00     0.023 A 
ATOM     51  C   UNL A   1      45.466  32.323  28.034  1.00  0.00     0.031 A 
ATOM     52  C   UNL A   1      47.574  31.408  28.703  1.00  0.00     0.131 A 
ATOM     53  C   UNL A   1      46.133  33.078  27.056  1.00  0.00     0.055 A 
ATOM     54  C   UNL A   1      48.246  32.227  27.788  1.00  0.00     0.041 A 
ATOM     55  F   UNL A   1      48.327  30.628  29.495  1.00  0.00    -0.206 F 
ATOM     56  C   UNL A   1      47.520  33.034  26.924  1.00  0.00     0.022 A 
BRANCH  53  57
ATOM     57  S   UNL A   1      45.190  34.043  25.842  1.00  0.00     0.124 S 
ATOM     58  O   UNL A   1      46.172  35.024  25.389  1.00  0.00    -0.237 OA
ATOM     59  O   UNL A   1      44.835  33.010  24.873  1.00  0.00    -0.237 OA
ATOM     60  O   UNL A   1      44.081  34.580  26.624  1.00  0.00    -0.744 OA
ENDBRANCH  53  57
ENDBRANCH  26  50
BRANCH  38  61
ATOM     61  C   UNL A   1      42.140  28.312  33.122  1.00  0.00     0.023 A 
ATOM     62  C   UNL A   1      43.017  27.252  32.808  1.00  0.00     0.031 A 
ATOM     63  C   UNL A   1      41.792  28.497  34.469  1.00  0.00     0.131 A 
ATOM     64  C   UNL A   1      43.446  26.371  33.810  1.00  0.00     0.055 A 
ATOM     65  C   UNL A   1      42.284  27.661  35.476  1.00  0.00     0.041 A 
ATOM     66  F   UNL A   1      40.925  29.459  34.829  1.00  0.00    -0.206 F 
ATOM     67  C   UNL A   1      43.097  26.581  35.147  1.00  0.00     0.022 A 
BRANCH  64  68
ATOM     68  S   UNL A   1      44.381  24.870  33.403  1.00  0.00     0.124 S 
ATOM     69  O   UNL A   1      44.498  24.954  31.949  1.00  0.00    -0.237 OA
ATOM     70  O   UNL A   1      45.626  25.080  34.139  1.00  0.00    -0.237 OA
ATOM     71  O   UNL A   1      43.544  23.781  33.897  1.00  0.00    -0.744 OA
ENDBRANCH  64  68
ENDBRANCH  38  61
ENDBRANCH  12  13
ENDBRANCH   5   7
ENDBRANCH   2   3
ENDBRANCH   1   2
BRANCH   1  72
ATOM     72  C   UNL A   1      36.746  21.192  24.968  1.00  0.00     0.117 C 
BRANCH  72  73
ATOM     73  N   UNL A   1      35.976  21.533  26.149  1.00  0.00    -0.356 N 
ATOM     74  C   UNL A   1      34.667  21.710  26.421  1.00  0.00     0.223 C 
ATOM     75  H   UNL A   1      36.545  21.668  26.941  1.00  0.00     0.163 HD
ATOM     76  O   UNL A   1      34.404  21.910  27.616  1.00  0.00    -0.275 OA
BRANCH  74  77
ATOM     77  C   UNL A   1      33.498  21.751  25.428  1.00  0.00     0.081 C 
ATOM     78  C   UNL A   1      33.649  21.876  23.924  1.00  0.00     0.030 C 
ATOM     79  C   UNL A   1      32.444  22.749  25.904  1.00  0.00     0.030 C 
ATOM     80  C   UNL A   1      33.754  23.291  23.365  1.00  0.00     0.103 C 
ATOM     81  C   UNL A   1      32.825  24.168  25.529  1.00  0.00     0.103 C 
ATOM     82  N   UNL A   1      32.929  24.336  24.056  1.00  0.00    -0.198 NA
BRANCH  82  83
ATOM     83  S   UNL A   1      33.459  25.915  23.530  1.00  0.00     0.243 S 
ATOM     84  O   UNL A   1      34.269  26.495  24.574  1.00  0.00    -0.207 OA
ATOM     85  O   UNL A   1      34.006  25.731  22.198  1.00  0.00    -0.207 OA
BRANCH  83  86
ATOM     86  C   UNL A   1      32.017  26.937  23.389  1.00  0.00     0.084 A 
ATOM     87  C   UNL A   1      32.097  28.159  22.719  1.00  0.00     0.024 A 
ATOM     88  C   UNL A   1      30.781  26.409  23.787  1.00  0.00     0.043 A 
ATOM     89  C   UNL A   1      30.948  28.932  22.518  1.00  0.00     0.031 A 
ATOM     90  C   UNL A   1      29.633  27.173  23.529  1.00  0.00     0.059 A 
ATOM     91  C   UNL A   1      29.695  28.433  22.922  1.00  0.00     0.085 A 
ATOM     92  S   UNL A   1      27.980  26.785  23.836  1.00  0.00    -0.077 S 
ATOM     93  N   UNL A   1      28.479  29.072  22.760  1.00  0.00    -0.203 NA
ATOM     94  C   UNL A   1      27.530  28.280  23.175  1.00  0.00     0.271 A 
BRANCH  94  95
ATOM     95  O   UNL A   1      26.278  28.680  23.069  1.00  0.00    -0.486 OA
ATOM     96  H   UNL A   1      25.840  28.635  22.243  1.00  0.00     0.296 HD
ENDBRANCH  94  95
ENDBRANCH  83  86
ENDBRANCH  82  83
ENDBRANCH  74  77
ENDBRANCH  72  73
ENDBRANCH   1  72
TORSDOF 16
ENDMDL
MODEL 2
REMARK VINA RESULT:     -12.5      1.589      2.061
REMARK SMILES O=C(NCCCNC(=O)C1CCN(S(=O)(=O)c2ccc3nc(O)sc3c2)CC1)c1ccc(-c2c3nc(c(-c4cc(S(=O)(=O)[O-])ccc4F)c4ccc([nH]4)c(-c4cc(S(=O)(=O)[O-])ccc4F)c4nc(c(-c5cc(S(=O)(=O)[O-])ccc5F)c5ccc2[nH]5)C=C4)C=C3)cc1
REMARK SMILES IDX 5 1 4 2 3 3 1 4 2 5 29 7 30 8 91 9 31 10 90 11 32 12 33 13
REMARK SMILES IDX 34 14 84 15 35 16 89 17 83 18 85 19 36 20 88 21 82 22 81 23
REMARK SMILES IDX 37 25 69 26 49 27 68 28 50 29 53 30 67 31 86 32 51 33 52 34
REMARK SMILES IDX 66 36 87 37 54 38 38 39 39 40 47 41 40 42 46 43 48 44 45 45
REMARK SMILES IDX 41 46 42 47 43 48 44 49 70 50 71 51 79 52 72 53 78 54 80 55
REMARK SMILES IDX 77 56 73 57 74 58 75 59 76 60 55 61 56 62 64 63 57 64 63 65
REMARK SMILES IDX 65 66 62 67 58 68 59 69 60 70 61 71 6 72 7 73 8 74 9 76
REMARK SMILES IDX 10 77 11 78 28 79 12 80 27 81 13 82 14 83 15 84 16 85 17 86
REMARK SMILES IDX 18 87 26 88 19 89 25 90 20 91 24 92 21 93 22 94 23 95
REMARK H PARENT 3 6 85 24 53 35 7 75 23 96
REMARK Flexibility Score: inf
ROOT
ATOM      1  C   UNL A   1      39.429  21.033  26.089  1.00  0.00     0.042 C 
ENDROOT
BRANCH   1   2
ATOM      2  C   UNL A   1      40.924  21.345  25.992  1.00  0.00     0.118 C 
BRANCH   2   3
ATOM      3  N   UNL A   1      41.524  21.283  27.313  1.00  0.00    -0.352 N 
ATOM      4  O   UNL A   1      43.258  21.643  28.646  1.00  0.00    -0.269 OA
ATOM      5  C   UNL A   1      42.394  22.144  27.921  1.00  0.00     0.251 C 
ATOM      6  H   UNL A   1      41.264  20.501  27.853  1.00  0.00     0.163 HD
BRANCH   5   7
ATOM      7  C   UNL A   1      42.268  23.625  27.838  1.00  0.00     0.039 A 
ATOM      8  C   UNL A   1      43.375  24.317  27.320  1.00  0.00     0.014 A 
ATOM      9  C   UNL A   1      41.225  24.352  28.418  1.00  0.00     0.014 A 
ATOM     10  C   UNL A   1      43.461  25.705  27.416  1.00  0.00     0.010 A 
ATOM     11  C   UNL A   1      41.303  25.749  28.497  1.00  0.00     0.010 A 
ATOM     12  C   UNL A   1      42.429  26.431  28.014  1.00  0.00    -0.014 A 
BRANCH  12  13
ATOM     13  C   UNL A   1      42.550  27.905  28.046  1.00  0.00     0.031 A 
ATOM     14  C   UNL A   1      41.265  28.630  27.804  1.00  0.00     0.074 A 
ATOM     15  C   UNL A   1      43.564  28.516  28.700  1.00  0.00     0.049 A 
ATOM     16  N   UNL A   1      40.364  28.764  28.733  1.00  0.00    -0.248 NA
ATOM     17  C   UNL A   1      40.791  28.989  26.469  1.00  0.00     0.031 C 
ATOM     18  C   UNL A   1      44.216  27.934  29.885  1.00  0.00     0.029 A 
ATOM     19  N   UNL A   1      44.060  29.802  28.646  1.00  0.00    -0.354 N 
ATOM     20  C   UNL A   1      39.196  29.190  28.124  1.00  0.00     0.074 A 
ATOM     21  C   UNL A   1      39.512  29.324  26.718  1.00  0.00     0.031 C 
ATOM     22  C   UNL A   1      44.873  28.910  30.544  1.00  0.00     0.029 A 
ATOM     23  C   UNL A   1      44.821  30.149  29.769  1.00  0.00     0.049 A 
ATOM     24  H   UNL A   1      43.896  30.415  27.893  1.00  0.00     0.167 HD
ATOM     25  C   UNL A   1      38.044  29.406  28.818  1.00  0.00     0.034 A 
ATOM     26  C   UNL A   1      44.857  31.394  30.325  1.00  0.00     0.034 A 
ATOM     27  C   UNL A   1      38.135  29.176  30.233  1.00  0.00     0.049 A 
ATOM     28  C   UNL A   1      43.448  31.489  30.874  1.00  0.00     0.074 A 
ATOM     29  C   UNL A   1      37.764  28.215  31.148  1.00  0.00     0.029 A 
ATOM     30  N   UNL A   1      38.788  30.121  30.991  1.00  0.00    -0.354 N 
ATOM     31  N   UNL A   1      42.985  30.891  31.940  1.00  0.00    -0.248 NA
ATOM     32  C   UNL A   1      42.420  32.000  29.968  1.00  0.00     0.031 C 
ATOM     33  C   UNL A   1      38.615  28.418  32.284  1.00  0.00     0.029 A 
ATOM     34  C   UNL A   1      39.486  29.463  31.972  1.00  0.00     0.049 A 
ATOM     35  H   UNL A   1      38.760  31.096  30.853  1.00  0.00     0.167 HD
ATOM     36  C   UNL A   1      41.615  30.717  31.710  1.00  0.00     0.074 A 
ATOM     37  C   UNL A   1      41.341  31.429  30.479  1.00  0.00     0.031 C 
ATOM     38  C   UNL A   1      40.808  29.872  32.423  1.00  0.00     0.034 A 
BRANCH  25  39
ATOM     39  C   UNL A   1      36.850  30.084  28.260  1.00  0.00     0.023 A 
ATOM     40  C   UNL A   1      35.737  29.417  27.726  1.00  0.00     0.031 A 
ATOM     41  C   UNL A   1      36.776  31.479  28.445  1.00  0.00     0.131 A 
ATOM     42  C   UNL A   1      34.581  30.160  27.420  1.00  0.00     0.055 A 
ATOM     43  C   UNL A   1      35.626  32.204  28.157  1.00  0.00     0.041 A 
ATOM     44  F   UNL A   1      37.825  32.146  28.958  1.00  0.00    -0.206 F 
ATOM     45  C   UNL A   1      34.517  31.542  27.648  1.00  0.00     0.022 A 
BRANCH  42  46
ATOM     46  S   UNL A   1      33.086  29.377  26.748  1.00  0.00     0.124 S 
ATOM     47  O   UNL A   1      33.356  29.373  25.312  1.00  0.00    -0.237 OA
ATOM     48  O   UNL A   1      33.117  28.066  27.392  1.00  0.00    -0.237 OA
ATOM     49  O   UNL A   1      32.005  30.258  27.178  1.00  0.00    -0.744 OA
ENDBRANCH  42  46
ENDBRANCH  25  39
BRANCH  26  50
ATOM     50  C   UNL A   1      45.463  32.477  29.471  1.00  0.00     0.023 A 
ATOM     51  C   UNL A   1      44.945  32.896  28.235  1.00  0.00     0.031 A 
ATOM     52  C   UNL A   1      46.659  33.098  29.893  1.00  0.00     0.131 A 
ATOM     53  C   UNL A   1      45.717  33.695  27.377  1.00  0.00     0.055 A 
ATOM     54  C   UNL A   1      47.386  33.965  29.071  1.00  0.00     0.041 A 
ATOM     55  F   UNL A   1      47.154  32.857  31.118  1.00  0.00    -0.206 F 
ATOM     56  C   UNL A   1      46.938  34.230  27.784  1.00  0.00     0.022 A 
BRANCH  53  57
ATOM     57  S   UNL A   1      45.205  33.950  25.654  1.00  0.00     0.124 S 
ATOM     58  O   UNL A   1      44.075  34.864  25.794  1.00  0.00    -0.237 OA
ATOM     59  O   UNL A   1      46.417  34.526  25.081  1.00  0.00    -0.237 OA
ATOM     60  O   UNL A   1      44.871  32.605  25.198  1.00  0.00    -0.744 OA
ENDBRANCH  53  57
ENDBRANCH  26  50
BRANCH  38  61
ATOM     61  C   UNL A   1      41.424  29.187  33.612  1.00  0.00     0.023 A 
ATOM     62  C   UNL A   1      42.294  28.090  33.440  1.00  0.00     0.031 A 
ATOM     63  C   UNL A   1      41.066  29.541  34.922  1.00  0.00     0.131 A 
ATOM     64  C   UNL A   1      42.708  27.338  34.548  1.00  0.00     0.055 A 
ATOM     65  C   UNL A   1      41.542  28.833  36.030  1.00  0.00     0.041 A 
ATOM     66  F   UNL A   1      40.204  30.546  35.152  1.00  0.00    -0.206 F 
ATOM     67  C   UNL A   1      42.350  27.715  35.845  1.00  0.00     0.022 A 
BRANCH  64  68
ATOM     68  S   UNL A   1      43.634  25.791  34.340  1.00  0.00     0.124 S 
ATOM     69  O   UNL A   1      44.796  25.999  35.200  1.00  0.00    -0.237 OA
ATOM     70  O   UNL A   1      42.675  24.799  34.821  1.00  0.00    -0.237 OA
ATOM     71  O   UNL A   1      43.922  25.735  32.910  1.00  0.00    -0.744 OA
ENDBRANCH  64  68
ENDBRANCH  38  61
ENDBRANCH  12  13
ENDBRANCH   5   7
ENDBRANCH   2   3
ENDBRANCH   1   2
BRANCH   1  72
ATOM     72  C   UNL A   1      38.471  22.188  25.795  1.00  0.00     0.117 C 
BRANCH  72  73
ATOM     73  N   UNL A   1      37.181  21.736  25.311  1.00  0.00    -0.356 N 
ATOM     74  C   UNL A   1      35.896  22.047  25.574  1.00  0.00     0.223 C 
ATOM     75  H   UNL A   1      37.264  21.033  24.626  1.00  0.00     0.163 HD
ATOM     76  O   UNL A   1      35.062  21.479  24.854  1.00  0.00    -0.275 OA
BRANCH  74  77
ATOM     77  C   UNL A   1      35.359  22.962  26.683  1.00  0.00     0.081 C 
ATOM     78  C   UNL A   1      34.218  22.606  27.616  1.00  0.00     0.030 C 
ATOM     79  C   UNL A   1      35.130  24.368  26.133  1.00  0.00     0.030 C 
ATOM     80  C   UNL A   1      32.810  22.918  27.119  1.00  0.00     0.103 C 
ATOM     81  C   UNL A   1      33.804  24.460  25.402  1.00  0.00     0.103 C 
ATOM     82  N   UNL A   1      32.660  24.168  26.304  1.00  0.00    -0.198 NA
BRANCH  82  83
ATOM     83  S   UNL A   1      31.095  24.155  25.528  1.00  0.00     0.243 S 
ATOM     84  O   UNL A   1      30.970  22.929  24.777  1.00  0.00    -0.207 OA
ATOM     85  O   UNL A   1      30.131  24.477  26.566  1.00  0.00    -0.207 OA
BRANCH  83  86
ATOM     86  C   UNL A   1      31.081  25.474  24.343  1.00  0.00     0.084 A 
ATOM     87  C   UNL A   1      31.233  25.186  22.985  1.00  0.00     0.024 A 
ATOM     88  C   UNL A   1      30.725  26.758  24.776  1.00  0.00     0.043 A 
ATOM     89  C   UNL A   1      31.131  26.204  22.031  1.00  0.00     0.031 A 
ATOM     90  C   UNL A   1      30.572  27.755  23.801  1.00  0.00     0.059 A 
ATOM     91  C   UNL A   1      30.789  27.508  22.440  1.00  0.00     0.085 A 
ATOM     92  S   UNL A   1      30.089  29.400  23.996  1.00  0.00    -0.077 S 
ATOM     93  N   UNL A   1      30.624  28.599  21.607  1.00  0.00    -0.203 NA
ATOM     94  C   UNL A   1      30.230  29.617  22.320  1.00  0.00     0.271 A 
BRANCH  94  95
ATOM     95  O   UNL A   1      29.969  30.757  21.711  1.00  0.00    -0.486 OA
ATOM     96  H   UNL A   1      29.166  30.866  21.244  1.00  0.00     0.296 HD
ENDBRANCH  94  95
ENDBRANCH  83  86
ENDBRANCH  82  83
ENDBRANCH  74  77
ENDBRANCH  72  73
ENDBRANCH   1  72
TORSDOF 16
ENDMDL
MODEL 3
REMARK VINA RESULT:     -12.4      2.578      3.106
REMARK SMILES O=C(NCCCNC(=O)C1CCN(S(=O)(=O)c2ccc3nc(O)sc3c2)CC1)c1ccc(-c2c3nc(c(-c4cc(S(=O)(=O)[O-])ccc4F)c4ccc([nH]4)c(-c4cc(S(=O)(=O)[O-])ccc4F)c4nc(c(-c5cc(S(=O)(=O)[O-])ccc5F)c5ccc2[nH]5)C=C4)C=C3)cc1
REMARK SMILES IDX 5 1 4 2 3 3 1 4 2 5 29 7 30 8 91 9 31 10 90 11 32 12 33 13
REMARK SMILES IDX 34 14 84 15 35 16 89 17 83 18 85 19 36 20 88 21 82 22 81 23
REMARK SMILES IDX 37 25 69 26 49 27 68 28 50 29 53 30 67 31 86 32 51 33 52 34
REMARK SMILES IDX 66 36 87 37 54 38 38 39 39 40 47 41 40 42 46 43 48 44 45 45
REMARK SMILES IDX 41 46 42 47 43 48 44 49 70 50 71 51 79 52 72 53 78 54 80 55
REMARK SMILES IDX 77 56 73 57 74 58 75 59 76 60 55 61 56 62 64 63 57 64 63 65
REMARK SMILES IDX 65 66 62 67 58 68 59 69 60 70 61 71 6 72 7 73 8 74 9 76
REMARK SMILES IDX 10 77 11 78 28 79 12 80 27 81 13 82 14 83 15 84 16 85 17 86
REMARK SMILES IDX 18 87 26 88 19 89 25 90 20 91 24 92 21 93 22 94 23 95
REMARK H PARENT 3 6 85 24 53 35 7 75 23 96
REMARK Flexibility Score: inf
ROOT
ATOM      1  C   UNL A   1      40.661  21.121  27.023  1.00  0.00     0.042 C 
ENDROOT
BRANCH   1   2
ATOM      2  C   UNL A   1      42.127  21.549  27.121  1.00  0.00     0.118 C 
BRANCH   2   3
ATOM      3  N   UNL A   1      42.484  21.759  28.513  1.00  0.00    -0.352 N 
ATOM      4  O   UNL A   1      43.905  22.529  30.029  1.00  0.00    -0.269 OA
ATOM      5  C   UNL A   1      43.139  22.804  29.102  1.00  0.00     0.251 C 
ATOM      6  H   UNL A   1      42.212  21.038  29.126  1.00  0.00     0.163 HD
BRANCH   5   7
ATOM      7  C   UNL A   1      42.881  24.228  28.755  1.00  0.00     0.039 A 
ATOM      8  C   UNL A   1      44.010  25.055  28.631  1.00  0.00     0.014 A 
ATOM      9  C   UNL A   1      41.610  24.811  28.748  1.00  0.00     0.014 A 
ATOM     10  C   UNL A   1      43.878  26.440  28.545  1.00  0.00     0.010 A 
ATOM     11  C   UNL A   1      41.477  26.201  28.642  1.00  0.00     0.010 A 
ATOM     12  C   UNL A   1      42.609  27.024  28.559  1.00  0.00    -0.014 A 
BRANCH  12  13
ATOM     13  C   UNL A   1      42.525  28.494  28.416  1.00  0.00     0.031 A 
ATOM     14  C   UNL A   1      41.166  28.997  28.047  1.00  0.00     0.074 A 
ATOM     15  C   UNL A   1      43.413  29.315  29.023  1.00  0.00     0.049 A 
ATOM     16  N   UNL A   1      40.211  29.107  28.924  1.00  0.00    -0.248 NA
ATOM     17  C   UNL A   1      40.712  29.129  26.664  1.00  0.00     0.031 C 
ATOM     18  C   UNL A   1      44.081  28.972  30.290  1.00  0.00     0.029 A 
ATOM     19  N   UNL A   1      43.730  30.643  28.830  1.00  0.00    -0.354 N 
ATOM     20  C   UNL A   1      39.027  29.291  28.231  1.00  0.00     0.074 A 
ATOM     21  C   UNL A   1      39.390  29.305  26.830  1.00  0.00     0.031 C 
ATOM     22  C   UNL A   1      44.565  30.101  30.847  1.00  0.00     0.029 A 
ATOM     23  C   UNL A   1      44.381  31.221  29.926  1.00  0.00     0.049 A 
ATOM     24  H   UNL A   1      43.520  31.136  28.003  1.00  0.00     0.167 HD
ATOM     25  C   UNL A   1      37.824  29.420  28.857  1.00  0.00     0.034 A 
ATOM     26  C   UNL A   1      44.219  32.515  30.328  1.00  0.00     0.034 A 
ATOM     27  C   UNL A   1      37.877  29.369  30.293  1.00  0.00     0.049 A 
ATOM     28  C   UNL A   1      42.786  32.471  30.817  1.00  0.00     0.074 A 
ATOM     29  C   UNL A   1      37.598  28.477  31.304  1.00  0.00     0.029 A 
ATOM     30  N   UNL A   1      38.357  30.478  30.951  1.00  0.00    -0.354 N 
ATOM     31  N   UNL A   1      42.358  31.941  31.932  1.00  0.00    -0.248 NA
ATOM     32  C   UNL A   1      41.742  32.724  29.824  1.00  0.00     0.031 C 
ATOM     33  C   UNL A   1      38.357  28.928  32.434  1.00  0.00     0.029 A 
ATOM     34  C   UNL A   1      39.090  30.044  32.025  1.00  0.00     0.049 A 
ATOM     35  H   UNL A   1      38.202  31.417  30.695  1.00  0.00     0.167 HD
ATOM     36  C   UNL A   1      41.037  31.549  31.682  1.00  0.00     0.074 A 
ATOM     37  C   UNL A   1      40.728  32.068  30.365  1.00  0.00     0.031 C 
ATOM     38  C   UNL A   1      40.321  30.686  32.465  1.00  0.00     0.034 A 
BRANCH  25  39
ATOM     39  C   UNL A   1      36.576  29.852  28.185  1.00  0.00     0.023 A 
ATOM     40  C   UNL A   1      35.596  28.977  27.692  1.00  0.00     0.031 A 
ATOM     41  C   UNL A   1      36.299  31.233  28.205  1.00  0.00     0.131 A 
ATOM     42  C   UNL A   1      34.365  29.507  27.263  1.00  0.00     0.055 A 
ATOM     43  C   UNL A   1      35.075  31.748  27.795  1.00  0.00     0.041 A 
ATOM     44  F   UNL A   1      37.216  32.097  28.673  1.00  0.00    -0.206 F 
ATOM     45  C   UNL A   1      34.096  30.881  27.328  1.00  0.00     0.022 A 
BRANCH  42  46
ATOM     46  S   UNL A   1      33.030  28.446  26.634  1.00  0.00     0.124 S 
ATOM     47  O   UNL A   1      32.360  28.028  27.863  1.00  0.00    -0.237 OA
ATOM     48  O   UNL A   1      32.276  29.375  25.798  1.00  0.00    -0.237 OA
ATOM     49  O   UNL A   1      33.733  27.389  25.915  1.00  0.00    -0.744 OA
ENDBRANCH  42  46
ENDBRANCH  25  39
BRANCH  26  50
ATOM     50  C   UNL A   1      44.711  33.567  29.369  1.00  0.00     0.023 A 
ATOM     51  C   UNL A   1      44.469  33.556  27.986  1.00  0.00     0.031 A 
ATOM     52  C   UNL A   1      45.512  34.623  29.858  1.00  0.00     0.131 A 
ATOM     53  C   UNL A   1      45.194  34.402  27.133  1.00  0.00     0.055 A 
ATOM     54  C   UNL A   1      46.167  35.523  29.010  1.00  0.00     0.041 A 
ATOM     55  F   UNL A   1      45.686  34.789  31.179  1.00  0.00    -0.206 F 
ATOM     56  C   UNL A   1      46.046  35.384  27.635  1.00  0.00     0.022 A 
BRANCH  53  57
ATOM     57  S   UNL A   1      45.142  34.154  25.335  1.00  0.00     0.124 S 
ATOM     58  O   UNL A   1      45.114  32.699  25.218  1.00  0.00    -0.237 OA
ATOM     59  O   UNL A   1      43.900  34.841  24.990  1.00  0.00    -0.237 OA
ATOM     60  O   UNL A   1      46.366  34.797  24.870  1.00  0.00    -0.744 OA
ENDBRANCH  53  57
ENDBRANCH  26  50
BRANCH  38  61
ATOM     61  C   UNL A   1      40.966  30.237  33.748  1.00  0.00     0.023 A 
ATOM     62  C   UNL A   1      40.960  31.069  34.887  1.00  0.00     0.031 A 
ATOM     63  C   UNL A   1      41.687  29.034  33.818  1.00  0.00     0.131 A 
ATOM     64  C   UNL A   1      41.725  30.730  36.011  1.00  0.00     0.055 A 
ATOM     65  C   UNL A   1      42.387  28.665  34.970  1.00  0.00     0.041 A 
ATOM     66  F   UNL A   1      41.771  28.220  32.752  1.00  0.00    -0.206 F 
ATOM     67  C   UNL A   1      42.426  29.523  36.065  1.00  0.00     0.022 A 
BRANCH  64  68
ATOM     68  S   UNL A   1      41.923  31.888  37.396  1.00  0.00     0.124 S 
ATOM     69  O   UNL A   1      42.685  32.977  36.791  1.00  0.00    -0.237 OA
ATOM     70  O   UNL A   1      40.535  32.207  37.722  1.00  0.00    -0.237 OA
ATOM     71  O   UNL A   1      42.637  31.117  38.409  1.00  0.00    -0.744 OA
ENDBRANCH  64  68
ENDBRANCH  38  61
ENDBRANCH  12  13
ENDBRANCH   5   7
ENDBRANCH   2   3
ENDBRANCH   1   2
BRANCH   1  72
ATOM     72  C   UNL A   1      39.665  22.195  26.586  1.00  0.00     0.117 C 
BRANCH  72  73
ATOM     73  N   UNL A   1      38.867  21.787  25.445  1.00  0.00    -0.356 N 
ATOM     74  C   UNL A   1      37.563  21.865  25.111  1.00  0.00     0.223 C 
ATOM     75  H   UNL A   1      39.407  21.349  24.748  1.00  0.00     0.163 HD
ATOM     76  O   UNL A   1      37.291  21.469  23.968  1.00  0.00    -0.275 OA
BRANCH  74  77
ATOM     77  C   UNL A   1      36.393  22.323  25.992  1.00  0.00     0.081 C 
ATOM     78  C   UNL A   1      35.053  21.618  26.079  1.00  0.00     0.030 C 
ATOM     79  C   UNL A   1      36.155  23.819  25.806  1.00  0.00     0.030 C 
ATOM     80  C   UNL A   1      34.008  22.014  25.041  1.00  0.00     0.103 C 
ATOM     81  C   UNL A   1      35.336  24.092  24.559  1.00  0.00     0.103 C 
ATOM     82  N   UNL A   1      33.993  23.458  24.637  1.00  0.00    -0.198 NA
BRANCH  82  83
ATOM     83  S   UNL A   1      33.011  23.636  23.203  1.00  0.00     0.243 S 
ATOM     84  O   UNL A   1      33.831  23.347  22.051  1.00  0.00    -0.207 OA
ATOM     85  O   UNL A   1      31.802  22.870  23.449  1.00  0.00    -0.207 OA
BRANCH  83  86
ATOM     86  C   UNL A   1      32.558  25.346  23.081  1.00  0.00     0.084 A 
ATOM     87  C   UNL A   1      33.443  26.257  22.503  1.00  0.00     0.024 A 
ATOM     88  C   UNL A   1      31.242  25.713  23.394  1.00  0.00     0.043 A 
ATOM     89  C   UNL A   1      33.063  27.590  22.315  1.00  0.00     0.031 A 
ATOM     90  C   UNL A   1      30.860  27.040  23.147  1.00  0.00     0.059 A 
ATOM     91  C   UNL A   1      31.751  27.990  22.635  1.00  0.00     0.085 A 
ATOM     92  S   UNL A   1      29.318  27.784  23.363  1.00  0.00    -0.077 S 
ATOM     93  N   UNL A   1      31.232  29.262  22.472  1.00  0.00    -0.203 NA
ATOM     94  C   UNL A   1      29.968  29.243  22.794  1.00  0.00     0.271 A 
BRANCH  94  95
ATOM     95  O   UNL A   1      29.265  30.352  22.670  1.00  0.00    -0.486 OA
ATOM     96  H   UNL A   1      29.365  31.042  23.293  1.00  0.00     0.296 HD
ENDBRANCH  94  95
ENDBRANCH  83  86
ENDBRANCH  82  83
ENDBRANCH  74  77
ENDBRANCH  72  73
ENDBRANCH   1  72
TORSDOF 16
ENDMDL
