MODEL 1
REMARK VINA RESULT:     -12.3      0.000      0.000
REMARK SMILES O=C(Cn1cccc1C(=O)N1CC[N@H+]2CCC[C@@H]2C1)NCCCNC(=O)c1ccc(-c2c3nc(c(-c4cc(S(=O)(=O)[O-])ccc4F)c4ccc([nH]4)c(-c4cc(S(=O)(=O)[O-])ccc4F)c4nc(c(-c5cc(S(=O)(=O)[O-])ccc5F)c5ccc2[nH]5)C=C4)C=C3)cc1
REMARK SMILES IDX 22 1 21 2 20 3 1 4 2 5 3 7 4 8 5 9 8 10 6 11 7 12 9 13 10 14
REMARK SMILES IDX 11 15 12 16 19 17 13 18 18 19 14 20 17 21 15 22 16 24 23 25
REMARK SMILES IDX 24 26 25 27 26 29 27 30 28 31 89 32 29 33 88 34 30 35 31 36
REMARK SMILES IDX 32 37 82 38 33 39 87 40 81 41 83 42 34 43 86 44 80 45 79 46
REMARK SMILES IDX 35 48 67 49 47 50 66 51 48 52 51 53 65 54 84 55 49 56 50 57
REMARK SMILES IDX 64 59 85 60 52 61 36 62 37 63 45 64 38 65 44 66 46 67 43 68
REMARK SMILES IDX 39 69 40 70 41 71 42 72 68 73 69 74 77 75 70 76 76 77 78 78
REMARK SMILES IDX 75 79 71 80 72 81 73 82 74 83 53 84 54 85 62 86 55 87 61 88
REMARK SMILES IDX 63 89 60 90 56 91 57 92 58 93 59 94
REMARK H PARENT 20 6 14 23 24 28 83 47 51 58
REMARK Flexibility Score: inf
ROOT
ATOM      1  C   UNL A   1      33.367  28.115  26.081  1.00  0.00     0.042 C 
ENDROOT
BRANCH   1   2
ATOM      2  C   UNL A   1      32.577  26.878  26.537  1.00  0.00     0.117 C 
BRANCH   2   3
ATOM      3  N   UNL A   1      33.140  25.584  26.177  1.00  0.00    -0.354 N 
ATOM      4  O   UNL A   1      31.510  24.383  27.212  1.00  0.00    -0.273 OA
ATOM      5  C   UNL A   1      32.524  24.396  26.505  1.00  0.00     0.239 C 
ATOM      6  H   UNL A   1      33.991  25.557  25.684  1.00  0.00     0.163 HD
BRANCH   5   7
ATOM      7  C   UNL A   1      33.139  23.070  26.074  1.00  0.00     0.222 C 
BRANCH   7   8
ATOM      8  N   UNL A   1      34.192  23.069  25.062  1.00  0.00    -0.334 N 
ATOM      9  C   UNL A   1      35.533  23.103  25.390  1.00  0.00     0.087 A 
ATOM     10  C   UNL A   1      34.061  23.067  23.680  1.00  0.00     0.107 A 
ATOM     11  C   UNL A   1      36.268  22.996  24.236  1.00  0.00     0.020 A 
ATOM     12  C   UNL A   1      35.348  22.951  23.169  1.00  0.00     0.033 A 
BRANCH  10  13
ATOM     13  C   UNL A   1      32.846  22.919  22.911  1.00  0.00     0.270 C 
ATOM     14  O   UNL A   1      32.480  21.783  22.557  1.00  0.00    -0.267 OA
BRANCH  13  15
ATOM     15  N   UNL A   1      31.994  23.991  22.800  1.00  0.00    -0.326 N 
ATOM     16  C   UNL A   1      30.601  24.040  23.283  1.00  0.00     0.181 C 
ATOM     17  C   UNL A   1      32.537  25.210  22.230  1.00  0.00     0.185 C 
ATOM     18  C   UNL A   1      30.216  25.420  23.910  1.00  0.00     0.284 C 
ATOM     19  C   UNL A   1      32.171  26.453  23.009  1.00  0.00     0.204 C 
ATOM     20  N   UNL A   1      30.706  26.532  23.081  1.00  0.00    -0.330 N 
ATOM     21  C   UNL A   1      32.523  27.758  22.320  1.00  0.00     0.073 C 
ATOM     22  C   UNL A   1      30.430  27.878  23.570  1.00  0.00     0.262 C 
ATOM     23  H   UNL A   1      30.213  26.414  22.196  1.00  0.00     0.348 HD
ATOM     24  C   UNL A   1      31.497  28.738  22.881  1.00  0.00     0.068 C 
ENDBRANCH  13  15
ENDBRANCH  10  13
ENDBRANCH   7   8
ENDBRANCH   5   7
ENDBRANCH   2   3
ENDBRANCH   1   2
BRANCH   1  25
ATOM     25  C   UNL A   1      34.620  28.511  26.879  1.00  0.00     0.118 C 
BRANCH  25  26
ATOM     26  N   UNL A   1      34.890  29.930  26.943  1.00  0.00    -0.352 N 
ATOM     27  C   UNL A   1      35.889  30.586  27.630  1.00  0.00     0.251 C 
ATOM     28  H   UNL A   1      34.278  30.505  26.428  1.00  0.00     0.163 HD
ATOM     29  O   UNL A   1      35.738  31.783  27.871  1.00  0.00    -0.269 OA
BRANCH  27  30
ATOM     30  C   UNL A   1      37.117  29.901  28.119  1.00  0.00     0.039 A 
ATOM     31  C   UNL A   1      38.271  29.966  27.329  1.00  0.00     0.014 A 
ATOM     32  C   UNL A   1      37.114  29.068  29.243  1.00  0.00     0.014 A 
ATOM     33  C   UNL A   1      39.419  29.242  27.682  1.00  0.00     0.010 A 
ATOM     34  C   UNL A   1      38.269  28.349  29.606  1.00  0.00     0.010 A 
ATOM     35  C   UNL A   1      39.434  28.431  28.828  1.00  0.00    -0.014 A 
BRANCH  35  36
ATOM     36  C   UNL A   1      40.720  27.756  29.209  1.00  0.00     0.031 A 
ATOM     37  C   UNL A   1      41.135  26.629  28.244  1.00  0.00     0.074 A 
ATOM     38  C   UNL A   1      41.350  28.128  30.365  1.00  0.00     0.049 A 
ATOM     39  N   UNL A   1      41.750  25.503  28.465  1.00  0.00    -0.248 NA
ATOM     40  C   UNL A   1      40.704  26.736  26.828  1.00  0.00     0.031 C 
ATOM     41  C   UNL A   1      40.912  29.226  31.251  1.00  0.00     0.029 A 
ATOM     42  N   UNL A   1      42.469  27.662  31.038  1.00  0.00    -0.354 N 
ATOM     43  C   UNL A   1      41.933  24.858  27.216  1.00  0.00     0.074 A 
ATOM     44  C   UNL A   1      41.163  25.612  26.272  1.00  0.00     0.031 C 
ATOM     45  C   UNL A   1      41.700  29.307  32.348  1.00  0.00     0.029 A 
ATOM     46  C   UNL A   1      42.720  28.276  32.295  1.00  0.00     0.049 A 
ATOM     47  H   UNL A   1      43.049  26.956  30.671  1.00  0.00     0.167 HD
ATOM     48  C   UNL A   1      42.788  23.809  27.008  1.00  0.00     0.034 A 
ATOM     49  C   UNL A   1      43.643  27.957  33.257  1.00  0.00     0.034 A 
ATOM     50  C   UNL A   1      43.441  23.448  28.221  1.00  0.00     0.049 A 
ATOM     51  C   UNL A   1      44.410  26.821  32.723  1.00  0.00     0.074 A 
ATOM     52  C   UNL A   1      43.092  22.746  29.342  1.00  0.00     0.029 A 
ATOM     53  N   UNL A   1      44.704  23.952  28.406  1.00  0.00    -0.354 N 
ATOM     54  N   UNL A   1      45.362  26.895  31.845  1.00  0.00    -0.248 NA
ATOM     55  C   UNL A   1      44.082  25.476  33.220  1.00  0.00     0.031 C 
ATOM     56  C   UNL A   1      44.020  23.159  30.326  1.00  0.00     0.029 A 
ATOM     57  C   UNL A   1      44.882  24.103  29.755  1.00  0.00     0.049 A 
ATOM     58  H   UNL A   1      45.358  24.166  27.702  1.00  0.00     0.167 HD
ATOM     59  C   UNL A   1      45.558  25.580  31.495  1.00  0.00     0.074 A 
ATOM     60  C   UNL A   1      44.996  24.778  32.556  1.00  0.00     0.031 C 
ATOM     61  C   UNL A   1      45.672  25.235  30.190  1.00  0.00     0.034 A 
BRANCH  48  62
ATOM     62  C   UNL A   1      43.318  23.123  25.758  1.00  0.00     0.023 A 
ATOM     63  C   UNL A   1      43.236  21.700  25.727  1.00  0.00     0.031 A 
ATOM     64  C   UNL A   1      44.125  23.702  24.770  1.00  0.00     0.131 A 
ATOM     65  C   UNL A   1      44.008  20.923  24.851  1.00  0.00     0.055 A 
ATOM     66  C   UNL A   1      44.846  22.923  23.845  1.00  0.00     0.041 A 
ATOM     67  F   UNL A   1      44.316  25.026  24.704  1.00  0.00    -0.206 F 
ATOM     68  C   UNL A   1      44.819  21.531  23.904  1.00  0.00     0.022 A 
BRANCH  65  69
ATOM     69  S   UNL A   1      44.056  19.121  25.100  1.00  0.00     0.124 S 
ATOM     70  O   UNL A   1      44.448  18.634  23.783  1.00  0.00    -0.237 OA
ATOM     71  O   UNL A   1      45.058  18.987  26.154  1.00  0.00    -0.237 OA
ATOM     72  O   UNL A   1      42.689  18.797  25.501  1.00  0.00    -0.744 OA
ENDBRANCH  65  69
ENDBRANCH  48  62
BRANCH  49  73
ATOM     73  C   UNL A   1      43.999  28.369  34.683  1.00  0.00     0.023 A 
ATOM     74  C   UNL A   1      44.128  27.510  35.787  1.00  0.00     0.031 A 
ATOM     75  C   UNL A   1      44.259  29.748  34.979  1.00  0.00     0.131 A 
ATOM     76  C   UNL A   1      44.557  28.012  37.048  1.00  0.00     0.055 A 
ATOM     77  C   UNL A   1      44.744  30.225  36.198  1.00  0.00     0.041 A 
ATOM     78  F   UNL A   1      44.052  30.726  34.087  1.00  0.00    -0.206 F 
ATOM     79  C   UNL A   1      44.911  29.350  37.242  1.00  0.00     0.022 A 
BRANCH  76  80
ATOM     80  S   UNL A   1      44.689  26.937  38.506  1.00  0.00     0.124 S 
ATOM     81  O   UNL A   1      43.323  26.441  38.639  1.00  0.00    -0.237 OA
ATOM     82  O   UNL A   1      45.691  25.955  38.109  1.00  0.00    -0.237 OA
ATOM     83  O   UNL A   1      45.117  27.864  39.554  1.00  0.00    -0.744 OA
ENDBRANCH  76  80
ENDBRANCH  49  73
BRANCH  61  84
ATOM     84  C   UNL A   1      46.164  26.360  29.299  1.00  0.00     0.023 A 
ATOM     85  C   UNL A   1      45.252  27.144  28.574  1.00  0.00     0.031 A 
ATOM     86  C   UNL A   1      47.531  26.597  29.062  1.00  0.00     0.131 A 
ATOM     87  C   UNL A   1      45.714  28.115  27.666  1.00  0.00     0.055 A 
ATOM     88  C   UNL A   1      47.992  27.584  28.188  1.00  0.00     0.041 A 
ATOM     89  F   UNL A   1      48.466  25.853  29.658  1.00  0.00    -0.206 F 
ATOM     90  C   UNL A   1      47.079  28.351  27.481  1.00  0.00     0.022 A 
BRANCH  87  91
ATOM     91  S   UNL A   1      44.513  29.091  26.719  1.00  0.00     0.124 S 
ATOM     92  O   UNL A   1      44.187  28.199  25.609  1.00  0.00    -0.237 OA
ATOM     93  O   UNL A   1      43.449  29.319  27.687  1.00  0.00    -0.237 OA
ATOM     94  O   UNL A   1      45.268  30.288  26.345  1.00  0.00    -0.744 OA
ENDBRANCH  87  91
ENDBRANCH  61  84
ENDBRANCH  35  36
ENDBRANCH  27  30
ENDBRANCH  25  26
ENDBRANCH   1  25
TORSDOF 16
ENDMDL
MODEL 2
REMARK VINA RESULT:     -12.2      0.974      2.565
REMARK SMILES O=C(Cn1cccc1C(=O)N1CC[N@H+]2CCC[C@@H]2C1)NCCCNC(=O)c1ccc(-c2c3nc(c(-c4cc(S(=O)(=O)[O-])ccc4F)c4ccc([nH]4)c(-c4cc(S(=O)(=O)[O-])ccc4F)c4nc(c(-c5cc(S(=O)(=O)[O-])ccc5F)c5ccc2[nH]5)C=C4)C=C3)cc1
REMARK SMILES IDX 22 1 21 2 20 3 1 4 2 5 3 7 4 8 5 9 8 10 6 11 7 12 9 13 10 14
REMARK SMILES IDX 11 15 12 16 19 17 13 18 18 19 14 20 17 21 15 22 16 24 23 25
REMARK SMILES IDX 24 26 25 27 26 29 27 30 28 31 89 32 29 33 88 34 30 35 31 36
REMARK SMILES IDX 32 37 82 38 33 39 87 40 81 41 83 42 34 43 86 44 80 45 79 46
REMARK SMILES IDX 35 48 67 49 47 50 66 51 48 52 51 53 65 54 84 55 49 56 50 57
REMARK SMILES IDX 64 59 85 60 52 61 36 62 37 63 45 64 38 65 44 66 46 67 43 68
REMARK SMILES IDX 39 69 40 70 41 71 42 72 68 73 69 74 77 75 70 76 76 77 78 78
REMARK SMILES IDX 75 79 71 80 72 81 73 82 74 83 53 84 54 85 62 86 55 87 61 88
REMARK SMILES IDX 63 89 60 90 56 91 57 92 58 93 59 94
REMARK H PARENT 20 6 14 23 24 28 83 47 51 58
REMARK Flexibility Score: inf
ROOT
ATOM      1  C   UNL A   1      33.298  28.240  25.983  1.00  0.00     0.042 C 
ENDROOT
BRANCH   1   2
ATOM      2  C   UNL A   1      32.420  27.141  26.601  1.00  0.00     0.117 C 
BRANCH   2   3
ATOM      3  N   UNL A   1      32.295  25.908  25.834  1.00  0.00    -0.354 N 
ATOM      4  O   UNL A   1      30.145  25.521  26.463  1.00  0.00    -0.273 OA
ATOM      5  C   UNL A   1      31.119  25.193  25.777  1.00  0.00     0.239 C 
ATOM      6  H   UNL A   1      33.078  25.575  25.340  1.00  0.00     0.163 HD
BRANCH   5   7
ATOM      7  C   UNL A   1      31.032  23.928  24.932  1.00  0.00     0.222 C 
BRANCH   7   8
ATOM      8  N   UNL A   1      31.873  23.807  23.744  1.00  0.00    -0.334 N 
ATOM      9  C   UNL A   1      31.973  24.813  22.804  1.00  0.00     0.087 A 
ATOM     10  C   UNL A   1      32.650  22.729  23.343  1.00  0.00     0.107 A 
ATOM     11  C   UNL A   1      32.905  24.443  21.865  1.00  0.00     0.020 A 
ATOM     12  C   UNL A   1      33.344  23.151  22.215  1.00  0.00     0.033 A 
BRANCH  10  13
ATOM     13  C   UNL A   1      32.926  21.518  24.082  1.00  0.00     0.270 C 
ATOM     14  O   UNL A   1      32.241  20.501  23.868  1.00  0.00    -0.267 OA
BRANCH  13  15
ATOM     15  N   UNL A   1      34.085  21.435  24.815  1.00  0.00    -0.326 N 
ATOM     16  C   UNL A   1      34.892  20.218  25.020  1.00  0.00     0.181 C 
ATOM     17  C   UNL A   1      34.604  22.672  25.371  1.00  0.00     0.185 C 
ATOM     18  C   UNL A   1      36.432  20.488  24.987  1.00  0.00     0.284 C 
ATOM     19  C   UNL A   1      36.092  22.845  25.165  1.00  0.00     0.204 C 
ATOM     20  N   UNL A   1      36.774  21.691  25.764  1.00  0.00    -0.330 N 
ATOM     21  C   UNL A   1      36.705  24.004  25.928  1.00  0.00     0.073 C 
ATOM     22  C   UNL A   1      38.183  22.066  25.794  1.00  0.00     0.262 C 
ATOM     23  H   UNL A   1      36.492  21.456  26.716  1.00  0.00     0.348 HD
ATOM     24  C   UNL A   1      38.151  23.562  26.134  1.00  0.00     0.068 C 
ENDBRANCH  13  15
ENDBRANCH  10  13
ENDBRANCH   7   8
ENDBRANCH   5   7
ENDBRANCH   2   3
ENDBRANCH   1   2
BRANCH   1  25
ATOM     25  C   UNL A   1      34.652  28.547  26.645  1.00  0.00     0.118 C 
BRANCH  25  26
ATOM     26  N   UNL A   1      34.792  29.885  27.175  1.00  0.00    -0.352 N 
ATOM     27  C   UNL A   1      35.750  30.372  28.039  1.00  0.00     0.251 C 
ATOM     28  H   UNL A   1      34.113  30.535  26.881  1.00  0.00     0.163 HD
ATOM     29  O   UNL A   1      35.498  31.401  28.663  1.00  0.00    -0.269 OA
BRANCH  27  30
ATOM     30  C   UNL A   1      37.051  29.687  28.271  1.00  0.00     0.039 A 
ATOM     31  C   UNL A   1      37.211  28.950  29.451  1.00  0.00     0.014 A 
ATOM     32  C   UNL A   1      38.161  29.885  27.443  1.00  0.00     0.014 A 
ATOM     33  C   UNL A   1      38.452  28.385  29.777  1.00  0.00     0.010 A 
ATOM     34  C   UNL A   1      39.405  29.308  27.762  1.00  0.00     0.010 A 
ATOM     35  C   UNL A   1      39.562  28.550  28.933  1.00  0.00    -0.014 A 
BRANCH  35  36
ATOM     36  C   UNL A   1      40.838  27.842  29.283  1.00  0.00     0.031 A 
ATOM     37  C   UNL A   1      41.199  26.703  28.310  1.00  0.00     0.074 A 
ATOM     38  C   UNL A   1      41.507  28.198  30.423  1.00  0.00     0.049 A 
ATOM     39  N   UNL A   1      41.789  25.562  28.518  1.00  0.00    -0.248 NA
ATOM     40  C   UNL A   1      40.735  26.819  26.906  1.00  0.00     0.031 C 
ATOM     41  C   UNL A   1      41.120  29.309  31.317  1.00  0.00     0.029 A 
ATOM     42  N   UNL A   1      42.629  27.704  31.068  1.00  0.00    -0.354 N 
ATOM     43  C   UNL A   1      41.924  24.910  27.266  1.00  0.00     0.074 A 
ATOM     44  C   UNL A   1      41.151  25.683  26.341  1.00  0.00     0.031 C 
ATOM     45  C   UNL A   1      41.937  29.371  32.394  1.00  0.00     0.029 A 
ATOM     46  C   UNL A   1      42.928  28.313  32.318  1.00  0.00     0.049 A 
ATOM     47  H   UNL A   1      43.180  26.982  30.688  1.00  0.00     0.167 HD
ATOM     48  C   UNL A   1      42.745  23.839  27.040  1.00  0.00     0.034 A 
ATOM     49  C   UNL A   1      43.866  27.971  33.257  1.00  0.00     0.034 A 
ATOM     50  C   UNL A   1      43.418  23.462  28.236  1.00  0.00     0.049 A 
ATOM     51  C   UNL A   1      44.589  26.814  32.706  1.00  0.00     0.074 A 
ATOM     52  C   UNL A   1      43.079  22.771  29.368  1.00  0.00     0.029 A 
ATOM     53  N   UNL A   1      44.698  23.933  28.389  1.00  0.00    -0.354 N 
ATOM     54  N   UNL A   1      45.520  26.861  31.805  1.00  0.00    -0.248 NA
ATOM     55  C   UNL A   1      44.237  25.479  33.214  1.00  0.00     0.031 C 
ATOM     56  C   UNL A   1      44.042  23.160  30.327  1.00  0.00     0.029 A 
ATOM     57  C   UNL A   1      44.914  24.080  29.733  1.00  0.00     0.049 A 
ATOM     58  H   UNL A   1      45.340  24.128  27.669  1.00  0.00     0.167 HD
ATOM     59  C   UNL A   1      45.673  25.541  31.452  1.00  0.00     0.074 A 
ATOM     60  C   UNL A   1      45.116  24.756  32.529  1.00  0.00     0.031 C 
ATOM     61  C   UNL A   1      45.744  25.191  30.146  1.00  0.00     0.034 A 
BRANCH  48  62
ATOM     62  C   UNL A   1      43.225  23.136  25.778  1.00  0.00     0.023 A 
ATOM     63  C   UNL A   1      43.090  21.718  25.746  1.00  0.00     0.031 A 
ATOM     64  C   UNL A   1      44.034  23.688  24.777  1.00  0.00     0.131 A 
ATOM     65  C   UNL A   1      43.816  20.915  24.854  1.00  0.00     0.055 A 
ATOM     66  C   UNL A   1      44.708  22.886  23.836  1.00  0.00     0.041 A 
ATOM     67  F   UNL A   1      44.272  25.004  24.709  1.00  0.00    -0.206 F 
ATOM     68  C   UNL A   1      44.631  21.495  23.892  1.00  0.00     0.022 A 
BRANCH  65  69
ATOM     69  S   UNL A   1      43.803  19.112  25.098  1.00  0.00     0.124 S 
ATOM     70  O   UNL A   1      43.975  18.611  23.740  1.00  0.00    -0.237 OA
ATOM     71  O   UNL A   1      44.936  18.919  25.999  1.00  0.00    -0.237 OA
ATOM     72  O   UNL A   1      42.492  18.860  25.691  1.00  0.00    -0.744 OA
ENDBRANCH  65  69
ENDBRANCH  48  62
BRANCH  49  73
ATOM     73  C   UNL A   1      44.268  28.375  34.673  1.00  0.00     0.023 A 
ATOM     74  C   UNL A   1      44.267  27.543  35.805  1.00  0.00     0.031 A 
ATOM     75  C   UNL A   1      44.719  29.712  34.927  1.00  0.00     0.131 A 
ATOM     76  C   UNL A   1      44.756  28.021  37.053  1.00  0.00     0.055 A 
ATOM     77  C   UNL A   1      45.260  30.156  36.136  1.00  0.00     0.041 A 
ATOM     78  F   UNL A   1      44.658  30.679  34.003  1.00  0.00    -0.206 F 
ATOM     79  C   UNL A   1      45.294  29.301  37.209  1.00  0.00     0.022 A 
BRANCH  76  80
ATOM     80  S   UNL A   1      44.725  26.987  38.547  1.00  0.00     0.124 S 
ATOM     81  O   UNL A   1      45.828  26.067  38.298  1.00  0.00    -0.237 OA
ATOM     82  O   UNL A   1      44.925  27.950  39.624  1.00  0.00    -0.237 OA
ATOM     83  O   UNL A   1      43.392  26.387  38.498  1.00  0.00    -0.744 OA
ENDBRANCH  76  80
ENDBRANCH  49  73
BRANCH  61  84
ATOM     84  C   UNL A   1      46.244  26.301  29.241  1.00  0.00     0.023 A 
ATOM     85  C   UNL A   1      45.335  27.121  28.553  1.00  0.00     0.031 A 
ATOM     86  C   UNL A   1      47.609  26.489  28.953  1.00  0.00     0.131 A 
ATOM     87  C   UNL A   1      45.798  28.079  27.631  1.00  0.00     0.055 A 
ATOM     88  C   UNL A   1      48.073  27.463  28.065  1.00  0.00     0.041 A 
ATOM     89  F   UNL A   1      48.537  25.709  29.511  1.00  0.00    -0.206 F 
ATOM     90  C   UNL A   1      47.163  28.266  27.396  1.00  0.00     0.022 A 
BRANCH  87  91
ATOM     91  S   UNL A   1      44.599  29.102  26.733  1.00  0.00     0.124 S 
ATOM     92  O   UNL A   1      44.145  28.203  25.677  1.00  0.00    -0.237 OA
ATOM     93  O   UNL A   1      43.619  29.426  27.760  1.00  0.00    -0.237 OA
ATOM     94  O   UNL A   1      45.400  30.238  26.272  1.00  0.00    -0.744 OA
ENDBRANCH  87  91
ENDBRANCH  61  84
ENDBRANCH  35  36
ENDBRANCH  27  30
ENDBRANCH  25  26
ENDBRANCH   1  25
TORSDOF 16
ENDMDL
MODEL 3
REMARK VINA RESULT:     -12.0      3.669      7.140
REMARK SMILES O=C(Cn1cccc1C(=O)N1CC[N@H+]2CCC[C@@H]2C1)NCCCNC(=O)c1ccc(-c2c3nc(c(-c4cc(S(=O)(=O)[O-])ccc4F)c4ccc([nH]4)c(-c4cc(S(=O)(=O)[O-])ccc4F)c4nc(c(-c5cc(S(=O)(=O)[O-])ccc5F)c5ccc2[nH]5)C=C4)C=C3)cc1
REMARK SMILES IDX 22 1 21 2 20 3 1 4 2 5 3 7 4 8 5 9 8 10 6 11 7 12 9 13 10 14
REMARK SMILES IDX 11 15 12 16 19 17 13 18 18 19 14 20 17 21 15 22 16 24 23 25
REMARK SMILES IDX 24 26 25 27 26 29 27 30 28 31 89 32 29 33 88 34 30 35 31 36
REMARK SMILES IDX 32 37 82 38 33 39 87 40 81 41 83 42 34 43 86 44 80 45 79 46
REMARK SMILES IDX 35 48 67 49 47 50 66 51 48 52 51 53 65 54 84 55 49 56 50 57
REMARK SMILES IDX 64 59 85 60 52 61 36 62 37 63 45 64 38 65 44 66 46 67 43 68
REMARK SMILES IDX 39 69 40 70 41 71 42 72 68 73 69 74 77 75 70 76 76 77 78 78
REMARK SMILES IDX 75 79 71 80 72 81 73 82 74 83 53 84 54 85 62 86 55 87 61 88
REMARK SMILES IDX 63 89 60 90 56 91 57 92 58 93 59 94
REMARK H PARENT 20 6 14 23 24 28 83 47 51 58
REMARK Flexibility Score: inf
ROOT
ATOM      1  C   UNL A   1      37.296  20.098  24.653  1.00  0.00     0.042 C 
ENDROOT
BRANCH   1   2
ATOM      2  C   UNL A   1      35.864  20.506  25.035  1.00  0.00     0.117 C 
BRANCH   2   3
ATOM      3  N   UNL A   1      35.343  21.705  24.394  1.00  0.00    -0.354 N 
ATOM      4  O   UNL A   1      35.264  22.918  26.315  1.00  0.00    -0.273 OA
ATOM      5  C   UNL A   1      35.122  22.875  25.088  1.00  0.00     0.239 C 
ATOM      6  H   UNL A   1      35.140  21.679  23.431  1.00  0.00     0.163 HD
BRANCH   5   7
ATOM      7  C   UNL A   1      34.606  24.111  24.362  1.00  0.00     0.222 C 
BRANCH   7   8
ATOM      8  N   UNL A   1      33.192  24.189  24.006  1.00  0.00    -0.334 N 
ATOM      9  C   UNL A   1      32.256  23.300  24.497  1.00  0.00     0.087 A 
ATOM     10  C   UNL A   1      32.566  25.081  23.147  1.00  0.00     0.107 A 
ATOM     11  C   UNL A   1      31.013  23.689  24.061  1.00  0.00     0.020 A 
ATOM     12  C   UNL A   1      31.204  24.815  23.236  1.00  0.00     0.033 A 
BRANCH  10  13
ATOM     13  C   UNL A   1      33.144  26.242  22.507  1.00  0.00     0.270 C 
ATOM     14  O   UNL A   1      33.592  26.143  21.351  1.00  0.00    -0.267 OA
BRANCH  13  15
ATOM     15  N   UNL A   1      32.962  27.477  23.082  1.00  0.00    -0.326 N 
ATOM     16  C   UNL A   1      31.889  28.433  22.751  1.00  0.00     0.181 C 
ATOM     17  C   UNL A   1      33.858  27.841  24.164  1.00  0.00     0.185 C 
ATOM     18  C   UNL A   1      31.319  29.175  24.005  1.00  0.00     0.284 C 
ATOM     19  C   UNL A   1      33.149  28.445  25.354  1.00  0.00     0.204 C 
ATOM     20  N   UNL A   1      32.404  29.623  24.892  1.00  0.00    -0.330 N 
ATOM     21  C   UNL A   1      34.068  29.045  26.401  1.00  0.00     0.073 C 
ATOM     22  C   UNL A   1      32.002  30.312  26.113  1.00  0.00     0.262 C 
ATOM     23  H   UNL A   1      32.931  30.283  24.320  1.00  0.00     0.348 HD
ATOM     24  C   UNL A   1      33.207  30.128  27.044  1.00  0.00     0.068 C 
ENDBRANCH  13  15
ENDBRANCH  10  13
ENDBRANCH   7   8
ENDBRANCH   5   7
ENDBRANCH   2   3
ENDBRANCH   1   2
BRANCH   1  25
ATOM     25  C   UNL A   1      38.453  20.597  25.534  1.00  0.00     0.118 C 
BRANCH  25  26
ATOM     26  N   UNL A   1      39.545  19.665  25.707  1.00  0.00    -0.352 N 
ATOM     27  C   UNL A   1      40.871  19.933  25.976  1.00  0.00     0.251 C 
ATOM     28  H   UNL A   1      39.312  18.712  25.621  1.00  0.00     0.163 HD
ATOM     29  O   UNL A   1      41.702  19.065  25.718  1.00  0.00    -0.269 OA
BRANCH  27  30
ATOM     30  C   UNL A   1      41.336  21.236  26.528  1.00  0.00     0.039 A 
ATOM     31  C   UNL A   1      41.150  21.481  27.894  1.00  0.00     0.014 A 
ATOM     32  C   UNL A   1      41.795  22.275  25.712  1.00  0.00     0.014 A 
ATOM     33  C   UNL A   1      41.459  22.733  28.443  1.00  0.00     0.010 A 
ATOM     34  C   UNL A   1      42.118  23.530  26.263  1.00  0.00     0.010 A 
ATOM     35  C   UNL A   1      41.954  23.770  27.636  1.00  0.00    -0.014 A 
BRANCH  35  36
ATOM     36  C   UNL A   1      42.359  25.057  28.294  1.00  0.00     0.031 A 
ATOM     37  C   UNL A   1      43.811  25.056  28.810  1.00  0.00     0.074 A 
ATOM     38  C   UNL A   1      41.430  26.051  28.442  1.00  0.00     0.049 A 
ATOM     39  N   UNL A   1      44.344  25.626  29.852  1.00  0.00    -0.248 NA
ATOM     40  C   UNL A   1      44.796  24.202  28.103  1.00  0.00     0.031 C 
ATOM     41  C   UNL A   1      40.050  26.003  27.917  1.00  0.00     0.029 A 
ATOM     42  N   UNL A   1      41.444  27.290  29.063  1.00  0.00    -0.354 N 
ATOM     43  C   UNL A   1      45.734  25.350  29.831  1.00  0.00     0.074 A 
ATOM     44  C   UNL A   1      45.922  24.374  28.799  1.00  0.00     0.031 C 
ATOM     45  C   UNL A   1      39.355  27.105  28.280  1.00  0.00     0.029 A 
ATOM     46  C   UNL A   1      40.199  27.976  29.077  1.00  0.00     0.049 A 
ATOM     47  H   UNL A   1      42.259  27.667  29.468  1.00  0.00     0.167 HD
ATOM     48  C   UNL A   1      46.662  26.013  30.587  1.00  0.00     0.034 A 
ATOM     49  C   UNL A   1      39.843  29.133  29.720  1.00  0.00     0.034 A 
ATOM     50  C   UNL A   1      46.033  26.993  31.407  1.00  0.00     0.049 A 
ATOM     51  C   UNL A   1      41.055  29.603  30.411  1.00  0.00     0.074 A 
ATOM     52  C   UNL A   1      45.319  26.973  32.573  1.00  0.00     0.029 A 
ATOM     53  N   UNL A   1      46.048  28.282  30.934  1.00  0.00    -0.354 N 
ATOM     54  N   UNL A   1      42.049  30.224  29.857  1.00  0.00    -0.248 NA
ATOM     55  C   UNL A   1      41.161  29.354  31.856  1.00  0.00     0.031 C 
ATOM     56  C   UNL A   1      44.609  28.196  32.579  1.00  0.00     0.029 A 
ATOM     57  C   UNL A   1      44.918  28.895  31.407  1.00  0.00     0.049 A 
ATOM     58  H   UNL A   1      46.739  28.689  30.364  1.00  0.00     0.167 HD
ATOM     59  C   UNL A   1      43.010  30.201  30.841  1.00  0.00     0.074 A 
ATOM     60  C   UNL A   1      42.323  29.953  32.087  1.00  0.00     0.031 C 
ATOM     61  C   UNL A   1      44.286  29.864  30.537  1.00  0.00     0.034 A 
BRANCH  48  62
ATOM     62  C   UNL A   1      48.184  26.062  30.573  1.00  0.00     0.023 A 
ATOM     63  C   UNL A   1      48.800  26.379  29.328  1.00  0.00     0.031 A 
ATOM     64  C   UNL A   1      49.041  25.559  31.560  1.00  0.00     0.131 A 
ATOM     65  C   UNL A   1      50.146  26.090  29.062  1.00  0.00     0.055 A 
ATOM     66  C   UNL A   1      50.409  25.334  31.315  1.00  0.00     0.041 A 
ATOM     67  F   UNL A   1      48.588  25.191  32.765  1.00  0.00    -0.206 F 
ATOM     68  C   UNL A   1      50.960  25.565  30.056  1.00  0.00     0.022 A 
BRANCH  65  69
ATOM     69  S   UNL A   1      50.751  26.251  27.353  1.00  0.00     0.124 S 
ATOM     70  O   UNL A   1      51.202  24.898  27.052  1.00  0.00    -0.237 OA
ATOM     71  O   UNL A   1      49.551  26.696  26.648  1.00  0.00    -0.237 OA
ATOM     72  O   UNL A   1      51.811  27.251  27.462  1.00  0.00    -0.744 OA
ENDBRANCH  65  69
ENDBRANCH  48  62
BRANCH  49  73
ATOM     73  C   UNL A   1      38.585  29.958  29.979  1.00  0.00     0.023 A 
ATOM     74  C   UNL A   1      38.281  31.206  29.413  1.00  0.00     0.031 A 
ATOM     75  C   UNL A   1      37.573  29.450  30.859  1.00  0.00     0.131 A 
ATOM     76  C   UNL A   1      37.027  31.830  29.668  1.00  0.00     0.055 A 
ATOM     77  C   UNL A   1      36.319  30.031  31.052  1.00  0.00     0.041 A 
ATOM     78  F   UNL A   1      37.749  28.343  31.593  1.00  0.00    -0.206 F 
ATOM     79  C   UNL A   1      36.032  31.226  30.441  1.00  0.00     0.022 A 
BRANCH  76  80
ATOM     80  S   UNL A   1      36.621  33.465  28.989  1.00  0.00     0.124 S 
ATOM     81  O   UNL A   1      36.008  33.117  27.712  1.00  0.00    -0.237 OA
ATOM     82  O   UNL A   1      35.727  34.031  29.994  1.00  0.00    -0.237 OA
ATOM     83  O   UNL A   1      37.930  34.111  28.896  1.00  0.00    -0.744 OA
ENDBRANCH  76  80
ENDBRANCH  49  73
BRANCH  61  84
ATOM     84  C   UNL A   1      44.660  30.124  29.089  1.00  0.00     0.023 A 
ATOM     85  C   UNL A   1      44.740  29.062  28.173  1.00  0.00     0.031 A 
ATOM     86  C   UNL A   1      45.053  31.393  28.624  1.00  0.00     0.131 A 
ATOM     87  C   UNL A   1      45.192  29.289  26.859  1.00  0.00     0.055 A 
ATOM     88  C   UNL A   1      45.467  31.627  27.311  1.00  0.00     0.041 A 
ATOM     89  F   UNL A   1      45.071  32.445  29.445  1.00  0.00    -0.206 F 
ATOM     90  C   UNL A   1      45.540  30.569  26.418  1.00  0.00     0.022 A 
BRANCH  87  91
ATOM     91  S   UNL A   1      45.316  27.893  25.708  1.00  0.00     0.124 S 
ATOM     92  O   UNL A   1      46.102  28.457  24.613  1.00  0.00    -0.237 OA
ATOM     93  O   UNL A   1      45.978  26.873  26.509  1.00  0.00    -0.237 OA
ATOM     94  O   UNL A   1      43.920  27.602  25.376  1.00  0.00    -0.744 OA
ENDBRANCH  87  91
ENDBRANCH  61  84
ENDBRANCH  35  36
ENDBRANCH  27  30
ENDBRANCH  25  26
ENDBRANCH   1  25
TORSDOF 16
ENDMDL
