MODEL 1
REMARK VINA RESULT:      -9.7      0.000      0.000
REMARK SMILES CCN(Cc1cccc(C)n1)C(=O)[C@@H]([NH3+])CC(=O)NCCCNC(=O)c1ccc(-c2c3nc(c(-c4cc(S(=O)(=O)[O-])ccc4F)c4ccc([nH]4)c(-c4cc(S(=O)(=O)[O-])ccc4F)c4nc(c(-c5cc(S(=O)(=O)[O-])ccc5F)c5ccc2[nH]5)C=C4)C=C3)cc1
REMARK SMILES IDX 20 1 19 2 17 3 18 4 16 6 14 7 12 8 13 9 3 10 2 11 1 12 4 13
REMARK SMILES IDX 5 14 6 15 11 16 7 17 9 18 8 19 10 20 15 21 21 25 22 26 23 27
REMARK SMILES IDX 24 28 25 30 26 31 27 32 88 33 28 34 87 35 29 36 30 37 31 38
REMARK SMILES IDX 81 39 32 40 86 41 80 42 82 43 33 44 85 45 79 46 78 47 34 49
REMARK SMILES IDX 66 50 46 51 65 52 47 53 50 54 64 55 83 56 48 57 49 58 63 60
REMARK SMILES IDX 84 61 51 62 35 63 36 64 44 65 37 66 43 67 45 68 42 69 38 70
REMARK SMILES IDX 39 71 40 72 41 73 67 74 68 75 76 76 69 77 75 78 77 79 74 80
REMARK SMILES IDX 70 81 71 82 72 83 73 84 52 85 53 86 61 87 54 88 60 89 62 90
REMARK SMILES IDX 59 91 55 92 56 93 57 94 58 95
REMARK H PARENT 19 5 15 22 15 23 15 24 23 29 82 48 50 59
REMARK Flexibility Score: inf
ROOT
ATOM      1  C   UNL A   1      33.787  35.517  29.118  1.00  0.00     0.117 C 
ENDROOT
BRANCH   1   2
ATOM      2  N   UNL A   1      32.858  35.987  30.122  1.00  0.00    -0.356 N 
ATOM      3  C   UNL A   1      32.945  35.888  31.476  1.00  0.00     0.226 C 
ATOM      4  O   UNL A   1      32.004  36.300  32.156  1.00  0.00    -0.275 OA
ATOM      5  H   UNL A   1      32.053  36.439  29.778  1.00  0.00     0.163 HD
BRANCH   3   6
ATOM      6  C   UNL A   1      34.189  35.312  32.129  1.00  0.00     0.175 C 
BRANCH   6   7
ATOM      7  C   UNL A   1      34.065  33.813  32.403  1.00  0.00     0.280 C 
BRANCH   7   8
ATOM      8  C   UNL A   1      35.386  33.059  32.736  1.00  0.00     0.281 C 
ATOM      9  O   UNL A   1      35.463  31.893  32.327  1.00  0.00    -0.268 OA
BRANCH   8  10
ATOM     10  N   UNL A   1      36.427  33.626  33.471  1.00  0.00    -0.332 N 
BRANCH  10  11
ATOM     11  C   UNL A   1      36.653  33.199  34.868  1.00  0.00     0.116 C 
ATOM     12  C   UNL A   1      37.862  32.321  35.158  1.00  0.00     0.027 C 
ENDBRANCH  10  11
BRANCH  10  13
ATOM     13  C   UNL A   1      37.342  34.667  32.963  1.00  0.00     0.175 C 
BRANCH  13  14
ATOM     14  C   UNL A   1      38.202  34.345  31.740  1.00  0.00     0.060 A 
ATOM     15  C   UNL A   1      37.701  33.912  30.514  1.00  0.00     0.026 A 
ATOM     16  N   UNL A   1      39.543  34.477  31.929  1.00  0.00    -0.256 NA
ATOM     17  C   UNL A   1      38.573  33.644  29.462  1.00  0.00     0.004 A 
ATOM     18  C   UNL A   1      40.386  34.189  30.904  1.00  0.00     0.038 A 
ATOM     19  C   UNL A   1      39.938  33.784  29.655  1.00  0.00     0.023 A 
ATOM     20  C   UNL A   1      41.852  34.313  31.186  1.00  0.00     0.067 C 
ENDBRANCH  13  14
ENDBRANCH  10  13
ENDBRANCH   8  10
ENDBRANCH   7   8
BRANCH   7  21
ATOM     21  N   UNL A   1      33.068  33.514  33.463  1.00  0.00    -0.347 N 
ATOM     22  H   UNL A   1      32.198  34.005  33.260  1.00  0.00     0.345 HD
ATOM     23  H   UNL A   1      33.430  33.822  34.366  1.00  0.00     0.345 HD
ATOM     24  H   UNL A   1      32.893  32.509  33.492  1.00  0.00     0.345 HD
ENDBRANCH   7  21
ENDBRANCH   6   7
ENDBRANCH   3   6
ENDBRANCH   1   2
BRANCH   1  25
ATOM     25  C   UNL A   1      33.262  34.282  28.405  1.00  0.00     0.042 C 
BRANCH  25  26
ATOM     26  C   UNL A   1      34.191  33.090  28.483  1.00  0.00     0.118 C 
BRANCH  26  27
ATOM     27  N   UNL A   1      33.665  31.935  27.763  1.00  0.00    -0.352 N 
ATOM     28  C   UNL A   1      34.238  30.716  27.475  1.00  0.00     0.251 C 
ATOM     29  H   UNL A   1      32.747  32.046  27.426  1.00  0.00     0.163 HD
ATOM     30  O   UNL A   1      33.669  29.977  26.679  1.00  0.00    -0.269 OA
BRANCH  28  31
ATOM     31  C   UNL A   1      35.531  30.315  28.082  1.00  0.00     0.039 A 
ATOM     32  C   UNL A   1      35.536  29.762  29.367  1.00  0.00     0.014 A 
ATOM     33  C   UNL A   1      36.738  30.486  27.406  1.00  0.00     0.014 A 
ATOM     34  C   UNL A   1      36.736  29.310  29.926  1.00  0.00     0.010 A 
ATOM     35  C   UNL A   1      37.905  29.918  27.905  1.00  0.00     0.010 A 
ATOM     36  C   UNL A   1      37.924  29.338  29.179  1.00  0.00    -0.014 A 
BRANCH  36  37
ATOM     37  C   UNL A   1      39.202  28.796  29.710  1.00  0.00     0.031 A 
ATOM     38  C   UNL A   1      39.837  29.423  30.925  1.00  0.00     0.074 A 
ATOM     39  C   UNL A   1      39.829  27.795  29.061  1.00  0.00     0.049 A 
ATOM     40  N   UNL A   1      40.993  29.170  31.484  1.00  0.00    -0.248 NA
ATOM     41  C   UNL A   1      39.086  30.512  31.570  1.00  0.00     0.031 C 
ATOM     42  C   UNL A   1      39.338  27.132  27.851  1.00  0.00     0.029 A 
ATOM     43  N   UNL A   1      41.017  27.161  29.325  1.00  0.00    -0.354 N 
ATOM     44  C   UNL A   1      41.113  30.078  32.531  1.00  0.00     0.074 A 
ATOM     45  C   UNL A   1      39.955  30.943  32.468  1.00  0.00     0.031 C 
ATOM     46  C   UNL A   1      40.191  26.155  27.508  1.00  0.00     0.029 A 
ATOM     47  C   UNL A   1      41.319  26.158  28.433  1.00  0.00     0.049 A 
ATOM     48  H   UNL A   1      41.599  27.401  30.081  1.00  0.00     0.167 HD
ATOM     49  C   UNL A   1      42.079  30.162  33.480  1.00  0.00     0.034 A 
ATOM     50  C   UNL A   1      42.386  25.339  28.366  1.00  0.00     0.034 A 
ATOM     51  C   UNL A   1      43.223  29.284  33.531  1.00  0.00     0.049 A 
ATOM     52  C   UNL A   1      43.477  25.484  29.396  1.00  0.00     0.074 A 
ATOM     53  C   UNL A   1      44.242  29.244  34.466  1.00  0.00     0.029 A 
ATOM     54  N   UNL A   1      43.505  28.294  32.597  1.00  0.00    -0.354 N 
ATOM     55  N   UNL A   1      43.556  26.316  30.408  1.00  0.00    -0.248 NA
ATOM     56  C   UNL A   1      44.621  24.571  29.276  1.00  0.00     0.031 C 
ATOM     57  C   UNL A   1      45.175  28.285  34.058  1.00  0.00     0.029 A 
ATOM     58  C   UNL A   1      44.698  27.663  32.915  1.00  0.00     0.049 A 
ATOM     59  H   UNL A   1      42.940  28.073  31.821  1.00  0.00     0.167 HD
ATOM     60  C   UNL A   1      44.741  26.001  31.067  1.00  0.00     0.074 A 
ATOM     61  C   UNL A   1      45.335  24.896  30.343  1.00  0.00     0.031 C 
ATOM     62  C   UNL A   1      45.286  26.569  32.175  1.00  0.00     0.034 A 
BRANCH  49  63
ATOM     63  C   UNL A   1      41.937  31.257  34.514  1.00  0.00     0.023 A 
ATOM     64  C   UNL A   1      42.428  32.557  34.283  1.00  0.00     0.031 A 
ATOM     65  C   UNL A   1      41.364  30.991  35.771  1.00  0.00     0.131 A 
ATOM     66  C   UNL A   1      42.442  33.498  35.323  1.00  0.00     0.055 A 
ATOM     67  C   UNL A   1      41.287  31.967  36.767  1.00  0.00     0.041 A 
ATOM     68  F   UNL A   1      40.894  29.769  36.064  1.00  0.00    -0.206 F 
ATOM     69  C   UNL A   1      41.848  33.222  36.555  1.00  0.00     0.022 A 
BRANCH  66  70
ATOM     70  S   UNL A   1      43.421  35.010  35.101  1.00  0.00     0.124 S 
ATOM     71  O   UNL A   1      43.683  35.397  36.485  1.00  0.00    -0.237 OA
ATOM     72  O   UNL A   1      44.571  34.533  34.342  1.00  0.00    -0.237 OA
ATOM     73  O   UNL A   1      42.517  35.900  34.375  1.00  0.00    -0.744 OA
ENDBRANCH  66  70
ENDBRANCH  49  63
BRANCH  50  74
ATOM     74  C   UNL A   1      42.478  24.301  27.299  1.00  0.00     0.023 A 
ATOM     75  C   UNL A   1      41.697  23.136  27.368  1.00  0.00     0.031 A 
ATOM     76  C   UNL A   1      43.363  24.438  26.216  1.00  0.00     0.131 A 
ATOM     77  C   UNL A   1      41.848  22.133  26.399  1.00  0.00     0.055 A 
ATOM     78  C   UNL A   1      43.470  23.462  25.223  1.00  0.00     0.041 A 
ATOM     79  F   UNL A   1      44.130  25.534  26.099  1.00  0.00    -0.206 F 
ATOM     80  C   UNL A   1      42.718  22.295  25.318  1.00  0.00     0.022 A 
BRANCH  77  81
ATOM     81  S   UNL A   1      40.948  20.574  26.617  1.00  0.00     0.124 S 
ATOM     82  O   UNL A   1      41.809  19.634  25.908  1.00  0.00    -0.237 OA
ATOM     83  O   UNL A   1      40.914  20.443  28.069  1.00  0.00    -0.237 OA
ATOM     84  O   UNL A   1      39.657  20.836  25.985  1.00  0.00    -0.744 OA
ENDBRANCH  77  81
ENDBRANCH  50  74
BRANCH  62  85
ATOM     85  C   UNL A   1      46.566  25.962  32.697  1.00  0.00     0.023 A 
ATOM     86  C   UNL A   1      46.564  24.912  33.631  1.00  0.00     0.031 A 
ATOM     87  C   UNL A   1      47.809  26.453  32.258  1.00  0.00     0.131 A 
ATOM     88  C   UNL A   1      47.779  24.426  34.140  1.00  0.00     0.055 A 
ATOM     89  C   UNL A   1      49.014  25.921  32.716  1.00  0.00     0.041 A 
ATOM     90  F   UNL A   1      47.872  27.459  31.369  1.00  0.00    -0.206 F 
ATOM     91  C   UNL A   1      49.004  24.911  33.674  1.00  0.00     0.022 A 
BRANCH  88  92
ATOM     92  S   UNL A   1      47.736  23.221  35.495  1.00  0.00     0.124 S 
ATOM     93  O   UNL A   1      46.870  23.885  36.463  1.00  0.00    -0.237 OA
ATOM     94  O   UNL A   1      47.179  22.039  34.845  1.00  0.00    -0.237 OA
ATOM     95  O   UNL A   1      49.138  23.105  35.894  1.00  0.00    -0.744 OA
ENDBRANCH  88  92
ENDBRANCH  62  85
ENDBRANCH  36  37
ENDBRANCH  28  31
ENDBRANCH  26  27
ENDBRANCH  25  26
ENDBRANCH   1  25
TORSDOF 20
ENDMDL
MODEL 2
REMARK VINA RESULT:      -9.7      4.398     10.076
REMARK SMILES CCN(Cc1cccc(C)n1)C(=O)[C@@H]([NH3+])CC(=O)NCCCNC(=O)c1ccc(-c2c3nc(c(-c4cc(S(=O)(=O)[O-])ccc4F)c4ccc([nH]4)c(-c4cc(S(=O)(=O)[O-])ccc4F)c4nc(c(-c5cc(S(=O)(=O)[O-])ccc5F)c5ccc2[nH]5)C=C4)C=C3)cc1
REMARK SMILES IDX 20 1 19 2 17 3 18 4 16 6 14 7 12 8 13 9 3 10 2 11 1 12 4 13
REMARK SMILES IDX 5 14 6 15 11 16 7 17 9 18 8 19 10 20 15 21 21 25 22 26 23 27
REMARK SMILES IDX 24 28 25 30 26 31 27 32 88 33 28 34 87 35 29 36 30 37 31 38
REMARK SMILES IDX 81 39 32 40 86 41 80 42 82 43 33 44 85 45 79 46 78 47 34 49
REMARK SMILES IDX 66 50 46 51 65 52 47 53 50 54 64 55 83 56 48 57 49 58 63 60
REMARK SMILES IDX 84 61 51 62 35 63 36 64 44 65 37 66 43 67 45 68 42 69 38 70
REMARK SMILES IDX 39 71 40 72 41 73 67 74 68 75 76 76 69 77 75 78 77 79 74 80
REMARK SMILES IDX 70 81 71 82 72 83 73 84 52 85 53 86 61 87 54 88 60 89 62 90
REMARK SMILES IDX 59 91 55 92 56 93 57 94 58 95
REMARK H PARENT 19 5 15 22 15 23 15 24 23 29 82 48 50 59
REMARK Flexibility Score: inf
ROOT
ATOM      1  C   UNL A   1      31.943  26.980  26.253  1.00  0.00     0.117 C 
ENDROOT
BRANCH   1   2
ATOM      2  N   UNL A   1      30.732  26.369  26.756  1.00  0.00    -0.356 N 
ATOM      3  C   UNL A   1      30.084  25.263  26.299  1.00  0.00     0.226 C 
ATOM      4  O   UNL A   1      29.020  24.945  26.834  1.00  0.00    -0.275 OA
ATOM      5  H   UNL A   1      30.322  26.814  27.532  1.00  0.00     0.163 HD
BRANCH   3   6
ATOM      6  C   UNL A   1      30.678  24.428  25.179  1.00  0.00     0.175 C 
BRANCH   6   7
ATOM      7  C   UNL A   1      31.078  23.027  25.645  1.00  0.00     0.280 C 
BRANCH   7   8
ATOM      8  C   UNL A   1      32.387  22.926  26.483  1.00  0.00     0.281 C 
ATOM      9  O   UNL A   1      32.283  23.203  27.686  1.00  0.00    -0.268 OA
BRANCH   8  10
ATOM     10  N   UNL A   1      33.621  22.574  25.939  1.00  0.00    -0.332 N 
BRANCH  10  11
ATOM     11  C   UNL A   1      34.168  21.222  26.181  1.00  0.00     0.116 C 
ATOM     12  C   UNL A   1      34.449  20.340  24.973  1.00  0.00     0.027 C 
ENDBRANCH  10  11
BRANCH  10  13
ATOM     13  C   UNL A   1      34.468  23.473  25.130  1.00  0.00     0.175 C 
BRANCH  13  14
ATOM     14  C   UNL A   1      33.923  23.977  23.793  1.00  0.00     0.060 A 
ATOM     15  C   UNL A   1      33.501  23.154  22.751  1.00  0.00     0.026 A 
ATOM     16  N   UNL A   1      33.903  25.331  23.655  1.00  0.00    -0.256 NA
ATOM     17  C   UNL A   1      33.021  23.717  21.571  1.00  0.00     0.004 A 
ATOM     18  C   UNL A   1      33.457  25.869  22.490  1.00  0.00     0.038 A 
ATOM     19  C   UNL A   1      32.996  25.096  21.435  1.00  0.00     0.023 A 
ATOM     20  C   UNL A   1      33.497  27.363  22.382  1.00  0.00     0.067 C 
ENDBRANCH  13  14
ENDBRANCH  10  13
ENDBRANCH   8  10
ENDBRANCH   7   8
BRANCH   7  21
ATOM     21  N   UNL A   1      29.987  22.346  26.387  1.00  0.00    -0.347 N 
ATOM     22  H   UNL A   1      29.180  22.968  26.450  1.00  0.00     0.345 HD
ATOM     23  H   UNL A   1      30.309  22.111  27.326  1.00  0.00     0.345 HD
ATOM     24  H   UNL A   1      29.721  21.493  25.894  1.00  0.00     0.345 HD
ENDBRANCH   7  21
ENDBRANCH   6   7
ENDBRANCH   3   6
ENDBRANCH   1   2
BRANCH   1  25
ATOM     25  C   UNL A   1      31.650  28.272  25.507  1.00  0.00     0.042 C 
BRANCH  25  26
ATOM     26  C   UNL A   1      32.814  29.239  25.480  1.00  0.00     0.118 C 
BRANCH  26  27
ATOM     27  N   UNL A   1      32.427  30.577  25.916  1.00  0.00    -0.352 N 
ATOM     28  C   UNL A   1      32.962  31.400  26.881  1.00  0.00     0.251 C 
ATOM     29  H   UNL A   1      31.651  30.954  25.440  1.00  0.00     0.163 HD
ATOM     30  O   UNL A   1      32.337  32.404  27.205  1.00  0.00    -0.269 OA
BRANCH  28  31
ATOM     31  C   UNL A   1      34.249  31.067  27.542  1.00  0.00     0.039 A 
ATOM     32  C   UNL A   1      35.173  32.089  27.784  1.00  0.00     0.014 A 
ATOM     33  C   UNL A   1      34.559  29.762  27.919  1.00  0.00     0.014 A 
ATOM     34  C   UNL A   1      36.357  31.810  28.472  1.00  0.00     0.010 A 
ATOM     35  C   UNL A   1      35.669  29.510  28.717  1.00  0.00     0.010 A 
ATOM     36  C   UNL A   1      36.593  30.526  28.989  1.00  0.00    -0.014 A 
BRANCH  36  37
ATOM     37  C   UNL A   1      37.804  30.209  29.792  1.00  0.00     0.031 A 
ATOM     38  C   UNL A   1      38.876  29.321  29.215  1.00  0.00     0.074 A 
ATOM     39  C   UNL A   1      37.905  30.655  31.060  1.00  0.00     0.049 A 
ATOM     40  N   UNL A   1      39.954  28.843  29.782  1.00  0.00    -0.248 NA
ATOM     41  C   UNL A   1      38.684  28.877  27.826  1.00  0.00     0.031 C 
ATOM     42  C   UNL A   1      36.914  31.488  31.746  1.00  0.00     0.029 A 
ATOM     43  N   UNL A   1      38.886  30.467  32.000  1.00  0.00    -0.354 N 
ATOM     44  C   UNL A   1      40.555  28.031  28.826  1.00  0.00     0.074 A 
ATOM     45  C   UNL A   1      39.672  28.012  27.681  1.00  0.00     0.031 C 
ATOM     46  C   UNL A   1      37.363  31.779  32.977  1.00  0.00     0.029 A 
ATOM     47  C   UNL A   1      38.639  31.107  33.193  1.00  0.00     0.049 A 
ATOM     48  H   UNL A   1      39.692  29.926  31.837  1.00  0.00     0.167 HD
ATOM     49  C   UNL A   1      41.749  27.389  28.882  1.00  0.00     0.034 A 
ATOM     50  C   UNL A   1      39.358  31.142  34.332  1.00  0.00     0.034 A 
ATOM     51  C   UNL A   1      42.620  27.426  30.033  1.00  0.00     0.049 A 
ATOM     52  C   UNL A   1      40.655  30.378  34.395  1.00  0.00     0.074 A 
ATOM     53  C   UNL A   1      43.869  26.853  30.190  1.00  0.00     0.029 A 
ATOM     54  N   UNL A   1      42.325  28.067  31.230  1.00  0.00    -0.354 N 
ATOM     55  N   UNL A   1      41.235  29.651  33.467  1.00  0.00    -0.248 NA
ATOM     56  C   UNL A   1      41.397  30.444  35.659  1.00  0.00     0.031 C 
ATOM     57  C   UNL A   1      44.295  27.083  31.503  1.00  0.00     0.029 A 
ATOM     58  C   UNL A   1      43.353  27.874  32.141  1.00  0.00     0.049 A 
ATOM     59  H   UNL A   1      41.505  28.583  31.406  1.00  0.00     0.167 HD
ATOM     60  C   UNL A   1      42.429  29.205  34.026  1.00  0.00     0.074 A 
ATOM     61  C   UNL A   1      42.489  29.754  35.365  1.00  0.00     0.031 C 
ATOM     62  C   UNL A   1      43.393  28.419  33.479  1.00  0.00     0.034 A 
BRANCH  49  63
ATOM     63  C   UNL A   1      42.155  26.579  27.670  1.00  0.00     0.023 A 
ATOM     64  C   UNL A   1      41.922  25.193  27.598  1.00  0.00     0.031 A 
ATOM     65  C   UNL A   1      42.839  27.181  26.598  1.00  0.00     0.131 A 
ATOM     66  C   UNL A   1      42.465  24.441  26.546  1.00  0.00     0.055 A 
ATOM     67  C   UNL A   1      43.286  26.441  25.501  1.00  0.00     0.041 A 
ATOM     68  F   UNL A   1      43.111  28.495  26.612  1.00  0.00    -0.206 F 
ATOM     69  C   UNL A   1      43.121  25.060  25.481  1.00  0.00     0.022 A 
BRANCH  66  70
ATOM     70  S   UNL A   1      42.473  22.632  26.694  1.00  0.00     0.124 S 
ATOM     71  O   UNL A   1      42.443  22.456  28.144  1.00  0.00    -0.237 OA
ATOM     72  O   UNL A   1      41.260  22.253  25.979  1.00  0.00    -0.237 OA
ATOM     73  O   UNL A   1      43.726  22.242  26.052  1.00  0.00    -0.744 OA
ENDBRANCH  66  70
ENDBRANCH  49  63
BRANCH  50  74
ATOM     74  C   UNL A   1      38.882  31.935  35.502  1.00  0.00     0.023 A 
ATOM     75  C   UNL A   1      38.287  31.296  36.602  1.00  0.00     0.031 A 
ATOM     76  C   UNL A   1      38.984  33.337  35.529  1.00  0.00     0.131 A 
ATOM     77  C   UNL A   1      37.775  32.059  37.663  1.00  0.00     0.055 A 
ATOM     78  C   UNL A   1      38.523  34.088  36.612  1.00  0.00     0.041 A 
ATOM     79  F   UNL A   1      39.548  33.997  34.505  1.00  0.00    -0.206 F 
ATOM     80  C   UNL A   1      37.903  33.450  37.682  1.00  0.00     0.022 A 
BRANCH  77  81
ATOM     81  S   UNL A   1      36.864  31.210  38.981  1.00  0.00     0.124 S 
ATOM     82  O   UNL A   1      36.687  29.881  38.410  1.00  0.00    -0.237 OA
ATOM     83  O   UNL A   1      37.792  31.309  40.103  1.00  0.00    -0.237 OA
ATOM     84  O   UNL A   1      35.643  32.001  39.114  1.00  0.00    -0.744 OA
ENDBRANCH  77  81
ENDBRANCH  50  74
BRANCH  62  85
ATOM     85  C   UNL A   1      44.619  28.153  34.319  1.00  0.00     0.023 A 
ATOM     86  C   UNL A   1      44.704  27.046  35.181  1.00  0.00     0.031 A 
ATOM     87  C   UNL A   1      45.717  29.032  34.262  1.00  0.00     0.131 A 
ATOM     88  C   UNL A   1      45.836  26.878  35.994  1.00  0.00     0.055 A 
ATOM     89  C   UNL A   1      46.867  28.822  35.023  1.00  0.00     0.041 A 
ATOM     90  F   UNL A   1      45.690  30.109  33.460  1.00  0.00    -0.206 F 
ATOM     91  C   UNL A   1      46.926  27.748  35.906  1.00  0.00     0.022 A 
BRANCH  88  92
ATOM     92  S   UNL A   1      45.823  25.563  37.243  1.00  0.00     0.124 S 
ATOM     93  O   UNL A   1      47.191  25.613  37.749  1.00  0.00    -0.237 OA
ATOM     94  O   UNL A   1      44.786  26.017  38.164  1.00  0.00    -0.237 OA
ATOM     95  O   UNL A   1      45.489  24.364  36.476  1.00  0.00    -0.744 OA
ENDBRANCH  88  92
ENDBRANCH  62  85
ENDBRANCH  36  37
ENDBRANCH  28  31
ENDBRANCH  26  27
ENDBRANCH  25  26
ENDBRANCH   1  25
TORSDOF 20
ENDMDL
MODEL 3
REMARK VINA RESULT:      -9.7      3.818      6.538
REMARK SMILES CCN(Cc1cccc(C)n1)C(=O)[C@@H]([NH3+])CC(=O)NCCCNC(=O)c1ccc(-c2c3nc(c(-c4cc(S(=O)(=O)[O-])ccc4F)c4ccc([nH]4)c(-c4cc(S(=O)(=O)[O-])ccc4F)c4nc(c(-c5cc(S(=O)(=O)[O-])ccc5F)c5ccc2[nH]5)C=C4)C=C3)cc1
REMARK SMILES IDX 20 1 19 2 17 3 18 4 16 6 14 7 12 8 13 9 3 10 2 11 1 12 4 13
REMARK SMILES IDX 5 14 6 15 11 16 7 17 9 18 8 19 10 20 15 21 21 25 22 26 23 27
REMARK SMILES IDX 24 28 25 30 26 31 27 32 88 33 28 34 87 35 29 36 30 37 31 38
REMARK SMILES IDX 81 39 32 40 86 41 80 42 82 43 33 44 85 45 79 46 78 47 34 49
REMARK SMILES IDX 66 50 46 51 65 52 47 53 50 54 64 55 83 56 48 57 49 58 63 60
REMARK SMILES IDX 84 61 51 62 35 63 36 64 44 65 37 66 43 67 45 68 42 69 38 70
REMARK SMILES IDX 39 71 40 72 41 73 67 74 68 75 76 76 69 77 75 78 77 79 74 80
REMARK SMILES IDX 70 81 71 82 72 83 73 84 52 85 53 86 61 87 54 88 60 89 62 90
REMARK SMILES IDX 59 91 55 92 56 93 57 94 58 95
REMARK H PARENT 19 5 15 22 15 23 15 24 23 29 82 48 50 59
REMARK Flexibility Score: inf
ROOT
ATOM      1  C   UNL A   1      30.908  30.894  25.369  1.00  0.00     0.117 C 
ENDROOT
BRANCH   1   2
ATOM      2  N   UNL A   1      29.991  31.157  24.282  1.00  0.00    -0.356 N 
ATOM      3  C   UNL A   1      29.483  30.287  23.368  1.00  0.00     0.226 C 
ATOM      4  O   UNL A   1      28.761  30.731  22.474  1.00  0.00    -0.275 OA
ATOM      5  H   UNL A   1      29.695  32.091  24.192  1.00  0.00     0.163 HD
BRANCH   3   6
ATOM      6  C   UNL A   1      29.776  28.800  23.471  1.00  0.00     0.175 C 
BRANCH   6   7
ATOM      7  C   UNL A   1      31.174  28.444  22.963  1.00  0.00     0.280 C 
BRANCH   7   8
ATOM      8  C   UNL A   1      31.384  26.976  22.489  1.00  0.00     0.281 C 
ATOM      9  O   UNL A   1      31.345  26.790  21.266  1.00  0.00    -0.268 OA
BRANCH   8  10
ATOM     10  N   UNL A   1      31.579  25.908  23.365  1.00  0.00    -0.332 N 
BRANCH  10  11
ATOM     11  C   UNL A   1      30.680  24.737  23.302  1.00  0.00     0.116 C 
ATOM     12  C   UNL A   1      31.291  23.358  23.508  1.00  0.00     0.027 C 
ENDBRANCH  10  11
BRANCH  10  13
ATOM     13  C   UNL A   1      32.630  25.854  24.400  1.00  0.00     0.175 C 
BRANCH  13  14
ATOM     14  C   UNL A   1      32.532  26.815  25.586  1.00  0.00     0.060 A 
ATOM     15  C   UNL A   1      31.407  26.960  26.395  1.00  0.00     0.026 A 
ATOM     16  N   UNL A   1      33.637  27.581  25.798  1.00  0.00    -0.256 NA
ATOM     17  C   UNL A   1      31.422  27.867  27.452  1.00  0.00     0.004 A 
ATOM     18  C   UNL A   1      33.632  28.481  26.815  1.00  0.00     0.038 A 
ATOM     19  C   UNL A   1      32.550  28.641  27.669  1.00  0.00     0.023 A 
ATOM     20  C   UNL A   1      34.861  29.323  26.973  1.00  0.00     0.067 C 
ENDBRANCH  13  14
ENDBRANCH  10  13
ENDBRANCH   8  10
ENDBRANCH   7   8
BRANCH   7  21
ATOM     21  N   UNL A   1      31.632  29.359  21.886  1.00  0.00    -0.347 N 
ATOM     22  H   UNL A   1      31.031  30.183  21.861  1.00  0.00     0.345 HD
ATOM     23  H   UNL A   1      31.587  28.877  20.988  1.00  0.00     0.345 HD
ATOM     24  H   UNL A   1      32.594  29.646  22.070  1.00  0.00     0.345 HD
ENDBRANCH   7  21
ENDBRANCH   6   7
ENDBRANCH   3   6
ENDBRANCH   1   2
BRANCH   1  25
ATOM     25  C   UNL A   1      30.990  32.071  26.329  1.00  0.00     0.042 C 
BRANCH  25  26
ATOM     26  C   UNL A   1      32.384  32.331  26.857  1.00  0.00     0.118 C 
BRANCH  26  27
ATOM     27  N   UNL A   1      32.528  33.685  27.384  1.00  0.00    -0.352 N 
ATOM     28  C   UNL A   1      33.410  34.203  28.305  1.00  0.00     0.251 C 
ATOM     29  H   UNL A   1      31.887  34.337  27.019  1.00  0.00     0.163 HD
ATOM     30  O   UNL A   1      33.205  35.332  28.739  1.00  0.00    -0.269 OA
BRANCH  28  31
ATOM     31  C   UNL A   1      34.563  33.407  28.794  1.00  0.00     0.039 A 
ATOM     32  C   UNL A   1      35.857  33.907  28.619  1.00  0.00     0.014 A 
ATOM     33  C   UNL A   1      34.385  32.171  29.415  1.00  0.00     0.014 A 
ATOM     34  C   UNL A   1      36.951  33.207  29.139  1.00  0.00     0.010 A 
ATOM     35  C   UNL A   1      35.454  31.545  30.044  1.00  0.00     0.010 A 
ATOM     36  C   UNL A   1      36.754  32.044  29.901  1.00  0.00    -0.014 A 
BRANCH  36  37
ATOM     37  C   UNL A   1      37.885  31.315  30.534  1.00  0.00     0.031 A 
ATOM     38  C   UNL A   1      38.289  31.639  31.949  1.00  0.00     0.074 A 
ATOM     39  C   UNL A   1      38.593  30.421  29.816  1.00  0.00     0.049 A 
ATOM     40  N   UNL A   1      39.304  31.196  32.647  1.00  0.00    -0.248 NA
ATOM     41  C   UNL A   1      37.463  32.630  32.658  1.00  0.00     0.031 C 
ATOM     42  C   UNL A   1      38.326  30.050  28.425  1.00  0.00     0.029 A 
ATOM     43  N   UNL A   1      39.684  29.662  30.157  1.00  0.00    -0.354 N 
ATOM     44  C   UNL A   1      39.246  31.865  33.865  1.00  0.00     0.074 A 
ATOM     45  C   UNL A   1      38.153  32.808  33.771  1.00  0.00     0.031 C 
ATOM     46  C   UNL A   1      39.197  29.101  28.048  1.00  0.00     0.029 A 
ATOM     47  C   UNL A   1      40.121  28.837  29.146  1.00  0.00     0.049 A 
ATOM     48  H   UNL A   1      40.114  29.702  31.041  1.00  0.00     0.167 HD
ATOM     49  C   UNL A   1      40.010  31.687  34.972  1.00  0.00     0.034 A 
ATOM     50  C   UNL A   1      41.153  27.972  29.107  1.00  0.00     0.034 A 
ATOM     51  C   UNL A   1      41.092  30.736  35.048  1.00  0.00     0.049 A 
ATOM     52  C   UNL A   1      42.024  27.828  30.328  1.00  0.00     0.074 A 
ATOM     53  C   UNL A   1      41.905  30.435  36.127  1.00  0.00     0.029 A 
ATOM     54  N   UNL A   1      41.518  29.933  33.996  1.00  0.00    -0.354 N 
ATOM     55  N   UNL A   1      41.932  28.434  31.490  1.00  0.00    -0.248 NA
ATOM     56  C   UNL A   1      43.139  26.877  30.233  1.00  0.00     0.031 C 
ATOM     57  C   UNL A   1      42.867  29.511  35.706  1.00  0.00     0.029 A 
ATOM     58  C   UNL A   1      42.604  29.166  34.390  1.00  0.00     0.049 A 
ATOM     59  H   UNL A   1      41.109  29.914  33.100  1.00  0.00     0.167 HD
ATOM     60  C   UNL A   1      42.953  27.908  32.275  1.00  0.00     0.074 A 
ATOM     61  C   UNL A   1      43.640  26.929  31.458  1.00  0.00     0.031 C 
ATOM     62  C   UNL A   1      43.288  28.201  33.559  1.00  0.00     0.034 A 
BRANCH  49  63
ATOM     63  C   UNL A   1      39.704  32.562  36.168  1.00  0.00     0.023 A 
ATOM     64  C   UNL A   1      38.882  32.112  37.219  1.00  0.00     0.031 A 
ATOM     65  C   UNL A   1      40.183  33.883  36.236  1.00  0.00     0.131 A 
ATOM     66  C   UNL A   1      38.473  33.002  38.223  1.00  0.00     0.055 A 
ATOM     67  C   UNL A   1      39.855  34.732  37.295  1.00  0.00     0.041 A 
ATOM     68  F   UNL A   1      40.955  34.381  35.258  1.00  0.00    -0.206 F 
ATOM     69  C   UNL A   1      38.977  34.301  38.284  1.00  0.00     0.022 A 
BRANCH  66  70
ATOM     70  S   UNL A   1      37.124  32.495  39.326  1.00  0.00     0.124 S 
ATOM     71  O   UNL A   1      37.332  33.378  40.471  1.00  0.00    -0.237 OA
ATOM     72  O   UNL A   1      35.939  32.762  38.519  1.00  0.00    -0.237 OA
ATOM     73  O   UNL A   1      37.403  31.083  39.580  1.00  0.00    -0.744 OA
ENDBRANCH  66  70
ENDBRANCH  49  63
BRANCH  50  74
ATOM     74  C   UNL A   1      41.418  27.164  27.882  1.00  0.00     0.023 A 
ATOM     75  C   UNL A   1      41.079  25.801  27.839  1.00  0.00     0.031 A 
ATOM     76  C   UNL A   1      42.037  27.726  26.752  1.00  0.00     0.131 A 
ATOM     77  C   UNL A   1      41.403  25.035  26.709  1.00  0.00     0.055 A 
ATOM     78  C   UNL A   1      42.306  26.972  25.608  1.00  0.00     0.041 A 
ATOM     79  F   UNL A   1      42.378  29.024  26.738  1.00  0.00    -0.206 F 
ATOM     80  C   UNL A   1      42.000  25.614  25.587  1.00  0.00     0.022 A 
BRANCH  77  81
ATOM     81  S   UNL A   1      41.104  23.247  26.760  1.00  0.00     0.124 S 
ATOM     82  O   UNL A   1      41.966  22.772  25.684  1.00  0.00    -0.237 OA
ATOM     83  O   UNL A   1      41.523  22.908  28.116  1.00  0.00    -0.237 OA
ATOM     84  O   UNL A   1      39.669  23.135  26.507  1.00  0.00    -0.744 OA
ENDBRANCH  77  81
ENDBRANCH  50  74
BRANCH  62  85
ATOM     85  C   UNL A   1      44.420  27.410  34.169  1.00  0.00     0.023 A 
ATOM     86  C   UNL A   1      45.748  27.871  34.141  1.00  0.00     0.031 A 
ATOM     87  C   UNL A   1      44.164  26.170  34.781  1.00  0.00     0.131 A 
ATOM     88  C   UNL A   1      46.777  27.070  34.660  1.00  0.00     0.055 A 
ATOM     89  C   UNL A   1      45.182  25.409  35.356  1.00  0.00     0.041 A 
ATOM     90  F   UNL A   1      42.915  25.678  34.834  1.00  0.00    -0.206 F 
ATOM     91  C   UNL A   1      46.499  25.850  35.285  1.00  0.00     0.022 A 
BRANCH  88  92
ATOM     92  S   UNL A   1      48.496  27.595  34.419  1.00  0.00     0.124 S 
ATOM     93  O   UNL A   1      48.804  28.222  35.699  1.00  0.00    -0.237 OA
ATOM     94  O   UNL A   1      49.174  26.330  34.148  1.00  0.00    -0.237 OA
ATOM     95  O   UNL A   1      48.418  28.510  33.282  1.00  0.00    -0.744 OA
ENDBRANCH  88  92
ENDBRANCH  62  85
ENDBRANCH  36  37
ENDBRANCH  28  31
ENDBRANCH  26  27
ENDBRANCH  25  26
ENDBRANCH   1  25
TORSDOF 20
ENDMDL
