MODEL 1
REMARK VINA RESULT:     -12.6      0.000      0.000
REMARK SMILES CC(C)c1cc2c(cc1Cl)C=C(C(=O)NCCCNC(=O)c1ccc(-c3c4nc(c(-c5cc(S(=O)(=O)[O-])ccc5F)c5ccc([nH]5)c(-c5cc(S(=O)(=O)[O-])ccc5F)c5nc(c(-c6cc(S(=O)(=O)[O-])ccc6F)c6ccc3[nH]6)C=C5)C=C4)cc1)[C@@H](C(F)(F)F)O2
REMARK SMILES IDX 18 1 17 2 16 3 15 4 13 5 14 6 12 8 4 9 5 10 9 11 6 12 8 13
REMARK SMILES IDX 10 14 7 15 90 16 11 17 85 18 2 19 1 20 3 21 86 22 87 23
REMARK SMILES IDX 88 24 89 25 19 26 20 27 21 29 22 30 23 31 84 32 24 33 83 34
REMARK SMILES IDX 25 35 26 36 27 37 77 38 28 39 82 40 76 41 78 42 29 43 81 44
REMARK SMILES IDX 75 45 74 46 30 48 62 49 42 50 61 51 43 52 46 53 60 54 79 55
REMARK SMILES IDX 44 56 45 57 59 59 80 60 47 61 31 62 32 63 40 64 33 65 39 66
REMARK SMILES IDX 41 67 38 68 34 69 35 70 36 71 37 72 63 73 64 74 72 75 65 76
REMARK SMILES IDX 71 77 73 78 70 79 66 80 67 81 68 82 69 83 48 84 49 85 57 86
REMARK SMILES IDX 50 87 56 88 58 89 55 90 51 91 52 92 53 93 54 94
REMARK H PARENT 15 7 19 28 78 47 46 58
REMARK Flexibility Score: inf
ROOT
ATOM      1  C   UNL A   1      37.393  21.898  24.902  1.00  0.00     0.118 C 
ENDROOT
BRANCH   1   2
ATOM      2  C   UNL A   1      36.112  21.391  24.254  1.00  0.00     0.042 C 
BRANCH   2   3
ATOM      3  C   UNL A   1      35.481  20.244  25.028  1.00  0.00     0.118 C 
BRANCH   3   4
ATOM      4  N   UNL A   1      34.078  20.056  24.691  1.00  0.00    -0.352 N 
ATOM      5  C   UNL A   1      32.941  20.788  24.738  1.00  0.00     0.251 C 
ATOM      6  O   UNL A   1      31.930  20.220  24.313  1.00  0.00    -0.270 OA
ATOM      7  H   UNL A   1      33.912  19.155  24.331  1.00  0.00     0.163 HD
BRANCH   5   8
ATOM      8  C   UNL A   1      32.840  22.187  25.248  1.00  0.00     0.067 C 
ATOM      9  C   UNL A   1      32.872  27.228  25.705  1.00  0.00    -0.023 A 
ATOM     10  C   UNL A   1      32.403  26.158  26.486  1.00  0.00     0.052 A 
ATOM     11  C   UNL A   1      33.423  26.916  24.443  1.00  0.00     0.045 A 
ATOM     12  C   UNL A   1      32.487  24.843  26.031  1.00  0.00     0.128 A 
ATOM     13  C   UNL A   1      33.501  25.592  23.989  1.00  0.00     0.032 A 
ATOM     14  Cl  UNL A   1      34.031  28.140  23.380  1.00  0.00    -0.084 Cl
ATOM     15  C   UNL A   1      33.036  24.547  24.787  1.00  0.00     0.019 A 
ATOM     16  O   UNL A   1      31.975  23.882  26.855  1.00  0.00    -0.475 OA
ATOM     17  C   UNL A   1      33.087  23.158  24.347  1.00  0.00     0.025 C 
ATOM     18  C   UNL A   1      32.518  22.546  26.672  1.00  0.00     0.314 C 
BRANCH   9  19
ATOM     19  C   UNL A   1      32.813  28.656  26.235  1.00  0.00     0.014 C 
ATOM     20  C   UNL A   1      31.727  28.903  27.293  1.00  0.00     0.012 C 
ATOM     21  C   UNL A   1      34.175  29.070  26.803  1.00  0.00     0.012 C 
ENDBRANCH   9  19
BRANCH  18  22
ATOM     22  C   UNL A   1      33.721  22.363  27.618  1.00  0.00     0.429 C 
ATOM     23  F   UNL A   1      33.462  22.919  28.828  1.00  0.00    -0.167 F 
ATOM     24  F   UNL A   1      34.015  21.060  27.847  1.00  0.00    -0.167 F 
ATOM     25  F   UNL A   1      34.852  22.936  27.146  1.00  0.00    -0.167 F 
ENDBRANCH  18  22
ENDBRANCH   5   8
ENDBRANCH   3   4
ENDBRANCH   2   3
ENDBRANCH   1   2
BRANCH   1  26
ATOM     26  N   UNL A   1      38.218  20.811  25.423  1.00  0.00    -0.352 N 
ATOM     27  C   UNL A   1      39.399  20.844  26.127  1.00  0.00     0.251 C 
ATOM     28  H   UNL A   1      37.873  19.907  25.238  1.00  0.00     0.163 HD
ATOM     29  O   UNL A   1      40.037  19.805  26.280  1.00  0.00    -0.269 OA
BRANCH  27  30
ATOM     30  C   UNL A   1      39.904  22.121  26.672  1.00  0.00     0.039 A 
ATOM     31  C   UNL A   1      39.406  23.334  26.200  1.00  0.00     0.014 A 
ATOM     32  C   UNL A   1      40.886  22.109  27.667  1.00  0.00     0.014 A 
ATOM     33  C   UNL A   1      40.026  24.519  26.565  1.00  0.00     0.010 A 
ATOM     34  C   UNL A   1      41.426  23.316  28.124  1.00  0.00     0.010 A 
ATOM     35  C   UNL A   1      41.038  24.529  27.539  1.00  0.00    -0.014 A 
BRANCH  35  36
ATOM     36  C   UNL A   1      41.638  25.833  27.930  1.00  0.00     0.031 A 
ATOM     37  C   UNL A   1      43.001  26.237  27.440  1.00  0.00     0.074 A 
ATOM     38  C   UNL A   1      40.898  26.686  28.665  1.00  0.00     0.049 A 
ATOM     39  N   UNL A   1      43.629  27.371  27.614  1.00  0.00    -0.248 NA
ATOM     40  C   UNL A   1      43.764  25.248  26.663  1.00  0.00     0.031 C 
ATOM     41  C   UNL A   1      39.566  26.388  29.194  1.00  0.00     0.029 A 
ATOM     42  N   UNL A   1      41.125  27.983  29.053  1.00  0.00    -0.354 N 
ATOM     43  C   UNL A   1      44.864  27.227  26.991  1.00  0.00     0.074 A 
ATOM     44  C   UNL A   1      44.911  25.883  26.460  1.00  0.00     0.031 C 
ATOM     45  C   UNL A   1      39.058  27.491  29.755  1.00  0.00     0.029 A 
ATOM     46  C   UNL A   1      40.057  28.554  29.708  1.00  0.00     0.049 A 
ATOM     47  H   UNL A   1      41.969  28.458  28.880  1.00  0.00     0.167 HD
ATOM     48  C   UNL A   1      45.856  28.139  26.862  1.00  0.00     0.034 A 
ATOM     49  C   UNL A   1      39.894  29.793  30.216  1.00  0.00     0.034 A 
ATOM     50  C   UNL A   1      45.780  29.483  27.378  1.00  0.00     0.049 A 
ATOM     51  C   UNL A   1      41.013  30.786  30.057  1.00  0.00     0.074 A 
ATOM     52  C   UNL A   1      46.726  30.487  27.286  1.00  0.00     0.029 A 
ATOM     53  N   UNL A   1      44.699  30.015  28.066  1.00  0.00    -0.354 N 
ATOM     54  N   UNL A   1      42.160  30.640  29.437  1.00  0.00    -0.248 NA
ATOM     55  C   UNL A   1      40.825  32.110  30.666  1.00  0.00     0.031 C 
ATOM     56  C   UNL A   1      46.242  31.607  27.965  1.00  0.00     0.029 A 
ATOM     57  C   UNL A   1      44.964  31.326  28.423  1.00  0.00     0.049 A 
ATOM     58  H   UNL A   1      43.866  29.531  28.271  1.00  0.00     0.167 HD
ATOM     59  C   UNL A   1      42.827  31.853  29.572  1.00  0.00     0.074 A 
ATOM     60  C   UNL A   1      41.938  32.734  30.302  1.00  0.00     0.031 C 
ATOM     61  C   UNL A   1      44.065  32.200  29.141  1.00  0.00     0.034 A 
BRANCH  48  62
ATOM     62  C   UNL A   1      47.117  27.741  26.132  1.00  0.00     0.023 A 
ATOM     63  C   UNL A   1      47.224  27.952  24.744  1.00  0.00     0.031 A 
ATOM     64  C   UNL A   1      48.153  27.046  26.781  1.00  0.00     0.131 A 
ATOM     65  C   UNL A   1      48.325  27.442  24.045  1.00  0.00     0.055 A 
ATOM     66  C   UNL A   1      49.267  26.574  26.084  1.00  0.00     0.041 A 
ATOM     67  F   UNL A   1      48.100  26.821  28.104  1.00  0.00    -0.206 F 
ATOM     68  C   UNL A   1      49.350  26.761  24.708  1.00  0.00     0.022 A 
BRANCH  65  69
ATOM     69  S   UNL A   1      48.442  27.590  22.241  1.00  0.00     0.124 S 
ATOM     70  O   UNL A   1      47.142  28.167  21.903  1.00  0.00    -0.237 OA
ATOM     71  O   UNL A   1      49.583  28.488  22.082  1.00  0.00    -0.237 OA
ATOM     72  O   UNL A   1      48.650  26.219  21.789  1.00  0.00    -0.744 OA
ENDBRANCH  65  69
ENDBRANCH  48  62
BRANCH  49  73
ATOM     73  C   UNL A   1      38.598  30.146  30.866  1.00  0.00     0.023 A 
ATOM     74  C   UNL A   1      37.596  30.831  30.152  1.00  0.00     0.031 A 
ATOM     75  C   UNL A   1      38.394  29.925  32.239  1.00  0.00     0.131 A 
ATOM     76  C   UNL A   1      36.485  31.347  30.830  1.00  0.00     0.055 A 
ATOM     77  C   UNL A   1      37.245  30.371  32.894  1.00  0.00     0.041 A 
ATOM     78  F   UNL A   1      39.325  29.289  32.966  1.00  0.00    -0.206 F 
ATOM     79  C   UNL A   1      36.293  31.107  32.193  1.00  0.00     0.022 A 
BRANCH  76  80
ATOM     80  S   UNL A   1      35.343  32.488  30.000  1.00  0.00     0.124 S 
ATOM     81  O   UNL A   1      36.215  33.615  29.685  1.00  0.00    -0.237 OA
ATOM     82  O   UNL A   1      34.902  31.692  28.856  1.00  0.00    -0.237 OA
ATOM     83  O   UNL A   1      34.317  32.741  31.006  1.00  0.00    -0.744 OA
ENDBRANCH  76  80
ENDBRANCH  49  73
BRANCH  61  84
ATOM     84  C   UNL A   1      44.565  33.592  29.437  1.00  0.00     0.023 A 
ATOM     85  C   UNL A   1      44.523  34.582  28.437  1.00  0.00     0.031 A 
ATOM     86  C   UNL A   1      45.218  33.891  30.645  1.00  0.00     0.131 A 
ATOM     87  C   UNL A   1      45.161  35.811  28.648  1.00  0.00     0.055 A 
ATOM     88  C   UNL A   1      45.811  35.133  30.868  1.00  0.00     0.041 A 
ATOM     89  F   UNL A   1      45.292  32.975  31.625  1.00  0.00    -0.206 F 
ATOM     90  C   UNL A   1      45.798  36.094  29.861  1.00  0.00     0.022 A 
BRANCH  87  91
ATOM     91  S   UNL A   1      45.268  37.048  27.325  1.00  0.00     0.124 S 
ATOM     92  O   UNL A   1      45.978  36.312  26.282  1.00  0.00    -0.237 OA
ATOM     93  O   UNL A   1      43.861  37.323  27.047  1.00  0.00    -0.237 OA
ATOM     94  O   UNL A   1      46.014  38.146  27.930  1.00  0.00    -0.744 OA
ENDBRANCH  87  91
ENDBRANCH  61  84
ENDBRANCH  35  36
ENDBRANCH  27  30
ENDBRANCH   1  26
TORSDOF 15
ENDMDL
MODEL 2
REMARK VINA RESULT:     -12.5      5.941     10.906
REMARK SMILES CC(C)c1cc2c(cc1Cl)C=C(C(=O)NCCCNC(=O)c1ccc(-c3c4nc(c(-c5cc(S(=O)(=O)[O-])ccc5F)c5ccc([nH]5)c(-c5cc(S(=O)(=O)[O-])ccc5F)c5nc(c(-c6cc(S(=O)(=O)[O-])ccc6F)c6ccc3[nH]6)C=C5)C=C4)cc1)[C@@H](C(F)(F)F)O2
REMARK SMILES IDX 18 1 17 2 16 3 15 4 13 5 14 6 12 8 4 9 5 10 9 11 6 12 8 13
REMARK SMILES IDX 10 14 7 15 90 16 11 17 85 18 2 19 1 20 3 21 86 22 87 23
REMARK SMILES IDX 88 24 89 25 19 26 20 27 21 29 22 30 23 31 84 32 24 33 83 34
REMARK SMILES IDX 25 35 26 36 27 37 77 38 28 39 82 40 76 41 78 42 29 43 81 44
REMARK SMILES IDX 75 45 74 46 30 48 62 49 42 50 61 51 43 52 46 53 60 54 79 55
REMARK SMILES IDX 44 56 45 57 59 59 80 60 47 61 31 62 32 63 40 64 33 65 39 66
REMARK SMILES IDX 41 67 38 68 34 69 35 70 36 71 37 72 63 73 64 74 72 75 65 76
REMARK SMILES IDX 71 77 73 78 70 79 66 80 67 81 68 82 69 83 48 84 49 85 57 86
REMARK SMILES IDX 50 87 56 88 58 89 55 90 51 91 52 92 53 93 54 94
REMARK H PARENT 15 7 19 28 78 47 46 58
REMARK Flexibility Score: inf
ROOT
ATOM      1  C   UNL A   1      32.891  31.988  27.420  1.00  0.00     0.118 C 
ENDROOT
BRANCH   1   2
ATOM      2  C   UNL A   1      31.644  31.309  26.869  1.00  0.00     0.042 C 
BRANCH   2   3
ATOM      3  C   UNL A   1      31.950  30.384  25.702  1.00  0.00     0.118 C 
BRANCH   3   4
ATOM      4  N   UNL A   1      30.914  30.419  24.683  1.00  0.00    -0.352 N 
ATOM      5  C   UNL A   1      30.392  29.567  23.770  1.00  0.00     0.251 C 
ATOM      6  O   UNL A   1      29.467  30.023  23.091  1.00  0.00    -0.270 OA
ATOM      7  H   UNL A   1      30.473  31.298  24.647  1.00  0.00     0.163 HD
BRANCH   5   8
ATOM      8  C   UNL A   1      30.846  28.162  23.548  1.00  0.00     0.067 C 
ATOM      9  C   UNL A   1      31.606  23.169  23.887  1.00  0.00    -0.023 A 
ATOM     10  C   UNL A   1      31.875  24.157  22.924  1.00  0.00     0.052 A 
ATOM     11  C   UNL A   1      30.897  23.566  25.041  1.00  0.00     0.045 A 
ATOM     12  C   UNL A   1      31.462  25.475  23.110  1.00  0.00     0.128 A 
ATOM     13  C   UNL A   1      30.480  24.893  25.220  1.00  0.00     0.032 A 
ATOM     14  Cl  UNL A   1      30.494  22.449  26.301  1.00  0.00    -0.084 Cl
ATOM     15  C   UNL A   1      30.767  25.856  24.253  1.00  0.00     0.019 A 
ATOM     16  O   UNL A   1      31.748  26.348  22.099  1.00  0.00    -0.475 OA
ATOM     17  C   UNL A   1      30.341  27.243  24.394  1.00  0.00     0.025 C 
ATOM     18  C   UNL A   1      31.824  27.748  22.485  1.00  0.00     0.314 C 
BRANCH   9  19
ATOM     19  C   UNL A   1      32.102  21.741  23.690  1.00  0.00     0.014 C 
ATOM     20  C   UNL A   1      32.049  21.239  22.240  1.00  0.00     0.012 C 
ATOM     21  C   UNL A   1      33.533  21.597  24.222  1.00  0.00     0.012 C 
ENDBRANCH   9  19
BRANCH  18  22
ATOM     22  C   UNL A   1      33.282  28.086  22.854  1.00  0.00     0.429 C 
ATOM     23  F   UNL A   1      33.571  27.641  24.102  1.00  0.00    -0.167 F 
ATOM     24  F   UNL A   1      34.181  27.508  22.021  1.00  0.00    -0.167 F 
ATOM     25  F   UNL A   1      33.534  29.415  22.831  1.00  0.00    -0.167 F 
ENDBRANCH  18  22
ENDBRANCH   5   8
ENDBRANCH   3   4
ENDBRANCH   2   3
ENDBRANCH   1   2
BRANCH   1  26
ATOM     26  N   UNL A   1      32.685  33.415  27.660  1.00  0.00    -0.352 N 
ATOM     27  C   UNL A   1      33.270  34.260  28.574  1.00  0.00     0.251 C 
ATOM     28  H   UNL A   1      32.018  33.839  27.074  1.00  0.00     0.163 HD
ATOM     29  O   UNL A   1      32.794  35.378  28.748  1.00  0.00    -0.269 OA
BRANCH  27  30
ATOM     30  C   UNL A   1      34.446  33.816  29.351  1.00  0.00     0.039 A 
ATOM     31  C   UNL A   1      35.714  34.312  29.055  1.00  0.00     0.014 A 
ATOM     32  C   UNL A   1      34.282  32.894  30.389  1.00  0.00     0.014 A 
ATOM     33  C   UNL A   1      36.830  33.741  29.647  1.00  0.00     0.010 A 
ATOM     34  C   UNL A   1      35.403  32.408  31.070  1.00  0.00     0.010 A 
ATOM     35  C   UNL A   1      36.691  32.789  30.669  1.00  0.00    -0.014 A 
BRANCH  35  36
ATOM     36  C   UNL A   1      37.920  32.241  31.305  1.00  0.00     0.031 A 
ATOM     37  C   UNL A   1      38.342  32.678  32.681  1.00  0.00     0.074 A 
ATOM     38  C   UNL A   1      38.604  31.278  30.658  1.00  0.00     0.049 A 
ATOM     39  N   UNL A   1      39.332  32.234  33.412  1.00  0.00    -0.248 NA
ATOM     40  C   UNL A   1      37.565  33.751  33.321  1.00  0.00     0.031 C 
ATOM     41  C   UNL A   1      38.280  30.788  29.317  1.00  0.00     0.029 A 
ATOM     42  N   UNL A   1      39.670  30.505  31.043  1.00  0.00    -0.354 N 
ATOM     43  C   UNL A   1      39.312  32.984  34.583  1.00  0.00     0.074 A 
ATOM     44  C   UNL A   1      38.231  33.934  34.453  1.00  0.00     0.031 C 
ATOM     45  C   UNL A   1      39.064  29.742  29.028  1.00  0.00     0.029 A 
ATOM     46  C   UNL A   1      40.008  29.538  30.123  1.00  0.00     0.049 A 
ATOM     47  H   UNL A   1      40.147  30.629  31.895  1.00  0.00     0.167 HD
ATOM     48  C   UNL A   1      40.114  32.876  35.668  1.00  0.00     0.034 A 
ATOM     49  C   UNL A   1      40.970  28.592  30.150  1.00  0.00     0.034 A 
ATOM     50  C   UNL A   1      41.172  31.904  35.787  1.00  0.00     0.049 A 
ATOM     51  C   UNL A   1      41.845  28.494  31.370  1.00  0.00     0.074 A 
ATOM     52  C   UNL A   1      42.031  31.704  36.853  1.00  0.00     0.029 A 
ATOM     53  N   UNL A   1      41.509  30.966  34.822  1.00  0.00    -0.354 N 
ATOM     54  N   UNL A   1      41.790  29.191  32.480  1.00  0.00    -0.248 NA
ATOM     55  C   UNL A   1      42.915  27.487  31.347  1.00  0.00     0.031 C 
ATOM     56  C   UNL A   1      42.921  30.684  36.511  1.00  0.00     0.029 A 
ATOM     57  C   UNL A   1      42.577  30.199  35.259  1.00  0.00     0.049 A 
ATOM     58  H   UNL A   1      41.057  30.862  33.953  1.00  0.00     0.167 HD
ATOM     59  C   UNL A   1      42.809  28.704  33.290  1.00  0.00     0.074 A 
ATOM     60  C   UNL A   1      43.442  27.627  32.557  1.00  0.00     0.031 C 
ATOM     61  C   UNL A   1      43.192  29.119  34.524  1.00  0.00     0.034 A 
BRANCH  48  62
ATOM     62  C   UNL A   1      39.893  33.814  36.831  1.00  0.00     0.023 A 
ATOM     63  C   UNL A   1      39.258  33.350  37.999  1.00  0.00     0.031 A 
ATOM     64  C   UNL A   1      40.193  35.184  36.736  1.00  0.00     0.131 A 
ATOM     65  C   UNL A   1      38.914  34.256  39.010  1.00  0.00     0.055 A 
ATOM     66  C   UNL A   1      39.881  36.076  37.765  1.00  0.00     0.041 A 
ATOM     67  F   UNL A   1      40.799  35.676  35.643  1.00  0.00    -0.206 F 
ATOM     68  C   UNL A   1      39.228  35.614  38.903  1.00  0.00     0.022 A 
BRANCH  65  69
ATOM     69  S   UNL A   1      37.992  33.719  40.478  1.00  0.00     0.124 S 
ATOM     70  O   UNL A   1      36.800  33.119  39.879  1.00  0.00    -0.237 OA
ATOM     71  O   UNL A   1      38.921  32.776  41.094  1.00  0.00    -0.237 OA
ATOM     72  O   UNL A   1      37.761  34.953  41.219  1.00  0.00    -0.744 OA
ENDBRANCH  65  69
ENDBRANCH  48  62
BRANCH  49  73
ATOM     73  C   UNL A   1      41.094  27.651  28.999  1.00  0.00     0.023 A 
ATOM     74  C   UNL A   1      42.099  27.827  28.028  1.00  0.00     0.031 A 
ATOM     75  C   UNL A   1      40.135  26.647  28.779  1.00  0.00     0.131 A 
ATOM     76  C   UNL A   1      42.067  27.077  26.846  1.00  0.00     0.055 A 
ATOM     77  C   UNL A   1      40.156  25.846  27.635  1.00  0.00     0.041 A 
ATOM     78  F   UNL A   1      39.149  26.448  29.667  1.00  0.00    -0.206 F 
ATOM     79  C   UNL A   1      41.112  26.075  26.651  1.00  0.00     0.022 A 
BRANCH  76  80
ATOM     80  S   UNL A   1      43.158  27.494  25.457  1.00  0.00     0.124 S 
ATOM     81  O   UNL A   1      43.513  26.175  24.943  1.00  0.00    -0.237 OA
ATOM     82  O   UNL A   1      42.271  28.285  24.606  1.00  0.00    -0.237 OA
ATOM     83  O   UNL A   1      44.241  28.244  26.082  1.00  0.00    -0.744 OA
ENDBRANCH  76  80
ENDBRANCH  49  73
BRANCH  61  84
ATOM     84  C   UNL A   1      44.355  28.423  35.187  1.00  0.00     0.023 A 
ATOM     85  C   UNL A   1      44.120  27.424  36.149  1.00  0.00     0.031 A 
ATOM     86  C   UNL A   1      45.676  28.855  34.981  1.00  0.00     0.131 A 
ATOM     87  C   UNL A   1      45.188  26.918  36.901  1.00  0.00     0.055 A 
ATOM     88  C   UNL A   1      46.742  28.314  35.699  1.00  0.00     0.041 A 
ATOM     89  F   UNL A   1      45.948  29.814  34.080  1.00  0.00    -0.206 F 
ATOM     90  C   UNL A   1      46.499  27.353  36.676  1.00  0.00     0.022 A 
BRANCH  87  91
ATOM     91  S   UNL A   1      44.905  25.749  38.259  1.00  0.00     0.124 S 
ATOM     92  O   UNL A   1      43.829  26.403  39.000  1.00  0.00    -0.237 OA
ATOM     93  O   UNL A   1      44.521  24.534  37.545  1.00  0.00    -0.237 OA
ATOM     94  O   UNL A   1      46.190  25.692  38.948  1.00  0.00    -0.744 OA
ENDBRANCH  87  91
ENDBRANCH  61  84
ENDBRANCH  35  36
ENDBRANCH  27  30
ENDBRANCH   1  26
TORSDOF 15
ENDMDL
MODEL 3
REMARK VINA RESULT:     -12.5      5.580     10.726
REMARK SMILES CC(C)c1cc2c(cc1Cl)C=C(C(=O)NCCCNC(=O)c1ccc(-c3c4nc(c(-c5cc(S(=O)(=O)[O-])ccc5F)c5ccc([nH]5)c(-c5cc(S(=O)(=O)[O-])ccc5F)c5nc(c(-c6cc(S(=O)(=O)[O-])ccc6F)c6ccc3[nH]6)C=C5)C=C4)cc1)[C@@H](C(F)(F)F)O2
REMARK SMILES IDX 18 1 17 2 16 3 15 4 13 5 14 6 12 8 4 9 5 10 9 11 6 12 8 13
REMARK SMILES IDX 10 14 7 15 90 16 11 17 85 18 2 19 1 20 3 21 86 22 87 23
REMARK SMILES IDX 88 24 89 25 19 26 20 27 21 29 22 30 23 31 84 32 24 33 83 34
REMARK SMILES IDX 25 35 26 36 27 37 77 38 28 39 82 40 76 41 78 42 29 43 81 44
REMARK SMILES IDX 75 45 74 46 30 48 62 49 42 50 61 51 43 52 46 53 60 54 79 55
REMARK SMILES IDX 44 56 45 57 59 59 80 60 47 61 31 62 32 63 40 64 33 65 39 66
REMARK SMILES IDX 41 67 38 68 34 69 35 70 36 71 37 72 63 73 64 74 72 75 65 76
REMARK SMILES IDX 71 77 73 78 70 79 66 80 67 81 68 82 69 83 48 84 49 85 57 86
REMARK SMILES IDX 50 87 56 88 58 89 55 90 51 91 52 92 53 93 54 94
REMARK H PARENT 15 7 19 28 78 47 46 58
REMARK Flexibility Score: inf
ROOT
ATOM      1  C   UNL A   1      32.411  32.072  26.893  1.00  0.00     0.118 C 
ENDROOT
BRANCH   1   2
ATOM      2  C   UNL A   1      31.157  31.734  26.099  1.00  0.00     0.042 C 
BRANCH   2   3
ATOM      3  C   UNL A   1      31.269  30.404  25.370  1.00  0.00     0.118 C 
BRANCH   3   4
ATOM      4  N   UNL A   1      30.391  30.332  24.212  1.00  0.00    -0.352 N 
ATOM      5  C   UNL A   1      30.051  29.410  23.283  1.00  0.00     0.251 C 
ATOM      6  O   UNL A   1      29.213  29.780  22.455  1.00  0.00    -0.270 OA
ATOM      7  H   UNL A   1      29.918  31.183  24.066  1.00  0.00     0.163 HD
BRANCH   5   8
ATOM      8  C   UNL A   1      30.600  28.024  23.205  1.00  0.00     0.067 C 
ATOM      9  C   UNL A   1      31.620  23.129  23.988  1.00  0.00    -0.023 A 
ATOM     10  C   UNL A   1      31.904  24.057  22.972  1.00  0.00     0.052 A 
ATOM     11  C   UNL A   1      30.803  23.563  25.053  1.00  0.00     0.045 A 
ATOM     12  C   UNL A   1      31.403  25.357  23.024  1.00  0.00     0.128 A 
ATOM     13  C   UNL A   1      30.297  24.871  25.097  1.00  0.00     0.032 A 
ATOM     14  Cl  UNL A   1      30.371  22.519  26.365  1.00  0.00    -0.084 Cl
ATOM     15  C   UNL A   1      30.602  25.776  24.081  1.00  0.00     0.019 A 
ATOM     16  O   UNL A   1      31.714  26.170  21.971  1.00  0.00    -0.475 OA
ATOM     17  C   UNL A   1      30.086  27.140  24.082  1.00  0.00     0.025 C 
ATOM     18  C   UNL A   1      31.679  27.596  22.250  1.00  0.00     0.314 C 
BRANCH   9  19
ATOM     19  C   UNL A   1      32.212  21.724  23.939  1.00  0.00     0.014 C 
ATOM     20  C   UNL A   1      32.143  21.047  22.562  1.00  0.00     0.012 C 
ATOM     21  C   UNL A   1      33.667  21.743  24.421  1.00  0.00     0.012 C 
ENDBRANCH   9  19
BRANCH  18  22
ATOM     22  C   UNL A   1      33.083  28.052  22.695  1.00  0.00     0.429 C 
ATOM     23  F   UNL A   1      34.038  27.433  21.958  1.00  0.00    -0.167 F 
ATOM     24  F   UNL A   1      33.276  29.383  22.537  1.00  0.00    -0.167 F 
ATOM     25  F   UNL A   1      33.335  27.777  23.995  1.00  0.00    -0.167 F 
ENDBRANCH  18  22
ENDBRANCH   5   8
ENDBRANCH   3   4
ENDBRANCH   2   3
ENDBRANCH   1   2
BRANCH   1  26
ATOM     26  N   UNL A   1      32.386  33.438  27.412  1.00  0.00    -0.352 N 
ATOM     27  C   UNL A   1      33.199  34.059  28.331  1.00  0.00     0.251 C 
ATOM     28  H   UNL A   1      31.670  34.006  27.045  1.00  0.00     0.163 HD
ATOM     29  O   UNL A   1      32.868  35.152  28.785  1.00  0.00    -0.269 OA
BRANCH  27  30
ATOM     30  C   UNL A   1      34.445  33.407  28.782  1.00  0.00     0.039 A 
ATOM     31  C   UNL A   1      34.395  32.213  29.500  1.00  0.00     0.014 A 
ATOM     32  C   UNL A   1      35.680  33.991  28.487  1.00  0.00     0.014 A 
ATOM     33  C   UNL A   1      35.547  31.718  30.092  1.00  0.00     0.010 A 
ATOM     34  C   UNL A   1      36.856  33.421  28.985  1.00  0.00     0.010 A 
ATOM     35  C   UNL A   1      36.795  32.308  29.836  1.00  0.00    -0.014 A 
BRANCH  35  36
ATOM     36  C   UNL A   1      38.007  31.712  30.459  1.00  0.00     0.031 A 
ATOM     37  C   UNL A   1      38.382  32.023  31.882  1.00  0.00     0.074 A 
ATOM     38  C   UNL A   1      38.719  30.814  29.749  1.00  0.00     0.049 A 
ATOM     39  N   UNL A   1      39.352  31.520  32.600  1.00  0.00    -0.248 NA
ATOM     40  C   UNL A   1      37.576  33.030  32.591  1.00  0.00     0.031 C 
ATOM     41  C   UNL A   1      38.441  30.447  28.359  1.00  0.00     0.029 A 
ATOM     42  N   UNL A   1      39.778  30.015  30.097  1.00  0.00    -0.354 N 
ATOM     43  C   UNL A   1      39.289  32.160  33.834  1.00  0.00     0.074 A 
ATOM     44  C   UNL A   1      38.204  33.112  33.756  1.00  0.00     0.031 C 
ATOM     45  C   UNL A   1      39.242  29.437  28.002  1.00  0.00     0.029 A 
ATOM     46  C   UNL A   1      40.153  29.138  29.104  1.00  0.00     0.049 A 
ATOM     47  H   UNL A   1      40.227  30.064  30.971  1.00  0.00     0.167 HD
ATOM     48  C   UNL A   1      40.056  31.957  34.930  1.00  0.00     0.034 A 
ATOM     49  C   UNL A   1      41.121  28.199  29.076  1.00  0.00     0.034 A 
ATOM     50  C   UNL A   1      41.118  30.984  34.994  1.00  0.00     0.049 A 
ATOM     51  C   UNL A   1      41.958  27.994  30.309  1.00  0.00     0.074 A 
ATOM     52  C   UNL A   1      41.945  30.692  36.065  1.00  0.00     0.029 A 
ATOM     53  N   UNL A   1      41.493  30.140  33.959  1.00  0.00    -0.354 N 
ATOM     54  N   UNL A   1      41.862  28.587  31.476  1.00  0.00    -0.248 NA
ATOM     55  C   UNL A   1      43.036  26.999  30.229  1.00  0.00     0.031 C 
ATOM     56  C   UNL A   1      42.853  29.713  35.660  1.00  0.00     0.029 A 
ATOM     57  C   UNL A   1      42.552  29.342  34.359  1.00  0.00     0.049 A 
ATOM     58  H   UNL A   1      41.069  30.113  33.070  1.00  0.00     0.167 HD
ATOM     59  C   UNL A   1      42.859  28.033  32.271  1.00  0.00     0.074 A 
ATOM     60  C   UNL A   1      43.523  27.031  31.463  1.00  0.00     0.031 C 
ATOM     61  C   UNL A   1      43.199  28.336  33.549  1.00  0.00     0.034 A 
BRANCH  48  62
ATOM     62  C   UNL A   1      39.791  32.785  36.165  1.00  0.00     0.023 A 
ATOM     63  C   UNL A   1      38.887  32.323  37.141  1.00  0.00     0.031 A 
ATOM     64  C   UNL A   1      40.331  34.074  36.315  1.00  0.00     0.131 A 
ATOM     65  C   UNL A   1      38.524  33.159  38.204  1.00  0.00     0.055 A 
ATOM     66  C   UNL A   1      39.994  34.888  37.399  1.00  0.00     0.041 A 
ATOM     67  F   UNL A   1      41.199  34.559  35.414  1.00  0.00    -0.206 F 
ATOM     68  C   UNL A   1      39.078  34.435  38.343  1.00  0.00     0.022 A 
BRANCH  65  69
ATOM     69  S   UNL A   1      37.274  32.647  39.416  1.00  0.00     0.124 S 
ATOM     70  O   UNL A   1      37.699  31.283  39.726  1.00  0.00    -0.237 OA
ATOM     71  O   UNL A   1      37.472  33.620  40.487  1.00  0.00    -0.237 OA
ATOM     72  O   UNL A   1      36.015  32.756  38.689  1.00  0.00    -0.744 OA
ENDBRANCH  65  69
ENDBRANCH  48  62
BRANCH  49  73
ATOM     73  C   UNL A   1      41.289  27.367  27.848  1.00  0.00     0.023 A 
ATOM     74  C   UNL A   1      40.891  26.016  27.832  1.00  0.00     0.031 A 
ATOM     75  C   UNL A   1      41.967  27.866  26.723  1.00  0.00     0.131 A 
ATOM     76  C   UNL A   1      41.254  25.194  26.758  1.00  0.00     0.055 A 
ATOM     77  C   UNL A   1      42.255  27.062  25.619  1.00  0.00     0.041 A 
ATOM     78  F   UNL A   1      42.380  29.143  26.695  1.00  0.00    -0.206 F 
ATOM     79  C   UNL A   1      41.918  25.712  25.643  1.00  0.00     0.022 A 
BRANCH  76  80
ATOM     80  S   UNL A   1      41.024  23.396  26.852  1.00  0.00     0.124 S 
ATOM     81  O   UNL A   1      41.449  23.106  28.217  1.00  0.00    -0.237 OA
ATOM     82  O   UNL A   1      39.592  23.262  26.593  1.00  0.00    -0.237 OA
ATOM     83  O   UNL A   1      41.891  22.883  25.796  1.00  0.00    -0.744 OA
ENDBRANCH  76  80
ENDBRANCH  49  73
BRANCH  61  84
ATOM     84  C   UNL A   1      44.346  27.589  34.183  1.00  0.00     0.023 A 
ATOM     85  C   UNL A   1      44.100  26.414  34.917  1.00  0.00     0.031 A 
ATOM     86  C   UNL A   1      45.647  28.121  34.190  1.00  0.00     0.131 A 
ATOM     87  C   UNL A   1      45.131  25.831  35.664  1.00  0.00     0.055 A 
ATOM     88  C   UNL A   1      46.682  27.510  34.897  1.00  0.00     0.041 A 
ATOM     89  F   UNL A   1      45.928  29.246  33.513  1.00  0.00    -0.206 F 
ATOM     90  C   UNL A   1      46.423  26.368  35.652  1.00  0.00     0.022 A 
BRANCH  87  91
ATOM     91  S   UNL A   1      44.814  24.412  36.749  1.00  0.00     0.124 S 
ATOM     92  O   UNL A   1      46.158  24.090  37.224  1.00  0.00    -0.237 OA
ATOM     93  O   UNL A   1      43.919  24.985  37.751  1.00  0.00    -0.237 OA
ATOM     94  O   UNL A   1      44.212  23.420  35.865  1.00  0.00    -0.744 OA
ENDBRANCH  87  91
ENDBRANCH  61  84
ENDBRANCH  35  36
ENDBRANCH  27  30
ENDBRANCH   1  26
TORSDOF 15
ENDMDL
