MODEL 1
REMARK VINA RESULT:     -12.6      0.000      0.000
REMARK SMILES O=C(NCCCNC(=O)[C@@H](c1ccccc1)[C@H](C(=O)c1ccccc1)c1ccccc1)c1ccc(-c2c3nc(c(-c4cc(S(=O)(=O)[O-])ccc4F)c4ccc([nH]4)c(-c4cc(S(=O)(=O)[O-])ccc4F)c4nc(c(-c5cc(S(=O)(=O)[O-])ccc5F)c5ccc2[nH]5)C=C4)C=C3)cc1
REMARK SMILES IDX 5 1 4 2 3 3 1 4 2 5 32 7 33 8 94 9 34 10 93 11 35 12 36 13
REMARK SMILES IDX 37 14 87 15 38 16 92 17 86 18 88 19 39 20 91 21 85 22 84 23
REMARK SMILES IDX 40 25 72 26 52 27 71 28 53 29 56 30 70 31 89 32 54 33 55 34
REMARK SMILES IDX 69 36 90 37 57 38 41 39 42 40 50 41 43 42 49 43 51 44 48 45
REMARK SMILES IDX 44 46 45 47 46 48 47 49 73 50 74 51 82 52 75 53 81 54 83 55
REMARK SMILES IDX 80 56 76 57 77 58 78 59 79 60 58 61 59 62 67 63 60 64 66 65
REMARK SMILES IDX 68 66 65 67 61 68 62 69 63 70 64 71 6 72 7 73 8 74 9 76
REMARK SMILES IDX 10 77 11 78 12 79 16 80 13 81 15 82 14 83 17 84 26 85 27 86
REMARK SMILES IDX 31 87 28 88 30 89 29 90 18 91 19 92 20 93 21 94 25 95 22 96
REMARK SMILES IDX 24 97 23 98
REMARK H PARENT 3 6 88 24 56 35 7 75
REMARK Flexibility Score: inf
ROOT
ATOM      1  C   UNL A   1      32.786  28.928  23.900  1.00  0.00     0.042 C 
ENDROOT
BRANCH   1   2
ATOM      2  C   UNL A   1      33.280  29.387  25.247  1.00  0.00     0.118 C 
BRANCH   2   3
ATOM      3  N   UNL A   1      32.591  30.602  25.667  1.00  0.00    -0.352 N 
ATOM      4  O   UNL A   1      31.984  32.165  27.179  1.00  0.00    -0.269 OA
ATOM      5  C   UNL A   1      32.804  31.343  26.808  1.00  0.00     0.251 C 
ATOM      6  H   UNL A   1      31.887  30.932  25.062  1.00  0.00     0.163 HD
BRANCH   5   7
ATOM      7  C   UNL A   1      34.051  31.101  27.563  1.00  0.00     0.039 A 
ATOM      8  C   UNL A   1      34.313  29.816  28.037  1.00  0.00     0.014 A 
ATOM      9  C   UNL A   1      34.926  32.151  27.840  1.00  0.00     0.014 A 
ATOM     10  C   UNL A   1      35.325  29.618  28.955  1.00  0.00     0.010 A 
ATOM     11  C   UNL A   1      36.058  31.905  28.622  1.00  0.00     0.010 A 
ATOM     12  C   UNL A   1      36.258  30.636  29.191  1.00  0.00    -0.014 A 
BRANCH  12  13
ATOM     13  C   UNL A   1      37.505  30.274  29.906  1.00  0.00     0.031 A 
ATOM     14  C   UNL A   1      37.752  30.693  31.323  1.00  0.00     0.074 A 
ATOM     15  C   UNL A   1      38.402  29.520  29.236  1.00  0.00     0.049 A 
ATOM     16  N   UNL A   1      38.806  30.474  32.065  1.00  0.00    -0.248 NA
ATOM     17  C   UNL A   1      36.694  31.462  31.995  1.00  0.00     0.031 C 
ATOM     18  C   UNL A   1      38.246  29.062  27.847  1.00  0.00     0.029 A 
ATOM     19  N   UNL A   1      39.599  28.980  29.620  1.00  0.00    -0.354 N 
ATOM     20  C   UNL A   1      38.557  31.102  33.280  1.00  0.00     0.074 A 
ATOM     21  C   UNL A   1      37.253  31.723  33.169  1.00  0.00     0.031 C 
ATOM     22  C   UNL A   1      39.264  28.255  27.527  1.00  0.00     0.029 A 
ATOM     23  C   UNL A   1      40.208  28.239  28.632  1.00  0.00     0.049 A 
ATOM     24  H   UNL A   1      39.987  29.108  30.516  1.00  0.00     0.167 HD
ATOM     25  C   UNL A   1      39.353  31.149  34.375  1.00  0.00     0.034 A 
ATOM     26  C   UNL A   1      41.417  27.653  28.595  1.00  0.00     0.034 A 
ATOM     27  C   UNL A   1      40.647  30.508  34.452  1.00  0.00     0.049 A 
ATOM     28  C   UNL A   1      42.292  27.770  29.808  1.00  0.00     0.074 A 
ATOM     29  C   UNL A   1      41.521  30.464  35.524  1.00  0.00     0.029 A 
ATOM     30  N   UNL A   1      41.257  29.811  33.416  1.00  0.00    -0.354 N 
ATOM     31  N   UNL A   1      42.035  28.359  30.954  1.00  0.00    -0.248 NA
ATOM     32  C   UNL A   1      43.617  27.150  29.728  1.00  0.00     0.031 C 
ATOM     33  C   UNL A   1      42.688  29.812  35.112  1.00  0.00     0.029 A 
ATOM     34  C   UNL A   1      42.511  29.369  33.811  1.00  0.00     0.049 A 
ATOM     35  H   UNL A   1      40.857  29.654  32.530  1.00  0.00     0.167 HD
ATOM     36  C   UNL A   1      43.164  28.161  31.739  1.00  0.00     0.074 A 
ATOM     37  C   UNL A   1      44.086  27.372  30.946  1.00  0.00     0.031 C 
ATOM     38  C   UNL A   1      43.420  28.595  32.999  1.00  0.00     0.034 A 
BRANCH  25  39
ATOM     39  C   UNL A   1      38.882  31.959  35.559  1.00  0.00     0.023 A 
ATOM     40  C   UNL A   1      38.276  31.366  36.679  1.00  0.00     0.031 A 
ATOM     41  C   UNL A   1      39.069  33.354  35.572  1.00  0.00     0.131 A 
ATOM     42  C   UNL A   1      37.841  32.169  37.746  1.00  0.00     0.055 A 
ATOM     43  C   UNL A   1      38.699  34.138  36.666  1.00  0.00     0.041 A 
ATOM     44  F   UNL A   1      39.622  33.980  34.520  1.00  0.00    -0.206 F 
ATOM     45  C   UNL A   1      38.073  33.547  37.759  1.00  0.00     0.022 A 
BRANCH  42  46
ATOM     46  S   UNL A   1      36.873  31.401  39.075  1.00  0.00     0.124 S 
ATOM     47  O   UNL A   1      37.759  31.574  40.224  1.00  0.00    -0.237 OA
ATOM     48  O   UNL A   1      35.656  32.202  39.082  1.00  0.00    -0.237 OA
ATOM     49  O   UNL A   1      36.709  30.020  38.626  1.00  0.00    -0.744 OA
ENDBRANCH  42  46
ENDBRANCH  25  39
BRANCH  26  50
ATOM     50  C   UNL A   1      41.891  26.972  27.356  1.00  0.00     0.023 A 
ATOM     51  C   UNL A   1      41.816  25.579  27.225  1.00  0.00     0.031 A 
ATOM     52  C   UNL A   1      42.473  27.703  26.301  1.00  0.00     0.131 A 
ATOM     53  C   UNL A   1      42.369  24.954  26.097  1.00  0.00     0.055 A 
ATOM     54  C   UNL A   1      42.953  27.083  25.149  1.00  0.00     0.041 A 
ATOM     55  F   UNL A   1      42.569  29.040  26.371  1.00  0.00    -0.206 F 
ATOM     56  C   UNL A   1      42.921  25.697  25.050  1.00  0.00     0.022 A 
BRANCH  53  57
ATOM     57  S   UNL A   1      42.474  23.144  26.080  1.00  0.00     0.124 S 
ATOM     58  O   UNL A   1      43.434  22.894  27.149  1.00  0.00    -0.237 OA
ATOM     59  O   UNL A   1      41.093  22.760  26.355  1.00  0.00    -0.237 OA
ATOM     60  O   UNL A   1      42.948  22.845  24.730  1.00  0.00    -0.744 OA
ENDBRANCH  53  57
ENDBRANCH  26  50
BRANCH  38  61
ATOM     61  C   UNL A   1      44.739  28.176  33.598  1.00  0.00     0.023 A 
ATOM     62  C   UNL A   1      44.872  26.982  34.325  1.00  0.00     0.031 A 
ATOM     63  C   UNL A   1      45.868  29.003  33.466  1.00  0.00     0.131 A 
ATOM     64  C   UNL A   1      46.089  26.679  34.952  1.00  0.00     0.055 A 
ATOM     65  C   UNL A   1      47.096  28.662  34.031  1.00  0.00     0.041 A 
ATOM     66  F   UNL A   1      45.795  30.159  32.787  1.00  0.00    -0.206 F 
ATOM     67  C   UNL A   1      47.207  27.502  34.793  1.00  0.00     0.022 A 
BRANCH  64  68
ATOM     68  S   UNL A   1      46.160  25.254  36.070  1.00  0.00     0.124 S 
ATOM     69  O   UNL A   1      47.516  25.351  36.599  1.00  0.00    -0.237 OA
ATOM     70  O   UNL A   1      45.085  25.544  37.014  1.00  0.00    -0.237 OA
ATOM     71  O   UNL A   1      45.917  24.114  35.188  1.00  0.00    -0.744 OA
ENDBRANCH  64  68
ENDBRANCH  38  61
ENDBRANCH  12  13
ENDBRANCH   5   7
ENDBRANCH   2   3
ENDBRANCH   1   2
BRANCH   1  72
ATOM     72  C   UNL A   1      33.952  28.462  23.072  1.00  0.00     0.117 C 
BRANCH  72  73
ATOM     73  N   UNL A   1      33.570  27.581  21.995  1.00  0.00    -0.355 N 
ATOM     74  C   UNL A   1      33.451  26.232  21.961  1.00  0.00     0.228 C 
ATOM     75  H   UNL A   1      33.362  28.034  21.146  1.00  0.00     0.163 HD
ATOM     76  O   UNL A   1      33.218  25.728  20.856  1.00  0.00    -0.274 OA
BRANCH  74  77
ATOM     77  C   UNL A   1      33.656  25.323  23.191  1.00  0.00     0.124 C 
BRANCH  77  78
ATOM     78  C   UNL A   1      32.466  25.475  24.154  1.00  0.00    -0.035 A 
ATOM     79  C   UNL A   1      32.659  25.678  25.535  1.00  0.00     0.004 A 
ATOM     80  C   UNL A   1      31.145  25.478  23.674  1.00  0.00     0.004 A 
ATOM     81  C   UNL A   1      31.602  26.007  26.383  1.00  0.00     0.000 A 
ATOM     82  C   UNL A   1      30.082  25.805  24.528  1.00  0.00     0.000 A 
ATOM     83  C   UNL A   1      30.315  26.096  25.872  1.00  0.00     0.000 A 
ENDBRANCH  77  78
BRANCH  77  84
ATOM     84  C   UNL A   1      34.335  23.881  23.015  1.00  0.00     0.108 C 
BRANCH  84  85
ATOM     85  C   UNL A   1      35.575  23.494  23.896  1.00  0.00    -0.036 A 
ATOM     86  C   UNL A   1      36.449  22.439  23.561  1.00  0.00     0.004 A 
ATOM     87  C   UNL A   1      35.845  24.129  25.123  1.00  0.00     0.004 A 
ATOM     88  C   UNL A   1      37.428  21.978  24.459  1.00  0.00     0.000 A 
ATOM     89  C   UNL A   1      36.794  23.655  26.035  1.00  0.00     0.000 A 
ATOM     90  C   UNL A   1      37.575  22.561  25.711  1.00  0.00     0.000 A 
ENDBRANCH  84  85
BRANCH  84  91
ATOM     91  C   UNL A   1      33.313  22.689  22.836  1.00  0.00     0.171 C 
ATOM     92  O   UNL A   1      32.662  22.535  21.798  1.00  0.00    -0.293 OA
BRANCH  91  93
ATOM     93  C   UNL A   1      33.081  21.647  23.870  1.00  0.00     0.018 A 
ATOM     94  C   UNL A   1      32.801  20.326  23.490  1.00  0.00     0.012 A 
ATOM     95  C   UNL A   1      33.133  21.979  25.227  1.00  0.00     0.012 A 
ATOM     96  C   UNL A   1      32.720  19.321  24.462  1.00  0.00     0.001 A 
ATOM     97  C   UNL A   1      33.057  20.970  26.192  1.00  0.00     0.001 A 
ATOM     98  C   UNL A   1      32.877  19.640  25.811  1.00  0.00     0.000 A 
ENDBRANCH  91  93
ENDBRANCH  84  91
ENDBRANCH  77  84
ENDBRANCH  74  77
ENDBRANCH  72  73
ENDBRANCH   1  72
TORSDOF 18
ENDMDL
MODEL 2
REMARK VINA RESULT:     -12.4      0.548      7.329
REMARK SMILES O=C(NCCCNC(=O)[C@@H](c1ccccc1)[C@H](C(=O)c1ccccc1)c1ccccc1)c1ccc(-c2c3nc(c(-c4cc(S(=O)(=O)[O-])ccc4F)c4ccc([nH]4)c(-c4cc(S(=O)(=O)[O-])ccc4F)c4nc(c(-c5cc(S(=O)(=O)[O-])ccc5F)c5ccc2[nH]5)C=C4)C=C3)cc1
REMARK SMILES IDX 5 1 4 2 3 3 1 4 2 5 32 7 33 8 94 9 34 10 93 11 35 12 36 13
REMARK SMILES IDX 37 14 87 15 38 16 92 17 86 18 88 19 39 20 91 21 85 22 84 23
REMARK SMILES IDX 40 25 72 26 52 27 71 28 53 29 56 30 70 31 89 32 54 33 55 34
REMARK SMILES IDX 69 36 90 37 57 38 41 39 42 40 50 41 43 42 49 43 51 44 48 45
REMARK SMILES IDX 44 46 45 47 46 48 47 49 73 50 74 51 82 52 75 53 81 54 83 55
REMARK SMILES IDX 80 56 76 57 77 58 78 59 79 60 58 61 59 62 67 63 60 64 66 65
REMARK SMILES IDX 68 66 65 67 61 68 62 69 63 70 64 71 6 72 7 73 8 74 9 76
REMARK SMILES IDX 10 77 11 78 12 79 16 80 13 81 15 82 14 83 17 84 26 85 27 86
REMARK SMILES IDX 31 87 28 88 30 89 29 90 18 91 19 92 20 93 21 94 25 95 22 96
REMARK SMILES IDX 24 97 23 98
REMARK H PARENT 3 6 88 24 56 35 7 75
REMARK Flexibility Score: inf
ROOT
ATOM      1  C   UNL A   1      32.886  28.864  24.037  1.00  0.00     0.042 C 
ENDROOT
BRANCH   1   2
ATOM      2  C   UNL A   1      33.396  29.319  25.379  1.00  0.00     0.118 C 
BRANCH   2   3
ATOM      3  N   UNL A   1      32.766  30.573  25.777  1.00  0.00    -0.352 N 
ATOM      4  O   UNL A   1      32.262  32.207  27.251  1.00  0.00    -0.269 OA
ATOM      5  C   UNL A   1      33.040  31.343  26.885  1.00  0.00     0.251 C 
ATOM      6  H   UNL A   1      32.057  30.909  25.181  1.00  0.00     0.163 HD
BRANCH   5   7
ATOM      7  C   UNL A   1      34.298  31.077  27.612  1.00  0.00     0.039 A 
ATOM      8  C   UNL A   1      34.460  29.851  28.255  1.00  0.00     0.014 A 
ATOM      9  C   UNL A   1      35.287  32.059  27.697  1.00  0.00     0.014 A 
ATOM     10  C   UNL A   1      35.499  29.677  29.147  1.00  0.00     0.010 A 
ATOM     11  C   UNL A   1      36.432  31.805  28.457  1.00  0.00     0.010 A 
ATOM     12  C   UNL A   1      36.539  30.614  29.194  1.00  0.00    -0.014 A 
BRANCH  12  13
ATOM     13  C   UNL A   1      37.784  30.225  29.898  1.00  0.00     0.031 A 
ATOM     14  C   UNL A   1      38.802  29.326  29.265  1.00  0.00     0.074 A 
ATOM     15  C   UNL A   1      37.982  30.742  31.130  1.00  0.00     0.049 A 
ATOM     16  N   UNL A   1      39.921  28.879  29.771  1.00  0.00    -0.248 NA
ATOM     17  C   UNL A   1      38.532  28.859  27.897  1.00  0.00     0.031 C 
ATOM     18  C   UNL A   1      37.043  31.631  31.830  1.00  0.00     0.029 A 
ATOM     19  N   UNL A   1      39.029  30.629  32.003  1.00  0.00    -0.354 N 
ATOM     20  C   UNL A   1      40.477  28.054  28.801  1.00  0.00     0.074 A 
ATOM     21  C   UNL A   1      39.562  28.052  27.679  1.00  0.00     0.031 C 
ATOM     22  C   UNL A   1      37.589  32.038  32.982  1.00  0.00     0.029 A 
ATOM     23  C   UNL A   1      38.852  31.344  33.166  1.00  0.00     0.049 A 
ATOM     24  H   UNL A   1      39.832  30.091  31.817  1.00  0.00     0.167 HD
ATOM     25  C   UNL A   1      41.643  27.365  28.858  1.00  0.00     0.034 A 
ATOM     26  C   UNL A   1      39.597  31.398  34.284  1.00  0.00     0.034 A 
ATOM     27  C   UNL A   1      42.537  27.398  29.994  1.00  0.00     0.049 A 
ATOM     28  C   UNL A   1      40.855  30.581  34.330  1.00  0.00     0.074 A 
ATOM     29  C   UNL A   1      43.759  26.766  30.144  1.00  0.00     0.029 A 
ATOM     30  N   UNL A   1      42.303  28.089  31.176  1.00  0.00    -0.354 N 
ATOM     31  N   UNL A   1      41.372  29.814  33.398  1.00  0.00    -0.248 NA
ATOM     32  C   UNL A   1      41.629  30.634  35.573  1.00  0.00     0.031 C 
ATOM     33  C   UNL A   1      44.223  27.010  31.441  1.00  0.00     0.029 A 
ATOM     34  C   UNL A   1      43.337  27.867  32.073  1.00  0.00     0.049 A 
ATOM     35  H   UNL A   1      41.516  28.655  31.352  1.00  0.00     0.167 HD
ATOM     36  C   UNL A   1      42.546  29.307  33.939  1.00  0.00     0.074 A 
ATOM     37  C   UNL A   1      42.674  29.881  35.263  1.00  0.00     0.031 C 
ATOM     38  C   UNL A   1      43.438  28.440  33.395  1.00  0.00     0.034 A 
BRANCH  25  39
ATOM     39  C   UNL A   1      41.998  26.476  27.691  1.00  0.00     0.023 A 
ATOM     40  C   UNL A   1      41.750  25.093  27.700  1.00  0.00     0.031 A 
ATOM     41  C   UNL A   1      42.575  27.033  26.535  1.00  0.00     0.131 A 
ATOM     42  C   UNL A   1      42.116  24.309  26.594  1.00  0.00     0.055 A 
ATOM     43  C   UNL A   1      42.871  26.260  25.411  1.00  0.00     0.041 A 
ATOM     44  F   UNL A   1      42.856  28.345  26.476  1.00  0.00    -0.206 F 
ATOM     45  C   UNL A   1      42.649  24.887  25.439  1.00  0.00     0.022 A 
BRANCH  42  46
ATOM     46  S   UNL A   1      41.980  22.504  26.723  1.00  0.00     0.124 S 
ATOM     47  O   UNL A   1      42.285  22.086  25.357  1.00  0.00    -0.237 OA
ATOM     48  O   UNL A   1      42.985  22.183  27.729  1.00  0.00    -0.237 OA
ATOM     49  O   UNL A   1      40.594  22.293  27.137  1.00  0.00    -0.744 OA
ENDBRANCH  42  46
ENDBRANCH  25  39
BRANCH  26  50
ATOM     50  C   UNL A   1      39.139  32.191  35.461  1.00  0.00     0.023 A 
ATOM     51  C   UNL A   1      38.536  31.566  36.561  1.00  0.00     0.031 A 
ATOM     52  C   UNL A   1      39.254  33.595  35.482  1.00  0.00     0.131 A 
ATOM     53  C   UNL A   1      38.014  32.344  37.606  1.00  0.00     0.055 A 
ATOM     54  C   UNL A   1      38.802  34.358  36.557  1.00  0.00     0.041 A 
ATOM     55  F   UNL A   1      39.825  34.247  34.457  1.00  0.00    -0.206 F 
ATOM     56  C   UNL A   1      38.159  33.734  37.620  1.00  0.00     0.022 A 
BRANCH  53  57
ATOM     57  S   UNL A   1      37.027  31.521  38.884  1.00  0.00     0.124 S 
ATOM     58  O   UNL A   1      35.808  32.320  38.876  1.00  0.00    -0.237 OA
ATOM     59  O   UNL A   1      36.911  30.168  38.349  1.00  0.00    -0.237 OA
ATOM     60  O   UNL A   1      37.851  31.648  40.083  1.00  0.00    -0.744 OA
ENDBRANCH  53  57
ENDBRANCH  26  50
BRANCH  38  61
ATOM     61  C   UNL A   1      44.648  28.108  34.231  1.00  0.00     0.023 A 
ATOM     62  C   UNL A   1      44.648  27.027  35.129  1.00  0.00     0.031 A 
ATOM     63  C   UNL A   1      45.801  28.906  34.152  1.00  0.00     0.131 A 
ATOM     64  C   UNL A   1      45.755  26.815  35.963  1.00  0.00     0.055 A 
ATOM     65  C   UNL A   1      46.927  28.647  34.933  1.00  0.00     0.041 A 
ATOM     66  F   UNL A   1      45.852  29.956  33.315  1.00  0.00    -0.206 F 
ATOM     67  C   UNL A   1      46.902  27.606  35.857  1.00  0.00     0.022 A 
BRANCH  64  68
ATOM     68  S   UNL A   1      45.632  25.561  37.267  1.00  0.00     0.124 S 
ATOM     69  O   UNL A   1      45.307  24.361  36.503  1.00  0.00    -0.237 OA
ATOM     70  O   UNL A   1      46.966  25.596  37.860  1.00  0.00    -0.237 OA
ATOM     71  O   UNL A   1      44.560  26.060  38.124  1.00  0.00    -0.744 OA
ENDBRANCH  64  68
ENDBRANCH  38  61
ENDBRANCH  12  13
ENDBRANCH   5   7
ENDBRANCH   2   3
ENDBRANCH   1   2
BRANCH   1  72
ATOM     72  C   UNL A   1      34.046  28.443  23.177  1.00  0.00     0.117 C 
BRANCH  72  73
ATOM     73  N   UNL A   1      33.657  27.628  22.053  1.00  0.00    -0.355 N 
ATOM     74  C   UNL A   1      33.442  26.293  21.965  1.00  0.00     0.228 C 
ATOM     75  H   UNL A   1      33.525  28.122  21.211  1.00  0.00     0.163 HD
ATOM     76  O   UNL A   1      33.229  25.843  20.832  1.00  0.00    -0.274 OA
BRANCH  74  77
ATOM     77  C   UNL A   1      33.519  25.333  23.171  1.00  0.00     0.124 C 
BRANCH  77  78
ATOM     78  C   UNL A   1      32.224  25.430  23.996  1.00  0.00    -0.035 A 
ATOM     79  C   UNL A   1      32.252  25.467  25.404  1.00  0.00     0.004 A 
ATOM     80  C   UNL A   1      30.974  25.549  23.366  1.00  0.00     0.004 A 
ATOM     81  C   UNL A   1      31.110  25.748  26.153  1.00  0.00     0.000 A 
ATOM     82  C   UNL A   1      29.825  25.826  24.120  1.00  0.00     0.000 A 
ATOM     83  C   UNL A   1      29.899  25.954  25.507  1.00  0.00     0.000 A 
ENDBRANCH  77  78
BRANCH  77  84
ATOM     84  C   UNL A   1      34.234  23.907  23.012  1.00  0.00     0.108 C 
BRANCH  84  85
ATOM     85  C   UNL A   1      35.469  23.552  23.913  1.00  0.00    -0.036 A 
ATOM     86  C   UNL A   1      36.422  22.578  23.552  1.00  0.00     0.004 A 
ATOM     87  C   UNL A   1      35.657  24.133  25.182  1.00  0.00     0.004 A 
ATOM     88  C   UNL A   1      37.401  22.132  24.457  1.00  0.00     0.000 A 
ATOM     89  C   UNL A   1      36.606  23.672  26.100  1.00  0.00     0.000 A 
ATOM     90  C   UNL A   1      37.469  22.652  25.744  1.00  0.00     0.000 A 
ENDBRANCH  84  85
BRANCH  84  91
ATOM     91  C   UNL A   1      33.243  22.690  22.822  1.00  0.00     0.171 C 
ATOM     92  O   UNL A   1      32.591  22.531  21.786  1.00  0.00    -0.293 OA
BRANCH  91  93
ATOM     93  C   UNL A   1      33.045  21.629  23.844  1.00  0.00     0.018 A 
ATOM     94  C   UNL A   1      32.754  20.315  23.450  1.00  0.00     0.012 A 
ATOM     95  C   UNL A   1      33.139  21.937  25.204  1.00  0.00     0.012 A 
ATOM     96  C   UNL A   1      32.704  19.292  24.405  1.00  0.00     0.001 A 
ATOM     97  C   UNL A   1      33.094  20.910  26.154  1.00  0.00     0.001 A 
ATOM     98  C   UNL A   1      32.903  19.587  25.754  1.00  0.00     0.000 A 
ENDBRANCH  91  93
ENDBRANCH  84  91
ENDBRANCH  77  84
ENDBRANCH  74  77
ENDBRANCH  72  73
ENDBRANCH   1  72
TORSDOF 18
ENDMDL
MODEL 3
REMARK VINA RESULT:     -12.1      4.840      7.352
REMARK SMILES O=C(NCCCNC(=O)[C@@H](c1ccccc1)[C@H](C(=O)c1ccccc1)c1ccccc1)c1ccc(-c2c3nc(c(-c4cc(S(=O)(=O)[O-])ccc4F)c4ccc([nH]4)c(-c4cc(S(=O)(=O)[O-])ccc4F)c4nc(c(-c5cc(S(=O)(=O)[O-])ccc5F)c5ccc2[nH]5)C=C4)C=C3)cc1
REMARK SMILES IDX 5 1 4 2 3 3 1 4 2 5 32 7 33 8 94 9 34 10 93 11 35 12 36 13
REMARK SMILES IDX 37 14 87 15 38 16 92 17 86 18 88 19 39 20 91 21 85 22 84 23
REMARK SMILES IDX 40 25 72 26 52 27 71 28 53 29 56 30 70 31 89 32 54 33 55 34
REMARK SMILES IDX 69 36 90 37 57 38 41 39 42 40 50 41 43 42 49 43 51 44 48 45
REMARK SMILES IDX 44 46 45 47 46 48 47 49 73 50 74 51 82 52 75 53 81 54 83 55
REMARK SMILES IDX 80 56 76 57 77 58 78 59 79 60 58 61 59 62 67 63 60 64 66 65
REMARK SMILES IDX 68 66 65 67 61 68 62 69 63 70 64 71 6 72 7 73 8 74 9 76
REMARK SMILES IDX 10 77 11 78 12 79 16 80 13 81 15 82 14 83 17 84 26 85 27 86
REMARK SMILES IDX 31 87 28 88 30 89 29 90 18 91 19 92 20 93 21 94 25 95 22 96
REMARK SMILES IDX 24 97 23 98
REMARK H PARENT 3 6 88 24 56 35 7 75
REMARK Flexibility Score: inf
ROOT
ATOM      1  C   UNL A   1      34.828  21.805  26.412  1.00  0.00     0.042 C 
ENDROOT
BRANCH   1   2
ATOM      2  C   UNL A   1      36.217  22.319  26.138  1.00  0.00     0.118 C 
BRANCH   2   3
ATOM      3  N   UNL A   1      37.176  21.222  26.085  1.00  0.00    -0.352 N 
ATOM      4  O   UNL A   1      39.228  20.341  25.749  1.00  0.00    -0.269 OA
ATOM      5  C   UNL A   1      38.551  21.300  26.076  1.00  0.00     0.251 C 
ATOM      6  H   UNL A   1      36.795  20.314  26.052  1.00  0.00     0.163 HD
BRANCH   5   7
ATOM      7  C   UNL A   1      39.169  22.585  26.464  1.00  0.00     0.039 A 
ATOM      8  C   UNL A   1      40.292  22.571  27.291  1.00  0.00     0.014 A 
ATOM      9  C   UNL A   1      38.607  23.793  26.052  1.00  0.00     0.014 A 
ATOM     10  C   UNL A   1      40.728  23.744  27.874  1.00  0.00     0.010 A 
ATOM     11  C   UNL A   1      39.170  24.992  26.499  1.00  0.00     0.010 A 
ATOM     12  C   UNL A   1      40.229  24.972  27.421  1.00  0.00    -0.014 A 
BRANCH  12  13
ATOM     13  C   UNL A   1      40.959  26.199  27.819  1.00  0.00     0.031 A 
ATOM     14  C   UNL A   1      40.302  27.284  28.617  1.00  0.00     0.074 A 
ATOM     15  C   UNL A   1      42.257  26.288  27.459  1.00  0.00     0.049 A 
ATOM     16  N   UNL A   1      40.806  28.423  29.012  1.00  0.00    -0.248 NA
ATOM     17  C   UNL A   1      38.902  27.075  29.017  1.00  0.00     0.031 C 
ATOM     18  C   UNL A   1      42.985  25.277  26.678  1.00  0.00     0.029 A 
ATOM     19  N   UNL A   1      43.205  27.241  27.713  1.00  0.00    -0.354 N 
ATOM     20  C   UNL A   1      39.782  29.085  29.680  1.00  0.00     0.074 A 
ATOM     21  C   UNL A   1      38.621  28.221  29.624  1.00  0.00     0.031 C 
ATOM     22  C   UNL A   1      44.273  25.627  26.585  1.00  0.00     0.029 A 
ATOM     23  C   UNL A   1      44.439  26.942  27.181  1.00  0.00     0.049 A 
ATOM     24  H   UNL A   1      43.023  28.061  28.227  1.00  0.00     0.167 HD
ATOM     25  C   UNL A   1      39.822  30.301  30.276  1.00  0.00     0.034 A 
ATOM     26  C   UNL A   1      45.571  27.666  27.130  1.00  0.00     0.034 A 
ATOM     27  C   UNL A   1      41.003  31.133  30.320  1.00  0.00     0.049 A 
ATOM     28  C   UNL A   1      45.561  29.030  27.756  1.00  0.00     0.074 A 
ATOM     29  C   UNL A   1      41.164  32.366  30.926  1.00  0.00     0.029 A 
ATOM     30  N   UNL A   1      42.221  30.824  29.725  1.00  0.00    -0.354 N 
ATOM     31  N   UNL A   1      44.585  29.635  28.394  1.00  0.00    -0.248 NA
ATOM     32  C   UNL A   1      46.798  29.809  27.657  1.00  0.00     0.031 C 
ATOM     33  C   UNL A   1      42.448  32.837  30.632  1.00  0.00     0.029 A 
ATOM     34  C   UNL A   1      43.123  31.860  29.918  1.00  0.00     0.049 A 
ATOM     35  H   UNL A   1      42.416  29.990  29.239  1.00  0.00     0.167 HD
ATOM     36  C   UNL A   1      45.102  30.863  28.789  1.00  0.00     0.074 A 
ATOM     37  C   UNL A   1      46.481  30.895  28.346  1.00  0.00     0.031 C 
ATOM     38  C   UNL A   1      44.491  31.876  29.455  1.00  0.00     0.034 A 
BRANCH  25  39
ATOM     39  C   UNL A   1      38.546  30.835  30.882  1.00  0.00     0.023 A 
ATOM     40  C   UNL A   1      37.636  31.612  30.145  1.00  0.00     0.031 A 
ATOM     41  C   UNL A   1      38.225  30.535  32.218  1.00  0.00     0.131 A 
ATOM     42  C   UNL A   1      36.471  32.098  30.762  1.00  0.00     0.055 A 
ATOM     43  C   UNL A   1      37.032  30.962  32.805  1.00  0.00     0.041 A 
ATOM     44  F   UNL A   1      39.067  29.816  32.979  1.00  0.00    -0.206 F 
ATOM     45  C   UNL A   1      36.151  31.755  32.079  1.00  0.00     0.022 A 
BRANCH  42  46
ATOM     46  S   UNL A   1      35.429  33.271  29.852  1.00  0.00     0.124 S 
ATOM     47  O   UNL A   1      36.426  34.037  29.108  1.00  0.00    -0.237 OA
ATOM     48  O   UNL A   1      34.579  32.391  29.060  1.00  0.00    -0.237 OA
ATOM     49  O   UNL A   1      34.744  34.013  30.909  1.00  0.00    -0.744 OA
ENDBRANCH  42  46
ENDBRANCH  25  39
BRANCH  26  50
ATOM     50  C   UNL A   1      46.768  27.149  26.408  1.00  0.00     0.023 A 
ATOM     51  C   UNL A   1      47.083  27.598  25.119  1.00  0.00     0.031 A 
ATOM     52  C   UNL A   1      47.591  26.158  26.980  1.00  0.00     0.131 A 
ATOM     53  C   UNL A   1      48.150  27.015  24.418  1.00  0.00     0.055 A 
ATOM     54  C   UNL A   1      48.696  25.636  26.309  1.00  0.00     0.041 A 
ATOM     55  F   UNL A   1      47.339  25.692  28.213  1.00  0.00    -0.206 F 
ATOM     56  C   UNL A   1      48.969  26.050  25.010  1.00  0.00     0.022 A 
BRANCH  53  57
ATOM     57  S   UNL A   1      48.371  27.445  22.671  1.00  0.00     0.124 S 
ATOM     58  O   UNL A   1      47.155  28.202  22.398  1.00  0.00    -0.237 OA
ATOM     59  O   UNL A   1      49.612  28.213  22.705  1.00  0.00    -0.237 OA
ATOM     60  O   UNL A   1      48.460  26.145  22.010  1.00  0.00    -0.744 OA
ENDBRANCH  53  57
ENDBRANCH  26  50
BRANCH  38  61
ATOM     61  C   UNL A   1      45.342  33.079  29.773  1.00  0.00     0.023 A 
ATOM     62  C   UNL A   1      45.427  34.174  28.896  1.00  0.00     0.031 A 
ATOM     63  C   UNL A   1      46.105  33.112  30.952  1.00  0.00     0.131 A 
ATOM     64  C   UNL A   1      46.309  35.226  29.179  1.00  0.00     0.055 A 
ATOM     65  C   UNL A   1      46.927  34.194  31.264  1.00  0.00     0.041 A 
ATOM     66  F   UNL A   1      46.068  32.088  31.821  1.00  0.00    -0.206 F 
ATOM     67  C   UNL A   1      47.045  35.253  30.367  1.00  0.00     0.022 A 
BRANCH  64  68
ATOM     68  S   UNL A   1      46.566  36.507  27.921  1.00  0.00     0.124 S 
ATOM     69  O   UNL A   1      46.591  35.722  26.692  1.00  0.00    -0.237 OA
ATOM     70  O   UNL A   1      45.398  37.364  28.106  1.00  0.00    -0.237 OA
ATOM     71  O   UNL A   1      47.842  37.109  28.300  1.00  0.00    -0.744 OA
ENDBRANCH  64  68
ENDBRANCH  38  61
ENDBRANCH  12  13
ENDBRANCH   5   7
ENDBRANCH   2   3
ENDBRANCH   1   2
BRANCH   1  72
ATOM     72  C   UNL A   1      34.236  22.558  27.571  1.00  0.00     0.117 C 
BRANCH  72  73
ATOM     73  N   UNL A   1      32.793  22.541  27.584  1.00  0.00    -0.355 N 
ATOM     74  C   UNL A   1      31.897  23.404  27.045  1.00  0.00     0.228 C 
ATOM     75  H   UNL A   1      32.394  21.779  28.063  1.00  0.00     0.163 HD
ATOM     76  O   UNL A   1      30.707  23.201  27.317  1.00  0.00    -0.274 OA
BRANCH  74  77
ATOM     77  C   UNL A   1      32.293  24.627  26.193  1.00  0.00     0.124 C 
BRANCH  77  78
ATOM     78  C   UNL A   1      32.711  24.166  24.786  1.00  0.00    -0.035 A 
ATOM     79  C   UNL A   1      33.907  24.616  24.191  1.00  0.00     0.004 A 
ATOM     80  C   UNL A   1      31.943  23.230  24.074  1.00  0.00     0.004 A 
ATOM     81  C   UNL A   1      34.391  24.062  23.007  1.00  0.00     0.000 A 
ATOM     82  C   UNL A   1      32.428  22.677  22.880  1.00  0.00     0.000 A 
ATOM     83  C   UNL A   1      33.662  23.071  22.365  1.00  0.00     0.000 A 
ENDBRANCH  77  78
BRANCH  77  84
ATOM     84  C   UNL A   1      31.490  26.005  26.352  1.00  0.00     0.108 C 
BRANCH  84  85
ATOM     85  C   UNL A   1      32.272  27.326  26.680  1.00  0.00    -0.036 A 
ATOM     86  C   UNL A   1      31.636  28.491  27.157  1.00  0.00     0.004 A 
ATOM     87  C   UNL A   1      33.653  27.453  26.442  1.00  0.00     0.004 A 
ATOM     88  C   UNL A   1      32.316  29.718  27.251  1.00  0.00     0.000 A 
ATOM     89  C   UNL A   1      34.329  28.677  26.501  1.00  0.00     0.000 A 
ATOM     90  C   UNL A   1      33.653  29.819  26.887  1.00  0.00     0.000 A 
ENDBRANCH  84  85
BRANCH  84  91
ATOM     91  C   UNL A   1      30.336  26.222  25.295  1.00  0.00     0.171 C 
ATOM     92  O   UNL A   1      29.270  25.601  25.351  1.00  0.00    -0.293 OA
BRANCH  91  93
ATOM     93  C   UNL A   1      30.418  27.206  24.182  1.00  0.00     0.018 A 
ATOM     94  C   UNL A   1      29.258  27.834  23.709  1.00  0.00     0.012 A 
ATOM     95  C   UNL A   1      31.652  27.503  23.597  1.00  0.00     0.012 A 
ATOM     96  C   UNL A   1      29.354  28.858  22.759  1.00  0.00     0.001 A 
ATOM     97  C   UNL A   1      31.744  28.530  22.653  1.00  0.00     0.001 A 
ATOM     98  C   UNL A   1      30.601  29.225  22.253  1.00  0.00     0.000 A 
ENDBRANCH  91  93
ENDBRANCH  84  91
ENDBRANCH  77  84
ENDBRANCH  74  77
ENDBRANCH  72  73
ENDBRANCH   1  72
TORSDOF 18
ENDMDL
