MODEL 1
REMARK VINA RESULT:     -12.1      0.000      0.000
REMARK SMILES CCCCCNC(=O)N1Cc2nc[nH]c2C[C@@H]1C(=O)NCCCNC(=O)c1ccc(-c2c3nc(c(-c4cc(S(=O)(=O)[O-])ccc4F)c4ccc([nH]4)c(-c4cc(S(=O)(=O)[O-])ccc4F)c4nc(c(-c5cc(S(=O)(=O)[O-])ccc5F)c5ccc2[nH]5)C=C4)C=C3)cc1
REMARK SMILES IDX 21 1 20 2 18 3 19 4 17 6 9 7 10 8 11 9 16 10 12 11 15 12
REMARK SMILES IDX 13 13 14 14 7 16 6 17 8 19 5 20 4 21 3 22 2 23 1 24 22 25
REMARK SMILES IDX 23 26 24 27 25 28 26 30 27 31 28 32 89 33 29 34 88 35 30 36
REMARK SMILES IDX 31 37 32 38 82 39 33 40 87 41 81 42 83 43 34 44 86 45 80 46
REMARK SMILES IDX 79 47 35 49 67 50 47 51 66 52 48 53 51 54 65 55 84 56 49 57
REMARK SMILES IDX 50 58 64 60 85 61 52 62 36 63 37 64 45 65 38 66 44 67 46 68
REMARK SMILES IDX 43 69 39 70 40 71 41 72 42 73 68 74 69 75 77 76 70 77 76 78
REMARK SMILES IDX 78 79 75 80 71 81 72 82 73 83 74 84 53 85 54 86 62 87 55 88
REMARK SMILES IDX 61 89 63 90 60 91 56 92 57 93 58 94 59 95
REMARK H PARENT 20 5 14 15 6 18 24 29 83 48 51 59
REMARK Flexibility Score: inf
ROOT
ATOM      1  C   UNL A   1      32.002  27.737  26.502  1.00  0.00     0.117 C 
ENDROOT
BRANCH   1   2
ATOM      2  N   UNL A   1      33.012  26.866  25.957  1.00  0.00    -0.354 N 
ATOM      3  C   UNL A   1      33.435  26.634  24.658  1.00  0.00     0.243 C 
ATOM      4  O   UNL A   1      34.068  27.393  23.964  1.00  0.00    -0.273 OA
ATOM      5  H   UNL A   1      33.489  26.334  26.634  1.00  0.00     0.163 HD
BRANCH   3   6
ATOM      6  C   UNL A   1      32.783  25.342  24.178  1.00  0.00     0.182 C 
ATOM      7  N   UNL A   1      32.936  25.036  22.729  1.00  0.00    -0.306 N 
ATOM      8  C   UNL A   1      33.409  23.626  22.532  1.00  0.00     0.180 C 
ATOM      9  C   UNL A   1      32.674  22.725  23.505  1.00  0.00     0.081 A 
ATOM     10  C   UNL A   1      31.506  24.656  24.714  1.00  0.00     0.091 C 
ATOM     11  N   UNL A   1      32.998  21.414  23.757  1.00  0.00    -0.240 NA
ATOM     12  C   UNL A   1      31.782  23.187  24.466  1.00  0.00     0.042 A 
ATOM     13  C   UNL A   1      32.263  21.070  24.794  1.00  0.00     0.197 A 
ATOM     14  N   UNL A   1      31.459  22.098  25.222  1.00  0.00    -0.348 N 
ATOM     15  H   UNL A   1      30.782  22.058  25.935  1.00  0.00     0.167 HD
BRANCH   7  16
ATOM     16  C   UNL A   1      32.552  25.754  21.634  1.00  0.00     0.318 C 
ATOM     17  N   UNL A   1      31.720  26.832  21.632  1.00  0.00    -0.338 N 
ATOM     18  H   UNL A   1      31.928  27.338  20.813  1.00  0.00     0.165 HD
ATOM     19  O   UNL A   1      33.099  25.556  20.544  1.00  0.00    -0.249 OA
BRANCH  17  20
ATOM     20  C   UNL A   1      30.616  27.595  22.332  1.00  0.00     0.117 C 
BRANCH  20  21
ATOM     21  C   UNL A   1      30.781  29.000  23.038  1.00  0.00     0.021 C 
BRANCH  21  22
ATOM     22  C   UNL A   1      29.633  29.950  23.436  1.00  0.00     0.002 C 
BRANCH  22  23
ATOM     23  C   UNL A   1      29.090  30.919  22.395  1.00  0.00    -0.003 C 
ATOM     24  C   UNL A   1      28.115  30.262  21.433  1.00  0.00     0.004 C 
ENDBRANCH  22  23
ENDBRANCH  21  22
ENDBRANCH  20  21
ENDBRANCH  17  20
ENDBRANCH   7  16
ENDBRANCH   3   6
ENDBRANCH   1   2
BRANCH   1  25
ATOM     25  C   UNL A   1      32.479  29.225  26.501  1.00  0.00     0.042 C 
BRANCH  25  26
ATOM     26  C   UNL A   1      33.820  29.596  27.194  1.00  0.00     0.118 C 
BRANCH  26  27
ATOM     27  N   UNL A   1      33.909  30.926  27.763  1.00  0.00    -0.352 N 
ATOM     28  C   UNL A   1      34.871  31.562  28.531  1.00  0.00     0.251 C 
ATOM     29  H   UNL A   1      33.128  31.491  27.566  1.00  0.00     0.163 HD
ATOM     30  O   UNL A   1      34.572  32.704  28.899  1.00  0.00    -0.269 OA
BRANCH  28  31
ATOM     31  C   UNL A   1      36.225  31.017  28.930  1.00  0.00     0.039 A 
ATOM     32  C   UNL A   1      36.298  29.653  29.272  1.00  0.00     0.014 A 
ATOM     33  C   UNL A   1      37.413  31.746  29.019  1.00  0.00     0.014 A 
ATOM     34  C   UNL A   1      37.507  29.047  29.657  1.00  0.00     0.010 A 
ATOM     35  C   UNL A   1      38.622  31.161  29.442  1.00  0.00     0.010 A 
ATOM     36  C   UNL A   1      38.685  29.797  29.736  1.00  0.00    -0.014 A 
BRANCH  36  37
ATOM     37  C   UNL A   1      39.989  29.094  29.776  1.00  0.00     0.031 A 
ATOM     38  C   UNL A   1      40.477  28.796  31.160  1.00  0.00     0.074 A 
ATOM     39  C   UNL A   1      40.621  28.450  28.769  1.00  0.00     0.049 A 
ATOM     40  N   UNL A   1      41.594  29.127  31.722  1.00  0.00    -0.248 NA
ATOM     41  C   UNL A   1      39.551  28.083  32.053  1.00  0.00     0.031 C 
ATOM     42  C   UNL A   1      40.158  28.266  27.396  1.00  0.00     0.029 A 
ATOM     43  N   UNL A   1      41.771  27.697  28.813  1.00  0.00    -0.354 N 
ATOM     44  C   UNL A   1      41.592  28.517  32.979  1.00  0.00     0.074 A 
ATOM     45  C   UNL A   1      40.253  28.034  33.182  1.00  0.00     0.031 C 
ATOM     46  C   UNL A   1      40.886  27.288  26.810  1.00  0.00     0.029 A 
ATOM     47  C   UNL A   1      41.932  26.844  27.724  1.00  0.00     0.049 A 
ATOM     48  H   UNL A   1      42.422  27.755  29.549  1.00  0.00     0.167 HD
ATOM     49  C   UNL A   1      42.732  28.294  33.693  1.00  0.00     0.034 A 
ATOM     50  C   UNL A   1      42.803  25.805  27.598  1.00  0.00     0.034 A 
ATOM     51  C   UNL A   1      43.835  29.082  33.195  1.00  0.00     0.049 A 
ATOM     52  C   UNL A   1      43.904  26.003  28.570  1.00  0.00     0.074 A 
ATOM     53  C   UNL A   1      44.042  30.430  32.966  1.00  0.00     0.029 A 
ATOM     54  N   UNL A   1      44.866  28.446  32.544  1.00  0.00    -0.354 N 
ATOM     55  N   UNL A   1      44.792  26.952  28.485  1.00  0.00    -0.248 NA
ATOM     56  C   UNL A   1      43.823  25.350  29.868  1.00  0.00     0.031 C 
ATOM     57  C   UNL A   1      44.841  30.485  31.786  1.00  0.00     0.029 A 
ATOM     58  C   UNL A   1      45.110  29.170  31.404  1.00  0.00     0.049 A 
ATOM     59  H   UNL A   1      45.336  27.632  32.838  1.00  0.00     0.167 HD
ATOM     60  C   UNL A   1      45.069  27.304  29.793  1.00  0.00     0.074 A 
ATOM     61  C   UNL A   1      44.547  26.204  30.596  1.00  0.00     0.031 C 
ATOM     62  C   UNL A   1      45.433  28.579  30.122  1.00  0.00     0.034 A 
BRANCH  49  63
ATOM     63  C   UNL A   1      42.947  27.147  34.664  1.00  0.00     0.023 A 
ATOM     64  C   UNL A   1      43.743  26.067  34.228  1.00  0.00     0.031 A 
ATOM     65  C   UNL A   1      42.213  26.919  35.849  1.00  0.00     0.131 A 
ATOM     66  C   UNL A   1      43.701  24.822  34.881  1.00  0.00     0.055 A 
ATOM     67  C   UNL A   1      42.247  25.706  36.547  1.00  0.00     0.041 A 
ATOM     68  F   UNL A   1      41.348  27.809  36.348  1.00  0.00    -0.206 F 
ATOM     69  C   UNL A   1      42.965  24.636  36.045  1.00  0.00     0.022 A 
BRANCH  66  70
ATOM     70  S   UNL A   1      44.455  23.396  34.054  1.00  0.00     0.124 S 
ATOM     71  O   UNL A   1      44.200  22.330  35.018  1.00  0.00    -0.237 OA
ATOM     72  O   UNL A   1      43.697  23.334  32.810  1.00  0.00    -0.237 OA
ATOM     73  O   UNL A   1      45.855  23.787  33.914  1.00  0.00    -0.744 OA
ENDBRANCH  66  70
ENDBRANCH  49  63
BRANCH  50  74
ATOM     74  C   UNL A   1      42.637  24.540  26.824  1.00  0.00     0.023 A 
ATOM     75  C   UNL A   1      43.662  24.004  26.014  1.00  0.00     0.031 A 
ATOM     76  C   UNL A   1      41.521  23.707  27.058  1.00  0.00     0.131 A 
ATOM     77  C   UNL A   1      43.538  22.703  25.469  1.00  0.00     0.055 A 
ATOM     78  C   UNL A   1      41.394  22.432  26.502  1.00  0.00     0.041 A 
ATOM     79  F   UNL A   1      40.548  24.067  27.910  1.00  0.00    -0.206 F 
ATOM     80  C   UNL A   1      42.407  21.920  25.709  1.00  0.00     0.022 A 
BRANCH  77  81
ATOM     81  S   UNL A   1      44.913  21.948  24.540  1.00  0.00     0.124 S 
ATOM     82  O   UNL A   1      44.349  20.664  24.141  1.00  0.00    -0.237 OA
ATOM     83  O   UNL A   1      45.148  22.914  23.474  1.00  0.00    -0.237 OA
ATOM     84  O   UNL A   1      45.986  21.865  25.533  1.00  0.00    -0.744 OA
ENDBRANCH  77  81
ENDBRANCH  50  74
BRANCH  62  85
ATOM     85  C   UNL A   1      45.919  29.513  29.035  1.00  0.00     0.023 A 
ATOM     86  C   UNL A   1      45.108  30.457  28.367  1.00  0.00     0.031 A 
ATOM     87  C   UNL A   1      47.296  29.520  28.747  1.00  0.00     0.131 A 
ATOM     88  C   UNL A   1      45.679  31.346  27.439  1.00  0.00     0.055 A 
ATOM     89  C   UNL A   1      47.863  30.419  27.844  1.00  0.00     0.041 A 
ATOM     90  F   UNL A   1      48.129  28.666  29.368  1.00  0.00    -0.206 F 
ATOM     91  C   UNL A   1      47.053  31.331  27.180  1.00  0.00     0.022 A 
BRANCH  88  92
ATOM     92  S   UNL A   1      44.633  32.528  26.533  1.00  0.00     0.124 S 
ATOM     93  O   UNL A   1      43.717  31.675  25.784  1.00  0.00    -0.237 OA
ATOM     94  O   UNL A   1      44.037  33.311  27.612  1.00  0.00    -0.237 OA
ATOM     95  O   UNL A   1      45.593  33.264  25.707  1.00  0.00    -0.744 OA
ENDBRANCH  88  92
ENDBRANCH  62  85
ENDBRANCH  36  37
ENDBRANCH  28  31
ENDBRANCH  26  27
ENDBRANCH  25  26
ENDBRANCH   1  25
TORSDOF 18
ENDMDL
MODEL 2
REMARK VINA RESULT:     -12.0      3.563      8.801
REMARK SMILES CCCCCNC(=O)N1Cc2nc[nH]c2C[C@@H]1C(=O)NCCCNC(=O)c1ccc(-c2c3nc(c(-c4cc(S(=O)(=O)[O-])ccc4F)c4ccc([nH]4)c(-c4cc(S(=O)(=O)[O-])ccc4F)c4nc(c(-c5cc(S(=O)(=O)[O-])ccc5F)c5ccc2[nH]5)C=C4)C=C3)cc1
REMARK SMILES IDX 21 1 20 2 18 3 19 4 17 6 9 7 10 8 11 9 16 10 12 11 15 12
REMARK SMILES IDX 13 13 14 14 7 16 6 17 8 19 5 20 4 21 3 22 2 23 1 24 22 25
REMARK SMILES IDX 23 26 24 27 25 28 26 30 27 31 28 32 89 33 29 34 88 35 30 36
REMARK SMILES IDX 31 37 32 38 82 39 33 40 87 41 81 42 83 43 34 44 86 45 80 46
REMARK SMILES IDX 79 47 35 49 67 50 47 51 66 52 48 53 51 54 65 55 84 56 49 57
REMARK SMILES IDX 50 58 64 60 85 61 52 62 36 63 37 64 45 65 38 66 44 67 46 68
REMARK SMILES IDX 43 69 39 70 40 71 41 72 42 73 68 74 69 75 77 76 70 77 76 78
REMARK SMILES IDX 78 79 75 80 71 81 72 82 73 83 74 84 53 85 54 86 62 87 55 88
REMARK SMILES IDX 61 89 63 90 60 91 56 92 57 93 58 94 59 95
REMARK H PARENT 20 5 14 15 6 18 24 29 83 48 51 59
REMARK Flexibility Score: inf
ROOT
ATOM      1  C   UNL A   1      36.638  22.563  23.435  1.00  0.00     0.117 C 
ENDROOT
BRANCH   1   2
ATOM      2  N   UNL A   1      35.378  23.167  23.787  1.00  0.00    -0.354 N 
ATOM      3  C   UNL A   1      34.749  23.358  25.006  1.00  0.00     0.243 C 
ATOM      4  O   UNL A   1      35.079  24.135  25.869  1.00  0.00    -0.273 OA
ATOM      5  H   UNL A   1      34.868  23.506  23.016  1.00  0.00     0.163 HD
BRANCH   3   6
ATOM      6  C   UNL A   1      33.692  22.270  25.163  1.00  0.00     0.182 C 
ATOM      7  N   UNL A   1      32.529  22.355  24.239  1.00  0.00    -0.306 N 
ATOM      8  C   UNL A   1      32.275  21.030  23.583  1.00  0.00     0.180 C 
ATOM      9  C   UNL A   1      32.444  19.934  24.617  1.00  0.00     0.081 A 
ATOM     10  C   UNL A   1      33.273  21.520  26.447  1.00  0.00     0.091 C 
ATOM     11  N   UNL A   1      32.498  18.591  24.333  1.00  0.00    -0.240 NA
ATOM     12  C   UNL A   1      32.857  20.160  25.924  1.00  0.00     0.042 A 
ATOM     13  C   UNL A   1      32.857  18.014  25.461  1.00  0.00     0.197 A 
ATOM     14  N   UNL A   1      33.026  18.924  26.476  1.00  0.00    -0.348 N 
ATOM     15  H   UNL A   1      33.230  18.723  27.418  1.00  0.00     0.167 HD
BRANCH   7  16
ATOM     16  C   UNL A   1      31.616  23.355  24.065  1.00  0.00     0.318 C 
ATOM     17  N   UNL A   1      31.485  24.466  24.840  1.00  0.00    -0.338 N 
ATOM     18  H   UNL A   1      31.038  25.141  24.280  1.00  0.00     0.165 HD
ATOM     19  O   UNL A   1      30.927  23.389  23.039  1.00  0.00    -0.249 OA
BRANCH  17  20
ATOM     20  C   UNL A   1      31.722  25.122  26.185  1.00  0.00     0.117 C 
BRANCH  20  21
ATOM     21  C   UNL A   1      31.298  26.594  26.570  1.00  0.00     0.021 C 
BRANCH  21  22
ATOM     22  C   UNL A   1      32.191  27.848  26.462  1.00  0.00     0.002 C 
BRANCH  22  23
ATOM     23  C   UNL A   1      33.698  27.664  26.343  1.00  0.00    -0.003 C 
ATOM     24  C   UNL A   1      34.477  28.881  26.810  1.00  0.00     0.004 C 
ENDBRANCH  22  23
ENDBRANCH  21  22
ENDBRANCH  20  21
ENDBRANCH  17  20
ENDBRANCH   7  16
ENDBRANCH   3   6
ENDBRANCH   1   2
BRANCH   1  25
ATOM     25  C   UNL A   1      37.307  21.889  24.676  1.00  0.00     0.042 C 
BRANCH  25  26
ATOM     26  C   UNL A   1      38.184  22.748  25.630  1.00  0.00     0.118 C 
BRANCH  26  27
ATOM     27  N   UNL A   1      39.082  22.026  26.510  1.00  0.00    -0.352 N 
ATOM     28  C   UNL A   1      40.055  22.435  27.408  1.00  0.00     0.251 C 
ATOM     29  H   UNL A   1      38.982  21.049  26.458  1.00  0.00     0.163 HD
ATOM     30  O   UNL A   1      40.682  21.518  27.949  1.00  0.00    -0.269 OA
BRANCH  28  31
ATOM     31  C   UNL A   1      40.395  23.857  27.798  1.00  0.00     0.039 A 
ATOM     32  C   UNL A   1      39.384  24.827  27.653  1.00  0.00     0.014 A 
ATOM     33  C   UNL A   1      41.631  24.310  28.264  1.00  0.00     0.014 A 
ATOM     34  C   UNL A   1      39.597  26.177  27.987  1.00  0.00     0.010 A 
ATOM     35  C   UNL A   1      41.869  25.665  28.564  1.00  0.00     0.010 A 
ATOM     36  C   UNL A   1      40.843  26.606  28.455  1.00  0.00    -0.014 A 
BRANCH  36  37
ATOM     37  C   UNL A   1      40.945  27.916  29.141  1.00  0.00     0.031 A 
ATOM     38  C   UNL A   1      41.981  28.828  28.558  1.00  0.00     0.074 A 
ATOM     39  C   UNL A   1      40.062  28.484  29.992  1.00  0.00     0.049 A 
ATOM     40  N   UNL A   1      42.988  29.397  29.137  1.00  0.00    -0.248 NA
ATOM     41  C   UNL A   1      41.908  29.078  27.111  1.00  0.00     0.031 C 
ATOM     42  C   UNL A   1      38.772  27.954  30.425  1.00  0.00     0.029 A 
ATOM     43  N   UNL A   1      40.084  29.742  30.547  1.00  0.00    -0.354 N 
ATOM     44  C   UNL A   1      43.577  30.219  28.173  1.00  0.00     0.074 A 
ATOM     45  C   UNL A   1      42.972  29.855  26.920  1.00  0.00     0.031 C 
ATOM     46  C   UNL A   1      38.047  28.952  30.981  1.00  0.00     0.029 A 
ATOM     47  C   UNL A   1      38.852  30.167  31.037  1.00  0.00     0.049 A 
ATOM     48  H   UNL A   1      40.898  30.294  30.593  1.00  0.00     0.167 HD
ATOM     49  C   UNL A   1      44.392  31.264  28.492  1.00  0.00     0.034 A 
ATOM     50  C   UNL A   1      38.486  31.428  31.398  1.00  0.00     0.034 A 
ATOM     51  C   UNL A   1      44.865  31.174  29.854  1.00  0.00     0.049 A 
ATOM     52  C   UNL A   1      39.717  32.207  31.673  1.00  0.00     0.074 A 
ATOM     53  C   UNL A   1      45.530  30.211  30.592  1.00  0.00     0.029 A 
ATOM     54  N   UNL A   1      44.393  32.074  30.782  1.00  0.00    -0.354 N 
ATOM     55  N   UNL A   1      40.509  31.987  32.684  1.00  0.00    -0.248 NA
ATOM     56  C   UNL A   1      40.283  33.026  30.613  1.00  0.00     0.031 C 
ATOM     57  C   UNL A   1      44.972  30.300  31.901  1.00  0.00     0.029 A 
ATOM     58  C   UNL A   1      44.044  31.341  31.889  1.00  0.00     0.049 A 
ATOM     59  H   UNL A   1      44.322  33.049  30.674  1.00  0.00     0.167 HD
ATOM     60  C   UNL A   1      41.779  32.262  32.211  1.00  0.00     0.074 A 
ATOM     61  C   UNL A   1      41.567  33.018  30.982  1.00  0.00     0.031 C 
ATOM     62  C   UNL A   1      42.874  31.608  32.700  1.00  0.00     0.034 A 
BRANCH  49  63
ATOM     63  C   UNL A   1      44.543  32.537  27.679  1.00  0.00     0.023 A 
ATOM     64  C   UNL A   1      43.904  33.698  28.164  1.00  0.00     0.031 A 
ATOM     65  C   UNL A   1      45.023  32.619  26.353  1.00  0.00     0.131 A 
ATOM     66  C   UNL A   1      43.670  34.803  27.326  1.00  0.00     0.055 A 
ATOM     67  C   UNL A   1      44.869  33.757  25.554  1.00  0.00     0.041 A 
ATOM     68  F   UNL A   1      45.577  31.580  25.718  1.00  0.00    -0.206 F 
ATOM     69  C   UNL A   1      44.157  34.845  26.025  1.00  0.00     0.022 A 
BRANCH  66  70
ATOM     70  S   UNL A   1      42.531  36.089  27.903  1.00  0.00     0.124 S 
ATOM     71  O   UNL A   1      41.257  35.608  27.378  1.00  0.00    -0.237 OA
ATOM     72  O   UNL A   1      42.701  36.015  29.350  1.00  0.00    -0.237 OA
ATOM     73  O   UNL A   1      43.045  37.304  27.276  1.00  0.00    -0.744 OA
ENDBRANCH  66  70
ENDBRANCH  49  63
BRANCH  50  74
ATOM     74  C   UNL A   1      37.138  32.062  31.325  1.00  0.00     0.023 A 
ATOM     75  C   UNL A   1      36.553  32.467  30.104  1.00  0.00     0.031 A 
ATOM     76  C   UNL A   1      36.294  32.071  32.457  1.00  0.00     0.131 A 
ATOM     77  C   UNL A   1      35.196  32.868  30.058  1.00  0.00     0.055 A 
ATOM     78  C   UNL A   1      34.961  32.486  32.411  1.00  0.00     0.041 A 
ATOM     79  F   UNL A   1      36.710  31.590  33.640  1.00  0.00    -0.206 F 
ATOM     80  C   UNL A   1      34.403  32.881  31.207  1.00  0.00     0.022 A 
BRANCH  77  81
ATOM     81  S   UNL A   1      34.394  33.258  28.467  1.00  0.00     0.124 S 
ATOM     82  O   UNL A   1      33.650  32.035  28.189  1.00  0.00    -0.237 OA
ATOM     83  O   UNL A   1      33.606  34.441  28.788  1.00  0.00    -0.237 OA
ATOM     84  O   UNL A   1      35.525  33.506  27.571  1.00  0.00    -0.744 OA
ENDBRANCH  77  81
ENDBRANCH  50  74
BRANCH  62  85
ATOM     85  C   UNL A   1      42.769  30.875  34.020  1.00  0.00     0.023 A 
ATOM     86  C   UNL A   1      42.351  29.533  34.161  1.00  0.00     0.031 A 
ATOM     87  C   UNL A   1      43.225  31.538  35.174  1.00  0.00     0.131 A 
ATOM     88  C   UNL A   1      42.381  28.914  35.423  1.00  0.00     0.055 A 
ATOM     89  C   UNL A   1      43.276  30.914  36.420  1.00  0.00     0.041 A 
ATOM     90  F   UNL A   1      43.663  32.807  35.105  1.00  0.00    -0.206 F 
ATOM     91  C   UNL A   1      42.845  29.599  36.550  1.00  0.00     0.022 A 
BRANCH  88  92
ATOM     92  S   UNL A   1      41.791  27.204  35.624  1.00  0.00     0.124 S 
ATOM     93  O   UNL A   1      40.886  27.016  34.496  1.00  0.00    -0.237 OA
ATOM     94  O   UNL A   1      43.033  26.437  35.581  1.00  0.00    -0.237 OA
ATOM     95  O   UNL A   1      41.136  27.224  36.933  1.00  0.00    -0.744 OA
ENDBRANCH  88  92
ENDBRANCH  62  85
ENDBRANCH  36  37
ENDBRANCH  28  31
ENDBRANCH  26  27
ENDBRANCH  25  26
ENDBRANCH   1  25
TORSDOF 18
ENDMDL
MODEL 3
REMARK VINA RESULT:     -12.0      2.263      6.997
REMARK SMILES CCCCCNC(=O)N1Cc2nc[nH]c2C[C@@H]1C(=O)NCCCNC(=O)c1ccc(-c2c3nc(c(-c4cc(S(=O)(=O)[O-])ccc4F)c4ccc([nH]4)c(-c4cc(S(=O)(=O)[O-])ccc4F)c4nc(c(-c5cc(S(=O)(=O)[O-])ccc5F)c5ccc2[nH]5)C=C4)C=C3)cc1
REMARK SMILES IDX 21 1 20 2 18 3 19 4 17 6 9 7 10 8 11 9 16 10 12 11 15 12
REMARK SMILES IDX 13 13 14 14 7 16 6 17 8 19 5 20 4 21 3 22 2 23 1 24 22 25
REMARK SMILES IDX 23 26 24 27 25 28 26 30 27 31 28 32 89 33 29 34 88 35 30 36
REMARK SMILES IDX 31 37 32 38 82 39 33 40 87 41 81 42 83 43 34 44 86 45 80 46
REMARK SMILES IDX 79 47 35 49 67 50 47 51 66 52 48 53 51 54 65 55 84 56 49 57
REMARK SMILES IDX 50 58 64 60 85 61 52 62 36 63 37 64 45 65 38 66 44 67 46 68
REMARK SMILES IDX 43 69 39 70 40 71 41 72 42 73 68 74 69 75 77 76 70 77 76 78
REMARK SMILES IDX 78 79 75 80 71 81 72 82 73 83 74 84 53 85 54 86 62 87 55 88
REMARK SMILES IDX 61 89 63 90 60 91 56 92 57 93 58 94 59 95
REMARK H PARENT 20 5 14 15 6 18 24 29 83 48 51 59
REMARK Flexibility Score: inf
ROOT
ATOM      1  C   UNL A   1      32.307  27.189  26.843  1.00  0.00     0.117 C 
ENDROOT
BRANCH   1   2
ATOM      2  N   UNL A   1      31.665  27.058  25.560  1.00  0.00    -0.354 N 
ATOM      3  C   UNL A   1      30.725  26.162  25.081  1.00  0.00     0.243 C 
ATOM      4  O   UNL A   1      29.559  26.111  25.392  1.00  0.00    -0.273 OA
ATOM      5  H   UNL A   1      31.950  27.730  24.900  1.00  0.00     0.163 HD
BRANCH   3   6
ATOM      6  C   UNL A   1      31.458  25.112  24.253  1.00  0.00     0.182 C 
ATOM      7  N   UNL A   1      32.270  25.629  23.118  1.00  0.00    -0.306 N 
ATOM      8  C   UNL A   1      33.651  25.043  23.144  1.00  0.00     0.180 C 
ATOM      9  C   UNL A   1      33.549  23.572  23.498  1.00  0.00     0.081 A 
ATOM     10  C   UNL A   1      31.032  23.656  23.956  1.00  0.00     0.091 C 
ATOM     11  N   UNL A   1      34.615  22.768  23.819  1.00  0.00    -0.240 NA
ATOM     12  C   UNL A   1      32.358  22.935  23.827  1.00  0.00     0.042 A 
ATOM     13  C   UNL A   1      34.083  21.646  24.256  1.00  0.00     0.197 A 
ATOM     14  N   UNL A   1      32.709  21.677  24.220  1.00  0.00    -0.348 N 
ATOM     15  H   UNL A   1      32.098  20.936  24.435  1.00  0.00     0.167 HD
BRANCH   7  16
ATOM     16  C   UNL A   1      31.894  26.366  22.033  1.00  0.00     0.318 C 
ATOM     17  N   UNL A   1      31.714  27.715  22.002  1.00  0.00    -0.338 N 
ATOM     18  H   UNL A   1      31.821  27.985  21.061  1.00  0.00     0.165 HD
ATOM     19  O   UNL A   1      31.854  25.841  20.915  1.00  0.00    -0.249 OA
BRANCH  17  20
ATOM     20  C   UNL A   1      31.421  28.984  22.775  1.00  0.00     0.117 C 
BRANCH  20  21
ATOM     21  C   UNL A   1      30.012  29.693  22.866  1.00  0.00     0.021 C 
BRANCH  21  22
ATOM     22  C   UNL A   1      28.641  28.995  22.750  1.00  0.00     0.002 C 
BRANCH  22  23
ATOM     23  C   UNL A   1      27.392  29.762  23.162  1.00  0.00    -0.003 C 
ATOM     24  C   UNL A   1      27.654  31.244  23.367  1.00  0.00     0.004 C 
ENDBRANCH  22  23
ENDBRANCH  21  22
ENDBRANCH  20  21
ENDBRANCH  17  20
ENDBRANCH   7  16
ENDBRANCH   3   6
ENDBRANCH   1   2
BRANCH   1  25
ATOM     25  C   UNL A   1      32.827  28.646  27.069  1.00  0.00     0.042 C 
BRANCH  25  26
ATOM     26  C   UNL A   1      34.353  28.894  27.233  1.00  0.00     0.118 C 
BRANCH  26  27
ATOM     27  N   UNL A   1      34.742  29.978  28.114  1.00  0.00    -0.352 N 
ATOM     28  C   UNL A   1      35.906  30.257  28.811  1.00  0.00     0.251 C 
ATOM     29  H   UNL A   1      34.036  30.651  28.244  1.00  0.00     0.163 HD
ATOM     30  O   UNL A   1      35.854  31.261  29.530  1.00  0.00    -0.269 OA
BRANCH  28  31
ATOM     31  C   UNL A   1      37.207  29.485  28.757  1.00  0.00     0.039 A 
ATOM     32  C   UNL A   1      38.025  29.674  27.626  1.00  0.00     0.014 A 
ATOM     33  C   UNL A   1      37.666  28.578  29.715  1.00  0.00     0.014 A 
ATOM     34  C   UNL A   1      39.253  29.006  27.479  1.00  0.00     0.010 A 
ATOM     35  C   UNL A   1      38.875  27.872  29.559  1.00  0.00     0.010 A 
ATOM     36  C   UNL A   1      39.694  28.103  28.452  1.00  0.00    -0.014 A 
BRANCH  36  37
ATOM     37  C   UNL A   1      41.119  27.700  28.472  1.00  0.00     0.031 A 
ATOM     38  C   UNL A   1      41.398  26.415  27.754  1.00  0.00     0.074 A 
ATOM     39  C   UNL A   1      42.196  28.457  28.780  1.00  0.00     0.049 A 
ATOM     40  N   UNL A   1      41.962  25.338  28.195  1.00  0.00    -0.248 NA
ATOM     41  C   UNL A   1      40.917  26.309  26.368  1.00  0.00     0.031 C 
ATOM     42  C   UNL A   1      42.220  29.871  29.144  1.00  0.00     0.029 A 
ATOM     43  N   UNL A   1      43.531  28.135  28.694  1.00  0.00    -0.354 N 
ATOM     44  C   UNL A   1      42.068  24.477  27.100  1.00  0.00     0.074 A 
ATOM     45  C   UNL A   1      41.267  25.064  26.058  1.00  0.00     0.031 C 
ATOM     46  C   UNL A   1      43.486  30.336  29.031  1.00  0.00     0.029 A 
ATOM     47  C   UNL A   1      44.381  29.239  28.685  1.00  0.00     0.049 A 
ATOM     48  H   UNL A   1      43.857  27.208  28.642  1.00  0.00     0.167 HD
ATOM     49  C   UNL A   1      42.946  23.435  27.061  1.00  0.00     0.034 A 
ATOM     50  C   UNL A   1      45.701  29.274  28.354  1.00  0.00     0.034 A 
ATOM     51  C   UNL A   1      43.440  23.108  28.378  1.00  0.00     0.049 A 
ATOM     52  C   UNL A   1      46.248  27.902  28.479  1.00  0.00     0.074 A 
ATOM     53  C   UNL A   1      42.851  22.786  29.587  1.00  0.00     0.029 A 
ATOM     54  N   UNL A   1      44.754  23.385  28.682  1.00  0.00    -0.354 N 
ATOM     55  N   UNL A   1      46.396  27.277  29.612  1.00  0.00    -0.248 NA
ATOM     56  C   UNL A   1      46.309  27.057  27.296  1.00  0.00     0.031 C 
ATOM     57  C   UNL A   1      43.680  23.394  30.574  1.00  0.00     0.029 A 
ATOM     58  C   UNL A   1      44.745  24.001  29.908  1.00  0.00     0.049 A 
ATOM     59  H   UNL A   1      45.542  23.180  28.130  1.00  0.00     0.167 HD
ATOM     60  C   UNL A   1      46.141  25.948  29.325  1.00  0.00     0.074 A 
ATOM     61  C   UNL A   1      46.223  25.855  27.872  1.00  0.00     0.031 C 
ATOM     62  C   UNL A   1      45.605  25.111  30.262  1.00  0.00     0.034 A 
BRANCH  49  63
ATOM     63  C   UNL A   1      43.597  22.885  25.805  1.00  0.00     0.023 A 
ATOM     64  C   UNL A   1      43.673  21.482  25.674  1.00  0.00     0.031 A 
ATOM     65  C   UNL A   1      44.377  23.623  24.887  1.00  0.00     0.131 A 
ATOM     66  C   UNL A   1      44.561  20.884  24.761  1.00  0.00     0.055 A 
ATOM     67  C   UNL A   1      45.189  23.022  23.919  1.00  0.00     0.041 A 
ATOM     68  F   UNL A   1      44.480  24.955  24.932  1.00  0.00    -0.206 F 
ATOM     69  C   UNL A   1      45.314  21.646  23.875  1.00  0.00     0.022 A 
BRANCH  66  70
ATOM     70  S   UNL A   1      44.871  19.105  24.909  1.00  0.00     0.124 S 
ATOM     71  O   UNL A   1      43.729  18.675  25.709  1.00  0.00    -0.237 OA
ATOM     72  O   UNL A   1      44.876  18.683  23.513  1.00  0.00    -0.237 OA
ATOM     73  O   UNL A   1      46.165  19.041  25.585  1.00  0.00    -0.744 OA
ENDBRANCH  66  70
ENDBRANCH  49  63
BRANCH  50  74
ATOM     74  C   UNL A   1      46.475  30.390  27.737  1.00  0.00     0.023 A 
ATOM     75  C   UNL A   1      45.864  31.411  26.975  1.00  0.00     0.031 A 
ATOM     76  C   UNL A   1      47.828  30.594  28.087  1.00  0.00     0.131 A 
ATOM     77  C   UNL A   1      46.601  32.556  26.589  1.00  0.00     0.055 A 
ATOM     78  C   UNL A   1      48.557  31.716  27.687  1.00  0.00     0.041 A 
ATOM     79  F   UNL A   1      48.470  29.749  28.909  1.00  0.00    -0.206 F 
ATOM     80  C   UNL A   1      47.944  32.707  26.940  1.00  0.00     0.022 A 
BRANCH  77  81
ATOM     81  S   UNL A   1      45.786  33.942  25.729  1.00  0.00     0.124 S 
ATOM     82  O   UNL A   1      44.811  33.255  24.890  1.00  0.00    -0.237 OA
ATOM     83  O   UNL A   1      45.253  34.733  26.831  1.00  0.00    -0.237 OA
ATOM     84  O   UNL A   1      46.885  34.579  24.999  1.00  0.00    -0.744 OA
ENDBRANCH  77  81
ENDBRANCH  50  74
BRANCH  62  85
ATOM     85  C   UNL A   1      45.650  25.509  31.722  1.00  0.00     0.023 A 
ATOM     86  C   UNL A   1      46.713  25.209  32.602  1.00  0.00     0.031 A 
ATOM     87  C   UNL A   1      44.616  26.329  32.209  1.00  0.00     0.131 A 
ATOM     88  C   UNL A   1      46.703  25.708  33.917  1.00  0.00     0.055 A 
ATOM     89  C   UNL A   1      44.621  26.843  33.505  1.00  0.00     0.041 A 
ATOM     90  F   UNL A   1      43.587  26.676  31.414  1.00  0.00    -0.206 F 
ATOM     91  C   UNL A   1      45.663  26.526  34.368  1.00  0.00     0.022 A 
BRANCH  88  92
ATOM     92  S   UNL A   1      48.041  25.281  35.074  1.00  0.00     0.124 S 
ATOM     93  O   UNL A   1      49.206  25.122  34.212  1.00  0.00    -0.237 OA
ATOM     94  O   UNL A   1      48.061  26.434  35.970  1.00  0.00    -0.237 OA
ATOM     95  O   UNL A   1      47.568  24.040  35.693  1.00  0.00    -0.744 OA
ENDBRANCH  88  92
ENDBRANCH  62  85
ENDBRANCH  36  37
ENDBRANCH  28  31
ENDBRANCH  26  27
ENDBRANCH  25  26
ENDBRANCH   1  25
TORSDOF 18
ENDMDL
