MODEL 1
REMARK VINA RESULT:     -12.1      0.000      0.000
REMARK SMILES CC[C@H](C)[C@H](NS(=O)(=O)c1ccc(C)cc1)C(=O)NCCCNC(=O)c1ccc(-c2c3nc(c(-c4cc(S(=O)(=O)[O-])ccc4F)c4ccc([nH]4)c(-c4cc(S(=O)(=O)[O-])ccc4F)c4nc(c(-c5cc(S(=O)(=O)[O-])ccc5F)c5ccc2[nH]5)C=C4)C=C3)cc1
REMARK SMILES IDX 21 1 20 2 19 3 17 4 18 5 5 7 3 8 4 9 2 10 1 11 6 12 7 14
REMARK SMILES IDX 8 15 9 16 10 17 11 18 16 19 12 20 15 21 13 22 14 23 22 24
REMARK SMILES IDX 23 25 24 26 25 28 26 29 27 30 88 31 28 32 87 33 29 34 30 35
REMARK SMILES IDX 31 36 81 37 32 38 86 39 80 40 82 41 33 42 85 43 79 44 78 45
REMARK SMILES IDX 34 47 66 48 46 49 65 50 47 51 50 52 64 53 83 54 48 55 49 56
REMARK SMILES IDX 63 58 84 59 51 60 35 61 36 62 44 63 37 64 43 65 45 66 42 67
REMARK SMILES IDX 38 68 39 69 40 70 41 71 67 72 68 73 76 74 69 75 75 76 77 77
REMARK SMILES IDX 74 78 70 79 71 80 72 81 73 82 52 83 53 84 61 85 54 86 60 87
REMARK SMILES IDX 62 88 59 89 55 90 56 91 57 92 58 93
REMARK H PARENT 19 6 6 13 23 27 82 46 50 57
REMARK Flexibility Score: inf
ROOT
ATOM      1  C   UNL A   1      33.394  30.737  26.912  1.00  0.00     0.042 C 
ENDROOT
BRANCH   1   2
ATOM      2  C   UNL A   1      32.854  29.691  25.953  1.00  0.00     0.117 C 
BRANCH   2   3
ATOM      3  N   UNL A   1      33.677  29.364  24.809  1.00  0.00    -0.355 N 
ATOM      4  C   UNL A   1      33.701  28.237  24.036  1.00  0.00     0.238 C 
ATOM      5  O   UNL A   1      34.328  28.278  22.971  1.00  0.00    -0.273 OA
ATOM      6  H   UNL A   1      34.321  30.061  24.547  1.00  0.00     0.163 HD
BRANCH   4   7
ATOM      7  C   UNL A   1      33.027  26.913  24.461  1.00  0.00     0.161 C 
BRANCH   7   8
ATOM      8  C   UNL A   1      33.947  25.682  24.816  1.00  0.00     0.013 C 
ATOM      9  C   UNL A   1      33.494  24.843  26.019  1.00  0.00     0.010 C 
BRANCH   8  10
ATOM     10  C   UNL A   1      34.463  24.841  23.607  1.00  0.00     0.002 C 
ATOM     11  C   UNL A   1      33.688  23.573  23.237  1.00  0.00     0.004 C 
ENDBRANCH   8  10
ENDBRANCH   7   8
BRANCH   7  12
ATOM     12  N   UNL A   1      31.903  26.576  23.552  1.00  0.00    -0.198 NA
ATOM     13  H   UNL A   1      32.132  25.672  23.138  1.00  0.00     0.142 HD
BRANCH  12  14
ATOM     14  S   UNL A   1      30.313  26.453  24.102  1.00  0.00     0.241 S 
ATOM     15  O   UNL A   1      29.748  25.329  23.424  1.00  0.00    -0.207 OA
ATOM     16  O   UNL A   1      30.355  26.512  25.557  1.00  0.00    -0.207 OA
BRANCH  14  17
ATOM     17  C   UNL A   1      29.497  27.898  23.495  1.00  0.00     0.082 A 
ATOM     18  C   UNL A   1      30.221  29.088  23.411  1.00  0.00     0.022 A 
ATOM     19  C   UNL A   1      28.119  27.877  23.273  1.00  0.00     0.022 A 
ATOM     20  C   UNL A   1      29.531  30.287  23.307  1.00  0.00     0.005 A 
ATOM     21  C   UNL A   1      27.438  29.078  23.117  1.00  0.00     0.005 A 
ATOM     22  C   UNL A   1      28.135  30.282  23.232  1.00  0.00    -0.051 A 
ATOM     23  C   UNL A   1      27.390  31.564  23.388  1.00  0.00     0.044 C 
ENDBRANCH  14  17
ENDBRANCH  12  14
ENDBRANCH   7  12
ENDBRANCH   4   7
ENDBRANCH   2   3
ENDBRANCH   1   2
BRANCH   1  24
ATOM     24  C   UNL A   1      34.202  30.178  28.071  1.00  0.00     0.118 C 
BRANCH  24  25
ATOM     25  N   UNL A   1      35.019  31.191  28.740  1.00  0.00    -0.352 N 
ATOM     26  C   UNL A   1      36.306  31.086  29.232  1.00  0.00     0.251 C 
ATOM     27  H   UNL A   1      34.592  32.071  28.855  1.00  0.00     0.163 HD
ATOM     28  O   UNL A   1      36.876  32.039  29.754  1.00  0.00    -0.269 OA
BRANCH  26  29
ATOM     29  C   UNL A   1      37.051  29.833  28.986  1.00  0.00     0.039 A 
ATOM     30  C   UNL A   1      37.229  28.975  30.076  1.00  0.00     0.014 A 
ATOM     31  C   UNL A   1      37.779  29.658  27.815  1.00  0.00     0.014 A 
ATOM     32  C   UNL A   1      38.318  28.111  30.087  1.00  0.00     0.010 A 
ATOM     33  C   UNL A   1      38.915  28.874  27.863  1.00  0.00     0.010 A 
ATOM     34  C   UNL A   1      39.222  28.157  29.027  1.00  0.00    -0.014 A 
BRANCH  34  35
ATOM     35  C   UNL A   1      40.565  27.595  29.125  1.00  0.00     0.031 A 
ATOM     36  C   UNL A   1      40.853  26.237  28.634  1.00  0.00     0.074 A 
ATOM     37  C   UNL A   1      41.578  28.369  29.574  1.00  0.00     0.049 A 
ATOM     38  N   UNL A   1      41.872  25.537  28.994  1.00  0.00    -0.248 NA
ATOM     39  C   UNL A   1      39.980  25.536  27.707  1.00  0.00     0.031 C 
ATOM     40  C   UNL A   1      43.014  28.104  29.481  1.00  0.00     0.029 A 
ATOM     41  N   UNL A   1      41.505  29.554  30.296  1.00  0.00    -0.354 N 
ATOM     42  C   UNL A   1      41.971  24.461  28.143  1.00  0.00     0.074 A 
ATOM     43  C   UNL A   1      40.716  24.457  27.428  1.00  0.00     0.031 C 
ATOM     44  C   UNL A   1      43.681  28.970  30.259  1.00  0.00     0.029 A 
ATOM     45  C   UNL A   1      42.689  29.676  31.044  1.00  0.00     0.049 A 
ATOM     46  H   UNL A   1      40.756  30.194  30.287  1.00  0.00     0.167 HD
ATOM     47  C   UNL A   1      43.161  23.796  28.058  1.00  0.00     0.034 A 
ATOM     48  C   UNL A   1      42.624  29.641  32.410  1.00  0.00     0.034 A 
ATOM     49  C   UNL A   1      44.137  24.331  29.022  1.00  0.00     0.049 A 
ATOM     50  C   UNL A   1      43.275  28.393  32.982  1.00  0.00     0.074 A 
ATOM     51  C   UNL A   1      45.256  25.140  28.887  1.00  0.00     0.029 A 
ATOM     52  N   UNL A   1      43.862  24.279  30.389  1.00  0.00    -0.354 N 
ATOM     53  N   UNL A   1      43.567  27.331  32.277  1.00  0.00    -0.248 NA
ATOM     54  C   UNL A   1      43.684  28.252  34.375  1.00  0.00     0.031 C 
ATOM     55  C   UNL A   1      45.596  25.639  30.175  1.00  0.00     0.029 A 
ATOM     56  C   UNL A   1      44.712  25.108  31.100  1.00  0.00     0.049 A 
ATOM     57  H   UNL A   1      43.156  23.726  30.794  1.00  0.00     0.167 HD
ATOM     58  C   UNL A   1      44.198  26.401  33.058  1.00  0.00     0.074 A 
ATOM     59  C   UNL A   1      44.249  27.031  34.368  1.00  0.00     0.031 C 
ATOM     60  C   UNL A   1      44.630  25.200  32.557  1.00  0.00     0.034 A 
BRANCH  47  61
ATOM     61  C   UNL A   1      43.551  22.860  26.921  1.00  0.00     0.023 A 
ATOM     62  C   UNL A   1      43.004  21.557  26.877  1.00  0.00     0.031 A 
ATOM     63  C   UNL A   1      44.469  23.144  25.890  1.00  0.00     0.131 A 
ATOM     64  C   UNL A   1      43.437  20.600  25.935  1.00  0.00     0.055 A 
ATOM     65  C   UNL A   1      44.942  22.181  24.987  1.00  0.00     0.041 A 
ATOM     66  F   UNL A   1      44.911  24.382  25.650  1.00  0.00    -0.206 F 
ATOM     67  C   UNL A   1      44.433  20.895  25.011  1.00  0.00     0.022 A 
BRANCH  64  68
ATOM     68  S   UNL A   1      42.676  18.953  25.924  1.00  0.00     0.124 S 
ATOM     69  O   UNL A   1      41.343  19.232  25.399  1.00  0.00    -0.237 OA
ATOM     70  O   UNL A   1      43.573  18.204  25.051  1.00  0.00    -0.237 OA
ATOM     71  O   UNL A   1      42.712  18.553  27.330  1.00  0.00    -0.744 OA
ENDBRANCH  64  68
ENDBRANCH  47  61
BRANCH  48  72
ATOM     72  C   UNL A   1      41.412  30.360  32.914  1.00  0.00     0.023 A 
ATOM     73  C   UNL A   1      41.456  31.776  32.851  1.00  0.00     0.031 A 
ATOM     74  C   UNL A   1      40.153  29.749  32.961  1.00  0.00     0.131 A 
ATOM     75  C   UNL A   1      40.285  32.515  32.624  1.00  0.00     0.055 A 
ATOM     76  C   UNL A   1      38.977  30.505  32.831  1.00  0.00     0.041 A 
ATOM     77  F   UNL A   1      40.039  28.413  32.979  1.00  0.00    -0.206 F 
ATOM     78  C   UNL A   1      39.042  31.883  32.607  1.00  0.00     0.022 A 
BRANCH  75  79
ATOM     79  S   UNL A   1      40.437  34.231  32.025  1.00  0.00     0.124 S 
ATOM     80  O   UNL A   1      40.862  34.940  33.224  1.00  0.00    -0.237 OA
ATOM     81  O   UNL A   1      41.428  34.120  30.956  1.00  0.00    -0.237 OA
ATOM     82  O   UNL A   1      39.096  34.557  31.539  1.00  0.00    -0.744 OA
ENDBRANCH  75  79
ENDBRANCH  48  72
BRANCH  60  83
ATOM     83  C   UNL A   1      45.110  24.026  33.385  1.00  0.00     0.023 A 
ATOM     84  C   UNL A   1      46.419  23.914  33.874  1.00  0.00     0.031 A 
ATOM     85  C   UNL A   1      44.217  23.002  33.796  1.00  0.00     0.131 A 
ATOM     86  C   UNL A   1      46.821  22.804  34.641  1.00  0.00     0.055 A 
ATOM     87  C   UNL A   1      44.597  21.947  34.631  1.00  0.00     0.041 A 
ATOM     88  F   UNL A   1      42.931  22.988  33.415  1.00  0.00    -0.206 F 
ATOM     89  C   UNL A   1      45.912  21.831  35.045  1.00  0.00     0.022 A 
BRANCH  86  90
ATOM     90  S   UNL A   1      48.580  22.635  35.036  1.00  0.00     0.124 S 
ATOM     91  O   UNL A   1      49.159  23.761  34.309  1.00  0.00    -0.237 OA
ATOM     92  O   UNL A   1      48.588  22.749  36.491  1.00  0.00    -0.237 OA
ATOM     93  O   UNL A   1      48.925  21.314  34.514  1.00  0.00    -0.744 OA
ENDBRANCH  86  90
ENDBRANCH  60  83
ENDBRANCH  34  35
ENDBRANCH  26  29
ENDBRANCH  24  25
ENDBRANCH   1  24
TORSDOF 18
ENDMDL
MODEL 2
REMARK VINA RESULT:     -12.1      4.263     10.628
REMARK SMILES CC[C@H](C)[C@H](NS(=O)(=O)c1ccc(C)cc1)C(=O)NCCCNC(=O)c1ccc(-c2c3nc(c(-c4cc(S(=O)(=O)[O-])ccc4F)c4ccc([nH]4)c(-c4cc(S(=O)(=O)[O-])ccc4F)c4nc(c(-c5cc(S(=O)(=O)[O-])ccc5F)c5ccc2[nH]5)C=C4)C=C3)cc1
REMARK SMILES IDX 21 1 20 2 19 3 17 4 18 5 5 7 3 8 4 9 2 10 1 11 6 12 7 14
REMARK SMILES IDX 8 15 9 16 10 17 11 18 16 19 12 20 15 21 13 22 14 23 22 24
REMARK SMILES IDX 23 25 24 26 25 28 26 29 27 30 88 31 28 32 87 33 29 34 30 35
REMARK SMILES IDX 31 36 81 37 32 38 86 39 80 40 82 41 33 42 85 43 79 44 78 45
REMARK SMILES IDX 34 47 66 48 46 49 65 50 47 51 50 52 64 53 83 54 48 55 49 56
REMARK SMILES IDX 63 58 84 59 51 60 35 61 36 62 44 63 37 64 43 65 45 66 42 67
REMARK SMILES IDX 38 68 39 69 40 70 41 71 67 72 68 73 76 74 69 75 75 76 77 77
REMARK SMILES IDX 74 78 70 79 71 80 72 81 73 82 52 83 53 84 61 85 54 86 60 87
REMARK SMILES IDX 62 88 59 89 55 90 56 91 57 92 58 93
REMARK H PARENT 19 6 6 13 23 27 82 46 50 57
REMARK Flexibility Score: inf
ROOT
ATOM      1  C   UNL A   1      38.054  21.940  25.722  1.00  0.00     0.042 C 
ENDROOT
BRANCH   1   2
ATOM      2  C   UNL A   1      36.568  21.885  25.418  1.00  0.00     0.117 C 
BRANCH   2   3
ATOM      3  N   UNL A   1      35.668  21.885  26.551  1.00  0.00    -0.355 N 
ATOM      4  C   UNL A   1      34.404  22.392  26.670  1.00  0.00     0.238 C 
ATOM      5  O   UNL A   1      33.741  22.069  27.662  1.00  0.00    -0.273 OA
ATOM      6  H   UNL A   1      36.020  21.454  27.362  1.00  0.00     0.163 HD
BRANCH   4   7
ATOM      7  C   UNL A   1      33.797  23.382  25.651  1.00  0.00     0.161 C 
BRANCH   7   8
ATOM      8  C   UNL A   1      33.409  24.828  26.149  1.00  0.00     0.013 C 
ATOM      9  C   UNL A   1      34.037  25.989  25.364  1.00  0.00     0.010 C 
BRANCH   8  10
ATOM     10  C   UNL A   1      31.909  25.045  26.519  1.00  0.00     0.002 C 
ATOM     11  C   UNL A   1      31.375  26.480  26.528  1.00  0.00     0.004 C 
ENDBRANCH   8  10
ENDBRANCH   7   8
BRANCH   7  12
ATOM     12  N   UNL A   1      32.741  22.726  24.839  1.00  0.00    -0.198 NA
ATOM     13  H   UNL A   1      31.854  23.122  25.151  1.00  0.00     0.142 HD
BRANCH  12  14
ATOM     14  S   UNL A   1      32.728  22.808  23.154  1.00  0.00     0.241 S 
ATOM     15  O   UNL A   1      34.094  22.950  22.756  1.00  0.00    -0.207 OA
ATOM     16  O   UNL A   1      31.915  21.698  22.676  1.00  0.00    -0.207 OA
BRANCH  14  17
ATOM     17  C   UNL A   1      31.908  24.325  22.768  1.00  0.00     0.082 A 
ATOM     18  C   UNL A   1      32.630  25.327  22.117  1.00  0.00     0.022 A 
ATOM     19  C   UNL A   1      30.624  24.568  23.261  1.00  0.00     0.022 A 
ATOM     20  C   UNL A   1      32.145  26.627  22.143  1.00  0.00     0.005 A 
ATOM     21  C   UNL A   1      30.122  25.862  23.238  1.00  0.00     0.005 A 
ATOM     22  C   UNL A   1      30.924  26.902  22.767  1.00  0.00    -0.051 A 
ATOM     23  C   UNL A   1      30.538  28.319  23.026  1.00  0.00     0.044 C 
ENDBRANCH  14  17
ENDBRANCH  12  14
ENDBRANCH   7  12
ENDBRANCH   4   7
ENDBRANCH   2   3
ENDBRANCH   1   2
BRANCH   1  24
ATOM     24  C   UNL A   1      38.573  23.316  26.105  1.00  0.00     0.118 C 
BRANCH  24  25
ATOM     25  N   UNL A   1      39.958  23.294  26.578  1.00  0.00    -0.352 N 
ATOM     26  C   UNL A   1      40.706  24.316  27.130  1.00  0.00     0.251 C 
ATOM     27  H   UNL A   1      40.421  22.429  26.491  1.00  0.00     0.163 HD
ATOM     28  O   UNL A   1      41.861  24.140  27.504  1.00  0.00    -0.269 OA
BRANCH  26  29
ATOM     29  C   UNL A   1      40.037  25.607  27.402  1.00  0.00     0.039 A 
ATOM     30  C   UNL A   1      40.396  26.691  26.595  1.00  0.00     0.014 A 
ATOM     31  C   UNL A   1      39.316  25.799  28.575  1.00  0.00     0.014 A 
ATOM     32  C   UNL A   1      40.260  27.981  27.094  1.00  0.00     0.010 A 
ATOM     33  C   UNL A   1      39.271  27.070  29.113  1.00  0.00     0.010 A 
ATOM     34  C   UNL A   1      39.809  28.151  28.401  1.00  0.00    -0.014 A 
BRANCH  34  35
ATOM     35  C   UNL A   1      40.001  29.397  29.135  1.00  0.00     0.031 A 
ATOM     36  C   UNL A   1      38.935  30.412  29.191  1.00  0.00     0.074 A 
ATOM     37  C   UNL A   1      41.128  29.577  29.859  1.00  0.00     0.049 A 
ATOM     38  N   UNL A   1      39.127  31.651  29.486  1.00  0.00    -0.248 NA
ATOM     39  C   UNL A   1      37.546  30.110  28.880  1.00  0.00     0.031 C 
ATOM     40  C   UNL A   1      41.386  30.599  30.874  1.00  0.00     0.029 A 
ATOM     41  N   UNL A   1      42.333  28.892  29.764  1.00  0.00    -0.354 N 
ATOM     42  C   UNL A   1      37.900  32.230  29.713  1.00  0.00     0.074 A 
ATOM     43  C   UNL A   1      36.952  31.254  29.227  1.00  0.00     0.031 C 
ATOM     44  C   UNL A   1      42.692  30.609  31.178  1.00  0.00     0.029 A 
ATOM     45  C   UNL A   1      43.352  29.748  30.217  1.00  0.00     0.049 A 
ATOM     46  H   UNL A   1      42.453  27.971  29.436  1.00  0.00     0.167 HD
ATOM     47  C   UNL A   1      37.845  33.402  30.411  1.00  0.00     0.034 A 
ATOM     48  C   UNL A   1      44.311  30.171  29.339  1.00  0.00     0.034 A 
ATOM     49  C   UNL A   1      39.196  33.899  30.720  1.00  0.00     0.049 A 
ATOM     50  C   UNL A   1      44.211  31.661  29.056  1.00  0.00     0.074 A 
ATOM     51  C   UNL A   1      39.952  33.930  31.883  1.00  0.00     0.029 A 
ATOM     52  N   UNL A   1      40.075  34.210  29.682  1.00  0.00    -0.354 N 
ATOM     53  N   UNL A   1      43.164  32.392  29.342  1.00  0.00    -0.248 NA
ATOM     54  C   UNL A   1      45.286  32.453  28.471  1.00  0.00     0.031 C 
ATOM     55  C   UNL A   1      41.306  34.176  31.522  1.00  0.00     0.029 A 
ATOM     56  C   UNL A   1      41.372  34.335  30.147  1.00  0.00     0.049 A 
ATOM     57  H   UNL A   1      39.808  34.325  28.741  1.00  0.00     0.167 HD
ATOM     58  C   UNL A   1      43.399  33.702  29.025  1.00  0.00     0.074 A 
ATOM     59  C   UNL A   1      44.749  33.687  28.484  1.00  0.00     0.031 C 
ATOM     60  C   UNL A   1      42.467  34.683  29.243  1.00  0.00     0.034 A 
BRANCH  47  61
ATOM     61  C   UNL A   1      36.589  33.961  31.069  1.00  0.00     0.023 A 
ATOM     62  C   UNL A   1      35.563  34.498  30.258  1.00  0.00     0.031 A 
ATOM     63  C   UNL A   1      36.346  34.046  32.455  1.00  0.00     0.131 A 
ATOM     64  C   UNL A   1      34.446  35.159  30.813  1.00  0.00     0.055 A 
ATOM     65  C   UNL A   1      35.266  34.748  33.009  1.00  0.00     0.041 A 
ATOM     66  F   UNL A   1      37.096  33.398  33.351  1.00  0.00    -0.206 F 
ATOM     67  C   UNL A   1      34.312  35.320  32.188  1.00  0.00     0.022 A 
BRANCH  64  68
ATOM     68  S   UNL A   1      33.157  35.806  29.713  1.00  0.00     0.124 S 
ATOM     69  O   UNL A   1      32.492  34.587  29.265  1.00  0.00    -0.237 OA
ATOM     70  O   UNL A   1      32.394  36.671  30.607  1.00  0.00    -0.237 OA
ATOM     71  O   UNL A   1      33.915  36.510  28.679  1.00  0.00    -0.744 OA
ENDBRANCH  64  68
ENDBRANCH  47  61
BRANCH  48  72
ATOM     72  C   UNL A   1      44.697  29.080  28.391  1.00  0.00     0.023 A 
ATOM     73  C   UNL A   1      45.489  28.034  28.932  1.00  0.00     0.031 A 
ATOM     74  C   UNL A   1      43.957  28.802  27.236  1.00  0.00     0.131 A 
ATOM     75  C   UNL A   1      45.358  26.722  28.454  1.00  0.00     0.055 A 
ATOM     76  C   UNL A   1      43.907  27.505  26.702  1.00  0.00     0.041 A 
ATOM     77  F   UNL A   1      43.155  29.733  26.696  1.00  0.00    -0.206 F 
ATOM     78  C   UNL A   1      44.564  26.450  27.342  1.00  0.00     0.022 A 
BRANCH  75  79
ATOM     79  S   UNL A   1      45.962  25.350  29.493  1.00  0.00     0.124 S 
ATOM     80  O   UNL A   1      44.996  24.297  29.206  1.00  0.00    -0.237 OA
ATOM     81  O   UNL A   1      47.319  25.133  28.996  1.00  0.00    -0.237 OA
ATOM     82  O   UNL A   1      45.923  25.890  30.852  1.00  0.00    -0.744 OA
ENDBRANCH  75  79
ENDBRANCH  48  72
BRANCH  60  83
ATOM     83  C   UNL A   1      42.542  36.099  28.707  1.00  0.00     0.023 A 
ATOM     84  C   UNL A   1      42.979  37.189  29.473  1.00  0.00     0.031 A 
ATOM     85  C   UNL A   1      42.255  36.386  27.348  1.00  0.00     0.131 A 
ATOM     86  C   UNL A   1      43.032  38.487  28.933  1.00  0.00     0.055 A 
ATOM     87  C   UNL A   1      42.393  37.661  26.790  1.00  0.00     0.041 A 
ATOM     88  F   UNL A   1      41.839  35.438  26.495  1.00  0.00    -0.206 F 
ATOM     89  C   UNL A   1      42.767  38.728  27.589  1.00  0.00     0.022 A 
BRANCH  86  90
ATOM     90  S   UNL A   1      43.392  39.862  30.055  1.00  0.00     0.124 S 
ATOM     91  O   UNL A   1      44.499  40.524  29.370  1.00  0.00    -0.237 OA
ATOM     92  O   UNL A   1      42.130  40.594  30.072  1.00  0.00    -0.237 OA
ATOM     93  O   UNL A   1      43.745  39.201  31.309  1.00  0.00    -0.744 OA
ENDBRANCH  86  90
ENDBRANCH  60  83
ENDBRANCH  34  35
ENDBRANCH  26  29
ENDBRANCH  24  25
ENDBRANCH   1  24
TORSDOF 18
ENDMDL
MODEL 3
REMARK VINA RESULT:     -12.1      1.058      3.117
REMARK SMILES CC[C@H](C)[C@H](NS(=O)(=O)c1ccc(C)cc1)C(=O)NCCCNC(=O)c1ccc(-c2c3nc(c(-c4cc(S(=O)(=O)[O-])ccc4F)c4ccc([nH]4)c(-c4cc(S(=O)(=O)[O-])ccc4F)c4nc(c(-c5cc(S(=O)(=O)[O-])ccc5F)c5ccc2[nH]5)C=C4)C=C3)cc1
REMARK SMILES IDX 21 1 20 2 19 3 17 4 18 5 5 7 3 8 4 9 2 10 1 11 6 12 7 14
REMARK SMILES IDX 8 15 9 16 10 17 11 18 16 19 12 20 15 21 13 22 14 23 22 24
REMARK SMILES IDX 23 25 24 26 25 28 26 29 27 30 88 31 28 32 87 33 29 34 30 35
REMARK SMILES IDX 31 36 81 37 32 38 86 39 80 40 82 41 33 42 85 43 79 44 78 45
REMARK SMILES IDX 34 47 66 48 46 49 65 50 47 51 50 52 64 53 83 54 48 55 49 56
REMARK SMILES IDX 63 58 84 59 51 60 35 61 36 62 44 63 37 64 43 65 45 66 42 67
REMARK SMILES IDX 38 68 39 69 40 70 41 71 67 72 68 73 76 74 69 75 75 76 77 77
REMARK SMILES IDX 74 78 70 79 71 80 72 81 73 82 52 83 53 84 61 85 54 86 60 87
REMARK SMILES IDX 62 88 59 89 55 90 56 91 57 92 58 93
REMARK H PARENT 19 6 6 13 23 27 82 46 50 57
REMARK Flexibility Score: inf
ROOT
ATOM      1  C   UNL A   1      33.260  30.517  27.050  1.00  0.00     0.042 C 
ENDROOT
BRANCH   1   2
ATOM      2  C   UNL A   1      32.595  29.797  25.891  1.00  0.00     0.117 C 
BRANCH   2   3
ATOM      3  N   UNL A   1      33.354  29.689  24.664  1.00  0.00    -0.355 N 
ATOM      4  C   UNL A   1      33.141  28.907  23.564  1.00  0.00     0.238 C 
ATOM      5  O   UNL A   1      33.791  29.155  22.541  1.00  0.00    -0.273 OA
ATOM      6  H   UNL A   1      34.148  30.269  24.614  1.00  0.00     0.163 HD
BRANCH   4   7
ATOM      7  C   UNL A   1      32.169  27.707  23.563  1.00  0.00     0.161 C 
BRANCH   7   8
ATOM      8  C   UNL A   1      30.727  27.908  24.171  1.00  0.00     0.013 C 
ATOM      9  C   UNL A   1      29.936  29.101  23.616  1.00  0.00     0.010 C 
BRANCH   8  10
ATOM     10  C   UNL A   1      29.879  26.613  24.366  1.00  0.00     0.002 C 
ATOM     11  C   UNL A   1      29.904  25.943  25.742  1.00  0.00     0.004 C 
ENDBRANCH   8  10
ENDBRANCH   7   8
BRANCH   7  12
ATOM     12  N   UNL A   1      32.849  26.474  24.034  1.00  0.00    -0.198 NA
ATOM     13  H   UNL A   1      32.224  26.046  24.717  1.00  0.00     0.142 HD
BRANCH  12  14
ATOM     14  S   UNL A   1      33.303  25.242  22.974  1.00  0.00     0.241 S 
ATOM     15  O   UNL A   1      32.131  24.451  22.766  1.00  0.00    -0.207 OA
ATOM     16  O   UNL A   1      33.997  25.869  21.857  1.00  0.00    -0.207 OA
BRANCH  14  17
ATOM     17  C   UNL A   1      34.453  24.251  23.878  1.00  0.00     0.082 A 
ATOM     18  C   UNL A   1      34.689  24.557  25.219  1.00  0.00     0.022 A 
ATOM     19  C   UNL A   1      35.228  23.301  23.211  1.00  0.00     0.022 A 
ATOM     20  C   UNL A   1      35.830  24.059  25.830  1.00  0.00     0.005 A 
ATOM     21  C   UNL A   1      36.342  22.765  23.845  1.00  0.00     0.005 A 
ATOM     22  C   UNL A   1      36.692  23.220  25.117  1.00  0.00    -0.051 A 
ATOM     23  C   UNL A   1      38.037  22.907  25.678  1.00  0.00     0.044 C 
ENDBRANCH  14  17
ENDBRANCH  12  14
ENDBRANCH   7  12
ENDBRANCH   4   7
ENDBRANCH   2   3
ENDBRANCH   1   2
BRANCH   1  24
ATOM     24  C   UNL A   1      34.736  30.200  27.230  1.00  0.00     0.118 C 
BRANCH  24  25
ATOM     25  N   UNL A   1      35.413  31.127  28.138  1.00  0.00    -0.352 N 
ATOM     26  C   UNL A   1      36.583  30.948  28.851  1.00  0.00     0.251 C 
ATOM     27  H   UNL A   1      34.973  32.000  28.257  1.00  0.00     0.163 HD
ATOM     28  O   UNL A   1      37.045  31.834  29.563  1.00  0.00    -0.269 OA
BRANCH  26  29
ATOM     29  C   UNL A   1      37.359  29.710  28.627  1.00  0.00     0.039 A 
ATOM     30  C   UNL A   1      37.471  28.826  29.705  1.00  0.00     0.014 A 
ATOM     31  C   UNL A   1      38.170  29.573  27.506  1.00  0.00     0.014 A 
ATOM     32  C   UNL A   1      38.567  27.973  29.772  1.00  0.00     0.010 A 
ATOM     33  C   UNL A   1      39.309  28.800  27.615  1.00  0.00     0.010 A 
ATOM     34  C   UNL A   1      39.542  28.056  28.780  1.00  0.00    -0.014 A 
BRANCH  34  35
ATOM     35  C   UNL A   1      40.882  27.507  28.958  1.00  0.00     0.031 A 
ATOM     36  C   UNL A   1      41.216  26.157  28.472  1.00  0.00     0.074 A 
ATOM     37  C   UNL A   1      41.856  28.285  29.479  1.00  0.00     0.049 A 
ATOM     38  N   UNL A   1      42.217  25.463  28.889  1.00  0.00    -0.248 NA
ATOM     39  C   UNL A   1      40.411  25.458  27.483  1.00  0.00     0.031 C 
ATOM     40  C   UNL A   1      43.298  28.036  29.476  1.00  0.00     0.029 A 
ATOM     41  N   UNL A   1      41.724  29.461  30.208  1.00  0.00    -0.354 N 
ATOM     42  C   UNL A   1      42.381  24.398  28.035  1.00  0.00     0.074 A 
ATOM     43  C   UNL A   1      41.175  24.390  27.241  1.00  0.00     0.031 C 
ATOM     44  C   UNL A   1      43.904  28.899  30.305  1.00  0.00     0.029 A 
ATOM     45  C   UNL A   1      42.856  29.586  31.032  1.00  0.00     0.049 A 
ATOM     46  H   UNL A   1      40.971  30.094  30.157  1.00  0.00     0.167 HD
ATOM     47  C   UNL A   1      43.581  23.745  28.019  1.00  0.00     0.034 A 
ATOM     48  C   UNL A   1      42.705  29.535  32.390  1.00  0.00     0.034 A 
ATOM     49  C   UNL A   1      44.487  24.279  29.050  1.00  0.00     0.049 A 
ATOM     50  C   UNL A   1      43.329  28.287  32.990  1.00  0.00     0.074 A 
ATOM     51  C   UNL A   1      45.604  25.100  28.996  1.00  0.00     0.029 A 
ATOM     52  N   UNL A   1      44.126  24.209  30.396  1.00  0.00    -0.354 N 
ATOM     53  N   UNL A   1      43.678  27.236  32.293  1.00  0.00    -0.248 NA
ATOM     54  C   UNL A   1      43.650  28.134  34.404  1.00  0.00     0.031 C 
ATOM     55  C   UNL A   1      45.855  25.588  30.309  1.00  0.00     0.029 A 
ATOM     56  C   UNL A   1      44.919  25.038  31.169  1.00  0.00     0.049 A 
ATOM     57  H   UNL A   1      43.401  23.644  30.749  1.00  0.00     0.167 HD
ATOM     58  C   UNL A   1      44.267  26.303  33.103  1.00  0.00     0.074 A 
ATOM     59  C   UNL A   1      44.227  26.919  34.420  1.00  0.00     0.031 C 
ATOM     60  C   UNL A   1      44.742  25.113  32.618  1.00  0.00     0.034 A 
BRANCH  47  61
ATOM     61  C   UNL A   1      44.053  22.826  26.900  1.00  0.00     0.023 A 
ATOM     62  C   UNL A   1      43.445  21.560  26.739  1.00  0.00     0.031 A 
ATOM     63  C   UNL A   1      45.103  23.090  25.996  1.00  0.00     0.131 A 
ATOM     64  C   UNL A   1      43.935  20.611  25.818  1.00  0.00     0.055 A 
ATOM     65  C   UNL A   1      45.627  22.131  25.118  1.00  0.00     0.041 A 
ATOM     66  F   UNL A   1      45.637  24.307  25.860  1.00  0.00    -0.206 F 
ATOM     67  C   UNL A   1      45.050  20.878  25.031  1.00  0.00     0.022 A 
BRANCH  64  68
ATOM     68  S   UNL A   1      43.092  19.013  25.651  1.00  0.00     0.124 S 
ATOM     69  O   UNL A   1      41.730  19.416  25.314  1.00  0.00    -0.237 OA
ATOM     70  O   UNL A   1      43.859  18.368  24.591  1.00  0.00    -0.237 OA
ATOM     71  O   UNL A   1      43.245  18.409  26.974  1.00  0.00    -0.744 OA
ENDBRANCH  64  68
ENDBRANCH  47  61
BRANCH  48  72
ATOM     72  C   UNL A   1      41.455  30.236  32.823  1.00  0.00     0.023 A 
ATOM     73  C   UNL A   1      41.486  31.654  32.774  1.00  0.00     0.031 A 
ATOM     74  C   UNL A   1      40.203  29.612  32.786  1.00  0.00     0.131 A 
ATOM     75  C   UNL A   1      40.323  32.381  32.479  1.00  0.00     0.055 A 
ATOM     76  C   UNL A   1      39.028  30.356  32.588  1.00  0.00     0.041 A 
ATOM     77  F   UNL A   1      40.103  28.274  32.785  1.00  0.00    -0.206 F 
ATOM     78  C   UNL A   1      39.091  31.737  32.380  1.00  0.00     0.022 A 
BRANCH  75  79
ATOM     79  S   UNL A   1      40.493  34.104  31.905  1.00  0.00     0.124 S 
ATOM     80  O   UNL A   1      40.859  34.803  33.130  1.00  0.00    -0.237 OA
ATOM     81  O   UNL A   1      41.532  34.009  30.881  1.00  0.00    -0.237 OA
ATOM     82  O   UNL A   1      39.174  34.428  31.362  1.00  0.00    -0.744 OA
ENDBRANCH  75  79
ENDBRANCH  48  72
BRANCH  60  83
ATOM     83  C   UNL A   1      45.181  23.933  33.464  1.00  0.00     0.023 A 
ATOM     84  C   UNL A   1      46.475  23.800  33.985  1.00  0.00     0.031 A 
ATOM     85  C   UNL A   1      44.260  22.928  33.857  1.00  0.00     0.131 A 
ATOM     86  C   UNL A   1      46.838  22.687  34.765  1.00  0.00     0.055 A 
ATOM     87  C   UNL A   1      44.599  21.870  34.705  1.00  0.00     0.041 A 
ATOM     88  F   UNL A   1      42.983  22.936  33.445  1.00  0.00    -0.206 F 
ATOM     89  C   UNL A   1      45.902  21.733  35.152  1.00  0.00     0.022 A 
BRANCH  86  90
ATOM     90  S   UNL A   1      48.583  22.487  35.205  1.00  0.00     0.124 S 
ATOM     91  O   UNL A   1      48.680  23.295  36.417  1.00  0.00    -0.237 OA
ATOM     92  O   UNL A   1      48.697  21.045  35.395  1.00  0.00    -0.237 OA
ATOM     93  O   UNL A   1      49.294  23.020  34.045  1.00  0.00    -0.744 OA
ENDBRANCH  86  90
ENDBRANCH  60  83
ENDBRANCH  34  35
ENDBRANCH  26  29
ENDBRANCH  24  25
ENDBRANCH   1  24
TORSDOF 18
ENDMDL
