MODEL 1
REMARK VINA RESULT:     -11.6      0.000      0.000
REMARK SMILES O=C(NCCCNC(=O)[C@H]1CN(C(=O)c2cccs2)CC[NH2+]1)c1ccc(-c2c3nc(c(-c4cc(S(=O)(=O)[O-])ccc4F)c4ccc([nH]4)c(-c4cc(S(=O)(=O)[O-])ccc4F)c4nc(c(-c5cc(S(=O)(=O)[O-])ccc5F)c5ccc2[nH]5)C=C4)C=C3)cc1
REMARK SMILES IDX 4 1 3 2 1 3 2 4 23 6 24 7 85 8 25 9 84 10 26 11 27 12 28 13
REMARK SMILES IDX 78 14 29 15 83 16 77 17 79 18 30 19 82 20 76 21 75 22 31 24
REMARK SMILES IDX 63 25 43 26 62 27 44 28 47 29 61 30 80 31 45 32 46 33 60 35
REMARK SMILES IDX 81 36 48 37 32 38 33 39 41 40 34 41 40 42 42 43 39 44 35 45
REMARK SMILES IDX 36 46 37 47 38 48 64 49 65 50 73 51 66 52 72 53 74 54 71 55
REMARK SMILES IDX 67 56 68 57 69 58 70 59 49 60 50 61 58 62 51 63 57 64 59 65
REMARK SMILES IDX 56 66 52 67 53 68 54 69 55 70 5 71 6 72 7 73 8 74 9 76 10 77
REMARK SMILES IDX 11 78 22 79 12 80 21 81 20 84 13 85 14 86 15 87 16 88 19 89
REMARK SMILES IDX 17 90 18 91
REMARK H PARENT 3 5 79 23 47 34 7 75 22 82 22 83
REMARK Flexibility Score: inf
ROOT
ATOM      1  C   UNL A   1      32.836  32.493  27.260  1.00  0.00     0.118 C 
ENDROOT
BRANCH   1   2
ATOM      2  N   UNL A   1      32.585  33.867  27.685  1.00  0.00    -0.352 N 
ATOM      3  O   UNL A   1      32.708  35.709  28.971  1.00  0.00    -0.269 OA
ATOM      4  C   UNL A   1      33.184  34.616  28.669  1.00  0.00     0.251 C 
ATOM      5  H   UNL A   1      31.875  34.332  27.187  1.00  0.00     0.163 HD
BRANCH   4   6
ATOM      6  C   UNL A   1      34.378  34.105  29.378  1.00  0.00     0.039 A 
ATOM      7  C   UNL A   1      35.661  34.412  28.927  1.00  0.00     0.014 A 
ATOM      8  C   UNL A   1      34.210  33.313  30.518  1.00  0.00     0.014 A 
ATOM      9  C   UNL A   1      36.762  33.786  29.498  1.00  0.00     0.010 A 
ATOM     10  C   UNL A   1      35.328  32.767  31.156  1.00  0.00     0.010 A 
ATOM     11  C   UNL A   1      36.613  32.961  30.625  1.00  0.00    -0.014 A 
BRANCH  11  12
ATOM     12  C   UNL A   1      37.821  32.342  31.233  1.00  0.00     0.031 A 
ATOM     13  C   UNL A   1      38.344  32.805  32.567  1.00  0.00     0.074 A 
ATOM     14  C   UNL A   1      38.417  31.318  30.591  1.00  0.00     0.049 A 
ATOM     15  N   UNL A   1      39.350  32.342  33.265  1.00  0.00    -0.248 NA
ATOM     16  C   UNL A   1      37.656  33.944  33.191  1.00  0.00     0.031 C 
ATOM     17  C   UNL A   1      38.003  30.787  29.289  1.00  0.00     0.029 A 
ATOM     18  N   UNL A   1      39.470  30.517  30.953  1.00  0.00    -0.354 N 
ATOM     19  C   UNL A   1      39.432  33.143  34.400  1.00  0.00     0.074 A 
ATOM     20  C   UNL A   1      38.394  34.145  34.275  1.00  0.00     0.031 C 
ATOM     21  C   UNL A   1      38.748  29.713  28.995  1.00  0.00     0.029 A 
ATOM     22  C   UNL A   1      39.738  29.518  30.046  1.00  0.00     0.049 A 
ATOM     23  H   UNL A   1      39.985  30.646  31.782  1.00  0.00     0.167 HD
ATOM     24  C   UNL A   1      40.288  33.046  35.449  1.00  0.00     0.034 A 
ATOM     25  C   UNL A   1      40.682  28.557  30.053  1.00  0.00     0.034 A 
ATOM     26  C   UNL A   1      41.309  32.030  35.561  1.00  0.00     0.049 A 
ATOM     27  C   UNL A   1      41.634  28.488  31.216  1.00  0.00     0.074 A 
ATOM     28  C   UNL A   1      42.201  31.814  36.598  1.00  0.00     0.029 A 
ATOM     29  N   UNL A   1      41.587  31.067  34.599  1.00  0.00    -0.354 N 
ATOM     30  N   UNL A   1      41.682  29.240  32.291  1.00  0.00    -0.248 NA
ATOM     31  C   UNL A   1      42.658  27.440  31.164  1.00  0.00     0.031 C 
ATOM     32  C   UNL A   1      43.059  30.769  36.233  1.00  0.00     0.029 A 
ATOM     33  C   UNL A   1      42.655  30.278  35.002  1.00  0.00     0.049 A 
ATOM     34  H   UNL A   1      41.095  30.960  33.751  1.00  0.00     0.167 HD
ATOM     35  C   UNL A   1      42.728  28.736  33.057  1.00  0.00     0.074 A 
ATOM     36  C   UNL A   1      43.268  27.605  32.328  1.00  0.00     0.031 C 
ATOM     37  C   UNL A   1      43.198  29.166  34.255  1.00  0.00     0.034 A 
BRANCH  24  38
ATOM     38  C   UNL A   1      40.185  34.097  36.533  1.00  0.00     0.023 A 
ATOM     39  C   UNL A   1      39.730  33.791  37.828  1.00  0.00     0.031 A 
ATOM     40  C   UNL A   1      40.523  35.433  36.255  1.00  0.00     0.131 A 
ATOM     41  C   UNL A   1      39.554  34.819  38.770  1.00  0.00     0.055 A 
ATOM     42  C   UNL A   1      40.423  36.437  37.221  1.00  0.00     0.041 A 
ATOM     43  F   UNL A   1      40.945  35.792  35.033  1.00  0.00    -0.206 F 
ATOM     44  C   UNL A   1      39.920  36.136  38.483  1.00  0.00     0.022 A 
BRANCH  41  45
ATOM     45  S   UNL A   1      38.696  34.434  40.323  1.00  0.00     0.124 S 
ATOM     46  O   UNL A   1      37.593  33.599  39.856  1.00  0.00    -0.237 OA
ATOM     47  O   UNL A   1      39.730  33.755  41.095  1.00  0.00    -0.237 OA
ATOM     48  O   UNL A   1      38.300  35.747  40.831  1.00  0.00    -0.744 OA
ENDBRANCH  41  45
ENDBRANCH  24  38
BRANCH  25  49
ATOM     49  C   UNL A   1      40.784  27.597  28.919  1.00  0.00     0.023 A 
ATOM     50  C   UNL A   1      41.722  27.786  27.893  1.00  0.00     0.031 A 
ATOM     51  C   UNL A   1      39.924  26.486  28.831  1.00  0.00     0.131 A 
ATOM     52  C   UNL A   1      41.754  26.902  26.803  1.00  0.00     0.055 A 
ATOM     53  C   UNL A   1      39.996  25.580  27.774  1.00  0.00     0.041 A 
ATOM     54  F   UNL A   1      39.012  26.258  29.790  1.00  0.00    -0.206 F 
ATOM     55  C   UNL A   1      40.907  25.792  26.745  1.00  0.00     0.022 A 
BRANCH  52  56
ATOM     56  S   UNL A   1      42.868  27.267  25.421  1.00  0.00     0.124 S 
ATOM     57  O   UNL A   1      42.900  25.990  24.717  1.00  0.00    -0.237 OA
ATOM     58  O   UNL A   1      42.166  28.354  24.746  1.00  0.00    -0.237 OA
ATOM     59  O   UNL A   1      44.115  27.649  26.079  1.00  0.00    -0.744 OA
ENDBRANCH  52  56
ENDBRANCH  25  49
BRANCH  37  60
ATOM     60  C   UNL A   1      44.332  28.375  34.861  1.00  0.00     0.023 A 
ATOM     61  C   UNL A   1      44.116  27.432  35.879  1.00  0.00     0.031 A 
ATOM     62  C   UNL A   1      45.655  28.602  34.439  1.00  0.00     0.131 A 
ATOM     63  C   UNL A   1      45.209  26.799  36.491  1.00  0.00     0.055 A 
ATOM     64  C   UNL A   1      46.734  27.922  35.006  1.00  0.00     0.041 A 
ATOM     65  F   UNL A   1      45.921  29.495  33.471  1.00  0.00    -0.206 F 
ATOM     66  C   UNL A   1      46.515  27.027  36.050  1.00  0.00     0.022 A 
BRANCH  63  67
ATOM     67  S   UNL A   1      44.911  25.757  37.945  1.00  0.00     0.124 S 
ATOM     68  O   UNL A   1      43.650  26.292  38.449  1.00  0.00    -0.237 OA
ATOM     69  O   UNL A   1      44.848  24.420  37.363  1.00  0.00    -0.237 OA
ATOM     70  O   UNL A   1      46.075  26.009  38.793  1.00  0.00    -0.744 OA
ENDBRANCH  63  67
ENDBRANCH  37  60
ENDBRANCH  11  12
ENDBRANCH   4   6
ENDBRANCH   1   2
BRANCH   1  71
ATOM     71  C   UNL A   1      31.624  31.837  26.606  1.00  0.00     0.042 C 
BRANCH  71  72
ATOM     72  C   UNL A   1      31.903  30.460  26.021  1.00  0.00     0.118 C 
BRANCH  72  73
ATOM     73  N   UNL A   1      31.629  29.402  26.974  1.00  0.00    -0.351 N 
ATOM     74  C   UNL A   1      31.654  28.051  26.800  1.00  0.00     0.280 C 
ATOM     75  H   UNL A   1      31.389  29.705  27.880  1.00  0.00     0.163 HD
ATOM     76  O   UNL A   1      31.201  27.366  27.718  1.00  0.00    -0.268 OA
BRANCH  74  77
ATOM     77  C   UNL A   1      32.243  27.449  25.507  1.00  0.00     0.292 C 
ATOM     78  C   UNL A   1      32.637  25.972  25.728  1.00  0.00     0.195 C 
ATOM     79  N   UNL A   1      31.311  27.648  24.365  1.00  0.00    -0.333 N 
ATOM     80  N   UNL A   1      31.491  25.059  25.743  1.00  0.00    -0.326 N 
ATOM     81  C   UNL A   1      30.154  26.733  24.476  1.00  0.00     0.283 C 
ATOM     82  H   UNL A   1      31.805  27.461  23.492  1.00  0.00     0.347 HD
ATOM     83  H   UNL A   1      30.973  28.610  24.379  1.00  0.00     0.347 HD
ATOM     84  C   UNL A   1      30.543  25.251  24.644  1.00  0.00     0.181 C 
BRANCH  80  85
ATOM     85  C   UNL A   1      31.319  23.978  26.615  1.00  0.00     0.264 C 
ATOM     86  O   UNL A   1      30.285  23.865  27.276  1.00  0.00    -0.268 OA
BRANCH  85  87
ATOM     87  C   UNL A   1      32.377  22.980  26.694  1.00  0.00     0.092 A 
ATOM     88  C   UNL A   1      33.163  22.605  27.767  1.00  0.00     0.025 A 
ATOM     89  S   UNL A   1      32.718  22.020  25.315  1.00  0.00    -0.139 S 
ATOM     90  C   UNL A   1      34.096  21.580  27.436  1.00  0.00     0.012 A 
ATOM     91  C   UNL A   1      33.955  21.166  26.132  1.00  0.00     0.065 A 
ENDBRANCH  85  87
ENDBRANCH  80  85
ENDBRANCH  74  77
ENDBRANCH  72  73
ENDBRANCH  71  72
ENDBRANCH   1  71
TORSDOF 15
ENDMDL
MODEL 2
REMARK VINA RESULT:     -11.6      1.945      8.387
REMARK SMILES O=C(NCCCNC(=O)[C@H]1CN(C(=O)c2cccs2)CC[NH2+]1)c1ccc(-c2c3nc(c(-c4cc(S(=O)(=O)[O-])ccc4F)c4ccc([nH]4)c(-c4cc(S(=O)(=O)[O-])ccc4F)c4nc(c(-c5cc(S(=O)(=O)[O-])ccc5F)c5ccc2[nH]5)C=C4)C=C3)cc1
REMARK SMILES IDX 4 1 3 2 1 3 2 4 23 6 24 7 85 8 25 9 84 10 26 11 27 12 28 13
REMARK SMILES IDX 78 14 29 15 83 16 77 17 79 18 30 19 82 20 76 21 75 22 31 24
REMARK SMILES IDX 63 25 43 26 62 27 44 28 47 29 61 30 80 31 45 32 46 33 60 35
REMARK SMILES IDX 81 36 48 37 32 38 33 39 41 40 34 41 40 42 42 43 39 44 35 45
REMARK SMILES IDX 36 46 37 47 38 48 64 49 65 50 73 51 66 52 72 53 74 54 71 55
REMARK SMILES IDX 67 56 68 57 69 58 70 59 49 60 50 61 58 62 51 63 57 64 59 65
REMARK SMILES IDX 56 66 52 67 53 68 54 69 55 70 5 71 6 72 7 73 8 74 9 76 10 77
REMARK SMILES IDX 11 78 22 79 12 80 21 81 20 84 13 85 14 86 15 87 16 88 19 89
REMARK SMILES IDX 17 90 18 91
REMARK H PARENT 3 5 79 23 47 34 7 75 22 82 22 83
REMARK Flexibility Score: inf
ROOT
ATOM      1  C   UNL A   1      32.801  32.685  27.255  1.00  0.00     0.118 C 
ENDROOT
BRANCH   1   2
ATOM      2  N   UNL A   1      32.591  34.079  27.636  1.00  0.00    -0.352 N 
ATOM      3  O   UNL A   1      32.716  35.940  28.895  1.00  0.00    -0.269 OA
ATOM      4  C   UNL A   1      33.155  34.818  28.648  1.00  0.00     0.251 C 
ATOM      5  H   UNL A   1      31.944  34.567  27.079  1.00  0.00     0.163 HD
BRANCH   4   6
ATOM      6  C   UNL A   1      34.266  34.263  29.452  1.00  0.00     0.039 A 
ATOM      7  C   UNL A   1      35.593  34.507  29.099  1.00  0.00     0.014 A 
ATOM      8  C   UNL A   1      33.975  33.493  30.582  1.00  0.00     0.014 A 
ATOM      9  C   UNL A   1      36.617  33.840  29.760  1.00  0.00     0.010 A 
ATOM     10  C   UNL A   1      35.015  32.904  31.310  1.00  0.00     0.010 A 
ATOM     11  C   UNL A   1      36.344  33.035  30.879  1.00  0.00    -0.014 A 
BRANCH  11  12
ATOM     12  C   UNL A   1      37.473  32.371  31.584  1.00  0.00     0.031 A 
ATOM     13  C   UNL A   1      38.258  31.266  30.926  1.00  0.00     0.074 A 
ATOM     14  C   UNL A   1      37.820  32.810  32.809  1.00  0.00     0.049 A 
ATOM     15  N   UNL A   1      39.302  30.616  31.375  1.00  0.00    -0.248 NA
ATOM     16  C   UNL A   1      37.802  30.825  29.601  1.00  0.00     0.031 C 
ATOM     17  C   UNL A   1      37.128  33.871  33.549  1.00  0.00     0.029 A 
ATOM     18  N   UNL A   1      38.853  32.452  33.637  1.00  0.00    -0.354 N 
ATOM     19  C   UNL A   1      39.617  29.676  30.399  1.00  0.00     0.074 A 
ATOM     20  C   UNL A   1      38.628  29.818  29.351  1.00  0.00     0.031 C 
ATOM     21  C   UNL A   1      37.793  34.120  34.685  1.00  0.00     0.029 A 
ATOM     22  C   UNL A   1      38.913  33.195  34.794  1.00  0.00     0.049 A 
ATOM     23  H   UNL A   1      39.489  31.732  33.424  1.00  0.00     0.167 HD
ATOM     24  C   UNL A   1      40.641  28.784  30.377  1.00  0.00     0.034 A 
ATOM     25  C   UNL A   1      39.769  33.132  35.832  1.00  0.00     0.034 A 
ATOM     26  C   UNL A   1      41.627  28.666  31.427  1.00  0.00     0.049 A 
ATOM     27  C   UNL A   1      40.879  32.118  35.794  1.00  0.00     0.074 A 
ATOM     28  C   UNL A   1      42.728  27.829  31.488  1.00  0.00     0.029 A 
ATOM     29  N   UNL A   1      41.626  29.399  32.609  1.00  0.00    -0.354 N 
ATOM     30  N   UNL A   1      41.176  31.252  34.852  1.00  0.00    -0.248 NA
ATOM     31  C   UNL A   1      41.768  32.074  36.959  1.00  0.00     0.031 C 
ATOM     32  C   UNL A   1      43.349  28.005  32.730  1.00  0.00     0.029 A 
ATOM     33  C   UNL A   1      42.685  29.008  33.416  1.00  0.00     0.049 A 
ATOM     34  H   UNL A   1      40.968  30.095  32.839  1.00  0.00     0.167 HD
ATOM     35  C   UNL A   1      42.305  30.577  35.303  1.00  0.00     0.074 A 
ATOM     36  C   UNL A   1      42.645  31.152  36.591  1.00  0.00     0.031 C 
ATOM     37  C   UNL A   1      43.001  29.576  34.708  1.00  0.00     0.034 A 
BRANCH  24  38
ATOM     38  C   UNL A   1      40.713  27.833  29.203  1.00  0.00     0.023 A 
ATOM     39  C   UNL A   1      41.643  28.004  28.161  1.00  0.00     0.031 A 
ATOM     40  C   UNL A   1      39.817  26.754  29.111  1.00  0.00     0.131 A 
ATOM     41  C   UNL A   1      41.604  27.156  27.041  1.00  0.00     0.055 A 
ATOM     42  C   UNL A   1      39.837  25.866  28.034  1.00  0.00     0.041 A 
ATOM     43  F   UNL A   1      38.893  26.550  30.063  1.00  0.00    -0.206 F 
ATOM     44  C   UNL A   1      40.723  26.074  26.981  1.00  0.00     0.022 A 
BRANCH  41  45
ATOM     45  S   UNL A   1      42.617  27.581  25.596  1.00  0.00     0.124 S 
ATOM     46  O   UNL A   1      43.926  27.804  26.204  1.00  0.00    -0.237 OA
ATOM     47  O   UNL A   1      42.494  26.390  24.763  1.00  0.00    -0.237 OA
ATOM     48  O   UNL A   1      41.973  28.782  25.066  1.00  0.00    -0.744 OA
ENDBRANCH  41  45
ENDBRANCH  24  38
BRANCH  25  49
ATOM     49  C   UNL A   1      39.601  34.044  36.998  1.00  0.00     0.023 A 
ATOM     50  C   UNL A   1      39.063  33.579  38.208  1.00  0.00     0.031 A 
ATOM     51  C   UNL A   1      39.955  35.403  36.911  1.00  0.00     0.131 A 
ATOM     52  C   UNL A   1      38.856  34.473  39.270  1.00  0.00     0.055 A 
ATOM     53  C   UNL A   1      39.798  36.276  37.988  1.00  0.00     0.041 A 
ATOM     54  F   UNL A   1      40.478  35.897  35.778  1.00  0.00    -0.206 F 
ATOM     55  C   UNL A   1      39.234  35.814  39.172  1.00  0.00     0.022 A 
BRANCH  52  56
ATOM     56  S   UNL A   1      38.013  33.873  40.758  1.00  0.00     0.124 S 
ATOM     57  O   UNL A   1      39.123  33.332  41.533  1.00  0.00    -0.237 OA
ATOM     58  O   UNL A   1      37.406  35.096  41.275  1.00  0.00    -0.237 OA
ATOM     59  O   UNL A   1      37.071  32.884  40.241  1.00  0.00    -0.744 OA
ENDBRANCH  52  56
ENDBRANCH  25  49
BRANCH  37  60
ATOM     60  C   UNL A   1      44.222  29.072  35.438  1.00  0.00     0.023 A 
ATOM     61  C   UNL A   1      44.138  28.065  36.415  1.00  0.00     0.031 A 
ATOM     62  C   UNL A   1      45.483  29.641  35.182  1.00  0.00     0.131 A 
ATOM     63  C   UNL A   1      45.278  27.704  37.148  1.00  0.00     0.055 A 
ATOM     64  C   UNL A   1      46.626  29.233  35.870  1.00  0.00     0.041 A 
ATOM     65  F   UNL A   1      45.622  30.610  34.262  1.00  0.00    -0.206 F 
ATOM     66  C   UNL A   1      46.525  28.271  36.871  1.00  0.00     0.022 A 
BRANCH  63  67
ATOM     67  S   UNL A   1      45.091  26.563  38.546  1.00  0.00     0.124 S 
ATOM     68  O   UNL A   1      43.994  25.711  38.097  1.00  0.00    -0.237 OA
ATOM     69  O   UNL A   1      46.404  25.930  38.610  1.00  0.00    -0.237 OA
ATOM     70  O   UNL A   1      44.772  27.444  39.668  1.00  0.00    -0.744 OA
ENDBRANCH  63  67
ENDBRANCH  37  60
ENDBRANCH  11  12
ENDBRANCH   4   6
ENDBRANCH   1   2
BRANCH   1  71
ATOM     71  C   UNL A   1      31.519  31.984  26.816  1.00  0.00     0.042 C 
BRANCH  71  72
ATOM     72  C   UNL A   1      31.695  30.504  26.508  1.00  0.00     0.118 C 
BRANCH  72  73
ATOM     73  N   UNL A   1      32.237  30.288  25.182  1.00  0.00    -0.351 N 
ATOM     74  C   UNL A   1      32.768  29.158  24.636  1.00  0.00     0.280 C 
ATOM     75  H   UNL A   1      32.219  31.073  24.587  1.00  0.00     0.163 HD
ATOM     76  O   UNL A   1      33.332  29.280  23.547  1.00  0.00    -0.268 OA
BRANCH  74  77
ATOM     77  C   UNL A   1      32.637  27.808  25.372  1.00  0.00     0.292 C 
ATOM     78  C   UNL A   1      31.154  27.389  25.476  1.00  0.00     0.195 C 
ATOM     79  N   UNL A   1      33.499  26.778  24.734  1.00  0.00    -0.333 N 
ATOM     80  N   UNL A   1      30.607  26.865  24.221  1.00  0.00    -0.326 N 
ATOM     81  C   UNL A   1      32.914  26.337  23.448  1.00  0.00     0.283 C 
ATOM     82  H   UNL A   1      33.582  25.976  25.358  1.00  0.00     0.347 HD
ATOM     83  H   UNL A   1      34.419  27.182  24.556  1.00  0.00     0.347 HD
ATOM     84  C   UNL A   1      31.449  25.869  23.557  1.00  0.00     0.181 C 
BRANCH  80  85
ATOM     85  C   UNL A   1      29.334  27.137  23.708  1.00  0.00     0.264 C 
ATOM     86  O   UNL A   1      28.407  26.343  23.879  1.00  0.00    -0.268 OA
BRANCH  85  87
ATOM     87  C   UNL A   1      29.129  28.392  22.999  1.00  0.00     0.092 A 
ATOM     88  C   UNL A   1      30.026  29.160  22.278  1.00  0.00     0.025 A 
ATOM     89  S   UNL A   1      27.551  29.059  22.929  1.00  0.00    -0.139 S 
ATOM     90  C   UNL A   1      29.431  30.332  21.730  1.00  0.00     0.012 A 
ATOM     91  C   UNL A   1      28.085  30.397  22.004  1.00  0.00     0.065 A 
ENDBRANCH  85  87
ENDBRANCH  80  85
ENDBRANCH  74  77
ENDBRANCH  72  73
ENDBRANCH  71  72
ENDBRANCH   1  71
TORSDOF 15
ENDMDL
MODEL 3
REMARK VINA RESULT:     -11.6      0.636      7.955
REMARK SMILES O=C(NCCCNC(=O)[C@H]1CN(C(=O)c2cccs2)CC[NH2+]1)c1ccc(-c2c3nc(c(-c4cc(S(=O)(=O)[O-])ccc4F)c4ccc([nH]4)c(-c4cc(S(=O)(=O)[O-])ccc4F)c4nc(c(-c5cc(S(=O)(=O)[O-])ccc5F)c5ccc2[nH]5)C=C4)C=C3)cc1
REMARK SMILES IDX 4 1 3 2 1 3 2 4 23 6 24 7 85 8 25 9 84 10 26 11 27 12 28 13
REMARK SMILES IDX 78 14 29 15 83 16 77 17 79 18 30 19 82 20 76 21 75 22 31 24
REMARK SMILES IDX 63 25 43 26 62 27 44 28 47 29 61 30 80 31 45 32 46 33 60 35
REMARK SMILES IDX 81 36 48 37 32 38 33 39 41 40 34 41 40 42 42 43 39 44 35 45
REMARK SMILES IDX 36 46 37 47 38 48 64 49 65 50 73 51 66 52 72 53 74 54 71 55
REMARK SMILES IDX 67 56 68 57 69 58 70 59 49 60 50 61 58 62 51 63 57 64 59 65
REMARK SMILES IDX 56 66 52 67 53 68 54 69 55 70 5 71 6 72 7 73 8 74 9 76 10 77
REMARK SMILES IDX 11 78 22 79 12 80 21 81 20 84 13 85 14 86 15 87 16 88 19 89
REMARK SMILES IDX 17 90 18 91
REMARK H PARENT 3 5 79 23 47 34 7 75 22 82 22 83
REMARK Flexibility Score: inf
ROOT
ATOM      1  C   UNL A   1      32.930  32.498  27.273  1.00  0.00     0.118 C 
ENDROOT
BRANCH   1   2
ATOM      2  N   UNL A   1      32.812  33.912  27.616  1.00  0.00    -0.352 N 
ATOM      3  O   UNL A   1      33.069  35.796  28.819  1.00  0.00    -0.269 OA
ATOM      4  C   UNL A   1      33.435  34.643  28.599  1.00  0.00     0.251 C 
ATOM      5  H   UNL A   1      32.187  34.424  27.054  1.00  0.00     0.163 HD
BRANCH   4   6
ATOM      6  C   UNL A   1      34.522  34.043  29.403  1.00  0.00     0.039 A 
ATOM      7  C   UNL A   1      35.859  34.287  29.090  1.00  0.00     0.014 A 
ATOM      8  C   UNL A   1      34.199  33.230  30.494  1.00  0.00     0.014 A 
ATOM      9  C   UNL A   1      36.862  33.581  29.744  1.00  0.00     0.010 A 
ATOM     10  C   UNL A   1      35.216  32.601  31.218  1.00  0.00     0.010 A 
ATOM     11  C   UNL A   1      36.556  32.735  30.822  1.00  0.00    -0.014 A 
BRANCH  11  12
ATOM     12  C   UNL A   1      37.662  32.030  31.523  1.00  0.00     0.031 A 
ATOM     13  C   UNL A   1      38.458  30.952  30.834  1.00  0.00     0.074 A 
ATOM     14  C   UNL A   1      37.979  32.407  32.778  1.00  0.00     0.049 A 
ATOM     15  N   UNL A   1      39.486  30.274  31.277  1.00  0.00    -0.248 NA
ATOM     16  C   UNL A   1      38.035  30.579  29.477  1.00  0.00     0.031 C 
ATOM     17  C   UNL A   1      37.274  33.435  33.549  1.00  0.00     0.029 A 
ATOM     18  N   UNL A   1      38.988  32.002  33.614  1.00  0.00    -0.354 N 
ATOM     19  C   UNL A   1      39.822  29.380  30.266  1.00  0.00     0.074 A 
ATOM     20  C   UNL A   1      38.861  29.579  29.201  1.00  0.00     0.031 C 
ATOM     21  C   UNL A   1      37.911  33.625  34.713  1.00  0.00     0.029 A 
ATOM     22  C   UNL A   1      39.022  32.688  34.806  1.00  0.00     0.049 A 
ATOM     23  H   UNL A   1      39.626  31.289  33.383  1.00  0.00     0.167 HD
ATOM     24  C   UNL A   1      40.841  28.483  30.228  1.00  0.00     0.034 A 
ATOM     25  C   UNL A   1      39.850  32.570  35.862  1.00  0.00     0.034 A 
ATOM     26  C   UNL A   1      41.798  28.309  31.296  1.00  0.00     0.049 A 
ATOM     27  C   UNL A   1      40.955  31.551  35.803  1.00  0.00     0.074 A 
ATOM     28  C   UNL A   1      42.892  27.461  31.345  1.00  0.00     0.029 A 
ATOM     29  N   UNL A   1      41.770  28.983  32.511  1.00  0.00    -0.354 N 
ATOM     30  N   UNL A   1      41.272  30.729  34.829  1.00  0.00    -0.248 NA
ATOM     31  C   UNL A   1      41.813  31.445  36.988  1.00  0.00     0.031 C 
ATOM     32  C   UNL A   1      43.482  27.573  32.610  1.00  0.00     0.029 A 
ATOM     33  C   UNL A   1      42.805  28.547  33.326  1.00  0.00     0.049 A 
ATOM     34  H   UNL A   1      41.111  29.672  32.758  1.00  0.00     0.167 HD
ATOM     35  C   UNL A   1      42.385  30.025  35.276  1.00  0.00     0.074 A 
ATOM     36  C   UNL A   1      42.694  30.535  36.598  1.00  0.00     0.031 C 
ATOM     37  C   UNL A   1      43.090  29.049  34.651  1.00  0.00     0.034 A 
BRANCH  24  38
ATOM     38  C   UNL A   1      40.939  27.590  29.011  1.00  0.00     0.023 A 
ATOM     39  C   UNL A   1      41.937  27.764  28.036  1.00  0.00     0.031 A 
ATOM     40  C   UNL A   1      39.998  26.563  28.810  1.00  0.00     0.131 A 
ATOM     41  C   UNL A   1      41.926  26.976  26.872  1.00  0.00     0.055 A 
ATOM     42  C   UNL A   1      40.041  25.731  27.690  1.00  0.00     0.041 A 
ATOM     43  F   UNL A   1      39.009  26.360  29.694  1.00  0.00    -0.206 F 
ATOM     44  C   UNL A   1      40.999  25.945  26.704  1.00  0.00     0.022 A 
BRANCH  41  45
ATOM     45  S   UNL A   1      43.044  27.419  25.514  1.00  0.00     0.124 S 
ATOM     46  O   UNL A   1      44.109  28.126  26.221  1.00  0.00    -0.237 OA
ATOM     47  O   UNL A   1      43.400  26.118  24.959  1.00  0.00    -0.237 OA
ATOM     48  O   UNL A   1      42.218  28.261  24.649  1.00  0.00    -0.744 OA
ENDBRANCH  41  45
ENDBRANCH  24  38
BRANCH  25  49
ATOM     49  C   UNL A   1      39.657  33.425  37.066  1.00  0.00     0.023 A 
ATOM     50  C   UNL A   1      39.017  32.928  38.211  1.00  0.00     0.031 A 
ATOM     51  C   UNL A   1      40.088  34.764  37.079  1.00  0.00     0.131 A 
ATOM     52  C   UNL A   1      38.791  33.773  39.308  1.00  0.00     0.055 A 
ATOM     53  C   UNL A   1      39.910  35.586  38.192  1.00  0.00     0.041 A 
ATOM     54  F   UNL A   1      40.710  35.287  36.010  1.00  0.00    -0.206 F 
ATOM     55  C   UNL A   1      39.246  35.094  39.311  1.00  0.00     0.022 A 
BRANCH  52  56
ATOM     56  S   UNL A   1      37.822  33.143  40.705  1.00  0.00     0.124 S 
ATOM     57  O   UNL A   1      38.515  31.898  41.012  1.00  0.00    -0.237 OA
ATOM     58  O   UNL A   1      37.968  34.217  41.683  1.00  0.00    -0.237 OA
ATOM     59  O   UNL A   1      36.480  32.991  40.148  1.00  0.00    -0.744 OA
ENDBRANCH  52  56
ENDBRANCH  25  49
BRANCH  37  60
ATOM     60  C   UNL A   1      44.289  28.503  35.388  1.00  0.00     0.023 A 
ATOM     61  C   UNL A   1      44.169  27.473  36.337  1.00  0.00     0.031 A 
ATOM     62  C   UNL A   1      45.565  29.052  35.167  1.00  0.00     0.131 A 
ATOM     63  C   UNL A   1      45.289  27.071  37.079  1.00  0.00     0.055 A 
ATOM     64  C   UNL A   1      46.689  28.604  35.862  1.00  0.00     0.041 A 
ATOM     65  F   UNL A   1      45.738  30.042  34.274  1.00  0.00    -0.206 F 
ATOM     66  C   UNL A   1      46.552  27.619  36.836  1.00  0.00     0.022 A 
BRANCH  63  67
ATOM     67  S   UNL A   1      45.056  25.899  38.444  1.00  0.00     0.124 S 
ATOM     68  O   UNL A   1      46.377  25.889  39.065  1.00  0.00    -0.237 OA
ATOM     69  O   UNL A   1      43.992  26.530  39.218  1.00  0.00    -0.237 OA
ATOM     70  O   UNL A   1      44.680  24.658  37.770  1.00  0.00    -0.744 OA
ENDBRANCH  63  67
ENDBRANCH  37  60
ENDBRANCH  11  12
ENDBRANCH   4   6
ENDBRANCH   1   2
BRANCH   1  71
ATOM     71  C   UNL A   1      31.640  31.907  26.710  1.00  0.00     0.042 C 
BRANCH  71  72
ATOM     72  C   UNL A   1      31.806  30.524  26.097  1.00  0.00     0.118 C 
BRANCH  72  73
ATOM     73  N   UNL A   1      31.600  29.472  27.072  1.00  0.00    -0.351 N 
ATOM     74  C   UNL A   1      31.776  28.127  26.946  1.00  0.00     0.280 C 
ATOM     75  H   UNL A   1      31.287  29.774  27.956  1.00  0.00     0.163 HD
ATOM     76  O   UNL A   1      31.355  27.424  27.866  1.00  0.00    -0.268 OA
BRANCH  74  77
ATOM     77  C   UNL A   1      32.485  27.553  25.701  1.00  0.00     0.292 C 
ATOM     78  C   UNL A   1      32.816  26.059  25.906  1.00  0.00     0.195 C 
ATOM     79  N   UNL A   1      31.687  27.820  24.474  1.00  0.00    -0.333 N 
ATOM     80  N   UNL A   1      31.652  25.180  25.763  1.00  0.00    -0.326 N 
ATOM     81  C   UNL A   1      30.502  26.936  24.426  1.00  0.00     0.283 C 
ATOM     82  H   UNL A   1      32.268  27.649  23.653  1.00  0.00     0.347 HD
ATOM     83  H   UNL A   1      31.374  28.791  24.489  1.00  0.00     0.347 HD
ATOM     84  C   UNL A   1      30.833  25.439  24.578  1.00  0.00     0.181 C 
BRANCH  80  85
ATOM     85  C   UNL A   1      31.359  24.075  26.570  1.00  0.00     0.264 C 
ATOM     86  O   UNL A   1      30.272  23.989  27.145  1.00  0.00    -0.268 OA
BRANCH  85  87
ATOM     87  C   UNL A   1      32.358  23.020  26.684  1.00  0.00     0.092 A 
ATOM     88  C   UNL A   1      33.074  22.593  27.787  1.00  0.00     0.025 A 
ATOM     89  S   UNL A   1      32.709  22.057  25.310  1.00  0.00    -0.139 S 
ATOM     90  C   UNL A   1      33.964  21.522  27.485  1.00  0.00     0.012 A 
ATOM     91  C   UNL A   1      33.861  21.129  26.172  1.00  0.00     0.065 A 
ENDBRANCH  85  87
ENDBRANCH  80  85
ENDBRANCH  74  77
ENDBRANCH  72  73
ENDBRANCH  71  72
ENDBRANCH   1  71
TORSDOF 15
ENDMDL
