MODEL 1
REMARK VINA RESULT:     -12.4      0.000      0.000
REMARK SMILES COc1c(C(=O)NCCCNC(=O)c2ccc(-c3c4nc(c(-c5cc(S(=O)(=O)[O-])ccc5F)c5ccc([nH]5)c(-c5cc(S(=O)(=O)[O-])ccc5F)c5nc(c(-c6cc(S(=O)(=O)[O-])ccc6F)c6ccc3[nH]6)C=C5)C=C4)cc2)cccc1-c1cc(C)ccc1C
REMARK SMILES IDX 10 1 9 2 8 3 7 4 5 5 6 6 4 8 3 9 80 10 77 11 79 12 78 13
REMARK SMILES IDX 2 14 1 15 81 16 82 17 87 18 83 19 86 20 88 21 84 22 85 23
REMARK SMILES IDX 11 24 12 25 13 27 14 28 15 29 76 30 16 31 75 32 17 33 18 34
REMARK SMILES IDX 19 35 69 36 20 37 74 38 68 39 70 40 21 41 73 42 67 43 66 44
REMARK SMILES IDX 22 46 54 47 34 48 53 49 35 50 38 51 52 52 71 53 36 54 37 55
REMARK SMILES IDX 51 57 72 58 39 59 23 60 24 61 32 62 25 63 31 64 33 65 30 66
REMARK SMILES IDX 26 67 27 68 28 69 29 70 55 71 56 72 64 73 57 74 63 75 65 76
REMARK SMILES IDX 62 77 58 78 59 79 60 80 61 81 40 82 41 83 49 84 42 85 48 86
REMARK SMILES IDX 50 87 47 88 43 89 44 90 45 91 46 92
REMARK H PARENT 7 7 11 26 70 45 38 56
REMARK Flexibility Score: inf
ROOT
ATOM      1  C   UNL A   1      37.566  22.536  24.998  1.00  0.00     0.118 C 
ENDROOT
BRANCH   1   2
ATOM      2  C   UNL A   1      36.393  21.810  24.385  1.00  0.00     0.042 C 
BRANCH   2   3
ATOM      3  C   UNL A   1      35.423  21.221  25.373  1.00  0.00     0.118 C 
BRANCH   3   4
ATOM      4  N   UNL A   1      34.181  20.678  24.914  1.00  0.00    -0.352 N 
ATOM      5  C   UNL A   1      33.229  21.351  24.178  1.00  0.00     0.255 C 
ATOM      6  O   UNL A   1      32.304  20.685  23.708  1.00  0.00    -0.269 OA
ATOM      7  H   UNL A   1      33.989  19.741  25.145  1.00  0.00     0.163 HD
BRANCH   5   8
ATOM      8  C   UNL A   1      33.185  22.851  24.042  1.00  0.00     0.082 A 
ATOM      9  C   UNL A   1      33.035  23.837  25.056  1.00  0.00     0.139 A 
ATOM     10  C   UNL A   1      33.002  25.218  24.706  1.00  0.00     0.025 A 
ATOM     11  C   UNL A   1      33.315  23.272  22.701  1.00  0.00     0.018 A 
ATOM     12  C   UNL A   1      33.135  25.576  23.348  1.00  0.00     0.012 A 
ATOM     13  C   UNL A   1      33.296  24.618  22.355  1.00  0.00     0.002 A 
BRANCH   9  14
ATOM     14  O   UNL A   1      33.050  23.449  26.382  1.00  0.00    -0.495 OA
ATOM     15  C   UNL A   1      31.794  22.989  26.922  1.00  0.00     0.278 C 
ENDBRANCH   9  14
BRANCH  10  16
ATOM     16  C   UNL A   1      32.771  26.309  25.681  1.00  0.00    -0.011 A 
ATOM     17  C   UNL A   1      33.893  27.069  26.086  1.00  0.00     0.012 A 
ATOM     18  C   UNL A   1      31.495  26.695  26.150  1.00  0.00    -0.043 A 
ATOM     19  C   UNL A   1      33.768  28.221  26.872  1.00  0.00    -0.050 A 
ATOM     20  C   UNL A   1      31.375  27.875  26.909  1.00  0.00     0.004 A 
ATOM     21  C   UNL A   1      30.225  25.987  25.756  1.00  0.00     0.045 C 
ATOM     22  C   UNL A   1      34.992  29.000  27.252  1.00  0.00     0.044 C 
ATOM     23  C   UNL A   1      32.495  28.633  27.257  1.00  0.00     0.004 A 
ENDBRANCH  10  16
ENDBRANCH   5   8
ENDBRANCH   3   4
ENDBRANCH   2   3
ENDBRANCH   1   2
BRANCH   1  24
ATOM     24  N   UNL A   1      38.516  21.664  25.678  1.00  0.00    -0.352 N 
ATOM     25  C   UNL A   1      39.598  21.905  26.498  1.00  0.00     0.251 C 
ATOM     26  H   UNL A   1      38.353  20.705  25.518  1.00  0.00     0.163 HD
ATOM     27  O   UNL A   1      40.288  20.953  26.846  1.00  0.00    -0.269 OA
BRANCH  25  28
ATOM     28  C   UNL A   1      39.973  23.279  26.927  1.00  0.00     0.039 A 
ATOM     29  C   UNL A   1      40.764  23.446  28.071  1.00  0.00     0.014 A 
ATOM     30  C   UNL A   1      39.540  24.411  26.248  1.00  0.00     0.014 A 
ATOM     31  C   UNL A   1      41.153  24.729  28.473  1.00  0.00     0.010 A 
ATOM     32  C   UNL A   1      40.078  25.658  26.532  1.00  0.00     0.010 A 
ATOM     33  C   UNL A   1      40.845  25.848  27.683  1.00  0.00    -0.014 A 
BRANCH  33  34
ATOM     34  C   UNL A   1      41.222  27.230  28.086  1.00  0.00     0.031 A 
ATOM     35  C   UNL A   1      42.663  27.675  27.980  1.00  0.00     0.074 A 
ATOM     36  C   UNL A   1      40.289  28.065  28.586  1.00  0.00     0.049 A 
ATOM     37  N   UNL A   1      43.209  28.813  28.327  1.00  0.00    -0.248 NA
ATOM     38  C   UNL A   1      43.630  26.694  27.458  1.00  0.00     0.031 C 
ATOM     39  C   UNL A   1      38.879  27.731  28.797  1.00  0.00     0.029 A 
ATOM     40  N   UNL A   1      40.385  29.369  29.002  1.00  0.00    -0.354 N 
ATOM     41  C   UNL A   1      44.574  28.669  28.089  1.00  0.00     0.074 A 
ATOM     42  C   UNL A   1      44.783  27.305  27.665  1.00  0.00     0.031 C 
ATOM     43  C   UNL A   1      38.231  28.818  29.249  1.00  0.00     0.029 A 
ATOM     44  C   UNL A   1      39.186  29.910  29.409  1.00  0.00     0.049 A 
ATOM     45  H   UNL A   1      41.231  29.870  29.010  1.00  0.00     0.167 HD
ATOM     46  C   UNL A   1      45.559  29.597  28.169  1.00  0.00     0.034 A 
ATOM     47  C   UNL A   1      38.891  31.146  29.855  1.00  0.00     0.034 A 
ATOM     48  C   UNL A   1      45.325  30.964  28.560  1.00  0.00     0.049 A 
ATOM     49  C   UNL A   1      39.998  32.168  29.928  1.00  0.00     0.074 A 
ATOM     50  C   UNL A   1      46.230  32.009  28.632  1.00  0.00     0.029 A 
ATOM     51  N   UNL A   1      44.093  31.479  28.945  1.00  0.00    -0.354 N 
ATOM     52  N   UNL A   1      41.275  32.029  29.646  1.00  0.00    -0.248 NA
ATOM     53  C   UNL A   1      39.620  33.518  30.358  1.00  0.00     0.031 C 
ATOM     54  C   UNL A   1      45.561  33.133  29.128  1.00  0.00     0.029 A 
ATOM     55  C   UNL A   1      44.220  32.818  29.278  1.00  0.00     0.049 A 
ATOM     56  H   UNL A   1      43.253  30.967  28.978  1.00  0.00     0.167 HD
ATOM     57  C   UNL A   1      41.841  33.289  29.825  1.00  0.00     0.074 A 
ATOM     58  C   UNL A   1      40.763  34.173  30.218  1.00  0.00     0.031 C 
ATOM     59  C   UNL A   1      43.133  33.684  29.673  1.00  0.00     0.034 A 
BRANCH  46  60
ATOM     60  C   UNL A   1      46.966  29.152  27.837  1.00  0.00     0.023 A 
ATOM     61  C   UNL A   1      47.351  28.824  26.524  1.00  0.00     0.031 A 
ATOM     62  C   UNL A   1      47.928  29.014  28.852  1.00  0.00     0.131 A 
ATOM     63  C   UNL A   1      48.624  28.289  26.277  1.00  0.00     0.055 A 
ATOM     64  C   UNL A   1      49.226  28.572  28.584  1.00  0.00     0.041 A 
ATOM     65  F   UNL A   1      47.620  29.287  30.130  1.00  0.00    -0.206 F 
ATOM     66  C   UNL A   1      49.576  28.188  27.292  1.00  0.00     0.022 A 
BRANCH  63  67
ATOM     67  S   UNL A   1      48.961  27.573  24.643  1.00  0.00     0.124 S 
ATOM     68  O   UNL A   1      49.059  26.150  24.961  1.00  0.00    -0.237 OA
ATOM     69  O   UNL A   1      47.790  27.976  23.874  1.00  0.00    -0.237 OA
ATOM     70  O   UNL A   1      50.218  28.202  24.245  1.00  0.00    -0.744 OA
ENDBRANCH  63  67
ENDBRANCH  46  60
BRANCH  47  71
ATOM     71  C   UNL A   1      37.495  31.500  30.247  1.00  0.00     0.023 A 
ATOM     72  C   UNL A   1      36.577  31.987  29.301  1.00  0.00     0.031 A 
ATOM     73  C   UNL A   1      37.071  31.402  31.584  1.00  0.00     0.131 A 
ATOM     74  C   UNL A   1      35.304  32.411  29.714  1.00  0.00     0.055 A 
ATOM     75  C   UNL A   1      35.782  31.766  31.978  1.00  0.00     0.041 A 
ATOM     76  F   UNL A   1      37.903  30.937  32.528  1.00  0.00    -0.206 F 
ATOM     77  C   UNL A   1      34.895  32.290  31.044  1.00  0.00     0.022 A 
BRANCH  74  78
ATOM     78  S   UNL A   1      34.221  33.217  28.502  1.00  0.00     0.124 S 
ATOM     79  O   UNL A   1      33.539  32.075  27.906  1.00  0.00    -0.237 OA
ATOM     80  O   UNL A   1      33.407  34.081  29.351  1.00  0.00    -0.237 OA
ATOM     81  O   UNL A   1      35.157  33.915  27.623  1.00  0.00    -0.744 OA
ENDBRANCH  74  78
ENDBRANCH  47  71
BRANCH  59  82
ATOM     82  C   UNL A   1      43.427  35.152  29.873  1.00  0.00     0.023 A 
ATOM     83  C   UNL A   1      43.289  36.086  28.832  1.00  0.00     0.031 A 
ATOM     84  C   UNL A   1      43.886  35.615  31.119  1.00  0.00     0.131 A 
ATOM     85  C   UNL A   1      43.691  37.416  29.029  1.00  0.00     0.055 A 
ATOM     86  C   UNL A   1      44.206  36.956  31.334  1.00  0.00     0.041 A 
ATOM     87  F   UNL A   1      44.037  34.769  32.151  1.00  0.00    -0.206 F 
ATOM     88  C   UNL A   1      44.129  37.861  30.280  1.00  0.00     0.022 A 
BRANCH  85  89
ATOM     89  S   UNL A   1      43.769  38.520  27.593  1.00  0.00     0.124 S 
ATOM     90  O   UNL A   1      43.701  39.836  28.219  1.00  0.00    -0.237 OA
ATOM     91  O   UNL A   1      45.052  38.163  26.995  1.00  0.00    -0.237 OA
ATOM     92  O   UNL A   1      42.593  38.145  26.809  1.00  0.00    -0.744 OA
ENDBRANCH  85  89
ENDBRANCH  59  82
ENDBRANCH  33  34
ENDBRANCH  25  28
ENDBRANCH   1  24
TORSDOF 15
ENDMDL
MODEL 2
REMARK VINA RESULT:     -12.4      5.039      9.925
REMARK SMILES COc1c(C(=O)NCCCNC(=O)c2ccc(-c3c4nc(c(-c5cc(S(=O)(=O)[O-])ccc5F)c5ccc([nH]5)c(-c5cc(S(=O)(=O)[O-])ccc5F)c5nc(c(-c6cc(S(=O)(=O)[O-])ccc6F)c6ccc3[nH]6)C=C5)C=C4)cc2)cccc1-c1cc(C)ccc1C
REMARK SMILES IDX 10 1 9 2 8 3 7 4 5 5 6 6 4 8 3 9 80 10 77 11 79 12 78 13
REMARK SMILES IDX 2 14 1 15 81 16 82 17 87 18 83 19 86 20 88 21 84 22 85 23
REMARK SMILES IDX 11 24 12 25 13 27 14 28 15 29 76 30 16 31 75 32 17 33 18 34
REMARK SMILES IDX 19 35 69 36 20 37 74 38 68 39 70 40 21 41 73 42 67 43 66 44
REMARK SMILES IDX 22 46 54 47 34 48 53 49 35 50 38 51 52 52 71 53 36 54 37 55
REMARK SMILES IDX 51 57 72 58 39 59 23 60 24 61 32 62 25 63 31 64 33 65 30 66
REMARK SMILES IDX 26 67 27 68 28 69 29 70 55 71 56 72 64 73 57 74 63 75 65 76
REMARK SMILES IDX 62 77 58 78 59 79 60 80 61 81 40 82 41 83 49 84 42 85 48 86
REMARK SMILES IDX 50 87 47 88 43 89 44 90 45 91 46 92
REMARK H PARENT 7 7 11 26 70 45 38 56
REMARK Flexibility Score: inf
ROOT
ATOM      1  C   UNL A   1      33.571  29.795  26.797  1.00  0.00     0.118 C 
ENDROOT
BRANCH   1   2
ATOM      2  C   UNL A   1      32.975  29.659  25.417  1.00  0.00     0.042 C 
BRANCH   2   3
ATOM      3  C   UNL A   1      31.477  29.518  25.382  1.00  0.00     0.118 C 
BRANCH   3   4
ATOM      4  N   UNL A   1      30.829  29.097  24.179  1.00  0.00    -0.352 N 
ATOM      5  C   UNL A   1      30.615  27.791  23.791  1.00  0.00     0.255 C 
ATOM      6  O   UNL A   1      29.880  27.604  22.819  1.00  0.00    -0.269 OA
ATOM      7  H   UNL A   1      30.508  29.802  23.572  1.00  0.00     0.163 HD
BRANCH   5   8
ATOM      8  C   UNL A   1      31.334  26.613  24.396  1.00  0.00     0.082 A 
ATOM      9  C   UNL A   1      32.626  26.102  24.092  1.00  0.00     0.139 A 
ATOM     10  C   UNL A   1      33.116  24.952  24.778  1.00  0.00     0.025 A 
ATOM     11  C   UNL A   1      30.568  25.970  25.391  1.00  0.00     0.018 A 
ATOM     12  C   UNL A   1      32.302  24.353  25.762  1.00  0.00     0.012 A 
ATOM     13  C   UNL A   1      31.045  24.856  26.072  1.00  0.00     0.002 A 
BRANCH   9  14
ATOM     14  O   UNL A   1      33.443  26.803  23.225  1.00  0.00    -0.495 OA
ATOM     15  C   UNL A   1      33.218  26.572  21.819  1.00  0.00     0.278 C 
ENDBRANCH   9  14
BRANCH  10  16
ATOM     16  C   UNL A   1      34.413  24.303  24.475  1.00  0.00    -0.011 A 
ATOM     17  C   UNL A   1      35.470  24.502  25.393  1.00  0.00     0.012 A 
ATOM     18  C   UNL A   1      34.625  23.427  23.388  1.00  0.00    -0.043 A 
ATOM     19  C   UNL A   1      36.682  23.809  25.296  1.00  0.00    -0.050 A 
ATOM     20  C   UNL A   1      35.832  22.706  23.318  1.00  0.00     0.004 A 
ATOM     21  C   UNL A   1      33.561  23.107  22.369  1.00  0.00     0.045 C 
ATOM     22  C   UNL A   1      37.760  24.043  26.311  1.00  0.00     0.044 C 
ATOM     23  C   UNL A   1      36.844  22.887  24.263  1.00  0.00     0.004 A 
ENDBRANCH  10  16
ENDBRANCH   5   8
ENDBRANCH   3   4
ENDBRANCH   2   3
ENDBRANCH   1   2
BRANCH   1  24
ATOM     24  N   UNL A   1      33.623  31.166  27.291  1.00  0.00    -0.352 N 
ATOM     25  C   UNL A   1      34.514  31.845  28.096  1.00  0.00     0.251 C 
ATOM     26  H   UNL A   1      32.867  31.720  26.988  1.00  0.00     0.163 HD
ATOM     27  O   UNL A   1      34.235  32.991  28.432  1.00  0.00    -0.269 OA
BRANCH  25  28
ATOM     28  C   UNL A   1      35.762  31.215  28.600  1.00  0.00     0.039 A 
ATOM     29  C   UNL A   1      35.685  29.990  29.275  1.00  0.00     0.014 A 
ATOM     30  C   UNL A   1      37.007  31.815  28.453  1.00  0.00     0.014 A 
ATOM     31  C   UNL A   1      36.852  29.365  29.730  1.00  0.00     0.010 A 
ATOM     32  C   UNL A   1      38.170  31.112  28.731  1.00  0.00     0.010 A 
ATOM     33  C   UNL A   1      38.113  29.903  29.427  1.00  0.00    -0.014 A 
BRANCH  33  34
ATOM     34  C   UNL A   1      39.377  29.282  29.910  1.00  0.00     0.031 A 
ATOM     35  C   UNL A   1      40.057  29.829  31.145  1.00  0.00     0.074 A 
ATOM     36  C   UNL A   1      39.935  28.266  29.222  1.00  0.00     0.049 A 
ATOM     37  N   UNL A   1      41.187  29.470  31.699  1.00  0.00    -0.248 NA
ATOM     38  C   UNL A   1      39.405  30.963  31.821  1.00  0.00     0.031 C 
ATOM     39  C   UNL A   1      39.409  27.693  27.981  1.00  0.00     0.029 A 
ATOM     40  N   UNL A   1      41.065  27.530  29.471  1.00  0.00    -0.354 N 
ATOM     41  C   UNL A   1      41.385  30.346  32.763  1.00  0.00     0.074 A 
ATOM     42  C   UNL A   1      40.314  31.313  32.714  1.00  0.00     0.031 C 
ATOM     43  C   UNL A   1      40.183  26.660  27.609  1.00  0.00     0.029 A 
ATOM     44  C   UNL A   1      41.288  26.528  28.553  1.00  0.00     0.049 A 
ATOM     45  H   UNL A   1      41.663  27.702  30.233  1.00  0.00     0.167 HD
ATOM     46  C   UNL A   1      42.342  30.324  33.722  1.00  0.00     0.034 A 
ATOM     47  C   UNL A   1      42.268  25.606  28.485  1.00  0.00     0.034 A 
ATOM     48  C   UNL A   1      43.384  29.330  33.775  1.00  0.00     0.049 A 
ATOM     49  C   UNL A   1      43.319  25.592  29.567  1.00  0.00     0.074 A 
ATOM     50  C   UNL A   1      44.381  29.173  34.723  1.00  0.00     0.029 A 
ATOM     51  N   UNL A   1      43.563  28.319  32.839  1.00  0.00    -0.354 N 
ATOM     52  N   UNL A   1      43.459  26.396  30.597  1.00  0.00    -0.248 NA
ATOM     53  C   UNL A   1      44.329  24.531  29.488  1.00  0.00     0.031 C 
ATOM     54  C   UNL A   1      45.202  28.114  34.321  1.00  0.00     0.029 A 
ATOM     55  C   UNL A   1      44.667  27.551  33.174  1.00  0.00     0.049 A 
ATOM     56  H   UNL A   1      42.991  28.172  32.052  1.00  0.00     0.167 HD
ATOM     57  C   UNL A   1      44.550  25.908  31.312  1.00  0.00     0.074 A 
ATOM     58  C   UNL A   1      45.014  24.732  30.604  1.00  0.00     0.031 C 
ATOM     59  C   UNL A   1      45.117  26.383  32.452  1.00  0.00     0.034 A 
BRANCH  46  60
ATOM     60  C   UNL A   1      42.302  31.412  34.773  1.00  0.00     0.023 A 
ATOM     61  C   UNL A   1      41.306  31.449  35.766  1.00  0.00     0.031 A 
ATOM     62  C   UNL A   1      43.249  32.451  34.760  1.00  0.00     0.131 A 
ATOM     63  C   UNL A   1      41.224  32.544  36.640  1.00  0.00     0.055 A 
ATOM     64  C   UNL A   1      43.219  33.489  35.695  1.00  0.00     0.041 A 
ATOM     65  F   UNL A   1      44.212  32.489  33.824  1.00  0.00    -0.206 F 
ATOM     66  C   UNL A   1      42.191  33.550  36.632  1.00  0.00     0.022 A 
BRANCH  63  67
ATOM     67  S   UNL A   1      39.743  32.717  37.675  1.00  0.00     0.124 S 
ATOM     68  O   UNL A   1      39.272  34.047  37.294  1.00  0.00    -0.237 OA
ATOM     69  O   UNL A   1      38.919  31.597  37.237  1.00  0.00    -0.237 OA
ATOM     70  O   UNL A   1      40.263  32.616  39.037  1.00  0.00    -0.744 OA
ENDBRANCH  63  67
ENDBRANCH  46  60
BRANCH  47  71
ATOM     71  C   UNL A   1      42.298  24.610  27.374  1.00  0.00     0.023 A 
ATOM     72  C   UNL A   1      41.543  23.427  27.439  1.00  0.00     0.031 A 
ATOM     73  C   UNL A   1      43.121  24.802  26.250  1.00  0.00     0.131 A 
ATOM     74  C   UNL A   1      41.668  22.459  26.430  1.00  0.00     0.055 A 
ATOM     75  C   UNL A   1      43.195  23.864  25.219  1.00  0.00     0.041 A 
ATOM     76  F   UNL A   1      43.859  25.917  26.131  1.00  0.00    -0.206 F 
ATOM     77  C   UNL A   1      42.478  22.676  25.314  1.00  0.00     0.022 A 
BRANCH  74  78
ATOM     78  S   UNL A   1      40.832  20.863  26.649  1.00  0.00     0.124 S 
ATOM     79  O   UNL A   1      40.800  20.742  28.101  1.00  0.00    -0.237 OA
ATOM     80  O   UNL A   1      39.549  21.102  25.995  1.00  0.00    -0.237 OA
ATOM     81  O   UNL A   1      41.713  19.922  25.961  1.00  0.00    -0.744 OA
ENDBRANCH  74  78
ENDBRANCH  47  71
BRANCH  59  82
ATOM     82  C   UNL A   1      46.261  25.584  33.032  1.00  0.00     0.023 A 
ATOM     83  C   UNL A   1      46.048  24.533  33.941  1.00  0.00     0.031 A 
ATOM     84  C   UNL A   1      47.588  25.905  32.692  1.00  0.00     0.131 A 
ATOM     85  C   UNL A   1      47.145  23.901  34.546  1.00  0.00     0.055 A 
ATOM     86  C   UNL A   1      48.674  25.218  33.235  1.00  0.00     0.041 A 
ATOM     87  F   UNL A   1      47.852  26.900  31.829  1.00  0.00    -0.206 F 
ATOM     88  C   UNL A   1      48.456  24.223  34.183  1.00  0.00     0.022 A 
BRANCH  85  89
ATOM     89  S   UNL A   1      46.836  22.755  35.916  1.00  0.00     0.124 S 
ATOM     90  O   UNL A   1      47.918  23.088  36.838  1.00  0.00    -0.237 OA
ATOM     91  O   UNL A   1      45.494  23.135  36.344  1.00  0.00    -0.237 OA
ATOM     92  O   UNL A   1      46.939  21.438  35.291  1.00  0.00    -0.744 OA
ENDBRANCH  85  89
ENDBRANCH  59  82
ENDBRANCH  33  34
ENDBRANCH  25  28
ENDBRANCH   1  24
TORSDOF 15
ENDMDL
MODEL 3
REMARK VINA RESULT:     -12.3      1.398      1.775
REMARK SMILES COc1c(C(=O)NCCCNC(=O)c2ccc(-c3c4nc(c(-c5cc(S(=O)(=O)[O-])ccc5F)c5ccc([nH]5)c(-c5cc(S(=O)(=O)[O-])ccc5F)c5nc(c(-c6cc(S(=O)(=O)[O-])ccc6F)c6ccc3[nH]6)C=C5)C=C4)cc2)cccc1-c1cc(C)ccc1C
REMARK SMILES IDX 10 1 9 2 8 3 7 4 5 5 6 6 4 8 3 9 80 10 77 11 79 12 78 13
REMARK SMILES IDX 2 14 1 15 81 16 82 17 87 18 83 19 86 20 88 21 84 22 85 23
REMARK SMILES IDX 11 24 12 25 13 27 14 28 15 29 76 30 16 31 75 32 17 33 18 34
REMARK SMILES IDX 19 35 69 36 20 37 74 38 68 39 70 40 21 41 73 42 67 43 66 44
REMARK SMILES IDX 22 46 54 47 34 48 53 49 35 50 38 51 52 52 71 53 36 54 37 55
REMARK SMILES IDX 51 57 72 58 39 59 23 60 24 61 32 62 25 63 31 64 33 65 30 66
REMARK SMILES IDX 26 67 27 68 28 69 29 70 55 71 56 72 64 73 57 74 63 75 65 76
REMARK SMILES IDX 62 77 58 78 59 79 60 80 61 81 40 82 41 83 49 84 42 85 48 86
REMARK SMILES IDX 50 87 47 88 43 89 44 90 45 91 46 92
REMARK H PARENT 7 7 11 26 70 45 38 56
REMARK Flexibility Score: inf
ROOT
ATOM      1  C   UNL A   1      37.659  22.540  25.167  1.00  0.00     0.118 C 
ENDROOT
BRANCH   1   2
ATOM      2  C   UNL A   1      36.503  21.796  24.544  1.00  0.00     0.042 C 
BRANCH   2   3
ATOM      3  C   UNL A   1      35.447  21.337  25.513  1.00  0.00     0.118 C 
BRANCH   3   4
ATOM      4  N   UNL A   1      34.226  20.778  25.023  1.00  0.00    -0.352 N 
ATOM      5  C   UNL A   1      33.290  21.435  24.251  1.00  0.00     0.255 C 
ATOM      6  O   UNL A   1      32.386  20.754  23.760  1.00  0.00    -0.269 OA
ATOM      7  H   UNL A   1      34.035  19.841  25.257  1.00  0.00     0.163 HD
BRANCH   5   8
ATOM      8  C   UNL A   1      33.237  22.933  24.098  1.00  0.00     0.082 A 
ATOM      9  C   UNL A   1      33.083  23.928  25.102  1.00  0.00     0.139 A 
ATOM     10  C   UNL A   1      33.040  25.306  24.737  1.00  0.00     0.025 A 
ATOM     11  C   UNL A   1      33.361  23.340  22.753  1.00  0.00     0.018 A 
ATOM     12  C   UNL A   1      33.167  25.649  23.375  1.00  0.00     0.012 A 
ATOM     13  C   UNL A   1      33.332  24.682  22.392  1.00  0.00     0.002 A 
BRANCH   9  14
ATOM     14  O   UNL A   1      33.104  23.555  26.432  1.00  0.00    -0.495 OA
ATOM     15  C   UNL A   1      31.869  23.030  26.962  1.00  0.00     0.278 C 
ENDBRANCH   9  14
BRANCH  10  16
ATOM     16  C   UNL A   1      32.804  26.406  25.701  1.00  0.00    -0.011 A 
ATOM     17  C   UNL A   1      33.924  27.172  26.100  1.00  0.00     0.012 A 
ATOM     18  C   UNL A   1      31.527  26.793  26.163  1.00  0.00    -0.043 A 
ATOM     19  C   UNL A   1      33.795  28.331  26.874  1.00  0.00    -0.050 A 
ATOM     20  C   UNL A   1      31.402  27.981  26.909  1.00  0.00     0.004 A 
ATOM     21  C   UNL A   1      30.259  26.079  25.772  1.00  0.00     0.045 C 
ATOM     22  C   UNL A   1      35.016  29.117  27.249  1.00  0.00     0.044 C 
ATOM     23  C   UNL A   1      32.520  28.745  27.252  1.00  0.00     0.004 A 
ENDBRANCH  10  16
ENDBRANCH   5   8
ENDBRANCH   3   4
ENDBRANCH   2   3
ENDBRANCH   1   2
BRANCH   1  24
ATOM     24  N   UNL A   1      38.669  21.677  25.768  1.00  0.00    -0.352 N 
ATOM     25  C   UNL A   1      39.803  21.928  26.512  1.00  0.00     0.251 C 
ATOM     26  H   UNL A   1      38.509  20.718  25.609  1.00  0.00     0.163 HD
ATOM     27  O   UNL A   1      40.530  20.983  26.799  1.00  0.00    -0.269 OA
BRANCH  25  28
ATOM     28  C   UNL A   1      40.187  23.302  26.927  1.00  0.00     0.039 A 
ATOM     29  C   UNL A   1      39.771  24.392  26.152  1.00  0.00     0.014 A 
ATOM     30  C   UNL A   1      40.974  23.546  28.046  1.00  0.00     0.014 A 
ATOM     31  C   UNL A   1      40.095  25.696  26.542  1.00  0.00     0.010 A 
ATOM     32  C   UNL A   1      41.133  24.835  28.535  1.00  0.00     0.010 A 
ATOM     33  C   UNL A   1      40.749  25.933  27.763  1.00  0.00    -0.014 A 
BRANCH  33  34
ATOM     34  C   UNL A   1      41.131  27.302  28.205  1.00  0.00     0.031 A 
ATOM     35  C   UNL A   1      42.581  27.729  28.152  1.00  0.00     0.074 A 
ATOM     36  C   UNL A   1      40.194  28.139  28.693  1.00  0.00     0.049 A 
ATOM     37  N   UNL A   1      43.130  28.852  28.540  1.00  0.00    -0.248 NA
ATOM     38  C   UNL A   1      43.550  26.745  27.641  1.00  0.00     0.031 C 
ATOM     39  C   UNL A   1      38.774  27.820  28.854  1.00  0.00     0.029 A 
ATOM     40  N   UNL A   1      40.294  29.433  29.138  1.00  0.00    -0.354 N 
ATOM     41  C   UNL A   1      44.500  28.694  28.340  1.00  0.00     0.074 A 
ATOM     42  C   UNL A   1      44.704  27.335  27.896  1.00  0.00     0.031 C 
ATOM     43  C   UNL A   1      38.127  28.907  29.308  1.00  0.00     0.029 A 
ATOM     44  C   UNL A   1      39.091  29.982  29.519  1.00  0.00     0.049 A 
ATOM     45  H   UNL A   1      41.146  29.922  29.182  1.00  0.00     0.167 HD
ATOM     46  C   UNL A   1      45.494  29.607  28.469  1.00  0.00     0.034 A 
ATOM     47  C   UNL A   1      38.798  31.213  29.981  1.00  0.00     0.034 A 
ATOM     48  C   UNL A   1      45.266  30.968  28.882  1.00  0.00     0.049 A 
ATOM     49  C   UNL A   1      39.916  32.218  30.110  1.00  0.00     0.074 A 
ATOM     50  C   UNL A   1      46.182  31.999  29.003  1.00  0.00     0.029 A 
ATOM     51  N   UNL A   1      44.030  31.492  29.239  1.00  0.00    -0.354 N 
ATOM     52  N   UNL A   1      41.199  32.067  29.864  1.00  0.00    -0.248 NA
ATOM     53  C   UNL A   1      39.542  33.564  30.555  1.00  0.00     0.031 C 
ATOM     54  C   UNL A   1      45.513  33.121  29.501  1.00  0.00     0.029 A 
ATOM     55  C   UNL A   1      44.164  32.823  29.603  1.00  0.00     0.049 A 
ATOM     56  H   UNL A   1      43.183  30.991  29.236  1.00  0.00     0.167 HD
ATOM     57  C   UNL A   1      41.775  33.315  30.086  1.00  0.00     0.074 A 
ATOM     58  C   UNL A   1      40.697  34.206  30.463  1.00  0.00     0.031 C 
ATOM     59  C   UNL A   1      43.077  33.695  29.982  1.00  0.00     0.034 A 
BRANCH  46  60
ATOM     60  C   UNL A   1      46.905  29.149  28.172  1.00  0.00     0.023 A 
ATOM     61  C   UNL A   1      47.346  28.909  26.857  1.00  0.00     0.031 A 
ATOM     62  C   UNL A   1      47.812  28.908  29.219  1.00  0.00     0.131 A 
ATOM     63  C   UNL A   1      48.617  28.359  26.631  1.00  0.00     0.055 A 
ATOM     64  C   UNL A   1      49.111  28.452  28.979  1.00  0.00     0.041 A 
ATOM     65  F   UNL A   1      47.447  29.094  30.497  1.00  0.00    -0.206 F 
ATOM     66  C   UNL A   1      49.515  28.157  27.680  1.00  0.00     0.022 A 
BRANCH  63  67
ATOM     67  S   UNL A   1      49.017  27.759  24.966  1.00  0.00     0.124 S 
ATOM     68  O   UNL A   1      47.850  28.203  24.206  1.00  0.00    -0.237 OA
ATOM     69  O   UNL A   1      50.269  28.446  24.674  1.00  0.00    -0.237 OA
ATOM     70  O   UNL A   1      49.123  26.312  25.139  1.00  0.00    -0.744 OA
ENDBRANCH  63  67
ENDBRANCH  46  60
BRANCH  47  71
ATOM     71  C   UNL A   1      37.395  31.578  30.337  1.00  0.00     0.023 A 
ATOM     72  C   UNL A   1      36.500  32.054  29.365  1.00  0.00     0.031 A 
ATOM     73  C   UNL A   1      36.942  31.502  31.666  1.00  0.00     0.131 A 
ATOM     74  C   UNL A   1      35.220  32.488  29.743  1.00  0.00     0.055 A 
ATOM     75  C   UNL A   1      35.647  31.877  32.027  1.00  0.00     0.041 A 
ATOM     76  F   UNL A   1      37.751  31.048  32.636  1.00  0.00    -0.206 F 
ATOM     77  C   UNL A   1      34.782  32.390  31.065  1.00  0.00     0.022 A 
BRANCH  74  78
ATOM     78  S   UNL A   1      34.167  33.281  28.496  1.00  0.00     0.124 S 
ATOM     79  O   UNL A   1      35.157  33.906  27.626  1.00  0.00    -0.237 OA
ATOM     80  O   UNL A   1      33.451  32.139  27.936  1.00  0.00    -0.237 OA
ATOM     81  O   UNL A   1      33.349  34.204  29.279  1.00  0.00    -0.744 OA
ENDBRANCH  74  78
ENDBRANCH  47  71
BRANCH  59  82
ATOM     82  C   UNL A   1      43.384  35.155  30.221  1.00  0.00     0.023 A 
ATOM     83  C   UNL A   1      43.620  35.664  31.509  1.00  0.00     0.031 A 
ATOM     84  C   UNL A   1      43.404  36.056  29.140  1.00  0.00     0.131 A 
ATOM     85  C   UNL A   1      43.779  37.046  31.695  1.00  0.00     0.055 A 
ATOM     86  C   UNL A   1      43.645  37.418  29.322  1.00  0.00     0.041 A 
ATOM     87  F   UNL A   1      43.185  35.627  27.887  1.00  0.00    -0.206 F 
ATOM     88  C   UNL A   1      43.813  37.923  30.607  1.00  0.00     0.022 A 
BRANCH  85  89
ATOM     89  S   UNL A   1      43.795  37.695  33.388  1.00  0.00     0.124 S 
ATOM     90  O   UNL A   1      45.225  37.855  33.636  1.00  0.00    -0.237 OA
ATOM     91  O   UNL A   1      43.029  38.930  33.255  1.00  0.00    -0.237 OA
ATOM     92  O   UNL A   1      43.146  36.641  34.165  1.00  0.00    -0.744 OA
ENDBRANCH  85  89
ENDBRANCH  59  82
ENDBRANCH  33  34
ENDBRANCH  25  28
ENDBRANCH   1  24
TORSDOF 15
ENDMDL
