MODEL 1
REMARK VINA RESULT:     -12.4      0.000      0.000
REMARK SMILES CCc1cc2c(C)cc(=O)oc2cc1O[C@H](C)C(=O)NCCCNC(=O)c1ccc(-c2c3nc(c(-c4cc(S(=O)(=O)[O-])ccc4F)c4ccc([nH]4)c(-c4cc(S(=O)(=O)[O-])ccc4F)c4nc(c(-c5cc(S(=O)(=O)[O-])ccc5F)c5ccc2[nH]5)C=C4)C=C3)cc1
REMARK SMILES IDX 22 1 21 2 20 3 18 4 19 5 16 7 17 8 15 9 14 10 3 11 4 12 5 13
REMARK SMILES IDX 13 14 6 15 12 16 7 17 8 18 11 19 9 20 10 21 2 22 1 23 23 24
REMARK SMILES IDX 24 25 25 26 26 28 27 29 28 30 89 31 29 32 88 33 30 34 31 35
REMARK SMILES IDX 32 36 82 37 33 38 87 39 81 40 83 41 34 42 86 43 80 44 79 45
REMARK SMILES IDX 35 47 67 48 47 49 66 50 48 51 51 52 65 53 84 54 49 55 50 56
REMARK SMILES IDX 64 58 85 59 52 60 36 61 37 62 45 63 38 64 44 65 46 66 43 67
REMARK SMILES IDX 39 68 40 69 41 70 42 71 68 72 69 73 77 74 70 75 76 76 78 77
REMARK SMILES IDX 75 78 71 79 72 80 73 81 74 82 53 83 54 84 62 85 55 86 61 87
REMARK SMILES IDX 63 88 60 89 56 90 57 91 58 92 59 93
REMARK H PARENT 20 6 24 27 83 46 51 57
REMARK Flexibility Score: inf
ROOT
ATOM      1  C   UNL A   1      36.660  20.439  24.895  1.00  0.00     0.042 C 
ENDROOT
BRANCH   1   2
ATOM      2  C   UNL A   1      35.372  21.085  25.381  1.00  0.00     0.118 C 
BRANCH   2   3
ATOM      3  N   UNL A   1      34.309  20.105  25.488  1.00  0.00    -0.353 N 
ATOM      4  C   UNL A   1      33.064  20.126  24.945  1.00  0.00     0.260 C 
ATOM      5  O   UNL A   1      32.302  19.190  25.201  1.00  0.00    -0.271 OA
ATOM      6  H   UNL A   1      34.520  19.313  26.032  1.00  0.00     0.163 HD
BRANCH   4   7
ATOM      7  C   UNL A   1      32.613  21.281  24.021  1.00  0.00     0.258 C 
ATOM      8  C   UNL A   1      32.093  20.656  22.717  1.00  0.00     0.064 C 
BRANCH   7   9
ATOM      9  O   UNL A   1      31.662  22.262  24.424  1.00  0.00    -0.480 OA
BRANCH   9  10
ATOM     10  C   UNL A   1      31.998  23.583  24.544  1.00  0.00     0.127 A 
ATOM     11  C   UNL A   1      32.189  24.055  25.861  1.00  0.00    -0.005 A 
ATOM     12  C   UNL A   1      32.715  25.352  26.058  1.00  0.00     0.019 A 
ATOM     13  C   UNL A   1      33.019  26.192  24.983  1.00  0.00     0.021 A 
ATOM     14  C   UNL A   1      32.207  24.452  23.475  1.00  0.00     0.094 A 
ATOM     15  C   UNL A   1      33.596  27.534  25.130  1.00  0.00    -0.033 A 
ATOM     16  C   UNL A   1      32.756  25.714  23.704  1.00  0.00     0.142 A 
ATOM     17  C   UNL A   1      33.746  28.149  26.489  1.00  0.00     0.045 C 
ATOM     18  C   UNL A   1      33.970  28.189  24.020  1.00  0.00     0.098 A 
ATOM     19  O   UNL A   1      33.091  26.460  22.556  1.00  0.00    -0.423 OA
ATOM     20  C   UNL A   1      33.786  27.652  22.663  1.00  0.00     0.336 A 
ATOM     21  O   UNL A   1      34.195  28.268  21.686  1.00  0.00    -0.246 OA
BRANCH  11  22
ATOM     22  C   UNL A   1      31.902  23.171  27.062  1.00  0.00     0.036 C 
ATOM     23  C   UNL A   1      33.153  22.633  27.753  1.00  0.00     0.009 C 
ENDBRANCH  11  22
ENDBRANCH   9  10
ENDBRANCH   7   9
ENDBRANCH   4   7
ENDBRANCH   2   3
ENDBRANCH   1   2
BRANCH   1  24
ATOM     24  C   UNL A   1      37.917  21.157  25.370  1.00  0.00     0.118 C 
BRANCH  24  25
ATOM     25  N   UNL A   1      38.920  20.240  25.894  1.00  0.00    -0.352 N 
ATOM     26  C   UNL A   1      40.113  20.527  26.511  1.00  0.00     0.251 C 
ATOM     27  H   UNL A   1      38.715  19.283  25.791  1.00  0.00     0.163 HD
ATOM     28  O   UNL A   1      40.927  19.630  26.713  1.00  0.00    -0.269 OA
BRANCH  26  29
ATOM     29  C   UNL A   1      40.419  21.922  26.894  1.00  0.00     0.039 A 
ATOM     30  C   UNL A   1      41.312  22.158  27.941  1.00  0.00     0.014 A 
ATOM     31  C   UNL A   1      39.848  22.995  26.202  1.00  0.00     0.014 A 
ATOM     32  C   UNL A   1      41.689  23.467  28.244  1.00  0.00     0.010 A 
ATOM     33  C   UNL A   1      40.288  24.290  26.450  1.00  0.00     0.010 A 
ATOM     34  C   UNL A   1      41.213  24.542  27.474  1.00  0.00    -0.014 A 
BRANCH  34  35
ATOM     35  C   UNL A   1      41.673  25.933  27.723  1.00  0.00     0.031 A 
ATOM     36  C   UNL A   1      43.028  26.376  27.241  1.00  0.00     0.074 A 
ATOM     37  C   UNL A   1      40.899  26.774  28.438  1.00  0.00     0.049 A 
ATOM     38  N   UNL A   1      43.637  27.520  27.420  1.00  0.00    -0.248 NA
ATOM     39  C   UNL A   1      43.815  25.388  26.489  1.00  0.00     0.031 C 
ATOM     40  C   UNL A   1      39.587  26.442  28.999  1.00  0.00     0.029 A 
ATOM     41  N   UNL A   1      41.104  28.075  28.824  1.00  0.00    -0.354 N 
ATOM     42  C   UNL A   1      44.882  27.385  26.815  1.00  0.00     0.074 A 
ATOM     43  C   UNL A   1      44.963  26.025  26.326  1.00  0.00     0.031 C 
ATOM     44  C   UNL A   1      39.095  27.518  29.632  1.00  0.00     0.029 A 
ATOM     45  C   UNL A   1      40.072  28.600  29.567  1.00  0.00     0.049 A 
ATOM     46  H   UNL A   1      41.914  28.584  28.591  1.00  0.00     0.167 HD
ATOM     47  C   UNL A   1      45.856  28.317  26.660  1.00  0.00     0.034 A 
ATOM     48  C   UNL A   1      39.934  29.811  30.143  1.00  0.00     0.034 A 
ATOM     49  C   UNL A   1      45.752  29.671  27.147  1.00  0.00     0.049 A 
ATOM     50  C   UNL A   1      41.039  30.824  29.979  1.00  0.00     0.074 A 
ATOM     51  C   UNL A   1      46.647  30.715  26.992  1.00  0.00     0.029 A 
ATOM     52  N   UNL A   1      44.692  30.169  27.896  1.00  0.00    -0.354 N 
ATOM     53  N   UNL A   1      42.185  30.701  29.350  1.00  0.00    -0.248 NA
ATOM     54  C   UNL A   1      40.825  32.141  30.591  1.00  0.00     0.031 C 
ATOM     55  C   UNL A   1      46.167  31.816  27.709  1.00  0.00     0.029 A 
ATOM     56  C   UNL A   1      44.930  31.491  28.243  1.00  0.00     0.049 A 
ATOM     57  H   UNL A   1      43.889  29.656  28.147  1.00  0.00     0.167 HD
ATOM     58  C   UNL A   1      42.818  31.936  29.470  1.00  0.00     0.074 A 
ATOM     59  C   UNL A   1      41.916  32.791  30.215  1.00  0.00     0.031 C 
ATOM     60  C   UNL A   1      44.031  32.328  29.002  1.00  0.00     0.034 A 
BRANCH  47  61
ATOM     61  C   UNL A   1      47.125  27.884  25.959  1.00  0.00     0.023 A 
ATOM     62  C   UNL A   1      47.311  28.081  24.579  1.00  0.00     0.031 A 
ATOM     63  C   UNL A   1      48.148  27.234  26.672  1.00  0.00     0.131 A 
ATOM     64  C   UNL A   1      48.445  27.556  23.942  1.00  0.00     0.055 A 
ATOM     65  C   UNL A   1      49.316  26.793  26.047  1.00  0.00     0.041 A 
ATOM     66  F   UNL A   1      48.021  26.999  27.988  1.00  0.00    -0.206 F 
ATOM     67  C   UNL A   1      49.462  26.937  24.671  1.00  0.00     0.022 A 
BRANCH  64  68
ATOM     68  S   UNL A   1      48.494  27.552  22.128  1.00  0.00     0.124 S 
ATOM     69  O   UNL A   1      49.679  28.366  21.864  1.00  0.00    -0.237 OA
ATOM     70  O   UNL A   1      48.612  26.132  21.818  1.00  0.00    -0.237 OA
ATOM     71  O   UNL A   1      47.225  28.171  21.750  1.00  0.00    -0.744 OA
ENDBRANCH  64  68
ENDBRANCH  47  61
BRANCH  48  72
ATOM     72  C   UNL A   1      38.712  30.132  30.935  1.00  0.00     0.023 A 
ATOM     73  C   UNL A   1      37.667  30.889  30.383  1.00  0.00     0.031 A 
ATOM     74  C   UNL A   1      38.586  29.709  32.270  1.00  0.00     0.131 A 
ATOM     75  C   UNL A   1      36.560  31.233  31.174  1.00  0.00     0.055 A 
ATOM     76  C   UNL A   1      37.458  30.010  33.037  1.00  0.00     0.041 A 
ATOM     77  F   UNL A   1      39.554  28.977  32.846  1.00  0.00    -0.206 F 
ATOM     78  C   UNL A   1      36.441  30.787  32.492  1.00  0.00     0.022 A 
BRANCH  75  79
ATOM     79  S   UNL A   1      35.303  32.339  30.475  1.00  0.00     0.124 S 
ATOM     80  O   UNL A   1      34.937  31.636  29.251  1.00  0.00    -0.237 OA
ATOM     81  O   UNL A   1      34.295  32.361  31.529  1.00  0.00    -0.237 OA
ATOM     82  O   UNL A   1      36.025  33.595  30.281  1.00  0.00    -0.744 OA
ENDBRANCH  75  79
ENDBRANCH  48  72
BRANCH  60  83
ATOM     83  C   UNL A   1      44.430  33.762  29.255  1.00  0.00     0.023 A 
ATOM     84  C   UNL A   1      43.974  34.814  28.440  1.00  0.00     0.031 A 
ATOM     85  C   UNL A   1      45.290  34.079  30.322  1.00  0.00     0.131 A 
ATOM     86  C   UNL A   1      44.426  36.122  28.668  1.00  0.00     0.055 A 
ATOM     87  C   UNL A   1      45.685  35.391  30.584  1.00  0.00     0.041 A 
ATOM     88  F   UNL A   1      45.761  33.115  31.129  1.00  0.00    -0.206 F 
ATOM     89  C   UNL A   1      45.263  36.420  29.747  1.00  0.00     0.022 A 
BRANCH  86  90
ATOM     90  S   UNL A   1      43.983  37.417  27.479  1.00  0.00     0.124 S 
ATOM     91  O   UNL A   1      43.344  38.409  28.337  1.00  0.00    -0.237 OA
ATOM     92  O   UNL A   1      45.281  37.792  26.928  1.00  0.00    -0.237 OA
ATOM     93  O   UNL A   1      43.088  36.735  26.546  1.00  0.00    -0.744 OA
ENDBRANCH  86  90
ENDBRANCH  60  83
ENDBRANCH  34  35
ENDBRANCH  26  29
ENDBRANCH  24  25
ENDBRANCH   1  24
TORSDOF 16
ENDMDL
MODEL 2
REMARK VINA RESULT:     -12.3      2.034      2.657
REMARK SMILES CCc1cc2c(C)cc(=O)oc2cc1O[C@H](C)C(=O)NCCCNC(=O)c1ccc(-c2c3nc(c(-c4cc(S(=O)(=O)[O-])ccc4F)c4ccc([nH]4)c(-c4cc(S(=O)(=O)[O-])ccc4F)c4nc(c(-c5cc(S(=O)(=O)[O-])ccc5F)c5ccc2[nH]5)C=C4)C=C3)cc1
REMARK SMILES IDX 22 1 21 2 20 3 18 4 19 5 16 7 17 8 15 9 14 10 3 11 4 12 5 13
REMARK SMILES IDX 13 14 6 15 12 16 7 17 8 18 11 19 9 20 10 21 2 22 1 23 23 24
REMARK SMILES IDX 24 25 25 26 26 28 27 29 28 30 89 31 29 32 88 33 30 34 31 35
REMARK SMILES IDX 32 36 82 37 33 38 87 39 81 40 83 41 34 42 86 43 80 44 79 45
REMARK SMILES IDX 35 47 67 48 47 49 66 50 48 51 51 52 65 53 84 54 49 55 50 56
REMARK SMILES IDX 64 58 85 59 52 60 36 61 37 62 45 63 38 64 44 65 46 66 43 67
REMARK SMILES IDX 39 68 40 69 41 70 42 71 68 72 69 73 77 74 70 75 76 76 78 77
REMARK SMILES IDX 75 78 71 79 72 80 73 81 74 82 53 83 54 84 62 85 55 86 61 87
REMARK SMILES IDX 63 88 60 89 56 90 57 91 58 92 59 93
REMARK H PARENT 20 6 24 27 83 46 51 57
REMARK Flexibility Score: inf
ROOT
ATOM      1  C   UNL A   1      35.537  22.246  25.703  1.00  0.00     0.042 C 
ENDROOT
BRANCH   1   2
ATOM      2  C   UNL A   1      35.670  20.928  24.956  1.00  0.00     0.118 C 
BRANCH   2   3
ATOM      3  N   UNL A   1      34.602  20.018  25.319  1.00  0.00    -0.353 N 
ATOM      4  C   UNL A   1      33.282  20.071  24.998  1.00  0.00     0.260 C 
ATOM      5  O   UNL A   1      32.538  19.197  25.452  1.00  0.00    -0.271 OA
ATOM      6  H   UNL A   1      34.871  19.253  25.877  1.00  0.00     0.163 HD
BRANCH   4   7
ATOM      7  C   UNL A   1      32.726  21.184  24.081  1.00  0.00     0.258 C 
ATOM      8  C   UNL A   1      32.170  20.510  22.817  1.00  0.00     0.064 C 
BRANCH   7   9
ATOM      9  O   UNL A   1      31.749  22.125  24.518  1.00  0.00    -0.480 OA
BRANCH   9  10
ATOM     10  C   UNL A   1      32.032  23.458  24.626  1.00  0.00     0.127 A 
ATOM     11  C   UNL A   1      32.136  23.965  25.939  1.00  0.00    -0.005 A 
ATOM     12  C   UNL A   1      32.605  25.284  26.134  1.00  0.00     0.019 A 
ATOM     13  C   UNL A   1      32.937  26.112  25.058  1.00  0.00     0.021 A 
ATOM     14  C   UNL A   1      32.267  24.312  23.550  1.00  0.00     0.094 A 
ATOM     15  C   UNL A   1      33.459  27.476  25.204  1.00  0.00    -0.033 A 
ATOM     16  C   UNL A   1      32.759  25.597  23.778  1.00  0.00     0.142 A 
ATOM     17  C   UNL A   1      33.515  28.124  26.555  1.00  0.00     0.045 C 
ATOM     18  C   UNL A   1      33.869  28.120  24.101  1.00  0.00     0.098 A 
ATOM     19  O   UNL A   1      33.130  26.330  22.633  1.00  0.00    -0.423 OA
ATOM     20  C   UNL A   1      33.777  27.548  22.749  1.00  0.00     0.336 A 
ATOM     21  O   UNL A   1      34.215  28.157  21.781  1.00  0.00    -0.246 OA
BRANCH  11  22
ATOM     22  C   UNL A   1      31.816  23.097  27.144  1.00  0.00     0.036 C 
ATOM     23  C   UNL A   1      33.045  22.497  27.824  1.00  0.00     0.009 C 
ENDBRANCH  11  22
ENDBRANCH   9  10
ENDBRANCH   7   9
ENDBRANCH   4   7
ENDBRANCH   2   3
ENDBRANCH   1   2
BRANCH   1  24
ATOM     24  C   UNL A   1      36.836  23.039  25.772  1.00  0.00     0.118 C 
BRANCH  24  25
ATOM     25  N   UNL A   1      37.995  22.192  26.019  1.00  0.00    -0.352 N 
ATOM     26  C   UNL A   1      39.257  22.553  26.424  1.00  0.00     0.251 C 
ATOM     27  H   UNL A   1      37.855  21.228  25.876  1.00  0.00     0.163 HD
ATOM     28  O   UNL A   1      40.167  21.729  26.393  1.00  0.00    -0.269 OA
BRANCH  26  29
ATOM     29  C   UNL A   1      39.513  23.943  26.859  1.00  0.00     0.039 A 
ATOM     30  C   UNL A   1      39.296  24.285  28.196  1.00  0.00     0.014 A 
ATOM     31  C   UNL A   1      39.995  24.897  25.958  1.00  0.00     0.014 A 
ATOM     32  C   UNL A   1      39.633  25.564  28.643  1.00  0.00     0.010 A 
ATOM     33  C   UNL A   1      40.407  26.141  26.422  1.00  0.00     0.010 A 
ATOM     34  C   UNL A   1      40.230  26.489  27.770  1.00  0.00    -0.014 A 
BRANCH  34  35
ATOM     35  C   UNL A   1      40.679  27.823  28.249  1.00  0.00     0.031 A 
ATOM     36  C   UNL A   1      42.148  28.127  28.367  1.00  0.00     0.074 A 
ATOM     37  C   UNL A   1      39.765  28.734  28.639  1.00  0.00     0.049 A 
ATOM     38  N   UNL A   1      42.737  29.199  28.828  1.00  0.00    -0.248 NA
ATOM     39  C   UNL A   1      43.075  27.069  27.940  1.00  0.00     0.031 C 
ATOM     40  C   UNL A   1      38.313  28.536  28.617  1.00  0.00     0.029 A 
ATOM     41  N   UNL A   1      39.917  30.003  29.138  1.00  0.00    -0.354 N 
ATOM     42  C   UNL A   1      44.102  28.941  28.760  1.00  0.00     0.074 A 
ATOM     43  C   UNL A   1      44.246  27.584  28.277  1.00  0.00     0.031 C 
ATOM     44  C   UNL A   1      37.710  29.652  29.056  1.00  0.00     0.029 A 
ATOM     45  C   UNL A   1      38.728  30.627  29.437  1.00  0.00     0.049 A 
ATOM     46  H   UNL A   1      40.796  30.427  29.271  1.00  0.00     0.167 HD
ATOM     47  C   UNL A   1      45.138  29.767  29.051  1.00  0.00     0.034 A 
ATOM     48  C   UNL A   1      38.483  31.840  29.970  1.00  0.00     0.034 A 
ATOM     49  C   UNL A   1      44.973  31.121  29.523  1.00  0.00     0.049 A 
ATOM     50  C   UNL A   1      39.649  32.734  30.307  1.00  0.00     0.074 A 
ATOM     51  C   UNL A   1      45.948  32.067  29.787  1.00  0.00     0.029 A 
ATOM     52  N   UNL A   1      43.753  31.720  29.814  1.00  0.00    -0.354 N 
ATOM     53  N   UNL A   1      40.935  32.498  30.179  1.00  0.00    -0.248 NA
ATOM     54  C   UNL A   1      39.331  34.061  30.848  1.00  0.00     0.031 C 
ATOM     55  C   UNL A   1      45.325  33.206  30.309  1.00  0.00     0.029 A 
ATOM     56  C   UNL A   1      43.953  33.007  30.291  1.00  0.00     0.049 A 
ATOM     57  H   UNL A   1      42.874  31.291  29.700  1.00  0.00     0.167 HD
ATOM     58  C   UNL A   1      41.578  33.659  30.601  1.00  0.00     0.074 A 
ATOM     59  C   UNL A   1      40.536  34.597  30.969  1.00  0.00     0.031 C 
ATOM     60  C   UNL A   1      42.907  33.927  30.673  1.00  0.00     0.034 A 
BRANCH  47  61
ATOM     61  C   UNL A   1      46.535  29.211  28.889  1.00  0.00     0.023 A 
ATOM     62  C   UNL A   1      47.146  29.100  27.628  1.00  0.00     0.031 A 
ATOM     63  C   UNL A   1      47.254  28.752  30.008  1.00  0.00     0.131 A 
ATOM     64  C   UNL A   1      48.391  28.465  27.504  1.00  0.00     0.055 A 
ATOM     65  C   UNL A   1      48.532  28.203  29.888  1.00  0.00     0.041 A 
ATOM     66  F   UNL A   1      46.717  28.813  31.237  1.00  0.00    -0.206 F 
ATOM     67  C   UNL A   1      49.101  28.040  28.628  1.00  0.00     0.022 A 
BRANCH  64  68
ATOM     68  S   UNL A   1      48.994  28.060  25.841  1.00  0.00     0.124 S 
ATOM     69  O   UNL A   1      49.316  26.642  25.982  1.00  0.00    -0.237 OA
ATOM     70  O   UNL A   1      47.842  28.374  25.003  1.00  0.00    -0.237 OA
ATOM     71  O   UNL A   1      50.149  28.940  25.671  1.00  0.00    -0.744 OA
ENDBRANCH  64  68
ENDBRANCH  47  61
BRANCH  48  72
ATOM     72  C   UNL A   1      37.081  32.280  30.228  1.00  0.00     0.023 A 
ATOM     73  C   UNL A   1      36.333  32.938  29.239  1.00  0.00     0.031 A 
ATOM     74  C   UNL A   1      36.479  32.072  31.481  1.00  0.00     0.131 A 
ATOM     75  C   UNL A   1      35.041  33.401  29.532  1.00  0.00     0.055 A 
ATOM     76  C   UNL A   1      35.173  32.488  31.751  1.00  0.00     0.041 A 
ATOM     77  F   UNL A   1      37.147  31.442  32.461  1.00  0.00    -0.206 F 
ATOM     78  C   UNL A   1      34.451  33.168  30.776  1.00  0.00     0.022 A 
BRANCH  75  79
ATOM     79  S   UNL A   1      34.165  34.381  28.282  1.00  0.00     0.124 S 
ATOM     80  O   UNL A   1      33.890  35.614  29.010  1.00  0.00    -0.237 OA
ATOM     81  O   UNL A   1      35.157  34.471  27.216  1.00  0.00    -0.237 OA
ATOM     82  O   UNL A   1      32.993  33.565  27.970  1.00  0.00    -0.744 OA
ENDBRANCH  75  79
ENDBRANCH  48  72
BRANCH  60  83
ATOM     83  C   UNL A   1      43.303  35.309  31.133  1.00  0.00     0.023 A 
ATOM     84  C   UNL A   1      43.482  36.370  30.227  1.00  0.00     0.031 A 
ATOM     85  C   UNL A   1      43.514  35.565  32.500  1.00  0.00     0.131 A 
ATOM     86  C   UNL A   1      43.917  37.619  30.691  1.00  0.00     0.055 A 
ATOM     87  C   UNL A   1      43.884  36.828  32.963  1.00  0.00     0.041 A 
ATOM     88  F   UNL A   1      43.362  34.590  33.410  1.00  0.00    -0.206 F 
ATOM     89  C   UNL A   1      44.101  37.860  32.056  1.00  0.00     0.022 A 
BRANCH  86  90
ATOM     90  S   UNL A   1      44.336  38.902  29.479  1.00  0.00     0.124 S 
ATOM     91  O   UNL A   1      43.132  38.943  28.655  1.00  0.00    -0.237 OA
ATOM     92  O   UNL A   1      44.567  40.068  30.326  1.00  0.00    -0.237 OA
ATOM     93  O   UNL A   1      45.525  38.373  28.816  1.00  0.00    -0.744 OA
ENDBRANCH  86  90
ENDBRANCH  60  83
ENDBRANCH  34  35
ENDBRANCH  26  29
ENDBRANCH  24  25
ENDBRANCH   1  24
TORSDOF 16
ENDMDL
MODEL 3
REMARK VINA RESULT:     -12.1      1.938      7.740
REMARK SMILES CCc1cc2c(C)cc(=O)oc2cc1O[C@H](C)C(=O)NCCCNC(=O)c1ccc(-c2c3nc(c(-c4cc(S(=O)(=O)[O-])ccc4F)c4ccc([nH]4)c(-c4cc(S(=O)(=O)[O-])ccc4F)c4nc(c(-c5cc(S(=O)(=O)[O-])ccc5F)c5ccc2[nH]5)C=C4)C=C3)cc1
REMARK SMILES IDX 22 1 21 2 20 3 18 4 19 5 16 7 17 8 15 9 14 10 3 11 4 12 5 13
REMARK SMILES IDX 13 14 6 15 12 16 7 17 8 18 11 19 9 20 10 21 2 22 1 23 23 24
REMARK SMILES IDX 24 25 25 26 26 28 27 29 28 30 89 31 29 32 88 33 30 34 31 35
REMARK SMILES IDX 32 36 82 37 33 38 87 39 81 40 83 41 34 42 86 43 80 44 79 45
REMARK SMILES IDX 35 47 67 48 47 49 66 50 48 51 51 52 65 53 84 54 49 55 50 56
REMARK SMILES IDX 64 58 85 59 52 60 36 61 37 62 45 63 38 64 44 65 46 66 43 67
REMARK SMILES IDX 39 68 40 69 41 70 42 71 68 72 69 73 77 74 70 75 76 76 78 77
REMARK SMILES IDX 75 78 71 79 72 80 73 81 74 82 53 83 54 84 62 85 55 86 61 87
REMARK SMILES IDX 63 88 60 89 56 90 57 91 58 92 59 93
REMARK H PARENT 20 6 24 27 83 46 51 57
REMARK Flexibility Score: inf
ROOT
ATOM      1  C   UNL A   1      36.840  19.684  24.761  1.00  0.00     0.042 C 
ENDROOT
BRANCH   1   2
ATOM      2  C   UNL A   1      35.551  20.435  25.059  1.00  0.00     0.118 C 
BRANCH   2   3
ATOM      3  N   UNL A   1      34.429  19.522  25.150  1.00  0.00    -0.353 N 
ATOM      4  C   UNL A   1      33.104  19.772  24.985  1.00  0.00     0.260 C 
ATOM      5  O   UNL A   1      32.312  18.839  25.146  1.00  0.00    -0.271 OA
ATOM      6  H   UNL A   1      34.661  18.589  25.362  1.00  0.00     0.163 HD
BRANCH   4   7
ATOM      7  C   UNL A   1      32.597  21.178  24.593  1.00  0.00     0.258 C 
ATOM      8  C   UNL A   1      32.393  21.191  23.070  1.00  0.00     0.064 C 
BRANCH   7   9
ATOM      9  O   UNL A   1      31.439  21.769  25.176  1.00  0.00    -0.480 OA
BRANCH   9  10
ATOM     10  C   UNL A   1      31.287  23.125  25.259  1.00  0.00     0.127 A 
ATOM     11  C   UNL A   1      31.864  23.745  26.389  1.00  0.00    -0.005 A 
ATOM     12  C   UNL A   1      31.910  25.155  26.453  1.00  0.00     0.019 A 
ATOM     13  C   UNL A   1      31.369  25.955  25.442  1.00  0.00     0.021 A 
ATOM     14  C   UNL A   1      30.660  23.917  24.299  1.00  0.00     0.094 A 
ATOM     15  C   UNL A   1      31.418  27.422  25.443  1.00  0.00    -0.033 A 
ATOM     16  C   UNL A   1      30.752  25.307  24.377  1.00  0.00     0.142 A 
ATOM     17  C   UNL A   1      31.930  28.162  26.643  1.00  0.00     0.045 C 
ATOM     18  C   UNL A   1      30.986  28.072  24.352  1.00  0.00     0.098 A 
ATOM     19  O   UNL A   1      30.238  26.024  23.279  1.00  0.00    -0.423 OA
ATOM     20  C   UNL A   1      30.420  27.393  23.177  1.00  0.00     0.336 A 
ATOM     21  O   UNL A   1      30.090  28.030  22.184  1.00  0.00    -0.246 OA
BRANCH  11  22
ATOM     22  C   UNL A   1      32.492  22.922  27.500  1.00  0.00     0.036 C 
ATOM     23  C   UNL A   1      34.018  22.872  27.453  1.00  0.00     0.009 C 
ENDBRANCH  11  22
ENDBRANCH   9  10
ENDBRANCH   7   9
ENDBRANCH   4   7
ENDBRANCH   2   3
ENDBRANCH   1   2
BRANCH   1  24
ATOM     24  C   UNL A   1      38.082  20.358  25.331  1.00  0.00     0.118 C 
BRANCH  24  25
ATOM     25  N   UNL A   1      39.144  19.409  25.634  1.00  0.00    -0.352 N 
ATOM     26  C   UNL A   1      40.422  19.656  26.073  1.00  0.00     0.251 C 
ATOM     27  H   UNL A   1      38.915  18.461  25.504  1.00  0.00     0.163 HD
ATOM     28  O   UNL A   1      41.247  18.747  26.090  1.00  0.00    -0.269 OA
BRANCH  26  29
ATOM     29  C   UNL A   1      40.798  21.024  26.490  1.00  0.00     0.039 A 
ATOM     30  C   UNL A   1      41.592  21.192  27.627  1.00  0.00     0.014 A 
ATOM     31  C   UNL A   1      40.394  22.135  25.744  1.00  0.00     0.014 A 
ATOM     32  C   UNL A   1      42.040  22.468  27.971  1.00  0.00     0.010 A 
ATOM     33  C   UNL A   1      40.911  23.391  26.039  1.00  0.00     0.010 A 
ATOM     34  C   UNL A   1      41.739  23.573  27.157  1.00  0.00    -0.014 A 
BRANCH  34  35
ATOM     35  C   UNL A   1      42.283  24.924  27.456  1.00  0.00     0.031 A 
ATOM     36  C   UNL A   1      41.419  25.952  28.134  1.00  0.00     0.074 A 
ATOM     37  C   UNL A   1      43.531  25.242  27.059  1.00  0.00     0.049 A 
ATOM     38  N   UNL A   1      41.685  27.201  28.416  1.00  0.00    -0.248 NA
ATOM     39  C   UNL A   1      40.064  25.527  28.513  1.00  0.00     0.031 C 
ATOM     40  C   UNL A   1      44.447  24.344  26.350  1.00  0.00     0.029 A 
ATOM     41  N   UNL A   1      44.244  26.408  27.184  1.00  0.00    -0.354 N 
ATOM     42  C   UNL A   1      40.528  27.715  28.992  1.00  0.00     0.074 A 
ATOM     43  C   UNL A   1      39.540  26.658  28.955  1.00  0.00     0.031 C 
ATOM     44  C   UNL A   1      45.606  24.983  26.128  1.00  0.00     0.029 A 
ATOM     45  C   UNL A   1      45.503  26.349  26.633  1.00  0.00     0.049 A 
ATOM     46  H   UNL A   1      43.888  27.212  27.627  1.00  0.00     0.167 HD
ATOM     47  C   UNL A   1      40.318  28.945  29.524  1.00  0.00     0.034 A 
ATOM     48  C   UNL A   1      46.462  27.290  26.531  1.00  0.00     0.034 A 
ATOM     49  C   UNL A   1      41.321  29.982  29.560  1.00  0.00     0.049 A 
ATOM     50  C   UNL A   1      46.200  28.658  27.109  1.00  0.00     0.074 A 
ATOM     51  C   UNL A   1      41.241  31.240  30.130  1.00  0.00     0.029 A 
ATOM     52  N   UNL A   1      42.586  29.887  28.991  1.00  0.00    -0.354 N 
ATOM     53  N   UNL A   1      45.121  29.110  27.707  1.00  0.00    -0.248 NA
ATOM     54  C   UNL A   1      47.289  29.638  27.009  1.00  0.00     0.031 C 
ATOM     55  C   UNL A   1      42.422  31.931  29.840  1.00  0.00     0.029 A 
ATOM     56  C   UNL A   1      43.279  31.077  29.163  1.00  0.00     0.049 A 
ATOM     57  H   UNL A   1      42.939  29.091  28.531  1.00  0.00     0.167 HD
ATOM     58  C   UNL A   1      45.413  30.420  28.077  1.00  0.00     0.074 A 
ATOM     59  C   UNL A   1      46.774  30.676  27.650  1.00  0.00     0.031 C 
ATOM     60  C   UNL A   1      44.629  31.326  28.716  1.00  0.00     0.034 A 
BRANCH  47  61
ATOM     61  C   UNL A   1      38.943  29.234  30.083  1.00  0.00     0.023 A 
ATOM     62  C   UNL A   1      37.969  29.916  29.333  1.00  0.00     0.031 A 
ATOM     63  C   UNL A   1      38.613  28.855  31.397  1.00  0.00     0.131 A 
ATOM     64  C   UNL A   1      36.750  30.276  29.929  1.00  0.00     0.055 A 
ATOM     65  C   UNL A   1      37.363  29.137  31.952  1.00  0.00     0.041 A 
ATOM     66  F   UNL A   1      39.507  28.218  32.170  1.00  0.00    -0.206 F 
ATOM     67  C   UNL A   1      36.430  29.867  31.224  1.00  0.00     0.022 A 
BRANCH  64  68
ATOM     68  S   UNL A   1      35.658  31.421  29.040  1.00  0.00     0.124 S 
ATOM     69  O   UNL A   1      34.863  31.977  30.133  1.00  0.00    -0.237 OA
ATOM     70  O   UNL A   1      36.605  32.334  28.410  1.00  0.00    -0.237 OA
ATOM     71  O   UNL A   1      34.923  30.552  28.123  1.00  0.00    -0.744 OA
ENDBRANCH  64  68
ENDBRANCH  47  61
BRANCH  48  72
ATOM     72  C   UNL A   1      47.751  26.981  25.850  1.00  0.00     0.023 A 
ATOM     73  C   UNL A   1      48.809  26.367  26.540  1.00  0.00     0.031 A 
ATOM     74  C   UNL A   1      47.955  27.322  24.501  1.00  0.00     0.131 A 
ATOM     75  C   UNL A   1      50.035  26.150  25.892  1.00  0.00     0.055 A 
ATOM     76  C   UNL A   1      49.160  27.057  23.846  1.00  0.00     0.041 A 
ATOM     77  F   UNL A   1      46.975  27.906  23.792  1.00  0.00    -0.206 F 
ATOM     78  C   UNL A   1      50.212  26.477  24.546  1.00  0.00     0.022 A 
BRANCH  75  79
ATOM     79  S   UNL A   1      51.424  25.497  26.858  1.00  0.00     0.124 S 
ATOM     80  O   UNL A   1      52.123  24.690  25.864  1.00  0.00    -0.237 OA
ATOM     81  O   UNL A   1      52.099  26.718  27.284  1.00  0.00    -0.237 OA
ATOM     82  O   UNL A   1      50.771  24.743  27.927  1.00  0.00    -0.744 OA
ENDBRANCH  75  79
ENDBRANCH  48  72
BRANCH  60  83
ATOM     83  C   UNL A   1      45.247  32.669  29.024  1.00  0.00     0.023 A 
ATOM     84  C   UNL A   1      45.042  33.788  28.197  1.00  0.00     0.031 A 
ATOM     85  C   UNL A   1      46.064  32.828  30.159  1.00  0.00     0.131 A 
ATOM     86  C   UNL A   1      45.691  34.998  28.483  1.00  0.00     0.055 A 
ATOM     87  C   UNL A   1      46.655  34.051  30.474  1.00  0.00     0.041 A 
ATOM     88  F   UNL A   1      46.299  31.794  30.981  1.00  0.00    -0.206 F 
ATOM     89  C   UNL A   1      46.481  35.142  29.627  1.00  0.00     0.022 A 
BRANCH  86  90
ATOM     90  S   UNL A   1      45.569  36.357  27.288  1.00  0.00     0.124 S 
ATOM     91  O   UNL A   1      44.273  36.099  26.669  1.00  0.00    -0.237 OA
ATOM     92  O   UNL A   1      45.642  37.535  28.146  1.00  0.00    -0.237 OA
ATOM     93  O   UNL A   1      46.725  36.152  26.417  1.00  0.00    -0.744 OA
ENDBRANCH  86  90
ENDBRANCH  60  83
ENDBRANCH  34  35
ENDBRANCH  26  29
ENDBRANCH  24  25
ENDBRANCH   1  24
TORSDOF 16
ENDMDL
