MODEL 1
REMARK VINA RESULT:     -13.6      0.000      0.000
REMARK SMILES [NH3+][C@@H](Cc1cn(-c2nc(Cl)nc(N3CCOCC3)n2)c2ccccc12)C(=O)NCCCNC(=O)c1ccc(-c2c3nc(c(-c4cc(S(=O)(=O)[O-])ccc4F)c4ccc([nH]4)c(-c4cc(S(=O)(=O)[O-])ccc4F)c4nc(c(-c5cc(S(=O)(=O)[O-])ccc5F)c5ccc2[nH]5)C=C4)C=C3)cc1
REMARK SMILES IDX 29 1 28 2 26 3 27 4 2 6 1 7 3 11 4 12 5 13 25 14 6 15 20 16
REMARK SMILES IDX 24 17 21 18 23 19 22 20 7 21 8 22 19 23 9 24 12 25 10 26
REMARK SMILES IDX 11 27 13 28 14 29 18 30 15 31 17 32 16 33 30 34 31 35 32 36
REMARK SMILES IDX 33 37 34 39 35 40 36 41 97 42 37 43 96 44 38 45 39 46 40 47
REMARK SMILES IDX 90 48 41 49 95 50 89 51 91 52 42 53 94 54 88 55 87 56 43 58
REMARK SMILES IDX 75 59 55 60 74 61 56 62 59 63 73 64 92 65 57 66 58 67 72 69
REMARK SMILES IDX 93 70 60 71 44 72 45 73 53 74 46 75 52 76 54 77 51 78 47 79
REMARK SMILES IDX 48 80 49 81 50 82 76 83 77 84 85 85 78 86 84 87 86 88 83 89
REMARK SMILES IDX 79 90 80 91 81 92 82 93 61 94 62 95 70 96 63 97 69 98 71 99
REMARK SMILES IDX 68 100 64 101 65 102 66 103 67 104
REMARK H PARENT 28 5 1 8 1 9 1 10 32 38 91 57 59 68
REMARK Flexibility Score: inf
ROOT
ATOM      1  C   UNL A   1      33.379  27.866  26.115  1.00  0.00     0.118 C 
ENDROOT
BRANCH   1   2
ATOM      2  N   UNL A   1      33.891  28.394  24.864  1.00  0.00    -0.351 N 
ATOM      3  C   UNL A   1      33.414  28.441  23.597  1.00  0.00     0.278 C 
ATOM      4  O   UNL A   1      34.083  29.149  22.822  1.00  0.00    -0.268 OA
ATOM      5  H   UNL A   1      34.779  28.809  24.956  1.00  0.00     0.163 HD
BRANCH   3   6
ATOM      6  C   UNL A   1      32.207  27.658  23.004  1.00  0.00     0.275 C 
BRANCH   6   7
ATOM      7  N   UNL A   1      31.400  28.529  22.127  1.00  0.00    -0.347 N 
ATOM      8  H   UNL A   1      30.528  28.059  21.889  1.00  0.00     0.345 HD
ATOM      9  H   UNL A   1      31.922  28.728  21.272  1.00  0.00     0.345 HD
ATOM     10  H   UNL A   1      31.195  29.404  22.611  1.00  0.00     0.345 HD
ENDBRANCH   6   7
BRANCH   6  11
ATOM     11  C   UNL A   1      32.272  26.184  22.599  1.00  0.00     0.113 C 
BRANCH  11  12
ATOM     12  C   UNL A   1      32.336  25.051  23.582  1.00  0.00    -0.015 A 
ATOM     13  C   UNL A   1      33.340  24.098  23.500  1.00  0.00     0.099 A 
ATOM     14  C   UNL A   1      31.534  24.674  24.718  1.00  0.00     0.004 A 
ATOM     15  N   UNL A   1      33.042  23.057  24.341  1.00  0.00    -0.285 N 
ATOM     16  C   UNL A   1      31.934  23.380  25.095  1.00  0.00     0.056 A 
ATOM     17  C   UNL A   1      30.461  25.247  25.436  1.00  0.00     0.010 A 
ATOM     18  C   UNL A   1      31.290  22.652  26.110  1.00  0.00     0.027 A 
ATOM     19  C   UNL A   1      29.833  24.543  26.472  1.00  0.00     0.001 A 
ATOM     20  C   UNL A   1      30.244  23.263  26.799  1.00  0.00     0.002 A 
BRANCH  15  21
ATOM     21  C   UNL A   1      33.813  21.880  24.456  1.00  0.00     0.240 A 
ATOM     22  N   UNL A   1      35.129  22.007  24.567  1.00  0.00    -0.181 NA
ATOM     23  N   UNL A   1      33.136  20.733  24.499  1.00  0.00    -0.176 NA
ATOM     24  C   UNL A   1      35.722  20.845  24.801  1.00  0.00     0.228 A 
ATOM     25  C   UNL A   1      33.866  19.634  24.626  1.00  0.00     0.231 A 
ATOM     26  Cl  UNL A   1      37.407  20.914  25.070  1.00  0.00    -0.041 Cl
ATOM     27  N   UNL A   1      35.162  19.645  24.884  1.00  0.00    -0.182 NA
BRANCH  25  28
ATOM     28  N   UNL A   1      33.248  18.441  24.411  1.00  0.00    -0.336 N 
ATOM     29  C   UNL A   1      32.621  17.732  25.519  1.00  0.00     0.148 C 
ATOM     30  C   UNL A   1      33.400  17.716  23.165  1.00  0.00     0.148 C 
ATOM     31  C   UNL A   1      33.297  16.371  25.713  1.00  0.00     0.181 C 
ATOM     32  C   UNL A   1      34.054  16.353  23.467  1.00  0.00     0.181 C 
ATOM     33  O   UNL A   1      33.342  15.620  24.482  1.00  0.00    -0.378 OA
ENDBRANCH  25  28
ENDBRANCH  15  21
ENDBRANCH  11  12
ENDBRANCH   6  11
ENDBRANCH   3   6
ENDBRANCH   1   2
BRANCH   1  34
ATOM     34  C   UNL A   1      33.266  28.903  27.241  1.00  0.00     0.042 C 
BRANCH  34  35
ATOM     35  C   UNL A   1      33.549  30.350  26.834  1.00  0.00     0.118 C 
BRANCH  35  36
ATOM     36  N   UNL A   1      33.866  31.214  27.955  1.00  0.00    -0.352 N 
ATOM     37  C   UNL A   1      34.953  31.512  28.723  1.00  0.00     0.251 C 
ATOM     38  H   UNL A   1      33.077  31.731  28.239  1.00  0.00     0.163 HD
ATOM     39  O   UNL A   1      34.743  32.389  29.570  1.00  0.00    -0.269 OA
BRANCH  37  40
ATOM     40  C   UNL A   1      36.303  30.884  28.669  1.00  0.00     0.039 A 
ATOM     41  C   UNL A   1      36.615  29.603  28.212  1.00  0.00     0.014 A 
ATOM     42  C   UNL A   1      37.345  31.674  29.193  1.00  0.00     0.014 A 
ATOM     43  C   UNL A   1      37.914  29.095  28.374  1.00  0.00     0.010 A 
ATOM     44  C   UNL A   1      38.630  31.172  29.358  1.00  0.00     0.010 A 
ATOM     45  C   UNL A   1      38.899  29.850  29.019  1.00  0.00    -0.014 A 
BRANCH  45  46
ATOM     46  C   UNL A   1      40.219  29.264  29.294  1.00  0.00     0.031 A 
ATOM     47  C   UNL A   1      40.492  28.905  30.721  1.00  0.00     0.074 A 
ATOM     48  C   UNL A   1      41.049  28.865  28.303  1.00  0.00     0.049 A 
ATOM     49  N   UNL A   1      41.487  29.243  31.479  1.00  0.00    -0.248 NA
ATOM     50  C   UNL A   1      39.456  28.124  31.413  1.00  0.00     0.031 C 
ATOM     51  C   UNL A   1      40.755  28.835  26.863  1.00  0.00     0.029 A 
ATOM     52  N   UNL A   1      42.272  28.259  28.370  1.00  0.00    -0.354 N 
ATOM     53  C   UNL A   1      41.297  28.565  32.689  1.00  0.00     0.074 A 
ATOM     54  C   UNL A   1      39.960  28.035  32.642  1.00  0.00     0.031 C 
ATOM     55  C   UNL A   1      41.635  28.020  26.242  1.00  0.00     0.029 A 
ATOM     56  C   UNL A   1      42.636  27.592  27.205  1.00  0.00     0.049 A 
ATOM     57  H   UNL A   1      42.844  28.292  29.171  1.00  0.00     0.167 HD
ATOM     58  C   UNL A   1      42.317  28.309  33.563  1.00  0.00     0.034 A 
ATOM     59  C   UNL A   1      43.624  26.674  27.054  1.00  0.00     0.034 A 
ATOM     60  C   UNL A   1      43.455  29.145  33.304  1.00  0.00     0.049 A 
ATOM     61  C   UNL A   1      44.536  26.767  28.214  1.00  0.00     0.074 A 
ATOM     62  C   UNL A   1      43.698  30.503  33.335  1.00  0.00     0.029 A 
ATOM     63  N   UNL A   1      44.518  28.589  32.641  1.00  0.00    -0.354 N 
ATOM     64  N   UNL A   1      45.337  27.766  28.451  1.00  0.00    -0.248 NA
ATOM     65  C   UNL A   1      44.260  25.901  29.350  1.00  0.00     0.031 C 
ATOM     66  C   UNL A   1      44.636  30.733  32.289  1.00  0.00     0.029 A 
ATOM     67  C   UNL A   1      44.945  29.499  31.712  1.00  0.00     0.049 A 
ATOM     68  H   UNL A   1      44.904  27.698  32.803  1.00  0.00     0.167 HD
ATOM     69  C   UNL A   1      45.294  27.921  29.827  1.00  0.00     0.074 A 
ATOM     70  C   UNL A   1      44.715  26.679  30.333  1.00  0.00     0.031 C 
ATOM     71  C   UNL A   1      45.464  29.145  30.406  1.00  0.00     0.034 A 
BRANCH  58  72
ATOM     72  C   UNL A   1      42.405  27.066  34.431  1.00  0.00     0.023 A 
ATOM     73  C   UNL A   1      43.154  25.930  34.073  1.00  0.00     0.031 A 
ATOM     74  C   UNL A   1      41.928  27.080  35.761  1.00  0.00     0.131 A 
ATOM     75  C   UNL A   1      43.410  24.891  34.980  1.00  0.00     0.055 A 
ATOM     76  C   UNL A   1      42.241  26.075  36.690  1.00  0.00     0.041 A 
ATOM     77  F   UNL A   1      41.197  28.106  36.226  1.00  0.00    -0.206 F 
ATOM     78  C   UNL A   1      42.990  24.973  36.301  1.00  0.00     0.022 A 
BRANCH  75  79
ATOM     79  S   UNL A   1      44.317  23.418  34.435  1.00  0.00     0.124 S 
ATOM     80  O   UNL A   1      43.353  22.796  33.525  1.00  0.00    -0.237 OA
ATOM     81  O   UNL A   1      45.491  24.015  33.793  1.00  0.00    -0.237 OA
ATOM     82  O   UNL A   1      44.586  22.703  35.668  1.00  0.00    -0.744 OA
ENDBRANCH  75  79
ENDBRANCH  58  72
BRANCH  59  83
ATOM     83  C   UNL A   1      43.566  25.441  26.229  1.00  0.00     0.023 A 
ATOM     84  C   UNL A   1      42.686  24.404  26.594  1.00  0.00     0.031 A 
ATOM     85  C   UNL A   1      44.571  25.135  25.296  1.00  0.00     0.131 A 
ATOM     86  C   UNL A   1      42.851  23.113  26.077  1.00  0.00     0.055 A 
ATOM     87  C   UNL A   1      44.724  23.846  24.766  1.00  0.00     0.041 A 
ATOM     88  F   UNL A   1      45.467  26.063  24.931  1.00  0.00    -0.206 F 
ATOM     89  C   UNL A   1      43.869  22.823  25.169  1.00  0.00     0.022 A 
BRANCH  86  90
ATOM     90  S   UNL A   1      41.790  21.757  26.649  1.00  0.00     0.124 S 
ATOM     91  O   UNL A   1      41.972  20.759  25.598  1.00  0.00    -0.237 OA
ATOM     92  O   UNL A   1      42.394  21.431  27.936  1.00  0.00    -0.237 OA
ATOM     93  O   UNL A   1      40.463  22.362  26.704  1.00  0.00    -0.744 OA
ENDBRANCH  86  90
ENDBRANCH  59  83
BRANCH  71  94
ATOM     94  C   UNL A   1      45.970  30.296  29.567  1.00  0.00     0.023 A 
ATOM     95  C   UNL A   1      45.052  30.898  28.689  1.00  0.00     0.031 A 
ATOM     96  C   UNL A   1      47.328  30.640  29.424  1.00  0.00     0.131 A 
ATOM     97  C   UNL A   1      45.497  31.760  27.680  1.00  0.00     0.055 A 
ATOM     98  C   UNL A   1      47.760  31.561  28.463  1.00  0.00     0.041 A 
ATOM     99  F   UNL A   1      48.286  30.036  30.138  1.00  0.00    -0.206 F 
ATOM    100  C   UNL A   1      46.845  32.110  27.572  1.00  0.00     0.022 A 
BRANCH  97 101
ATOM    101  S   UNL A   1      44.362  32.302  26.378  1.00  0.00     0.124 S 
ATOM    102  O   UNL A   1      45.272  32.566  25.266  1.00  0.00    -0.237 OA
ATOM    103  O   UNL A   1      43.496  31.135  26.215  1.00  0.00    -0.237 OA
ATOM    104  O   UNL A   1      43.708  33.478  26.944  1.00  0.00    -0.744 OA
ENDBRANCH  97 101
ENDBRANCH  71  94
ENDBRANCH  45  46
ENDBRANCH  37  40
ENDBRANCH  35  36
ENDBRANCH  34  35
ENDBRANCH   1  34
TORSDOF 18
ENDMDL
MODEL 2
REMARK VINA RESULT:     -13.2      5.558     11.871
REMARK SMILES [NH3+][C@@H](Cc1cn(-c2nc(Cl)nc(N3CCOCC3)n2)c2ccccc12)C(=O)NCCCNC(=O)c1ccc(-c2c3nc(c(-c4cc(S(=O)(=O)[O-])ccc4F)c4ccc([nH]4)c(-c4cc(S(=O)(=O)[O-])ccc4F)c4nc(c(-c5cc(S(=O)(=O)[O-])ccc5F)c5ccc2[nH]5)C=C4)C=C3)cc1
REMARK SMILES IDX 29 1 28 2 26 3 27 4 2 6 1 7 3 11 4 12 5 13 25 14 6 15 20 16
REMARK SMILES IDX 24 17 21 18 23 19 22 20 7 21 8 22 19 23 9 24 12 25 10 26
REMARK SMILES IDX 11 27 13 28 14 29 18 30 15 31 17 32 16 33 30 34 31 35 32 36
REMARK SMILES IDX 33 37 34 39 35 40 36 41 97 42 37 43 96 44 38 45 39 46 40 47
REMARK SMILES IDX 90 48 41 49 95 50 89 51 91 52 42 53 94 54 88 55 87 56 43 58
REMARK SMILES IDX 75 59 55 60 74 61 56 62 59 63 73 64 92 65 57 66 58 67 72 69
REMARK SMILES IDX 93 70 60 71 44 72 45 73 53 74 46 75 52 76 54 77 51 78 47 79
REMARK SMILES IDX 48 80 49 81 50 82 76 83 77 84 85 85 78 86 84 87 86 88 83 89
REMARK SMILES IDX 79 90 80 91 81 92 82 93 61 94 62 95 70 96 63 97 69 98 71 99
REMARK SMILES IDX 68 100 64 101 65 102 66 103 67 104
REMARK H PARENT 28 5 1 8 1 9 1 10 32 38 91 57 59 68
REMARK Flexibility Score: inf
ROOT
ATOM      1  C   UNL A   1      42.243  19.268  25.799  1.00  0.00     0.118 C 
ENDROOT
BRANCH   1   2
ATOM      2  N   UNL A   1      43.476  18.633  25.371  1.00  0.00    -0.351 N 
ATOM      3  C   UNL A   1      44.701  19.093  25.025  1.00  0.00     0.278 C 
ATOM      4  O   UNL A   1      45.564  18.206  24.887  1.00  0.00    -0.268 OA
ATOM      5  H   UNL A   1      43.405  17.652  25.321  1.00  0.00     0.163 HD
BRANCH   3   6
ATOM      6  C   UNL A   1      45.113  20.560  24.707  1.00  0.00     0.275 C 
BRANCH   6   7
ATOM      7  N   UNL A   1      44.799  20.896  23.303  1.00  0.00    -0.347 N 
ATOM      8  H   UNL A   1      44.732  21.908  23.203  1.00  0.00     0.345 HD
ATOM      9  H   UNL A   1      43.909  20.469  23.042  1.00  0.00     0.345 HD
ATOM     10  H   UNL A   1      45.537  20.541  22.695  1.00  0.00     0.345 HD
ENDBRANCH   6   7
BRANCH   6  11
ATOM     11  C   UNL A   1      44.991  21.710  25.709  1.00  0.00     0.113 C 
BRANCH  11  12
ATOM     12  C   UNL A   1      45.343  23.133  25.391  1.00  0.00    -0.015 A 
ATOM     13  C   UNL A   1      46.661  23.505  25.173  1.00  0.00     0.099 A 
ATOM     14  C   UNL A   1      44.568  24.337  25.228  1.00  0.00     0.004 A 
ATOM     15  N   UNL A   1      46.744  24.874  25.144  1.00  0.00    -0.285 N 
ATOM     16  C   UNL A   1      45.474  25.410  25.185  1.00  0.00     0.056 A 
ATOM     17  C   UNL A   1      43.193  24.658  25.183  1.00  0.00     0.010 A 
ATOM     18  C   UNL A   1      45.061  26.752  25.135  1.00  0.00     0.027 A 
ATOM     19  C   UNL A   1      42.770  25.991  25.100  1.00  0.00     0.001 A 
ATOM     20  C   UNL A   1      43.695  27.021  25.079  1.00  0.00     0.002 A 
BRANCH  15  21
ATOM     21  C   UNL A   1      47.950  25.596  25.012  1.00  0.00     0.240 A 
ATOM     22  N   UNL A   1      48.753  25.663  26.066  1.00  0.00    -0.181 NA
ATOM     23  N   UNL A   1      48.203  26.105  23.807  1.00  0.00    -0.176 NA
ATOM     24  C   UNL A   1      49.905  26.250  25.776  1.00  0.00     0.228 A 
ATOM     25  C   UNL A   1      49.346  26.766  23.686  1.00  0.00     0.231 A 
ATOM     26  Cl  UNL A   1      51.055  26.289  27.037  1.00  0.00    -0.041 Cl
ATOM     27  N   UNL A   1      50.283  26.779  24.619  1.00  0.00    -0.182 NA
BRANCH  25  28
ATOM     28  N   UNL A   1      49.522  27.519  22.567  1.00  0.00    -0.336 N 
ATOM     29  C   UNL A   1      48.588  27.401  21.454  1.00  0.00     0.148 C 
ATOM     30  C   UNL A   1      50.745  28.258  22.328  1.00  0.00     0.148 C 
ATOM     31  C   UNL A   1      49.330  26.917  20.203  1.00  0.00     0.181 C 
ATOM     32  C   UNL A   1      51.397  27.724  21.037  1.00  0.00     0.181 C 
ATOM     33  O   UNL A   1      50.486  27.733  19.922  1.00  0.00    -0.378 OA
ENDBRANCH  25  28
ENDBRANCH  15  21
ENDBRANCH  11  12
ENDBRANCH   6  11
ENDBRANCH   3   6
ENDBRANCH   1   2
BRANCH   1  34
ATOM     34  C   UNL A   1      42.125  19.465  27.316  1.00  0.00     0.042 C 
BRANCH  34  35
ATOM     35  C   UNL A   1      41.707  20.864  27.768  1.00  0.00     0.118 C 
BRANCH  35  36
ATOM     36  N   UNL A   1      40.494  21.339  27.131  1.00  0.00    -0.352 N 
ATOM     37  C   UNL A   1      39.868  22.532  26.915  1.00  0.00     0.251 C 
ATOM     38  H   UNL A   1      39.979  20.593  26.746  1.00  0.00     0.163 HD
ATOM     39  O   UNL A   1      38.831  22.441  26.249  1.00  0.00    -0.269 OA
BRANCH  37  40
ATOM     40  C   UNL A   1      40.278  23.876  27.414  1.00  0.00     0.039 A 
ATOM     41  C   UNL A   1      41.437  24.190  28.124  1.00  0.00     0.014 A 
ATOM     42  C   UNL A   1      39.348  24.906  27.172  1.00  0.00     0.014 A 
ATOM     43  C   UNL A   1      41.604  25.474  28.665  1.00  0.00     0.010 A 
ATOM     44  C   UNL A   1      39.510  26.177  27.710  1.00  0.00     0.010 A 
ATOM     45  C   UNL A   1      40.604  26.442  28.526  1.00  0.00    -0.014 A 
BRANCH  45  46
ATOM     46  C   UNL A   1      40.733  27.743  29.200  1.00  0.00     0.031 A 
ATOM     47  C   UNL A   1      41.767  28.670  28.643  1.00  0.00     0.074 A 
ATOM     48  C   UNL A   1      39.833  28.170  30.115  1.00  0.00     0.049 A 
ATOM     49  N   UNL A   1      42.738  29.279  29.248  1.00  0.00    -0.248 NA
ATOM     50  C   UNL A   1      41.754  28.872  27.186  1.00  0.00     0.031 C 
ATOM     51  C   UNL A   1      38.576  27.508  30.493  1.00  0.00     0.029 A 
ATOM     52  N   UNL A   1      39.763  29.354  30.794  1.00  0.00    -0.354 N 
ATOM     53  C   UNL A   1      43.347  30.088  28.281  1.00  0.00     0.074 A 
ATOM     54  C   UNL A   1      42.807  29.669  27.015  1.00  0.00     0.031 C 
ATOM     55  C   UNL A   1      37.768  28.399  31.108  1.00  0.00     0.029 A 
ATOM     56  C   UNL A   1      38.499  29.641  31.300  1.00  0.00     0.049 A 
ATOM     57  H   UNL A   1      40.537  29.950  30.913  1.00  0.00     0.167 HD
ATOM     58  C   UNL A   1      44.100  31.183  28.600  1.00  0.00     0.034 A 
ATOM     59  C   UNL A   1      38.043  30.836  31.753  1.00  0.00     0.034 A 
ATOM     60  C   UNL A   1      44.519  31.154  29.973  1.00  0.00     0.049 A 
ATOM     61  C   UNL A   1      39.203  31.716  32.012  1.00  0.00     0.074 A 
ATOM     62  C   UNL A   1      45.311  30.322  30.736  1.00  0.00     0.029 A 
ATOM     63  N   UNL A   1      43.843  31.949  30.863  1.00  0.00    -0.354 N 
ATOM     64  N   UNL A   1      40.064  31.545  32.974  1.00  0.00    -0.248 NA
ATOM     65  C   UNL A   1      39.635  32.585  30.929  1.00  0.00     0.031 C 
ATOM     66  C   UNL A   1      44.720  30.336  32.031  1.00  0.00     0.029 A 
ATOM     67  C   UNL A   1      43.630  31.210  31.995  1.00  0.00     0.049 A 
ATOM     68  H   UNL A   1      43.564  32.881  30.715  1.00  0.00     0.167 HD
ATOM     69  C   UNL A   1      41.280  31.894  32.410  1.00  0.00     0.074 A 
ATOM     70  C   UNL A   1      40.940  32.635  31.198  1.00  0.00     0.031 C 
ATOM     71  C   UNL A   1      42.444  31.310  32.820  1.00  0.00     0.034 A 
BRANCH  58  72
ATOM     72  C   UNL A   1      44.168  32.446  27.758  1.00  0.00     0.023 A 
ATOM     73  C   UNL A   1      43.524  33.645  28.118  1.00  0.00     0.031 A 
ATOM     74  C   UNL A   1      45.083  32.550  26.686  1.00  0.00     0.131 A 
ATOM     75  C   UNL A   1      43.782  34.855  27.457  1.00  0.00     0.055 A 
ATOM     76  C   UNL A   1      45.393  33.772  26.071  1.00  0.00     0.041 A 
ATOM     77  F   UNL A   1      45.760  31.478  26.246  1.00  0.00    -0.206 F 
ATOM     78  C   UNL A   1      44.743  34.935  26.458  1.00  0.00     0.022 A 
BRANCH  75  79
ATOM     79  S   UNL A   1      42.863  36.350  27.917  1.00  0.00     0.124 S 
ATOM     80  O   UNL A   1      43.679  36.873  29.015  1.00  0.00    -0.237 OA
ATOM     81  O   UNL A   1      42.916  37.122  26.673  1.00  0.00    -0.237 OA
ATOM     82  O   UNL A   1      41.551  35.850  28.278  1.00  0.00    -0.744 OA
ENDBRANCH  75  79
ENDBRANCH  58  72
BRANCH  59  83
ATOM     83  C   UNL A   1      36.690  31.406  31.534  1.00  0.00     0.023 A 
ATOM     84  C   UNL A   1      36.209  31.565  30.220  1.00  0.00     0.031 A 
ATOM     85  C   UNL A   1      36.004  32.083  32.557  1.00  0.00     0.131 A 
ATOM     86  C   UNL A   1      35.123  32.408  29.955  1.00  0.00     0.055 A 
ATOM     87  C   UNL A   1      34.906  32.913  32.292  1.00  0.00     0.041 A 
ATOM     88  F   UNL A   1      36.430  32.006  33.827  1.00  0.00    -0.206 F 
ATOM     89  C   UNL A   1      34.470  33.090  30.981  1.00  0.00     0.022 A 
BRANCH  86  90
ATOM     90  S   UNL A   1      34.591  32.704  28.246  1.00  0.00     0.124 S 
ATOM     91  O   UNL A   1      34.233  31.360  27.798  1.00  0.00    -0.237 OA
ATOM     92  O   UNL A   1      33.474  33.621  28.437  1.00  0.00    -0.237 OA
ATOM     93  O   UNL A   1      35.778  33.269  27.612  1.00  0.00    -0.744 OA
ENDBRANCH  86  90
ENDBRANCH  59  83
BRANCH  71  94
ATOM     94  C   UNL A   1      42.447  30.474  34.080  1.00  0.00     0.023 A 
ATOM     95  C   UNL A   1      42.928  31.085  35.250  1.00  0.00     0.031 A 
ATOM     96  C   UNL A   1      42.239  29.082  34.111  1.00  0.00     0.131 A 
ATOM     97  C   UNL A   1      43.237  30.315  36.376  1.00  0.00     0.055 A 
ATOM     98  C   UNL A   1      42.477  28.326  35.264  1.00  0.00     0.041 A 
ATOM     99  F   UNL A   1      41.890  28.396  33.016  1.00  0.00    -0.206 F 
ATOM    100  C   UNL A   1      42.999  28.938  36.397  1.00  0.00     0.022 A 
BRANCH  97 101
ATOM    101  S   UNL A   1      44.124  31.053  37.771  1.00  0.00     0.124 S 
ATOM    102  O   UNL A   1      43.079  31.839  38.420  1.00  0.00    -0.237 OA
ATOM    103  O   UNL A   1      44.574  29.876  38.511  1.00  0.00    -0.237 OA
ATOM    104  O   UNL A   1      45.190  31.829  37.144  1.00  0.00    -0.744 OA
ENDBRANCH  97 101
ENDBRANCH  71  94
ENDBRANCH  45  46
ENDBRANCH  37  40
ENDBRANCH  35  36
ENDBRANCH  34  35
ENDBRANCH   1  34
TORSDOF 18
ENDMDL
MODEL 3
REMARK VINA RESULT:     -13.0      5.375     11.907
REMARK SMILES [NH3+][C@@H](Cc1cn(-c2nc(Cl)nc(N3CCOCC3)n2)c2ccccc12)C(=O)NCCCNC(=O)c1ccc(-c2c3nc(c(-c4cc(S(=O)(=O)[O-])ccc4F)c4ccc([nH]4)c(-c4cc(S(=O)(=O)[O-])ccc4F)c4nc(c(-c5cc(S(=O)(=O)[O-])ccc5F)c5ccc2[nH]5)C=C4)C=C3)cc1
REMARK SMILES IDX 29 1 28 2 26 3 27 4 2 6 1 7 3 11 4 12 5 13 25 14 6 15 20 16
REMARK SMILES IDX 24 17 21 18 23 19 22 20 7 21 8 22 19 23 9 24 12 25 10 26
REMARK SMILES IDX 11 27 13 28 14 29 18 30 15 31 17 32 16 33 30 34 31 35 32 36
REMARK SMILES IDX 33 37 34 39 35 40 36 41 97 42 37 43 96 44 38 45 39 46 40 47
REMARK SMILES IDX 90 48 41 49 95 50 89 51 91 52 42 53 94 54 88 55 87 56 43 58
REMARK SMILES IDX 75 59 55 60 74 61 56 62 59 63 73 64 92 65 57 66 58 67 72 69
REMARK SMILES IDX 93 70 60 71 44 72 45 73 53 74 46 75 52 76 54 77 51 78 47 79
REMARK SMILES IDX 48 80 49 81 50 82 76 83 77 84 85 85 78 86 84 87 86 88 83 89
REMARK SMILES IDX 79 90 80 91 81 92 82 93 61 94 62 95 70 96 63 97 69 98 71 99
REMARK SMILES IDX 68 100 64 101 65 102 66 103 67 104
REMARK H PARENT 28 5 1 8 1 9 1 10 32 38 91 57 59 68
REMARK Flexibility Score: inf
ROOT
ATOM      1  C   UNL A   1      43.173  18.906  26.527  1.00  0.00     0.118 C 
ENDROOT
BRANCH   1   2
ATOM      2  N   UNL A   1      44.293  18.456  25.720  1.00  0.00    -0.351 N 
ATOM      3  C   UNL A   1      45.277  19.090  25.039  1.00  0.00     0.278 C 
ATOM      4  O   UNL A   1      46.171  18.338  24.610  1.00  0.00    -0.268 OA
ATOM      5  H   UNL A   1      44.349  17.475  25.654  1.00  0.00     0.163 HD
BRANCH   3   6
ATOM      6  C   UNL A   1      45.360  20.599  24.671  1.00  0.00     0.275 C 
BRANCH   6   7
ATOM      7  N   UNL A   1      44.565  20.885  23.460  1.00  0.00    -0.347 N 
ATOM      8  H   UNL A   1      45.101  20.628  22.632  1.00  0.00     0.345 HD
ATOM      9  H   UNL A   1      44.345  21.882  23.426  1.00  0.00     0.345 HD
ATOM     10  H   UNL A   1      43.699  20.347  23.487  1.00  0.00     0.345 HD
ENDBRANCH   6   7
BRANCH   6  11
ATOM     11  C   UNL A   1      45.418  21.721  25.710  1.00  0.00     0.113 C 
BRANCH  11  12
ATOM     12  C   UNL A   1      45.560  23.173  25.360  1.00  0.00    -0.015 A 
ATOM     13  C   UNL A   1      46.802  23.711  25.060  1.00  0.00     0.099 A 
ATOM     14  C   UNL A   1      44.625  24.262  25.235  1.00  0.00     0.004 A 
ATOM     15  N   UNL A   1      46.702  25.079  25.016  1.00  0.00    -0.285 N 
ATOM     16  C   UNL A   1      45.378  25.445  25.129  1.00  0.00     0.056 A 
ATOM     17  C   UNL A   1      43.219  24.400  25.270  1.00  0.00     0.010 A 
ATOM     18  C   UNL A   1      44.789  26.720  25.094  1.00  0.00     0.027 A 
ATOM     19  C   UNL A   1      42.620  25.665  25.204  1.00  0.00     0.001 A 
ATOM     20  C   UNL A   1      43.398  26.806  25.119  1.00  0.00     0.002 A 
BRANCH  15  21
ATOM     21  C   UNL A   1      47.793  25.951  24.806  1.00  0.00     0.240 A 
ATOM     22  N   UNL A   1      48.118  26.250  23.556  1.00  0.00    -0.181 NA
ATOM     23  N   UNL A   1      48.370  26.446  25.900  1.00  0.00    -0.176 NA
ATOM     24  C   UNL A   1      49.065  27.175  23.496  1.00  0.00     0.228 A 
ATOM     25  C   UNL A   1      49.381  27.278  25.694  1.00  0.00     0.231 A 
ATOM     26  Cl  UNL A   1      49.479  27.712  21.930  1.00  0.00    -0.041 Cl
ATOM     27  N   UNL A   1      49.703  27.756  24.504  1.00  0.00    -0.182 NA
BRANCH  25  28
ATOM     28  N   UNL A   1      50.161  27.596  26.763  1.00  0.00    -0.336 N 
ATOM     29  C   UNL A   1      51.365  26.825  27.045  1.00  0.00     0.148 C 
ATOM     30  C   UNL A   1      49.713  28.519  27.787  1.00  0.00     0.148 C 
ATOM     31  C   UNL A   1      51.246  26.161  28.420  1.00  0.00     0.181 C 
ATOM     32  C   UNL A   1      49.658  27.770  29.133  1.00  0.00     0.181 C 
ATOM     33  O   UNL A   1      50.903  27.117  29.444  1.00  0.00    -0.378 OA
ENDBRANCH  25  28
ENDBRANCH  15  21
ENDBRANCH  11  12
ENDBRANCH   6  11
ENDBRANCH   3   6
ENDBRANCH   1   2
BRANCH   1  34
ATOM     34  C   UNL A   1      42.294  19.969  25.853  1.00  0.00     0.042 C 
BRANCH  34  35
ATOM     35  C   UNL A   1      41.962  21.190  26.712  1.00  0.00     0.118 C 
BRANCH  35  36
ATOM     36  N   UNL A   1      40.573  21.597  26.625  1.00  0.00    -0.352 N 
ATOM     37  C   UNL A   1      39.837  22.724  26.847  1.00  0.00     0.251 C 
ATOM     38  H   UNL A   1      40.003  20.854  26.321  1.00  0.00     0.163 HD
ATOM     39  O   UNL A   1      38.637  22.599  26.577  1.00  0.00    -0.269 OA
BRANCH  37  40
ATOM     40  C   UNL A   1      40.312  24.026  27.394  1.00  0.00     0.039 A 
ATOM     41  C   UNL A   1      41.402  24.233  28.241  1.00  0.00     0.014 A 
ATOM     42  C   UNL A   1      39.522  25.139  27.045  1.00  0.00     0.014 A 
ATOM     43  C   UNL A   1      41.626  25.500  28.801  1.00  0.00     0.010 A 
ATOM     44  C   UNL A   1      39.740  26.393  27.602  1.00  0.00     0.010 A 
ATOM     45  C   UNL A   1      40.749  26.559  28.544  1.00  0.00    -0.014 A 
BRANCH  45  46
ATOM     46  C   UNL A   1      40.921  27.847  29.232  1.00  0.00     0.031 A 
ATOM     47  C   UNL A   1      41.891  28.800  28.607  1.00  0.00     0.074 A 
ATOM     48  C   UNL A   1      40.100  28.243  30.232  1.00  0.00     0.049 A 
ATOM     49  N   UNL A   1      42.904  29.410  29.136  1.00  0.00    -0.248 NA
ATOM     50  C   UNL A   1      41.746  29.032  27.161  1.00  0.00     0.031 C 
ATOM     51  C   UNL A   1      38.890  27.557  30.706  1.00  0.00     0.029 A 
ATOM     52  N   UNL A   1      40.076  29.412  30.940  1.00  0.00    -0.354 N 
ATOM     53  C   UNL A   1      43.415  30.247  28.137  1.00  0.00     0.074 A 
ATOM     54  C   UNL A   1      42.770  29.847  26.915  1.00  0.00     0.031 C 
ATOM     55  C   UNL A   1      38.129  28.423  31.409  1.00  0.00     0.029 A 
ATOM     56  C   UNL A   1      38.859  29.671  31.561  1.00  0.00     0.049 A 
ATOM     57  H   UNL A   1      40.851  30.017  31.004  1.00  0.00     0.167 HD
ATOM     58  C   UNL A   1      44.180  31.346  28.412  1.00  0.00     0.034 A 
ATOM     59  C   UNL A   1      38.430  30.850  32.079  1.00  0.00     0.034 A 
ATOM     60  C   UNL A   1      44.719  31.295  29.742  1.00  0.00     0.049 A 
ATOM     61  C   UNL A   1      39.598  31.740  32.253  1.00  0.00     0.074 A 
ATOM     62  C   UNL A   1      45.586  30.458  30.414  1.00  0.00     0.029 A 
ATOM     63  N   UNL A   1      44.115  32.062  30.705  1.00  0.00    -0.354 N 
ATOM     64  N   UNL A   1      40.543  31.562  33.132  1.00  0.00    -0.248 NA
ATOM     65  C   UNL A   1      39.922  32.637  31.155  1.00  0.00     0.031 C 
ATOM     66  C   UNL A   1      45.111  30.438  31.756  1.00  0.00     0.029 A 
ATOM     67  C   UNL A   1      44.012  31.297  31.835  1.00  0.00     0.049 A 
ATOM     68  H   UNL A   1      43.812  32.993  30.602  1.00  0.00     0.167 HD
ATOM     69  C   UNL A   1      41.700  31.940  32.471  1.00  0.00     0.074 A 
ATOM     70  C   UNL A   1      41.245  32.701  31.310  1.00  0.00     0.031 C 
ATOM     71  C   UNL A   1      42.902  31.363  32.763  1.00  0.00     0.034 A 
BRANCH  58  72
ATOM     72  C   UNL A   1      44.158  32.627  27.595  1.00  0.00     0.023 A 
ATOM     73  C   UNL A   1      43.550  33.814  28.044  1.00  0.00     0.031 A 
ATOM     74  C   UNL A   1      44.960  32.758  26.439  1.00  0.00     0.131 A 
ATOM     75  C   UNL A   1      43.735  35.039  27.387  1.00  0.00     0.055 A 
ATOM     76  C   UNL A   1      45.202  33.994  25.821  1.00  0.00     0.041 A 
ATOM     77  F   UNL A   1      45.592  31.700  25.909  1.00  0.00    -0.206 F 
ATOM     78  C   UNL A   1      44.590  35.146  26.297  1.00  0.00     0.022 A 
BRANCH  75  79
ATOM     79  S   UNL A   1      42.862  36.518  27.969  1.00  0.00     0.124 S 
ATOM     80  O   UNL A   1      43.218  37.496  26.938  1.00  0.00    -0.237 OA
ATOM     81  O   UNL A   1      41.469  36.065  27.949  1.00  0.00    -0.237 OA
ATOM     82  O   UNL A   1      43.417  36.749  29.288  1.00  0.00    -0.744 OA
ENDBRANCH  75  79
ENDBRANCH  58  72
BRANCH  59  83
ATOM     83  C   UNL A   1      37.056  31.405  31.992  1.00  0.00     0.023 A 
ATOM     84  C   UNL A   1      36.500  31.684  30.729  1.00  0.00     0.031 A 
ATOM     85  C   UNL A   1      36.416  31.958  33.115  1.00  0.00     0.131 A 
ATOM     86  C   UNL A   1      35.384  32.522  30.610  1.00  0.00     0.055 A 
ATOM     87  C   UNL A   1      35.290  32.783  32.995  1.00  0.00     0.041 A 
ATOM     88  F   UNL A   1      36.914  31.765  34.346  1.00  0.00    -0.206 F 
ATOM     89  C   UNL A   1      34.777  33.080  31.735  1.00  0.00     0.022 A 
BRANCH  86  90
ATOM     90  S   UNL A   1      34.752  32.976  28.972  1.00  0.00     0.124 S 
ATOM     91  O   UNL A   1      33.831  34.064  29.287  1.00  0.00    -0.237 OA
ATOM     92  O   UNL A   1      35.975  33.368  28.281  1.00  0.00    -0.237 OA
ATOM     93  O   UNL A   1      34.120  31.749  28.499  1.00  0.00    -0.744 OA
ENDBRANCH  86  90
ENDBRANCH  59  83
BRANCH  71  94
ATOM     94  C   UNL A   1      43.027  30.502  34.000  1.00  0.00     0.023 A 
ATOM     95  C   UNL A   1      42.593  29.169  33.896  1.00  0.00     0.031 A 
ATOM     96  C   UNL A   1      43.310  30.996  35.288  1.00  0.00     0.131 A 
ATOM     97  C   UNL A   1      42.400  28.396  35.045  1.00  0.00     0.055 A 
ATOM     98  C   UNL A   1      43.188  30.194  36.429  1.00  0.00     0.041 A 
ATOM     99  F   UNL A   1      43.620  32.281  35.498  1.00  0.00    -0.206 F 
ATOM    100  C   UNL A   1      42.712  28.894  36.313  1.00  0.00     0.022 A 
BRANCH  97 101
ATOM    101  S   UNL A   1      41.571  26.790  34.935  1.00  0.00     0.124 S 
ATOM    102  O   UNL A   1      42.630  25.931  34.412  1.00  0.00    -0.237 OA
ATOM    103  O   UNL A   1      41.191  26.541  36.324  1.00  0.00    -0.237 OA
ATOM    104  O   UNL A   1      40.454  27.029  34.026  1.00  0.00    -0.744 OA
ENDBRANCH  97 101
ENDBRANCH  71  94
ENDBRANCH  45  46
ENDBRANCH  37  40
ENDBRANCH  35  36
ENDBRANCH  34  35
ENDBRANCH   1  34
TORSDOF 18
ENDMDL
