MODEL 1
REMARK VINA RESULT:     -11.7      0.000      0.000
REMARK SMILES CC(C)N1C[C@@H](C(=O)NCCCNC(=O)c2ccc(-c3c4nc(c(-c5cc(S(=O)(=O)[O-])ccc5F)c5ccc([nH]5)c(-c5cc(S(=O)(=O)[O-])ccc5F)c5nc(c(-c6cc(S(=O)(=O)[O-])ccc6F)c6ccc3[nH]6)C=C5)C=C4)cc2)CC1=O
REMARK SMILES IDX 12 1 11 2 10 3 9 4 7 5 8 6 6 8 4 9 5 10 80 11 79 12 81 13
REMARK SMILES IDX 2 14 1 15 3 16 13 17 14 18 15 20 16 21 17 22 78 23 18 24
REMARK SMILES IDX 77 25 19 26 20 27 21 28 71 29 22 30 76 31 70 32 72 33 23 34
REMARK SMILES IDX 75 35 69 36 68 37 24 39 56 40 36 41 55 42 37 43 40 44 54 45
REMARK SMILES IDX 73 46 38 47 39 48 53 50 74 51 41 52 25 53 26 54 34 55 27 56
REMARK SMILES IDX 33 57 35 58 32 59 28 60 29 61 30 62 31 63 57 64 58 65 66 66
REMARK SMILES IDX 59 67 65 68 67 69 64 70 60 71 61 72 62 73 63 74 42 75 43 76
REMARK SMILES IDX 51 77 44 78 50 79 52 80 49 81 45 82 46 83 47 84 48 85
REMARK H PARENT 9 7 13 19 72 38 40 49
REMARK Flexibility Score: inf
ROOT
ATOM      1  C   UNL A   1      37.254  22.094  25.007  1.00  0.00     0.118 C 
ENDROOT
BRANCH   1   2
ATOM      2  C   UNL A   1      36.039  21.455  24.343  1.00  0.00     0.042 C 
BRANCH   2   3
ATOM      3  C   UNL A   1      35.147  20.659  25.286  1.00  0.00     0.117 C 
BRANCH   3   4
ATOM      4  N   UNL A   1      33.932  21.374  25.643  1.00  0.00    -0.356 N 
ATOM      5  C   UNL A   1      32.622  21.054  25.502  1.00  0.00     0.225 C 
ATOM      6  O   UNL A   1      31.790  21.858  25.932  1.00  0.00    -0.275 OA
ATOM      7  H   UNL A   1      34.090  22.251  26.065  1.00  0.00     0.163 HD
BRANCH   5   8
ATOM      8  C   UNL A   1      32.157  19.766  24.862  1.00  0.00     0.107 C 
ATOM      9  N   UNL A   1      33.064  17.636  24.441  1.00  0.00    -0.339 N 
ATOM     10  C   UNL A   1      32.735  18.531  25.526  1.00  0.00     0.133 C 
ATOM     11  C   UNL A   1      32.819  18.194  23.196  1.00  0.00     0.223 C 
ATOM     12  C   UNL A   1      32.462  19.644  23.377  1.00  0.00     0.115 C 
ATOM     13  O   UNL A   1      32.896  17.639  22.111  1.00  0.00    -0.275 OA
BRANCH   9  14
ATOM     14  C   UNL A   1      33.434  16.244  24.705  1.00  0.00     0.078 C 
ATOM     15  C   UNL A   1      34.910  16.135  25.073  1.00  0.00     0.031 C 
ATOM     16  C   UNL A   1      32.557  15.565  25.759  1.00  0.00     0.031 C 
ENDBRANCH   9  14
ENDBRANCH   5   8
ENDBRANCH   3   4
ENDBRANCH   2   3
ENDBRANCH   1   2
BRANCH   1  17
ATOM     17  N   UNL A   1      38.170  21.114  25.569  1.00  0.00    -0.352 N 
ATOM     18  C   UNL A   1      39.349  21.280  26.252  1.00  0.00     0.251 C 
ATOM     19  H   UNL A   1      37.900  20.176  25.438  1.00  0.00     0.163 HD
ATOM     20  O   UNL A   1      40.056  20.294  26.455  1.00  0.00    -0.269 OA
BRANCH  18  21
ATOM     21  C   UNL A   1      39.788  22.617  26.716  1.00  0.00     0.039 A 
ATOM     22  C   UNL A   1      40.767  22.689  27.711  1.00  0.00     0.014 A 
ATOM     23  C   UNL A   1      39.228  23.794  26.212  1.00  0.00     0.014 A 
ATOM     24  C   UNL A   1      41.228  23.934  28.145  1.00  0.00     0.010 A 
ATOM     25  C   UNL A   1      39.755  25.033  26.578  1.00  0.00     0.010 A 
ATOM     26  C   UNL A   1      40.761  25.118  27.550  1.00  0.00    -0.014 A 
BRANCH  26  27
ATOM     27  C   UNL A   1      41.342  26.435  27.931  1.00  0.00     0.031 A 
ATOM     28  C   UNL A   1      42.755  26.794  27.558  1.00  0.00     0.074 A 
ATOM     29  C   UNL A   1      40.590  27.302  28.639  1.00  0.00     0.049 A 
ATOM     30  N   UNL A   1      43.413  27.903  27.787  1.00  0.00    -0.248 NA
ATOM     31  C   UNL A   1      43.541  25.766  26.862  1.00  0.00     0.031 C 
ATOM     32  C   UNL A   1      39.226  27.045  29.110  1.00  0.00     0.029 A 
ATOM     33  N   UNL A   1      40.854  28.573  29.081  1.00  0.00    -0.354 N 
ATOM     34  C   UNL A   1      44.688  27.706  27.264  1.00  0.00     0.074 A 
ATOM     35  C   UNL A   1      44.728  26.346  26.771  1.00  0.00     0.031 C 
ATOM     36  C   UNL A   1      38.758  28.139  29.727  1.00  0.00     0.029 A 
ATOM     37  C   UNL A   1      39.800  29.159  29.744  1.00  0.00     0.049 A 
ATOM     38  H   UNL A   1      41.717  29.025  28.937  1.00  0.00     0.167 HD
ATOM     39  C   UNL A   1      45.718  28.586  27.180  1.00  0.00     0.034 A 
ATOM     40  C   UNL A   1      39.684  30.380  30.305  1.00  0.00     0.034 A 
ATOM     41  C   UNL A   1      45.660  29.940  27.681  1.00  0.00     0.049 A 
ATOM     42  C   UNL A   1      40.848  31.331  30.213  1.00  0.00     0.074 A 
ATOM     43  C   UNL A   1      46.626  30.929  27.604  1.00  0.00     0.029 A 
ATOM     44  N   UNL A   1      44.583  30.494  28.363  1.00  0.00    -0.354 N 
ATOM     45  N   UNL A   1      42.024  31.151  29.654  1.00  0.00    -0.248 NA
ATOM     46  C   UNL A   1      40.662  32.657  30.813  1.00  0.00     0.031 C 
ATOM     47  C   UNL A   1      46.167  32.049  28.307  1.00  0.00     0.029 A 
ATOM     48  C   UNL A   1      44.876  31.797  28.744  1.00  0.00     0.049 A 
ATOM     49  H   UNL A   1      43.735  30.030  28.548  1.00  0.00     0.167 HD
ATOM     50  C   UNL A   1      42.707  32.353  29.815  1.00  0.00     0.074 A 
ATOM     51  C   UNL A   1      41.796  33.257  30.489  1.00  0.00     0.031 C 
ATOM     52  C   UNL A   1      43.973  32.681  29.444  1.00  0.00     0.034 A 
BRANCH  39  53
ATOM     53  C   UNL A   1      47.001  28.098  26.545  1.00  0.00     0.023 A 
ATOM     54  C   UNL A   1      47.221  28.182  25.158  1.00  0.00     0.031 A 
ATOM     55  C   UNL A   1      48.016  27.525  27.334  1.00  0.00     0.131 A 
ATOM     56  C   UNL A   1      48.386  27.637  24.596  1.00  0.00     0.055 A 
ATOM     57  C   UNL A   1      49.210  27.061  26.778  1.00  0.00     0.041 A 
ATOM     58  F   UNL A   1      47.858  27.395  28.660  1.00  0.00    -0.206 F 
ATOM     59  C   UNL A   1      49.394  27.101  25.399  1.00  0.00     0.022 A 
BRANCH  56  60
ATOM     60  S   UNL A   1      48.495  27.500  22.791  1.00  0.00     0.124 S 
ATOM     61  O   UNL A   1      49.779  28.143  22.523  1.00  0.00    -0.237 OA
ATOM     62  O   UNL A   1      48.445  26.059  22.579  1.00  0.00    -0.237 OA
ATOM     63  O   UNL A   1      47.327  28.243  22.319  1.00  0.00    -0.744 OA
ENDBRANCH  56  60
ENDBRANCH  39  53
BRANCH  40  64
ATOM     64  C   UNL A   1      38.426  30.777  31.003  1.00  0.00     0.023 A 
ATOM     65  C   UNL A   1      37.394  31.439  30.320  1.00  0.00     0.031 A 
ATOM     66  C   UNL A   1      38.259  30.541  32.380  1.00  0.00     0.131 A 
ATOM     67  C   UNL A   1      36.265  31.890  31.023  1.00  0.00     0.055 A 
ATOM     68  C   UNL A   1      37.108  30.936  33.062  1.00  0.00     0.041 A 
ATOM     69  F   UNL A   1      39.213  29.910  33.082  1.00  0.00    -0.206 F 
ATOM     70  C   UNL A   1      36.109  31.629  32.386  1.00  0.00     0.022 A 
BRANCH  67  71
ATOM     71  S   UNL A   1      35.047  32.910  30.148  1.00  0.00     0.124 S 
ATOM     72  O   UNL A   1      34.132  33.270  31.224  1.00  0.00    -0.237 OA
ATOM     73  O   UNL A   1      35.877  33.990  29.622  1.00  0.00    -0.237 OA
ATOM     74  O   UNL A   1      34.503  32.000  29.142  1.00  0.00    -0.744 OA
ENDBRANCH  67  71
ENDBRANCH  40  64
BRANCH  52  75
ATOM     75  C   UNL A   1      44.421  34.095  29.743  1.00  0.00     0.023 A 
ATOM     76  C   UNL A   1      44.214  35.143  28.827  1.00  0.00     0.031 A 
ATOM     77  C   UNL A   1      45.116  34.387  30.930  1.00  0.00     0.131 A 
ATOM     78  C   UNL A   1      44.782  36.404  29.065  1.00  0.00     0.055 A 
ATOM     79  C   UNL A   1      45.605  35.666  31.201  1.00  0.00     0.041 A 
ATOM     80  F   UNL A   1      45.348  33.429  31.841  1.00  0.00    -0.206 F 
ATOM     81  C   UNL A   1      45.460  36.678  30.255  1.00  0.00     0.022 A 
BRANCH  78  82
ATOM     82  S   UNL A   1      44.758  37.630  27.730  1.00  0.00     0.124 S 
ATOM     83  O   UNL A   1      43.538  37.273  27.013  1.00  0.00    -0.237 OA
ATOM     84  O   UNL A   1      44.720  38.890  28.464  1.00  0.00    -0.237 OA
ATOM     85  O   UNL A   1      46.001  37.372  27.005  1.00  0.00    -0.744 OA
ENDBRANCH  78  82
ENDBRANCH  52  75
ENDBRANCH  26  27
ENDBRANCH  18  21
ENDBRANCH   1  17
TORSDOF 14
ENDMDL
MODEL 2
REMARK VINA RESULT:     -11.6      6.336     12.306
REMARK SMILES CC(C)N1C[C@@H](C(=O)NCCCNC(=O)c2ccc(-c3c4nc(c(-c5cc(S(=O)(=O)[O-])ccc5F)c5ccc([nH]5)c(-c5cc(S(=O)(=O)[O-])ccc5F)c5nc(c(-c6cc(S(=O)(=O)[O-])ccc6F)c6ccc3[nH]6)C=C5)C=C4)cc2)CC1=O
REMARK SMILES IDX 12 1 11 2 10 3 9 4 7 5 8 6 6 8 4 9 5 10 80 11 79 12 81 13
REMARK SMILES IDX 2 14 1 15 3 16 13 17 14 18 15 20 16 21 17 22 78 23 18 24
REMARK SMILES IDX 77 25 19 26 20 27 21 28 71 29 22 30 76 31 70 32 72 33 23 34
REMARK SMILES IDX 75 35 69 36 68 37 24 39 56 40 36 41 55 42 37 43 40 44 54 45
REMARK SMILES IDX 73 46 38 47 39 48 53 50 74 51 41 52 25 53 26 54 34 55 27 56
REMARK SMILES IDX 33 57 35 58 32 59 28 60 29 61 30 62 31 63 57 64 58 65 66 66
REMARK SMILES IDX 59 67 65 68 67 69 64 70 60 71 61 72 62 73 63 74 42 75 43 76
REMARK SMILES IDX 51 77 44 78 50 79 52 80 49 81 45 82 46 83 47 84 48 85
REMARK H PARENT 9 7 13 19 72 38 40 49
REMARK Flexibility Score: inf
ROOT
ATOM      1  C   UNL A   1      34.751  34.018  29.300  1.00  0.00     0.118 C 
ENDROOT
BRANCH   1   2
ATOM      2  C   UNL A   1      34.295  35.455  29.075  1.00  0.00     0.042 C 
BRANCH   2   3
ATOM      3  C   UNL A   1      32.953  35.800  29.706  1.00  0.00     0.117 C 
BRANCH   3   4
ATOM      4  N   UNL A   1      32.980  37.066  30.421  1.00  0.00    -0.356 N 
ATOM      5  C   UNL A   1      33.257  37.366  31.714  1.00  0.00     0.225 C 
ATOM      6  O   UNL A   1      33.232  38.557  32.039  1.00  0.00    -0.275 OA
ATOM      7  H   UNL A   1      32.756  37.847  29.864  1.00  0.00     0.163 HD
BRANCH   5   8
ATOM      8  C   UNL A   1      33.605  36.316  32.744  1.00  0.00     0.107 C 
ATOM      9  N   UNL A   1      35.078  34.487  32.896  1.00  0.00    -0.339 N 
ATOM     10  C   UNL A   1      35.069  35.920  32.716  1.00  0.00     0.133 C 
ATOM     11  C   UNL A   1      33.802  33.950  32.967  1.00  0.00     0.223 C 
ATOM     12  C   UNL A   1      32.805  35.027  32.637  1.00  0.00     0.115 C 
ATOM     13  O   UNL A   1      33.500  32.796  33.223  1.00  0.00    -0.275 OA
BRANCH   9  14
ATOM     14  C   UNL A   1      36.329  33.773  33.156  1.00  0.00     0.078 C 
ATOM     15  C   UNL A   1      37.491  34.426  32.413  1.00  0.00     0.031 C 
ATOM     16  C   UNL A   1      36.652  33.618  34.644  1.00  0.00     0.031 C 
ENDBRANCH   9  14
ENDBRANCH   5   8
ENDBRANCH   3   4
ENDBRANCH   2   3
ENDBRANCH   1   2
BRANCH   1  17
ATOM     17  N   UNL A   1      33.956  33.051  28.560  1.00  0.00    -0.352 N 
ATOM     18  C   UNL A   1      34.270  31.793  28.106  1.00  0.00     0.251 C 
ATOM     19  H   UNL A   1      33.040  33.347  28.349  1.00  0.00     0.163 HD
ATOM     20  O   UNL A   1      33.498  31.240  27.325  1.00  0.00    -0.269 OA
BRANCH  18  21
ATOM     21  C   UNL A   1      35.523  31.118  28.518  1.00  0.00     0.039 A 
ATOM     22  C   UNL A   1      36.740  31.642  28.075  1.00  0.00     0.014 A 
ATOM     23  C   UNL A   1      35.515  29.962  29.303  1.00  0.00     0.014 A 
ATOM     24  C   UNL A   1      37.940  31.051  28.475  1.00  0.00     0.010 A 
ATOM     25  C   UNL A   1      36.713  29.428  29.778  1.00  0.00     0.010 A 
ATOM     26  C   UNL A   1      37.941  29.966  29.368  1.00  0.00    -0.014 A 
BRANCH  26  27
ATOM     27  C   UNL A   1      39.224  29.416  29.886  1.00  0.00     0.031 A 
ATOM     28  C   UNL A   1      39.871  29.988  31.118  1.00  0.00     0.074 A 
ATOM     29  C   UNL A   1      39.817  28.404  29.221  1.00  0.00     0.049 A 
ATOM     30  N   UNL A   1      40.972  29.617  31.722  1.00  0.00    -0.248 NA
ATOM     31  C   UNL A   1      39.210  31.145  31.740  1.00  0.00     0.031 C 
ATOM     32  C   UNL A   1      39.317  27.802  27.981  1.00  0.00     0.029 A 
ATOM     33  N   UNL A   1      40.960  27.694  29.491  1.00  0.00    -0.354 N 
ATOM     34  C   UNL A   1      41.137  30.492  32.791  1.00  0.00     0.074 A 
ATOM     35  C   UNL A   1      40.058  31.454  32.709  1.00  0.00     0.031 C 
ATOM     36  C   UNL A   1      40.118  26.787  27.628  1.00  0.00     0.029 A 
ATOM     37  C   UNL A   1      41.217  26.692  28.583  1.00  0.00     0.049 A 
ATOM     38  H   UNL A   1      41.542  27.884  30.262  1.00  0.00     0.167 HD
ATOM     39  C   UNL A   1      42.083  30.478  33.764  1.00  0.00     0.034 A 
ATOM     40  C   UNL A   1      42.224  25.798  28.524  1.00  0.00     0.034 A 
ATOM     41  C   UNL A   1      43.154  29.510  33.828  1.00  0.00     0.049 A 
ATOM     42  C   UNL A   1      43.271  25.815  29.606  1.00  0.00     0.074 A 
ATOM     43  C   UNL A   1      44.135  29.375  34.795  1.00  0.00     0.029 A 
ATOM     44  N   UNL A   1      43.394  28.521  32.883  1.00  0.00    -0.354 N 
ATOM     45  N   UNL A   1      43.372  26.608  30.649  1.00  0.00    -0.248 NA
ATOM     46  C   UNL A   1      44.329  24.803  29.513  1.00  0.00     0.031 C 
ATOM     47  C   UNL A   1      45.012  28.360  34.394  1.00  0.00     0.029 A 
ATOM     48  C   UNL A   1      44.528  27.797  33.224  1.00  0.00     0.049 A 
ATOM     49  H   UNL A   1      42.839  28.357  32.086  1.00  0.00     0.167 HD
ATOM     50  C   UNL A   1      44.494  26.172  31.348  1.00  0.00     0.074 A 
ATOM     51  C   UNL A   1      45.008  25.025  30.626  1.00  0.00     0.031 C 
ATOM     52  C   UNL A   1      45.052  26.673  32.481  1.00  0.00     0.034 A 
BRANCH  39  53
ATOM     53  C   UNL A   1      42.012  31.558  34.821  1.00  0.00     0.023 A 
ATOM     54  C   UNL A   1      41.017  31.559  35.815  1.00  0.00     0.031 A 
ATOM     55  C   UNL A   1      42.942  32.614  34.827  1.00  0.00     0.131 A 
ATOM     56  C   UNL A   1      40.929  32.626  36.722  1.00  0.00     0.055 A 
ATOM     57  C   UNL A   1      42.902  33.629  35.786  1.00  0.00     0.041 A 
ATOM     58  F   UNL A   1      43.902  32.683  33.892  1.00  0.00    -0.206 F 
ATOM     59  C   UNL A   1      41.881  33.647  36.732  1.00  0.00     0.022 A 
BRANCH  56  60
ATOM     60  S   UNL A   1      39.467  32.739  37.789  1.00  0.00     0.124 S 
ATOM     61  O   UNL A   1      38.675  31.601  37.328  1.00  0.00    -0.237 OA
ATOM     62  O   UNL A   1      40.040  32.619  39.124  1.00  0.00    -0.237 OA
ATOM     63  O   UNL A   1      38.905  34.049  37.465  1.00  0.00    -0.744 OA
ENDBRANCH  56  60
ENDBRANCH  39  53
BRANCH  40  64
ATOM     64  C   UNL A   1      42.298  24.813  27.405  1.00  0.00     0.023 A 
ATOM     65  C   UNL A   1      41.527  23.639  27.418  1.00  0.00     0.031 A 
ATOM     66  C   UNL A   1      43.179  25.009  26.326  1.00  0.00     0.131 A 
ATOM     67  C   UNL A   1      41.691  22.683  26.403  1.00  0.00     0.055 A 
ATOM     68  C   UNL A   1      43.293  24.085  25.287  1.00  0.00     0.041 A 
ATOM     69  F   UNL A   1      43.938  26.114  26.262  1.00  0.00    -0.206 F 
ATOM     70  C   UNL A   1      42.557  22.905  25.330  1.00  0.00     0.022 A 
BRANCH  67  71
ATOM     71  S   UNL A   1      40.825  21.096  26.557  1.00  0.00     0.124 S 
ATOM     72  O   UNL A   1      40.784  20.919  28.003  1.00  0.00    -0.237 OA
ATOM     73  O   UNL A   1      39.549  21.382  25.909  1.00  0.00    -0.237 OA
ATOM     74  O   UNL A   1      41.692  20.165  25.838  1.00  0.00    -0.744 OA
ENDBRANCH  67  71
ENDBRANCH  40  64
BRANCH  52  75
ATOM     75  C   UNL A   1      46.271  25.951  33.013  1.00  0.00     0.023 A 
ATOM     76  C   UNL A   1      47.557  26.198  32.498  1.00  0.00     0.031 A 
ATOM     77  C   UNL A   1      46.139  24.962  34.003  1.00  0.00     0.131 A 
ATOM     78  C   UNL A   1      48.638  25.400  32.900  1.00  0.00     0.055 A 
ATOM     79  C   UNL A   1      47.234  24.229  34.462  1.00  0.00     0.041 A 
ATOM     80  F   UNL A   1      44.938  24.678  34.532  1.00  0.00    -0.206 F 
ATOM     81  C   UNL A   1      48.489  24.429  33.893  1.00  0.00     0.022 A 
BRANCH  78  82
ATOM     82  S   UNL A   1      50.203  25.541  31.994  1.00  0.00     0.124 S 
ATOM     83  O   UNL A   1      49.824  26.386  30.866  1.00  0.00    -0.237 OA
ATOM     84  O   UNL A   1      51.082  26.155  32.984  1.00  0.00    -0.237 OA
ATOM     85  O   UNL A   1      50.526  24.157  31.651  1.00  0.00    -0.744 OA
ENDBRANCH  78  82
ENDBRANCH  52  75
ENDBRANCH  26  27
ENDBRANCH  18  21
ENDBRANCH   1  17
TORSDOF 14
ENDMDL
MODEL 3
REMARK VINA RESULT:     -11.6      1.629      3.045
REMARK SMILES CC(C)N1C[C@@H](C(=O)NCCCNC(=O)c2ccc(-c3c4nc(c(-c5cc(S(=O)(=O)[O-])ccc5F)c5ccc([nH]5)c(-c5cc(S(=O)(=O)[O-])ccc5F)c5nc(c(-c6cc(S(=O)(=O)[O-])ccc6F)c6ccc3[nH]6)C=C5)C=C4)cc2)CC1=O
REMARK SMILES IDX 12 1 11 2 10 3 9 4 7 5 8 6 6 8 4 9 5 10 80 11 79 12 81 13
REMARK SMILES IDX 2 14 1 15 3 16 13 17 14 18 15 20 16 21 17 22 78 23 18 24
REMARK SMILES IDX 77 25 19 26 20 27 21 28 71 29 22 30 76 31 70 32 72 33 23 34
REMARK SMILES IDX 75 35 69 36 68 37 24 39 56 40 36 41 55 42 37 43 40 44 54 45
REMARK SMILES IDX 73 46 38 47 39 48 53 50 74 51 41 52 25 53 26 54 34 55 27 56
REMARK SMILES IDX 33 57 35 58 32 59 28 60 29 61 30 62 31 63 57 64 58 65 66 66
REMARK SMILES IDX 59 67 65 68 67 69 64 70 60 71 61 72 62 73 63 74 42 75 43 76
REMARK SMILES IDX 51 77 44 78 50 79 52 80 49 81 45 82 46 83 47 84 48 85
REMARK H PARENT 9 7 13 19 72 38 40 49
REMARK Flexibility Score: inf
ROOT
ATOM      1  C   UNL A   1      36.549  22.194  25.662  1.00  0.00     0.118 C 
ENDROOT
BRANCH   1   2
ATOM      2  C   UNL A   1      35.486  21.720  24.679  1.00  0.00     0.042 C 
BRANCH   2   3
ATOM      3  C   UNL A   1      34.417  20.820  25.286  1.00  0.00     0.117 C 
BRANCH   3   4
ATOM      4  N   UNL A   1      34.082  21.194  26.651  1.00  0.00    -0.356 N 
ATOM      5  C   UNL A   1      33.235  22.128  27.148  1.00  0.00     0.225 C 
ATOM      6  O   UNL A   1      33.128  22.203  28.376  1.00  0.00    -0.275 OA
ATOM      7  H   UNL A   1      34.557  20.673  27.339  1.00  0.00     0.163 HD
BRANCH   5   8
ATOM      8  C   UNL A   1      32.422  23.051  26.269  1.00  0.00     0.107 C 
ATOM      9  N   UNL A   1      31.987  25.360  26.148  1.00  0.00    -0.339 N 
ATOM     10  C   UNL A   1      33.070  24.408  26.074  1.00  0.00     0.133 C 
ATOM     11  C   UNL A   1      30.768  24.761  26.427  1.00  0.00     0.223 C 
ATOM     12  C   UNL A   1      31.005  23.312  26.755  1.00  0.00     0.115 C 
ATOM     13  O   UNL A   1      29.670  25.294  26.440  1.00  0.00    -0.275 OA
BRANCH   9  14
ATOM     14  C   UNL A   1      32.193  26.761  25.774  1.00  0.00     0.078 C 
ATOM     15  C   UNL A   1      32.052  27.673  26.988  1.00  0.00     0.031 C 
ATOM     16  C   UNL A   1      33.519  27.015  25.053  1.00  0.00     0.031 C 
ENDBRANCH   9  14
ENDBRANCH   5   8
ENDBRANCH   3   4
ENDBRANCH   2   3
ENDBRANCH   1   2
BRANCH   1  17
ATOM     17  N   UNL A   1      37.648  21.252  25.803  1.00  0.00    -0.352 N 
ATOM     18  C   UNL A   1      38.967  21.457  26.126  1.00  0.00     0.251 C 
ATOM     19  H   UNL A   1      37.407  20.311  25.639  1.00  0.00     0.163 HD
ATOM     20  O   UNL A   1      39.758  20.526  25.987  1.00  0.00    -0.269 OA
BRANCH  18  21
ATOM     21  C   UNL A   1      39.445  22.774  26.607  1.00  0.00     0.039 A 
ATOM     22  C   UNL A   1      40.428  22.804  27.600  1.00  0.00     0.014 A 
ATOM     23  C   UNL A   1      38.920  23.974  26.120  1.00  0.00     0.014 A 
ATOM     24  C   UNL A   1      40.928  24.029  28.049  1.00  0.00     0.010 A 
ATOM     25  C   UNL A   1      39.484  25.192  26.501  1.00  0.00     0.010 A 
ATOM     26  C   UNL A   1      40.494  25.234  27.472  1.00  0.00    -0.014 A 
BRANCH  26  27
ATOM     27  C   UNL A   1      41.115  26.528  27.868  1.00  0.00     0.031 A 
ATOM     28  C   UNL A   1      42.541  26.845  27.507  1.00  0.00     0.074 A 
ATOM     29  C   UNL A   1      40.386  27.411  28.581  1.00  0.00     0.049 A 
ATOM     30  N   UNL A   1      43.233  27.930  27.750  1.00  0.00    -0.248 NA
ATOM     31  C   UNL A   1      43.297  25.799  26.805  1.00  0.00     0.031 C 
ATOM     32  C   UNL A   1      39.012  27.194  29.041  1.00  0.00     0.029 A 
ATOM     33  N   UNL A   1      40.689  28.670  29.036  1.00  0.00    -0.354 N 
ATOM     34  C   UNL A   1      44.503  27.698  27.232  1.00  0.00     0.074 A 
ATOM     35  C   UNL A   1      44.503  26.342  26.726  1.00  0.00     0.031 C 
ATOM     36  C   UNL A   1      38.576  28.297  29.667  1.00  0.00     0.029 A 
ATOM     37  C   UNL A   1      39.650  29.283  29.700  1.00  0.00     0.049 A 
ATOM     38  H   UNL A   1      41.566  29.095  28.901  1.00  0.00     0.167 HD
ATOM     39  C   UNL A   1      45.561  28.546  27.162  1.00  0.00     0.034 A 
ATOM     40  C   UNL A   1      39.570  30.501  30.271  1.00  0.00     0.034 A 
ATOM     41  C   UNL A   1      45.544  29.896  27.676  1.00  0.00     0.049 A 
ATOM     42  C   UNL A   1      40.764  31.415  30.195  1.00  0.00     0.074 A 
ATOM     43  C   UNL A   1      46.541  30.854  27.614  1.00  0.00     0.029 A 
ATOM     44  N   UNL A   1      44.481  30.477  28.357  1.00  0.00    -0.354 N 
ATOM     45  N   UNL A   1      41.937  31.203  29.640  1.00  0.00    -0.248 NA
ATOM     46  C   UNL A   1      40.617  32.741  30.806  1.00  0.00     0.031 C 
ATOM     47  C   UNL A   1      46.114  31.981  28.326  1.00  0.00     0.029 A 
ATOM     48  C   UNL A   1      44.813  31.766  28.753  1.00  0.00     0.049 A 
ATOM     49  H   UNL A   1      43.617  30.039  28.533  1.00  0.00     0.167 HD
ATOM     50  C   UNL A   1      42.657  32.381  29.817  1.00  0.00     0.074 A 
ATOM     51  C   UNL A   1      41.771  33.307  30.495  1.00  0.00     0.031 C 
ATOM     52  C   UNL A   1      43.935  32.672  29.456  1.00  0.00     0.034 A 
BRANCH  39  53
ATOM     53  C   UNL A   1      46.832  28.023  26.530  1.00  0.00     0.023 A 
ATOM     54  C   UNL A   1      47.080  28.148  25.151  1.00  0.00     0.031 A 
ATOM     55  C   UNL A   1      47.805  27.374  27.312  1.00  0.00     0.131 A 
ATOM     56  C   UNL A   1      48.228  27.571  24.587  1.00  0.00     0.055 A 
ATOM     57  C   UNL A   1      48.987  26.876  26.758  1.00  0.00     0.041 A 
ATOM     58  F   UNL A   1      47.619  27.202  28.630  1.00  0.00    -0.206 F 
ATOM     59  C   UNL A   1      49.197  26.960  25.385  1.00  0.00     0.022 A 
BRANCH  56  60
ATOM     60  S   UNL A   1      48.363  27.497  22.779  1.00  0.00     0.124 S 
ATOM     61  O   UNL A   1      47.153  28.203  22.364  1.00  0.00    -0.237 OA
ATOM     62  O   UNL A   1      49.623  28.185  22.528  1.00  0.00    -0.237 OA
ATOM     63  O   UNL A   1      48.365  26.063  22.494  1.00  0.00    -0.744 OA
ENDBRANCH  56  60
ENDBRANCH  39  53
BRANCH  40  64
ATOM     64  C   UNL A   1      38.321  30.932  30.966  1.00  0.00     0.023 A 
ATOM     65  C   UNL A   1      37.280  31.561  30.266  1.00  0.00     0.031 A 
ATOM     66  C   UNL A   1      38.172  30.761  32.355  1.00  0.00     0.131 A 
ATOM     67  C   UNL A   1      36.161  32.045  30.963  1.00  0.00     0.055 A 
ATOM     68  C   UNL A   1      37.030  31.189  33.033  1.00  0.00     0.041 A 
ATOM     69  F   UNL A   1      39.136  30.164  33.073  1.00  0.00    -0.206 F 
ATOM     70  C   UNL A   1      36.022  31.850  32.338  1.00  0.00     0.022 A 
BRANCH  67  71
ATOM     71  S   UNL A   1      34.931  33.024  30.056  1.00  0.00     0.124 S 
ATOM     72  O   UNL A   1      34.403  32.042  29.117  1.00  0.00    -0.237 OA
ATOM     73  O   UNL A   1      34.028  33.441  31.124  1.00  0.00    -0.237 OA
ATOM     74  O   UNL A   1      35.724  34.097  29.459  1.00  0.00    -0.744 OA
ENDBRANCH  67  71
ENDBRANCH  40  64
BRANCH  52  75
ATOM     75  C   UNL A   1      44.426  34.068  29.772  1.00  0.00     0.023 A 
ATOM     76  C   UNL A   1      44.202  35.144  28.893  1.00  0.00     0.031 A 
ATOM     77  C   UNL A   1      45.179  34.314  30.933  1.00  0.00     0.131 A 
ATOM     78  C   UNL A   1      44.806  36.386  29.139  1.00  0.00     0.055 A 
ATOM     79  C   UNL A   1      45.707  35.575  31.215  1.00  0.00     0.041 A 
ATOM     80  F   UNL A   1      45.430  33.327  31.808  1.00  0.00    -0.206 F 
ATOM     81  C   UNL A   1      45.542  36.614  30.303  1.00  0.00     0.022 A 
BRANCH  78  82
ATOM     82  S   UNL A   1      44.750  37.648  27.838  1.00  0.00     0.124 S 
ATOM     83  O   UNL A   1      45.082  38.861  28.578  1.00  0.00    -0.237 OA
ATOM     84  O   UNL A   1      45.764  37.176  26.901  1.00  0.00    -0.237 OA
ATOM     85  O   UNL A   1      43.373  37.577  27.350  1.00  0.00    -0.744 OA
ENDBRANCH  78  82
ENDBRANCH  52  75
ENDBRANCH  26  27
ENDBRANCH  18  21
ENDBRANCH   1  17
TORSDOF 14
ENDMDL
