MODEL 1
REMARK VINA RESULT:     -12.0      0.000      0.000
REMARK SMILES CCOc1cccc(-c2ccc([C@@H](C)C(=O)NCCCNC(=O)c3ccc(-c4c5nc(c(-c6cc(S(=O)(=O)[O-])ccc6F)c6ccc([nH]6)c(-c6cc(S(=O)(=O)[O-])ccc6F)c6nc(c(-c7cc(S(=O)(=O)[O-])ccc7F)c7ccc4[nH]7)C=C6)C=C5)cc3)cc2F)c1
REMARK SMILES IDX 18 1 17 2 15 3 16 4 13 6 14 7 12 8 9 9 10 10 88 11 11 12
REMARK SMILES IDX 87 13 89 14 8 15 4 16 5 17 90 18 6 19 7 20 3 21 2 22 1 23
REMARK SMILES IDX 19 24 20 25 21 26 22 27 23 29 24 30 25 31 86 32 26 33 85 34
REMARK SMILES IDX 27 35 28 36 29 37 79 38 30 39 84 40 78 41 80 42 31 43 83 44
REMARK SMILES IDX 77 45 76 46 32 48 64 49 44 50 63 51 45 52 48 53 62 54 81 55
REMARK SMILES IDX 46 56 47 57 61 59 82 60 49 61 33 62 34 63 42 64 35 65 41 66
REMARK SMILES IDX 43 67 40 68 36 69 37 70 38 71 39 72 65 73 66 74 74 75 67 76
REMARK SMILES IDX 73 77 75 78 72 79 68 80 69 81 70 82 71 83 50 84 51 85 59 86
REMARK SMILES IDX 52 87 58 88 60 89 57 90 53 91 54 92 55 93 56 94
REMARK H PARENT 17 5 21 28 80 47 48 58
REMARK Flexibility Score: inf
ROOT
ATOM      1  C   UNL A   1      35.234  20.674  24.833  1.00  0.00     0.117 C 
ENDROOT
BRANCH   1   2
ATOM      2  N   UNL A   1      34.366  19.766  25.557  1.00  0.00    -0.356 N 
ATOM      3  C   UNL A   1      33.095  19.342  25.326  1.00  0.00     0.227 C 
ATOM      4  O   UNL A   1      32.607  18.591  26.180  1.00  0.00    -0.274 OA
ATOM      5  H   UNL A   1      34.774  19.386  26.369  1.00  0.00     0.163 HD
BRANCH   3   6
ATOM      6  C   UNL A   1      32.270  19.723  24.087  1.00  0.00     0.105 C 
ATOM      7  C   UNL A   1      32.515  18.843  22.864  1.00  0.00     0.023 C 
BRANCH   6   8
ATOM      8  C   UNL A   1      32.218  21.218  23.817  1.00  0.00    -0.033 A 
ATOM      9  C   UNL A   1      32.242  24.069  23.454  1.00  0.00     0.018 A 
ATOM     10  C   UNL A   1      32.665  23.185  22.446  1.00  0.00     0.012 A 
ATOM     11  C   UNL A   1      31.759  23.469  24.629  1.00  0.00     0.131 A 
ATOM     12  C   UNL A   1      32.618  21.793  22.610  1.00  0.00     0.005 A 
ATOM     13  C   UNL A   1      31.771  22.084  24.823  1.00  0.00     0.044 A 
ATOM     14  F   UNL A   1      31.258  24.212  25.629  1.00  0.00    -0.206 F 
BRANCH   9  15
ATOM     15  C   UNL A   1      32.347  25.541  23.277  1.00  0.00    -0.012 A 
ATOM     16  C   UNL A   1      31.340  27.684  22.655  1.00  0.00     0.119 A 
ATOM     17  C   UNL A   1      32.497  28.366  23.008  1.00  0.00     0.046 A 
ATOM     18  C   UNL A   1      31.273  26.295  22.774  1.00  0.00     0.055 A 
ATOM     19  C   UNL A   1      33.583  27.650  23.504  1.00  0.00     0.004 A 
ATOM     20  C   UNL A   1      33.507  26.257  23.631  1.00  0.00     0.009 A 
BRANCH  16  21
ATOM     21  O   UNL A   1      30.315  28.384  22.080  1.00  0.00    -0.494 OA
BRANCH  21  22
ATOM     22  C   UNL A   1      29.150  28.451  22.912  1.00  0.00     0.226 C 
ATOM     23  C   UNL A   1      28.527  29.838  22.886  1.00  0.00     0.049 C 
ENDBRANCH  21  22
ENDBRANCH  16  21
ENDBRANCH   9  15
ENDBRANCH   6   8
ENDBRANCH   3   6
ENDBRANCH   1   2
BRANCH   1  24
ATOM     24  C   UNL A   1      35.625  21.893  25.665  1.00  0.00     0.042 C 
BRANCH  24  25
ATOM     25  C   UNL A   1      37.042  22.389  25.408  1.00  0.00     0.118 C 
BRANCH  25  26
ATOM     26  N   UNL A   1      38.046  21.442  25.873  1.00  0.00    -0.352 N 
ATOM     27  C   UNL A   1      39.311  21.645  26.367  1.00  0.00     0.251 C 
ATOM     28  H   UNL A   1      37.771  20.497  25.824  1.00  0.00     0.163 HD
ATOM     29  O   UNL A   1      40.063  20.679  26.468  1.00  0.00    -0.269 OA
BRANCH  27  30
ATOM     30  C   UNL A   1      39.779  22.996  26.761  1.00  0.00     0.039 A 
ATOM     31  C   UNL A   1      40.663  23.112  27.840  1.00  0.00     0.014 A 
ATOM     32  C   UNL A   1      39.317  24.149  26.123  1.00  0.00     0.014 A 
ATOM     33  C   UNL A   1      41.125  24.370  28.236  1.00  0.00     0.010 A 
ATOM     34  C   UNL A   1      39.842  25.395  26.463  1.00  0.00     0.010 A 
ATOM     35  C   UNL A   1      40.746  25.521  27.528  1.00  0.00    -0.014 A 
BRANCH  35  36
ATOM     36  C   UNL A   1      41.273  26.863  27.895  1.00  0.00     0.031 A 
ATOM     37  C   UNL A   1      42.709  27.217  27.617  1.00  0.00     0.074 A 
ATOM     38  C   UNL A   1      40.474  27.740  28.535  1.00  0.00     0.049 A 
ATOM     39  N   UNL A   1      43.374  28.299  27.934  1.00  0.00    -0.248 NA
ATOM     40  C   UNL A   1      43.512  26.200  26.922  1.00  0.00     0.031 C 
ATOM     41  C   UNL A   1      39.077  27.495  28.901  1.00  0.00     0.029 A 
ATOM     42  N   UNL A   1      40.722  29.005  29.004  1.00  0.00    -0.354 N 
ATOM     43  C   UNL A   1      44.675  28.090  27.486  1.00  0.00     0.074 A 
ATOM     44  C   UNL A   1      44.717  26.748  26.944  1.00  0.00     0.031 C 
ATOM     45  C   UNL A   1      38.588  28.580  29.520  1.00  0.00     0.029 A 
ATOM     46  C   UNL A   1      39.646  29.579  29.637  1.00  0.00     0.049 A 
ATOM     47  H   UNL A   1      41.589  29.459  28.897  1.00  0.00     0.167 HD
ATOM     48  C   UNL A   1      45.728  28.946  27.503  1.00  0.00     0.034 A 
ATOM     49  C   UNL A   1      39.526  30.769  30.260  1.00  0.00     0.034 A 
ATOM     50  C   UNL A   1      45.666  30.282  28.048  1.00  0.00     0.049 A 
ATOM     51  C   UNL A   1      40.711  31.697  30.291  1.00  0.00     0.074 A 
ATOM     52  C   UNL A   1      46.651  31.253  28.072  1.00  0.00     0.029 A 
ATOM     53  N   UNL A   1      44.556  30.832  28.678  1.00  0.00    -0.354 N 
ATOM     54  N   UNL A   1      41.921  31.506  29.816  1.00  0.00    -0.248 NA
ATOM     55  C   UNL A   1      40.513  33.003  30.931  1.00  0.00     0.031 C 
ATOM     56  C   UNL A   1      46.162  32.360  28.775  1.00  0.00     0.029 A 
ATOM     57  C   UNL A   1      44.844  32.114  29.124  1.00  0.00     0.049 A 
ATOM     58  H   UNL A   1      43.689  30.378  28.793  1.00  0.00     0.167 HD
ATOM     59  C   UNL A   1      42.622  32.679  30.083  1.00  0.00     0.074 A 
ATOM     60  C   UNL A   1      41.693  33.575  30.743  1.00  0.00     0.031 C 
ATOM     61  C   UNL A   1      43.915  32.989  29.804  1.00  0.00     0.034 A 
BRANCH  48  62
ATOM     62  C   UNL A   1      47.038  28.441  26.936  1.00  0.00     0.023 A 
ATOM     63  C   UNL A   1      47.261  28.367  25.550  1.00  0.00     0.031 A 
ATOM     64  C   UNL A   1      48.055  27.975  27.788  1.00  0.00     0.131 A 
ATOM     65  C   UNL A   1      48.422  27.753  25.055  1.00  0.00     0.055 A 
ATOM     66  C   UNL A   1      49.251  27.450  27.289  1.00  0.00     0.041 A 
ATOM     67  F   UNL A   1      47.898  28.000  29.120  1.00  0.00    -0.206 F 
ATOM     68  C   UNL A   1      49.430  27.317  25.916  1.00  0.00     0.022 A 
BRANCH  65  69
ATOM     69  S   UNL A   1      48.508  27.370  23.284  1.00  0.00     0.124 S 
ATOM     70  O   UNL A   1      47.345  28.090  22.770  1.00  0.00    -0.237 OA
ATOM     71  O   UNL A   1      49.810  27.908  22.908  1.00  0.00    -0.237 OA
ATOM     72  O   UNL A   1      48.397  25.914  23.243  1.00  0.00    -0.744 OA
ENDBRANCH  65  69
ENDBRANCH  48  62
BRANCH  49  73
ATOM     73  C   UNL A   1      38.240  31.141  30.916  1.00  0.00     0.023 A 
ATOM     74  C   UNL A   1      37.236  31.824  30.211  1.00  0.00     0.031 A 
ATOM     75  C   UNL A   1      38.002  30.824  32.265  1.00  0.00     0.131 A 
ATOM     76  C   UNL A   1      36.052  32.195  30.868  1.00  0.00     0.055 A 
ATOM     77  C   UNL A   1      36.805  31.154  32.901  1.00  0.00     0.041 A 
ATOM     78  F   UNL A   1      38.927  30.164  32.980  1.00  0.00    -0.206 F 
ATOM     79  C   UNL A   1      35.824  31.852  32.204  1.00  0.00     0.022 A 
BRANCH  76  80
ATOM     80  S   UNL A   1      34.831  33.187  29.965  1.00  0.00     0.124 S 
ATOM     81  O   UNL A   1      35.679  34.164  29.294  1.00  0.00    -0.237 OA
ATOM     82  O   UNL A   1      34.202  32.186  29.109  1.00  0.00    -0.237 OA
ATOM     83  O   UNL A   1      33.978  33.721  31.024  1.00  0.00    -0.744 OA
ENDBRANCH  76  80
ENDBRANCH  49  73
BRANCH  61  84
ATOM     84  C   UNL A   1      44.385  34.369  30.193  1.00  0.00     0.023 A 
ATOM     85  C   UNL A   1      44.185  35.482  29.356  1.00  0.00     0.031 A 
ATOM     86  C   UNL A   1      45.055  34.572  31.413  1.00  0.00     0.131 A 
ATOM     87  C   UNL A   1      44.700  36.734  29.723  1.00  0.00     0.055 A 
ATOM     88  C   UNL A   1      45.511  35.833  31.801  1.00  0.00     0.041 A 
ATOM     89  F   UNL A   1      45.277  33.545  32.249  1.00  0.00    -0.206 F 
ATOM     90  C   UNL A   1      45.346  36.920  30.948  1.00  0.00     0.022 A 
BRANCH  87  91
ATOM     91  S   UNL A   1      44.599  38.100  28.535  1.00  0.00     0.124 S 
ATOM     92  O   UNL A   1      43.423  38.824  29.005  1.00  0.00    -0.237 OA
ATOM     93  O   UNL A   1      45.879  38.775  28.723  1.00  0.00    -0.237 OA
ATOM     94  O   UNL A   1      44.440  37.426  27.248  1.00  0.00    -0.744 OA
ENDBRANCH  87  91
ENDBRANCH  61  84
ENDBRANCH  35  36
ENDBRANCH  27  30
ENDBRANCH  25  26
ENDBRANCH  24  25
ENDBRANCH   1  24
TORSDOF 17
ENDMDL
MODEL 2
REMARK VINA RESULT:     -12.0      4.267      7.388
REMARK SMILES CCOc1cccc(-c2ccc([C@@H](C)C(=O)NCCCNC(=O)c3ccc(-c4c5nc(c(-c6cc(S(=O)(=O)[O-])ccc6F)c6ccc([nH]6)c(-c6cc(S(=O)(=O)[O-])ccc6F)c6nc(c(-c7cc(S(=O)(=O)[O-])ccc7F)c7ccc4[nH]7)C=C6)C=C5)cc3)cc2F)c1
REMARK SMILES IDX 18 1 17 2 15 3 16 4 13 6 14 7 12 8 9 9 10 10 88 11 11 12
REMARK SMILES IDX 87 13 89 14 8 15 4 16 5 17 90 18 6 19 7 20 3 21 2 22 1 23
REMARK SMILES IDX 19 24 20 25 21 26 22 27 23 29 24 30 25 31 86 32 26 33 85 34
REMARK SMILES IDX 27 35 28 36 29 37 79 38 30 39 84 40 78 41 80 42 31 43 83 44
REMARK SMILES IDX 77 45 76 46 32 48 64 49 44 50 63 51 45 52 48 53 62 54 81 55
REMARK SMILES IDX 46 56 47 57 61 59 82 60 49 61 33 62 34 63 42 64 35 65 41 66
REMARK SMILES IDX 43 67 40 68 36 69 37 70 38 71 39 72 65 73 66 74 74 75 67 76
REMARK SMILES IDX 73 77 75 78 72 79 68 80 69 81 70 82 71 83 50 84 51 85 59 86
REMARK SMILES IDX 52 87 58 88 60 89 57 90 53 91 54 92 55 93 56 94
REMARK H PARENT 17 5 21 28 80 47 48 58
REMARK Flexibility Score: inf
ROOT
ATOM      1  C   UNL A   1      42.588  19.693  26.851  1.00  0.00     0.117 C 
ENDROOT
BRANCH   1   2
ATOM      2  N   UNL A   1      43.675  20.044  25.958  1.00  0.00    -0.356 N 
ATOM      3  C   UNL A   1      44.067  21.230  25.421  1.00  0.00     0.227 C 
ATOM      4  O   UNL A   1      45.023  21.185  24.637  1.00  0.00    -0.274 OA
ATOM      5  H   UNL A   1      44.235  19.279  25.691  1.00  0.00     0.163 HD
BRANCH   3   6
ATOM      6  C   UNL A   1      43.410  22.581  25.743  1.00  0.00     0.105 C 
ATOM      7  C   UNL A   1      43.517  23.622  24.630  1.00  0.00     0.023 C 
BRANCH   6   8
ATOM      8  C   UNL A   1      43.704  23.091  27.144  1.00  0.00    -0.033 A 
ATOM      9  C   UNL A   1      44.305  24.227  29.715  1.00  0.00     0.018 A 
ATOM     10  C   UNL A   1      43.028  23.730  29.398  1.00  0.00     0.012 A 
ATOM     11  C   UNL A   1      45.280  24.086  28.713  1.00  0.00     0.131 A 
ATOM     12  C   UNL A   1      42.745  23.142  28.157  1.00  0.00     0.005 A 
ATOM     13  C   UNL A   1      44.987  23.560  27.451  1.00  0.00     0.044 A 
ATOM     14  F   UNL A   1      46.552  24.455  28.931  1.00  0.00    -0.206 F 
BRANCH   9  15
ATOM     15  C   UNL A   1      44.568  24.890  31.018  1.00  0.00    -0.012 A 
ATOM     16  C   UNL A   1      45.037  26.911  32.319  1.00  0.00     0.119 A 
ATOM     17  C   UNL A   1      44.993  26.195  33.507  1.00  0.00     0.046 A 
ATOM     18  C   UNL A   1      44.843  26.266  31.096  1.00  0.00     0.055 A 
ATOM     19  C   UNL A   1      44.729  24.829  33.467  1.00  0.00     0.004 A 
ATOM     20  C   UNL A   1      44.525  24.187  32.239  1.00  0.00     0.009 A 
BRANCH  16  21
ATOM     21  O   UNL A   1      45.392  28.231  32.360  1.00  0.00    -0.494 OA
BRANCH  21  22
ATOM     22  C   UNL A   1      44.261  29.113  32.341  1.00  0.00     0.226 C 
ATOM     23  C   UNL A   1      44.578  30.438  33.017  1.00  0.00     0.049 C 
ENDBRANCH  21  22
ENDBRANCH  16  21
ENDBRANCH   9  15
ENDBRANCH   6   8
ENDBRANCH   3   6
ENDBRANCH   1   2
BRANCH   1  24
ATOM     24  C   UNL A   1      41.219  19.951  26.228  1.00  0.00     0.042 C 
BRANCH  24  25
ATOM     25  C   UNL A   1      40.433  21.069  26.902  1.00  0.00     0.118 C 
BRANCH  25  26
ATOM     26  N   UNL A   1      39.226  21.411  26.162  1.00  0.00    -0.352 N 
ATOM     27  C   UNL A   1      38.519  22.587  26.092  1.00  0.00     0.251 C 
ATOM     28  H   UNL A   1      38.853  20.676  25.623  1.00  0.00     0.163 HD
ATOM     29  O   UNL A   1      37.396  22.567  25.595  1.00  0.00    -0.269 OA
BRANCH  27  30
ATOM     30  C   UNL A   1      39.078  23.858  26.614  1.00  0.00     0.039 A 
ATOM     31  C   UNL A   1      39.817  24.672  25.749  1.00  0.00     0.014 A 
ATOM     32  C   UNL A   1      38.935  24.228  27.953  1.00  0.00     0.014 A 
ATOM     33  C   UNL A   1      40.357  25.876  26.209  1.00  0.00     0.010 A 
ATOM     34  C   UNL A   1      39.401  25.467  28.390  1.00  0.00     0.010 A 
ATOM     35  C   UNL A   1      40.123  26.302  27.526  1.00  0.00    -0.014 A 
BRANCH  35  36
ATOM     36  C   UNL A   1      40.637  27.609  28.018  1.00  0.00     0.031 A 
ATOM     37  C   UNL A   1      42.114  27.893  28.016  1.00  0.00     0.074 A 
ATOM     38  C   UNL A   1      39.776  28.513  28.526  1.00  0.00     0.049 A 
ATOM     39  N   UNL A   1      42.760  28.934  28.478  1.00  0.00    -0.248 NA
ATOM     40  C   UNL A   1      42.982  26.850  27.451  1.00  0.00     0.031 C 
ATOM     41  C   UNL A   1      38.326  28.333  28.626  1.00  0.00     0.029 A 
ATOM     42  N   UNL A   1      39.993  29.755  29.067  1.00  0.00    -0.354 N 
ATOM     43  C   UNL A   1      44.110  28.668  28.269  1.00  0.00     0.074 A 
ATOM     44  C   UNL A   1      44.187  27.336  27.706  1.00  0.00     0.031 C 
ATOM     45  C   UNL A   1      37.783  29.430  29.175  1.00  0.00     0.029 A 
ATOM     46  C   UNL A   1      38.847  30.372  29.509  1.00  0.00     0.049 A 
ATOM     47  H   UNL A   1      40.886  30.166  29.131  1.00  0.00     0.167 HD
ATOM     48  C   UNL A   1      45.181  29.469  28.499  1.00  0.00     0.034 A 
ATOM     49  C   UNL A   1      38.671  31.555  30.132  1.00  0.00     0.034 A 
ATOM     50  C   UNL A   1      45.083  30.796  29.060  1.00  0.00     0.049 A 
ATOM     51  C   UNL A   1      39.873  32.420  30.403  1.00  0.00     0.074 A 
ATOM     52  C   UNL A   1      46.091  31.715  29.289  1.00  0.00     0.029 A 
ATOM     53  N   UNL A   1      43.903  31.391  29.493  1.00  0.00    -0.354 N 
ATOM     54  N   UNL A   1      41.139  32.177  30.150  1.00  0.00    -0.248 NA
ATOM     55  C   UNL A   1      39.622  33.723  31.032  1.00  0.00     0.031 C 
ATOM     56  C   UNL A   1      45.534  32.833  29.922  1.00  0.00     0.029 A 
ATOM     57  C   UNL A   1      44.164  32.648  30.018  1.00  0.00     0.049 A 
ATOM     58  H   UNL A   1      43.010  30.979  29.436  1.00  0.00     0.167 HD
ATOM     59  C   UNL A   1      41.834  33.308  30.572  1.00  0.00     0.074 A 
ATOM     60  C   UNL A   1      40.842  34.237  31.076  1.00  0.00     0.031 C 
ATOM     61  C   UNL A   1      43.169  33.556  30.542  1.00  0.00     0.034 A 
BRANCH  48  62
ATOM     62  C   UNL A   1      46.547  28.908  28.167  1.00  0.00     0.023 A 
ATOM     63  C   UNL A   1      47.250  28.094  29.073  1.00  0.00     0.031 A 
ATOM     64  C   UNL A   1      47.180  29.233  26.954  1.00  0.00     0.131 A 
ATOM     65  C   UNL A   1      48.574  27.717  28.801  1.00  0.00     0.055 A 
ATOM     66  C   UNL A   1      48.465  28.776  26.648  1.00  0.00     0.041 A 
ATOM     67  F   UNL A   1      46.572  30.021  26.054  1.00  0.00    -0.206 F 
ATOM     68  C   UNL A   1      49.178  28.031  27.582  1.00  0.00     0.022 A 
BRANCH  65  69
ATOM     69  S   UNL A   1      49.551  26.972  30.135  1.00  0.00     0.124 S 
ATOM     70  O   UNL A   1      48.725  27.264  31.304  1.00  0.00    -0.237 OA
ATOM     71  O   UNL A   1      49.617  25.571  29.733  1.00  0.00    -0.237 OA
ATOM     72  O   UNL A   1      50.818  27.699  30.079  1.00  0.00    -0.744 OA
ENDBRANCH  65  69
ENDBRANCH  48  62
BRANCH  49  73
ATOM     73  C   UNL A   1      37.306  31.979  30.553  1.00  0.00     0.023 A 
ATOM     74  C   UNL A   1      36.440  32.631  29.660  1.00  0.00     0.031 A 
ATOM     75  C   UNL A   1      36.851  31.746  31.863  1.00  0.00     0.131 A 
ATOM     76  C   UNL A   1      35.175  33.054  30.098  1.00  0.00     0.055 A 
ATOM     77  C   UNL A   1      35.576  32.127  32.281  1.00  0.00     0.041 A 
ATOM     78  F   UNL A   1      37.638  31.119  32.753  1.00  0.00    -0.206 F 
ATOM     79  C   UNL A   1      34.732  32.794  31.398  1.00  0.00     0.022 A 
BRANCH  76  80
ATOM     80  S   UNL A   1      34.133  34.005  28.958  1.00  0.00     0.124 S 
ATOM     81  O   UNL A   1      33.656  32.965  28.054  1.00  0.00    -0.237 OA
ATOM     82  O   UNL A   1      33.140  34.576  29.862  1.00  0.00    -0.237 OA
ATOM     83  O   UNL A   1      35.063  34.967  28.371  1.00  0.00    -0.744 OA
ENDBRANCH  76  80
ENDBRANCH  49  73
BRANCH  61  84
ATOM     84  C   UNL A   1      43.624  34.903  31.047  1.00  0.00     0.023 A 
ATOM     85  C   UNL A   1      43.667  36.032  30.208  1.00  0.00     0.031 A 
ATOM     86  C   UNL A   1      44.033  35.057  32.384  1.00  0.00     0.131 A 
ATOM     87  C   UNL A   1      44.164  37.249  30.700  1.00  0.00     0.055 A 
ATOM     88  C   UNL A   1      44.467  36.286  32.883  1.00  0.00     0.041 A 
ATOM     89  F   UNL A   1      44.015  34.013  33.228  1.00  0.00    -0.206 F 
ATOM     90  C   UNL A   1      44.547  37.388  32.036  1.00  0.00     0.022 A 
BRANCH  87  91
ATOM     91  S   UNL A   1      44.392  38.627  29.543  1.00  0.00     0.124 S 
ATOM     92  O   UNL A   1      44.719  37.930  28.303  1.00  0.00    -0.237 OA
ATOM     93  O   UNL A   1      43.090  39.285  29.579  1.00  0.00    -0.237 OA
ATOM     94  O   UNL A   1      45.489  39.392  30.132  1.00  0.00    -0.744 OA
ENDBRANCH  87  91
ENDBRANCH  61  84
ENDBRANCH  35  36
ENDBRANCH  27  30
ENDBRANCH  25  26
ENDBRANCH  24  25
ENDBRANCH   1  24
TORSDOF 17
ENDMDL
MODEL 3
REMARK VINA RESULT:     -11.8      4.865      9.951
REMARK SMILES CCOc1cccc(-c2ccc([C@@H](C)C(=O)NCCCNC(=O)c3ccc(-c4c5nc(c(-c6cc(S(=O)(=O)[O-])ccc6F)c6ccc([nH]6)c(-c6cc(S(=O)(=O)[O-])ccc6F)c6nc(c(-c7cc(S(=O)(=O)[O-])ccc7F)c7ccc4[nH]7)C=C6)C=C5)cc3)cc2F)c1
REMARK SMILES IDX 18 1 17 2 15 3 16 4 13 6 14 7 12 8 9 9 10 10 88 11 11 12
REMARK SMILES IDX 87 13 89 14 8 15 4 16 5 17 90 18 6 19 7 20 3 21 2 22 1 23
REMARK SMILES IDX 19 24 20 25 21 26 22 27 23 29 24 30 25 31 86 32 26 33 85 34
REMARK SMILES IDX 27 35 28 36 29 37 79 38 30 39 84 40 78 41 80 42 31 43 83 44
REMARK SMILES IDX 77 45 76 46 32 48 64 49 44 50 63 51 45 52 48 53 62 54 81 55
REMARK SMILES IDX 46 56 47 57 61 59 82 60 49 61 33 62 34 63 42 64 35 65 41 66
REMARK SMILES IDX 43 67 40 68 36 69 37 70 38 71 39 72 65 73 66 74 74 75 67 76
REMARK SMILES IDX 73 77 75 78 72 79 68 80 69 81 70 82 71 83 50 84 51 85 59 86
REMARK SMILES IDX 52 87 58 88 60 89 57 90 53 91 54 92 55 93 56 94
REMARK H PARENT 17 5 21 28 80 47 48 58
REMARK Flexibility Score: inf
ROOT
ATOM      1  C   UNL A   1      31.763  28.504  27.237  1.00  0.00     0.117 C 
ENDROOT
BRANCH   1   2
ATOM      2  N   UNL A   1      31.017  27.263  27.171  1.00  0.00    -0.356 N 
ATOM      3  C   UNL A   1      31.051  26.225  26.293  1.00  0.00     0.227 C 
ATOM      4  O   UNL A   1      30.233  25.318  26.487  1.00  0.00    -0.274 OA
ATOM      5  H   UNL A   1      30.364  27.150  27.899  1.00  0.00     0.163 HD
BRANCH   3   6
ATOM      6  C   UNL A   1      32.037  26.121  25.118  1.00  0.00     0.105 C 
ATOM      7  C   UNL A   1      31.549  26.759  23.819  1.00  0.00     0.023 C 
BRANCH   6   8
ATOM      8  C   UNL A   1      32.679  24.752  24.972  1.00  0.00    -0.033 A 
ATOM      9  C   UNL A   1      33.766  22.095  24.825  1.00  0.00     0.018 A 
ATOM     10  C   UNL A   1      33.230  22.745  23.700  1.00  0.00     0.012 A 
ATOM     11  C   UNL A   1      33.783  22.845  26.013  1.00  0.00     0.131 A 
ATOM     12  C   UNL A   1      32.734  24.056  23.764  1.00  0.00     0.005 A 
ATOM     13  C   UNL A   1      33.231  24.127  26.098  1.00  0.00     0.044 A 
ATOM     14  F   UNL A   1      34.340  22.354  27.132  1.00  0.00    -0.206 F 
BRANCH   9  15
ATOM     15  C   UNL A   1      34.240  20.689  24.744  1.00  0.00    -0.012 A 
ATOM     16  C   UNL A   1      33.800  18.318  24.321  1.00  0.00     0.119 A 
ATOM     17  C   UNL A   1      35.140  18.004  24.504  1.00  0.00     0.046 A 
ATOM     18  C   UNL A   1      33.357  19.635  24.453  1.00  0.00     0.055 A 
ATOM     19  C   UNL A   1      36.042  19.022  24.798  1.00  0.00     0.004 A 
ATOM     20  C   UNL A   1      35.595  20.344  24.921  1.00  0.00     0.009 A 
BRANCH  16  21
ATOM     21  O   UNL A   1      32.907  17.299  24.128  1.00  0.00    -0.494 OA
BRANCH  21  22
ATOM     22  C   UNL A   1      33.416  16.026  24.546  1.00  0.00     0.226 C 
ATOM     23  C   UNL A   1      32.537  15.402  25.619  1.00  0.00     0.049 C 
ENDBRANCH  21  22
ENDBRANCH  16  21
ENDBRANCH   9  15
ENDBRANCH   6   8
ENDBRANCH   3   6
ENDBRANCH   1   2
BRANCH   1  24
ATOM     24  C   UNL A   1      33.271  28.281  27.162  1.00  0.00     0.042 C 
BRANCH  24  25
ATOM     25  C   UNL A   1      33.998  29.266  26.255  1.00  0.00     0.118 C 
BRANCH  25  26
ATOM     26  N   UNL A   1      33.978  30.620  26.791  1.00  0.00    -0.352 N 
ATOM     27  C   UNL A   1      34.739  31.209  27.772  1.00  0.00     0.251 C 
ATOM     28  H   UNL A   1      33.305  31.212  26.383  1.00  0.00     0.163 HD
ATOM     29  O   UNL A   1      34.378  32.293  28.223  1.00  0.00    -0.269 OA
BRANCH  27  30
ATOM     30  C   UNL A   1      35.964  30.557  28.296  1.00  0.00     0.039 A 
ATOM     31  C   UNL A   1      37.173  30.761  27.623  1.00  0.00     0.014 A 
ATOM     32  C   UNL A   1      35.926  29.705  29.402  1.00  0.00     0.014 A 
ATOM     33  C   UNL A   1      38.346  30.161  28.091  1.00  0.00     0.010 A 
ATOM     34  C   UNL A   1      37.109  29.176  29.918  1.00  0.00     0.010 A 
ATOM     35  C   UNL A   1      38.331  29.391  29.265  1.00  0.00    -0.014 A 
BRANCH  35  36
ATOM     36  C   UNL A   1      39.578  28.795  29.815  1.00  0.00     0.031 A 
ATOM     37  C   UNL A   1      40.220  29.377  31.045  1.00  0.00     0.074 A 
ATOM     38  C   UNL A   1      40.166  27.769  29.168  1.00  0.00     0.049 A 
ATOM     39  N   UNL A   1      41.346  29.052  31.627  1.00  0.00    -0.248 NA
ATOM     40  C   UNL A   1      39.516  30.499  31.683  1.00  0.00     0.031 C 
ATOM     41  C   UNL A   1      39.665  27.149  27.939  1.00  0.00     0.029 A 
ATOM     42  N   UNL A   1      41.318  27.076  29.443  1.00  0.00    -0.354 N 
ATOM     43  C   UNL A   1      41.492  29.935  32.694  1.00  0.00     0.074 A 
ATOM     44  C   UNL A   1      40.373  30.852  32.628  1.00  0.00     0.031 C 
ATOM     45  C   UNL A   1      40.493  26.158  27.578  1.00  0.00     0.029 A 
ATOM     46  C   UNL A   1      41.608  26.100  28.519  1.00  0.00     0.049 A 
ATOM     47  H   UNL A   1      41.883  27.260  30.228  1.00  0.00     0.167 HD
ATOM     48  C   UNL A   1      42.453  29.960  33.651  1.00  0.00     0.034 A 
ATOM     49  C   UNL A   1      42.661  25.264  28.427  1.00  0.00     0.034 A 
ATOM     50  C   UNL A   1      43.560  29.034  33.700  1.00  0.00     0.049 A 
ATOM     51  C   UNL A   1      43.731  25.322  29.484  1.00  0.00     0.074 A 
ATOM     52  C   UNL A   1      44.561  28.933  34.649  1.00  0.00     0.029 A 
ATOM     53  N   UNL A   1      43.819  28.054  32.749  1.00  0.00    -0.354 N 
ATOM     54  N   UNL A   1      43.827  26.127  30.518  1.00  0.00    -0.248 NA
ATOM     55  C   UNL A   1      44.827  24.353  29.370  1.00  0.00     0.031 C 
ATOM     56  C   UNL A   1      45.461  27.943  34.237  1.00  0.00     0.029 A 
ATOM     57  C   UNL A   1      44.982  27.369  33.070  1.00  0.00     0.049 A 
ATOM     58  H   UNL A   1      43.259  27.873  31.959  1.00  0.00     0.167 HD
ATOM     59  C   UNL A   1      44.986  25.746  31.188  1.00  0.00     0.074 A 
ATOM     60  C   UNL A   1      45.541  24.629  30.452  1.00  0.00     0.031 C 
ATOM     61  C   UNL A   1      45.539  26.271  32.313  1.00  0.00     0.034 A 
BRANCH  48  62
ATOM     62  C   UNL A   1      42.352  31.045  34.702  1.00  0.00     0.023 A 
ATOM     63  C   UNL A   1      42.905  32.322  34.498  1.00  0.00     0.031 A 
ATOM     64  C   UNL A   1      41.745  30.786  35.944  1.00  0.00     0.131 A 
ATOM     65  C   UNL A   1      42.930  33.254  35.547  1.00  0.00     0.055 A 
ATOM     66  C   UNL A   1      41.690  31.752  36.953  1.00  0.00     0.041 A 
ATOM     67  F   UNL A   1      41.214  29.582  36.209  1.00  0.00    -0.206 F 
ATOM     68  C   UNL A   1      42.303  32.987  36.765  1.00  0.00     0.022 A 
BRANCH  65  69
ATOM     69  S   UNL A   1      43.950  34.742  35.355  1.00  0.00     0.124 S 
ATOM     70  O   UNL A   1      43.032  35.789  35.795  1.00  0.00    -0.237 OA
ATOM     71  O   UNL A   1      45.077  34.467  36.239  1.00  0.00    -0.237 OA
ATOM     72  O   UNL A   1      44.265  34.759  33.928  1.00  0.00    -0.744 OA
ENDBRANCH  65  69
ENDBRANCH  48  62
BRANCH  49  73
ATOM     73  C   UNL A   1      42.759  24.312  27.284  1.00  0.00     0.023 A 
ATOM     74  C   UNL A   1      42.161  23.043  27.341  1.00  0.00     0.031 A 
ATOM     75  C   UNL A   1      43.464  24.659  26.117  1.00  0.00     0.131 A 
ATOM     76  C   UNL A   1      42.305  22.154  26.264  1.00  0.00     0.055 A 
ATOM     77  C   UNL A   1      43.565  23.789  25.031  1.00  0.00     0.041 A 
ATOM     78  F   UNL A   1      44.046  25.864  26.009  1.00  0.00    -0.206 F 
ATOM     79  C   UNL A   1      42.991  22.524  25.104  1.00  0.00     0.022 A 
BRANCH  76  80
ATOM     80  S   UNL A   1      41.630  20.479  26.423  1.00  0.00     0.124 S 
ATOM     81  O   UNL A   1      40.213  20.703  26.162  1.00  0.00    -0.237 OA
ATOM     82  O   UNL A   1      42.367  19.757  25.391  1.00  0.00    -0.237 OA
ATOM     83  O   UNL A   1      41.962  20.108  27.797  1.00  0.00    -0.744 OA
ENDBRANCH  76  80
ENDBRANCH  49  73
BRANCH  61  84
ATOM     84  C   UNL A   1      46.798  25.615  32.824  1.00  0.00     0.023 A 
ATOM     85  C   UNL A   1      46.759  24.584  33.780  1.00  0.00     0.031 A 
ATOM     86  C   UNL A   1      48.057  26.037  32.358  1.00  0.00     0.131 A 
ATOM     87  C   UNL A   1      47.956  24.050  34.281  1.00  0.00     0.055 A 
ATOM     88  C   UNL A   1      49.242  25.458  32.815  1.00  0.00     0.041 A 
ATOM     89  F   UNL A   1      48.154  27.019  31.448  1.00  0.00    -0.206 F 
ATOM     90  C   UNL A   1      49.196  24.468  33.792  1.00  0.00     0.022 A 
BRANCH  87  91
ATOM     91  S   UNL A   1      47.875  22.866  35.653  1.00  0.00     0.124 S 
ATOM     92  O   UNL A   1      47.963  21.587  34.955  1.00  0.00    -0.237 OA
ATOM     93  O   UNL A   1      49.037  23.235  36.455  1.00  0.00    -0.237 OA
ATOM     94  O   UNL A   1      46.582  23.146  36.273  1.00  0.00    -0.744 OA
ENDBRANCH  87  91
ENDBRANCH  61  84
ENDBRANCH  35  36
ENDBRANCH  27  30
ENDBRANCH  25  26
ENDBRANCH  24  25
ENDBRANCH   1  24
TORSDOF 17
ENDMDL
