MODEL 1
REMARK VINA RESULT:     -12.2      0.000      0.000
REMARK SMILES CCCc1cc(OC(F)(F)F)cc2c1O[C@H](C(F)(F)F)C(C(=O)NCCCNC(=O)c1ccc(-c3c4nc(c(-c5cc(S(=O)(=O)[O-])ccc5F)c5ccc([nH]5)c(-c5cc(S(=O)(=O)[O-])ccc5F)c5nc(c(-c6cc(S(=O)(=O)[O-])ccc6F)c6ccc3[nH]6)C=C5)C=C4)cc1)=C2
REMARK SMILES IDX 26 1 25 2 24 3 22 4 23 5 21 7 4 8 5 9 14 10 6 11 13 12 15 13
REMARK SMILES IDX 12 14 94 15 16 16 3 17 2 18 1 19 7 20 8 21 9 22 10 23 11 24
REMARK SMILES IDX 17 25 18 26 19 27 20 28 27 29 28 30 29 31 30 33 31 34 32 35
REMARK SMILES IDX 93 36 33 37 92 38 34 39 35 40 36 41 86 42 37 43 91 44 85 45
REMARK SMILES IDX 87 46 38 47 90 48 84 49 83 50 39 52 71 53 51 54 70 55 52 56
REMARK SMILES IDX 55 57 69 58 88 59 53 60 54 61 68 63 89 64 56 65 40 66 41 67
REMARK SMILES IDX 49 68 42 69 48 70 50 71 47 72 43 73 44 74 45 75 46 76 72 77
REMARK SMILES IDX 73 78 81 79 74 80 80 81 82 82 79 83 75 84 76 85 77 86 78 87
REMARK SMILES IDX 57 88 58 89 66 90 59 91 65 92 67 93 64 94 60 95 61 96 62 97
REMARK SMILES IDX 63 98
REMARK H PARENT 24 6 28 32 87 51 55 62
REMARK Flexibility Score: inf
ROOT
ATOM      1  C   UNL A   1      34.690  21.762  26.512  1.00  0.00     0.042 C 
ENDROOT
BRANCH   1   2
ATOM      2  C   UNL A   1      33.684  21.641  25.370  1.00  0.00     0.118 C 
BRANCH   2   3
ATOM      3  N   UNL A   1      34.263  22.094  24.119  1.00  0.00    -0.352 N 
ATOM      4  C   UNL A   1      34.200  23.263  23.438  1.00  0.00     0.251 C 
ATOM      5  O   UNL A   1      34.837  23.334  22.386  1.00  0.00    -0.270 OA
ATOM      6  H   UNL A   1      34.813  21.410  23.672  1.00  0.00     0.163 HD
BRANCH   4   7
ATOM      7  C   UNL A   1      33.519  24.483  23.953  1.00  0.00     0.067 C 
ATOM      8  C   UNL A   1      31.778  28.275  24.422  1.00  0.00    -0.002 A 
ATOM      9  C   UNL A   1      32.151  29.065  25.526  1.00  0.00     0.054 A 
ATOM     10  C   UNL A   1      32.316  26.985  24.299  1.00  0.00     0.131 A 
ATOM     11  C   UNL A   1      33.037  28.576  26.489  1.00  0.00     0.130 A 
ATOM     12  C   UNL A   1      33.216  26.493  25.246  1.00  0.00     0.021 A 
ATOM     13  O   UNL A   1      31.978  26.275  23.183  1.00  0.00    -0.475 OA
ATOM     14  C   UNL A   1      33.568  27.291  26.338  1.00  0.00     0.058 A 
ATOM     15  C   UNL A   1      33.879  25.213  25.019  1.00  0.00     0.025 C 
ATOM     16  C   UNL A   1      32.277  24.858  23.163  1.00  0.00     0.314 C 
BRANCH   8  17
ATOM     17  C   UNL A   1      30.806  28.818  23.397  1.00  0.00     0.039 C 
BRANCH  17  18
ATOM     18  C   UNL A   1      29.959  30.008  23.864  1.00  0.00     0.001 C 
ATOM     19  C   UNL A   1      28.652  30.201  23.106  1.00  0.00     0.004 C 
ENDBRANCH  17  18
ENDBRANCH   8  17
BRANCH  11  20
ATOM     20  O   UNL A   1      33.488  29.237  27.595  1.00  0.00    -0.406 OA
BRANCH  20  21
ATOM     21  C   UNL A   1      34.712  29.944  27.498  1.00  0.00     0.573 C 
ATOM     22  F   UNL A   1      34.498  31.242  27.189  1.00  0.00    -0.132 F 
ATOM     23  F   UNL A   1      35.416  29.866  28.647  1.00  0.00    -0.132 F 
ATOM     24  F   UNL A   1      35.453  29.398  26.509  1.00  0.00    -0.132 F 
ENDBRANCH  20  21
ENDBRANCH  11  20
BRANCH  16  25
ATOM     25  C   UNL A   1      31.029  24.064  23.599  1.00  0.00     0.429 C 
ATOM     26  F   UNL A   1      29.878  24.696  23.266  1.00  0.00    -0.167 F 
ATOM     27  F   UNL A   1      30.995  22.846  22.995  1.00  0.00    -0.167 F 
ATOM     28  F   UNL A   1      30.990  23.826  24.928  1.00  0.00    -0.167 F 
ENDBRANCH  16  25
ENDBRANCH   4   7
ENDBRANCH   2   3
ENDBRANCH   1   2
BRANCH   1  29
ATOM     29  C   UNL A   1      36.034  22.324  26.055  1.00  0.00     0.118 C 
BRANCH  29  30
ATOM     30  N   UNL A   1      37.032  21.271  25.907  1.00  0.00    -0.352 N 
ATOM     31  C   UNL A   1      38.403  21.353  25.920  1.00  0.00     0.251 C 
ATOM     32  H   UNL A   1      36.668  20.366  25.777  1.00  0.00     0.163 HD
ATOM     33  O   UNL A   1      39.066  20.412  25.496  1.00  0.00    -0.269 OA
BRANCH  31  34
ATOM     34  C   UNL A   1      39.067  22.571  26.429  1.00  0.00     0.039 A 
ATOM     35  C   UNL A   1      40.144  22.443  27.309  1.00  0.00     0.014 A 
ATOM     36  C   UNL A   1      38.615  23.838  26.050  1.00  0.00     0.014 A 
ATOM     37  C   UNL A   1      40.819  23.585  27.745  1.00  0.00     0.010 A 
ATOM     38  C   UNL A   1      39.332  24.969  26.428  1.00  0.00     0.010 A 
ATOM     39  C   UNL A   1      40.447  24.853  27.271  1.00  0.00    -0.014 A 
BRANCH  39  40
ATOM     40  C   UNL A   1      41.223  26.071  27.615  1.00  0.00     0.031 A 
ATOM     41  C   UNL A   1      40.594  27.164  28.431  1.00  0.00     0.074 A 
ATOM     42  C   UNL A   1      42.465  26.225  27.116  1.00  0.00     0.049 A 
ATOM     43  N   UNL A   1      41.067  28.345  28.740  1.00  0.00    -0.248 NA
ATOM     44  C   UNL A   1      39.242  26.901  28.943  1.00  0.00     0.031 C 
ATOM     45  C   UNL A   1      43.171  25.240  26.294  1.00  0.00     0.029 A 
ATOM     46  N   UNL A   1      43.349  27.268  27.217  1.00  0.00    -0.354 N 
ATOM     47  C   UNL A   1      40.068  28.969  29.479  1.00  0.00     0.074 A 
ATOM     48  C   UNL A   1      38.941  28.060  29.506  1.00  0.00     0.031 C 
ATOM     49  C   UNL A   1      44.390  25.714  25.992  1.00  0.00     0.029 A 
ATOM     50  C   UNL A   1      44.531  27.057  26.545  1.00  0.00     0.049 A 
ATOM     51  H   UNL A   1      43.157  28.091  27.723  1.00  0.00     0.167 HD
ATOM     52  C   UNL A   1      40.099  30.177  30.097  1.00  0.00     0.034 A 
ATOM     53  C   UNL A   1      45.598  27.862  26.379  1.00  0.00     0.034 A 
ATOM     54  C   UNL A   1      41.229  31.074  30.043  1.00  0.00     0.049 A 
ATOM     55  C   UNL A   1      45.576  29.237  26.993  1.00  0.00     0.074 A 
ATOM     56  C   UNL A   1      41.389  32.303  30.660  1.00  0.00     0.029 A 
ATOM     57  N   UNL A   1      42.392  30.846  29.313  1.00  0.00    -0.354 N 
ATOM     58  N   UNL A   1      44.641  29.801  27.724  1.00  0.00    -0.248 NA
ATOM     59  C   UNL A   1      46.751  30.085  26.758  1.00  0.00     0.031 C 
ATOM     60  C   UNL A   1      42.605  32.852  30.239  1.00  0.00     0.029 A 
ATOM     61  C   UNL A   1      43.249  31.931  29.428  1.00  0.00     0.049 A 
ATOM     62  H   UNL A   1      42.578  30.033  28.791  1.00  0.00     0.167 HD
ATOM     63  C   UNL A   1      45.132  31.058  28.062  1.00  0.00     0.074 A 
ATOM     64  C   UNL A   1      46.447  31.164  27.463  1.00  0.00     0.031 C 
ATOM     65  C   UNL A   1      44.551  32.033  28.808  1.00  0.00     0.034 A 
BRANCH  52  66
ATOM     66  C   UNL A   1      38.857  30.598  30.849  1.00  0.00     0.023 A 
ATOM     67  C   UNL A   1      37.872  31.404  30.248  1.00  0.00     0.031 A 
ATOM     68  C   UNL A   1      38.680  30.248  32.199  1.00  0.00     0.131 A 
ATOM     69  C   UNL A   1      36.820  31.919  31.018  1.00  0.00     0.055 A 
ATOM     70  C   UNL A   1      37.574  30.682  32.934  1.00  0.00     0.041 A 
ATOM     71  F   UNL A   1      39.591  29.498  32.837  1.00  0.00    -0.206 F 
ATOM     72  C   UNL A   1      36.647  31.542  32.351  1.00  0.00     0.022 A 
BRANCH  69  73
ATOM     73  S   UNL A   1      35.798  33.238  30.307  1.00  0.00     0.124 S 
ATOM     74  O   UNL A   1      36.605  33.649  29.160  1.00  0.00    -0.237 OA
ATOM     75  O   UNL A   1      34.555  32.543  29.997  1.00  0.00    -0.237 OA
ATOM     76  O   UNL A   1      35.713  34.225  31.382  1.00  0.00    -0.744 OA
ENDBRANCH  69  73
ENDBRANCH  52  66
BRANCH  53  77
ATOM     77  C   UNL A   1      46.777  27.394  25.597  1.00  0.00     0.023 A 
ATOM     78  C   UNL A   1      46.966  27.813  24.271  1.00  0.00     0.031 A 
ATOM     79  C   UNL A   1      47.720  26.510  26.150  1.00  0.00     0.131 A 
ATOM     80  C   UNL A   1      48.049  27.320  23.528  1.00  0.00     0.055 A 
ATOM     81  C   UNL A   1      48.825  26.063  25.425  1.00  0.00     0.041 A 
ATOM     82  F   UNL A   1      47.589  26.082  27.417  1.00  0.00    -0.206 F 
ATOM     83  C   UNL A   1      48.989  26.460  24.101  1.00  0.00     0.022 A 
BRANCH  80  84
ATOM     84  S   UNL A   1      48.172  27.766  21.776  1.00  0.00     0.124 S 
ATOM     85  O   UNL A   1      46.892  28.427  21.548  1.00  0.00    -0.237 OA
ATOM     86  O   UNL A   1      49.352  28.624  21.763  1.00  0.00    -0.237 OA
ATOM     87  O   UNL A   1      48.336  26.476  21.108  1.00  0.00    -0.744 OA
ENDBRANCH  80  84
ENDBRANCH  53  77
BRANCH  65  88
ATOM     88  C   UNL A   1      45.357  33.288  29.045  1.00  0.00     0.023 A 
ATOM     89  C   UNL A   1      45.310  34.378  28.159  1.00  0.00     0.031 A 
ATOM     90  C   UNL A   1      46.184  33.391  30.179  1.00  0.00     0.131 A 
ATOM     91  C   UNL A   1      46.112  35.505  28.395  1.00  0.00     0.055 A 
ATOM     92  C   UNL A   1      46.932  34.540  30.442  1.00  0.00     0.041 A 
ATOM     93  F   UNL A   1      46.272  32.379  31.056  1.00  0.00    -0.206 F 
ATOM     94  C   UNL A   1      46.907  35.601  29.541  1.00  0.00     0.022 A 
BRANCH  91  95
ATOM     95  S   UNL A   1      46.167  36.816  27.143  1.00  0.00     0.124 S 
ATOM     96  O   UNL A   1      46.723  36.110  25.992  1.00  0.00    -0.237 OA
ATOM     97  O   UNL A   1      44.765  37.205  27.034  1.00  0.00    -0.237 OA
ATOM     98  O   UNL A   1      47.044  37.822  27.736  1.00  0.00    -0.744 OA
ENDBRANCH  91  95
ENDBRANCH  65  88
ENDBRANCH  39  40
ENDBRANCH  31  34
ENDBRANCH  29  30
ENDBRANCH   1  29
TORSDOF 18
ENDMDL
MODEL 2
REMARK VINA RESULT:     -12.0      5.252     10.327
REMARK SMILES CCCc1cc(OC(F)(F)F)cc2c1O[C@H](C(F)(F)F)C(C(=O)NCCCNC(=O)c1ccc(-c3c4nc(c(-c5cc(S(=O)(=O)[O-])ccc5F)c5ccc([nH]5)c(-c5cc(S(=O)(=O)[O-])ccc5F)c5nc(c(-c6cc(S(=O)(=O)[O-])ccc6F)c6ccc3[nH]6)C=C5)C=C4)cc1)=C2
REMARK SMILES IDX 26 1 25 2 24 3 22 4 23 5 21 7 4 8 5 9 14 10 6 11 13 12 15 13
REMARK SMILES IDX 12 14 94 15 16 16 3 17 2 18 1 19 7 20 8 21 9 22 10 23 11 24
REMARK SMILES IDX 17 25 18 26 19 27 20 28 27 29 28 30 29 31 30 33 31 34 32 35
REMARK SMILES IDX 93 36 33 37 92 38 34 39 35 40 36 41 86 42 37 43 91 44 85 45
REMARK SMILES IDX 87 46 38 47 90 48 84 49 83 50 39 52 71 53 51 54 70 55 52 56
REMARK SMILES IDX 55 57 69 58 88 59 53 60 54 61 68 63 89 64 56 65 40 66 41 67
REMARK SMILES IDX 49 68 42 69 48 70 50 71 47 72 43 73 44 74 45 75 46 76 72 77
REMARK SMILES IDX 73 78 81 79 74 80 80 81 82 82 79 83 75 84 76 85 77 86 78 87
REMARK SMILES IDX 57 88 58 89 66 90 59 91 65 92 67 93 64 94 60 95 61 96 62 97
REMARK SMILES IDX 63 98
REMARK H PARENT 24 6 28 32 87 51 55 62
REMARK Flexibility Score: inf
ROOT
ATOM      1  C   UNL A   1      31.656  28.808  26.316  1.00  0.00     0.042 C 
ENDROOT
BRANCH   1   2
ATOM      2  C   UNL A   1      31.952  27.329  26.079  1.00  0.00     0.118 C 
BRANCH   2   3
ATOM      3  N   UNL A   1      30.834  26.503  26.497  1.00  0.00    -0.352 N 
ATOM      4  C   UNL A   1      30.571  25.179  26.392  1.00  0.00     0.251 C 
ATOM      5  O   UNL A   1      29.512  24.778  26.878  1.00  0.00    -0.270 OA
ATOM      6  H   UNL A   1      30.120  27.010  26.948  1.00  0.00     0.163 HD
BRANCH   4   7
ATOM      7  C   UNL A   1      31.536  24.186  25.846  1.00  0.00     0.067 C 
ATOM      8  C   UNL A   1      33.528  20.692  24.638  1.00  0.00    -0.002 A 
ATOM      9  C   UNL A   1      34.876  20.514  25.002  1.00  0.00     0.054 A 
ATOM     10  C   UNL A   1      32.881  21.886  24.991  1.00  0.00     0.131 A 
ATOM     11  C   UNL A   1      35.565  21.509  25.700  1.00  0.00     0.130 A 
ATOM     12  C   UNL A   1      33.555  22.879  25.704  1.00  0.00     0.021 A 
ATOM     13  O   UNL A   1      31.557  21.993  24.674  1.00  0.00    -0.475 OA
ATOM     14  C   UNL A   1      34.895  22.686  26.050  1.00  0.00     0.058 A 
ATOM     15  C   UNL A   1      32.823  24.043  26.193  1.00  0.00     0.025 C 
ATOM     16  C   UNL A   1      30.942  23.301  24.763  1.00  0.00     0.314 C 
BRANCH   8  17
ATOM     17  C   UNL A   1      32.803  19.608  23.870  1.00  0.00     0.039 C 
BRANCH  17  18
ATOM     18  C   UNL A   1      33.161  18.170  24.269  1.00  0.00     0.001 C 
ATOM     19  C   UNL A   1      33.466  17.240  23.103  1.00  0.00     0.004 C 
ENDBRANCH  17  18
ENDBRANCH   8  17
BRANCH  11  20
ATOM     20  O   UNL A   1      36.862  21.462  26.123  1.00  0.00    -0.406 OA
BRANCH  20  21
ATOM     21  C   UNL A   1      37.878  21.318  25.145  1.00  0.00     0.573 C 
ATOM     22  F   UNL A   1      39.008  21.957  25.523  1.00  0.00    -0.132 F 
ATOM     23  F   UNL A   1      38.154  20.017  24.913  1.00  0.00    -0.132 F 
ATOM     24  F   UNL A   1      37.452  21.874  23.990  1.00  0.00    -0.132 F 
ENDBRANCH  20  21
ENDBRANCH  11  20
BRANCH  16  25
ATOM     25  C   UNL A   1      30.952  23.969  23.373  1.00  0.00     0.429 C 
ATOM     26  F   UNL A   1      31.527  25.196  23.400  1.00  0.00    -0.167 F 
ATOM     27  F   UNL A   1      31.662  23.225  22.484  1.00  0.00    -0.167 F 
ATOM     28  F   UNL A   1      29.718  24.113  22.844  1.00  0.00    -0.167 F 
ENDBRANCH  16  25
ENDBRANCH   4   7
ENDBRANCH   2   3
ENDBRANCH   1   2
BRANCH   1  29
ATOM     29  C   UNL A   1      32.831  29.711  25.945  1.00  0.00     0.118 C 
BRANCH  29  30
ATOM     30  N   UNL A   1      32.571  31.100  26.302  1.00  0.00    -0.352 N 
ATOM     31  C   UNL A   1      33.182  31.893  27.243  1.00  0.00     0.251 C 
ATOM     32  H   UNL A   1      31.849  31.535  25.793  1.00  0.00     0.163 HD
ATOM     33  O   UNL A   1      32.639  32.936  27.595  1.00  0.00    -0.269 OA
BRANCH  31  34
ATOM     34  C   UNL A   1      34.474  31.482  27.831  1.00  0.00     0.039 A 
ATOM     35  C   UNL A   1      35.468  32.443  28.031  1.00  0.00     0.014 A 
ATOM     36  C   UNL A   1      34.708  30.146  28.170  1.00  0.00     0.014 A 
ATOM     37  C   UNL A   1      36.668  32.077  28.645  1.00  0.00     0.010 A 
ATOM     38  C   UNL A   1      35.873  29.798  28.845  1.00  0.00     0.010 A 
ATOM     39  C   UNL A   1      36.861  30.762  29.098  1.00  0.00    -0.014 A 
BRANCH  39  40
ATOM     40  C   UNL A   1      38.070  30.373  29.867  1.00  0.00     0.031 A 
ATOM     41  C   UNL A   1      39.061  29.407  29.282  1.00  0.00     0.074 A 
ATOM     42  C   UNL A   1      38.226  30.827  31.126  1.00  0.00     0.049 A 
ATOM     43  N   UNL A   1      40.114  28.863  29.836  1.00  0.00    -0.248 NA
ATOM     44  C   UNL A   1      38.814  28.978  27.899  1.00  0.00     0.031 C 
ATOM     45  C   UNL A   1      37.319  31.753  31.807  1.00  0.00     0.029 A 
ATOM     46  N   UNL A   1      39.195  30.565  32.060  1.00  0.00    -0.354 N 
ATOM     47  C   UNL A   1      40.654  28.021  28.871  1.00  0.00     0.074 A 
ATOM     48  C   UNL A   1      39.768  28.076  27.727  1.00  0.00     0.031 C 
ATOM     49  C   UNL A   1      37.792  32.005  33.037  1.00  0.00     0.029 A 
ATOM     50  C   UNL A   1      38.998  31.214  33.257  1.00  0.00     0.049 A 
ATOM     51  H   UNL A   1      39.960  29.969  31.890  1.00  0.00     0.167 HD
ATOM     52  C   UNL A   1      41.797  27.289  28.926  1.00  0.00     0.034 A 
ATOM     53  C   UNL A   1      39.700  31.164  34.405  1.00  0.00     0.034 A 
ATOM     54  C   UNL A   1      42.657  27.237  30.084  1.00  0.00     0.049 A 
ATOM     55  C   UNL A   1      40.912  30.273  34.479  1.00  0.00     0.074 A 
ATOM     56  C   UNL A   1      43.855  26.563  30.242  1.00  0.00     0.029 A 
ATOM     57  N   UNL A   1      42.400  27.872  31.296  1.00  0.00    -0.354 N 
ATOM     58  N   UNL A   1      41.437  29.512  33.545  1.00  0.00    -0.248 NA
ATOM     59  C   UNL A   1      41.625  30.232  35.761  1.00  0.00     0.031 C 
ATOM     60  C   UNL A   1      44.279  26.721  31.567  1.00  0.00     0.029 A 
ATOM     61  C   UNL A   1      43.392  27.566  32.216  1.00  0.00     0.049 A 
ATOM     62  H   UNL A   1      41.626  28.452  31.474  1.00  0.00     0.167 HD
ATOM     63  C   UNL A   1      42.561  28.928  34.121  1.00  0.00     0.074 A 
ATOM     64  C   UNL A   1      42.642  29.431  35.476  1.00  0.00     0.031 C 
ATOM     65  C   UNL A   1      43.451  28.059  33.574  1.00  0.00     0.034 A 
BRANCH  52  66
ATOM     66  C   UNL A   1      42.148  26.467  27.707  1.00  0.00     0.023 A 
ATOM     67  C   UNL A   1      41.906  25.082  27.661  1.00  0.00     0.031 A 
ATOM     68  C   UNL A   1      42.789  27.055  26.602  1.00  0.00     0.131 A 
ATOM     69  C   UNL A   1      42.396  24.318  26.592  1.00  0.00     0.055 A 
ATOM     70  C   UNL A   1      43.184  26.304  25.493  1.00  0.00     0.041 A 
ATOM     71  F   UNL A   1      43.066  28.368  26.591  1.00  0.00    -0.206 F 
ATOM     72  C   UNL A   1      43.009  24.923  25.493  1.00  0.00     0.022 A 
BRANCH  69  73
ATOM     73  S   UNL A   1      42.394  22.511  26.752  1.00  0.00     0.124 S 
ATOM     74  O   UNL A   1      43.717  22.265  27.321  1.00  0.00    -0.237 OA
ATOM     75  O   UNL A   1      41.262  22.274  27.640  1.00  0.00    -0.237 OA
ATOM     76  O   UNL A   1      42.220  22.045  25.377  1.00  0.00    -0.744 OA
ENDBRANCH  69  73
ENDBRANCH  52  66
BRANCH  53  77
ATOM     77  C   UNL A   1      39.278  31.977  35.580  1.00  0.00     0.023 A 
ATOM     78  C   UNL A   1      38.529  31.399  36.616  1.00  0.00     0.031 A 
ATOM     79  C   UNL A   1      39.597  33.344  35.679  1.00  0.00     0.131 A 
ATOM     80  C   UNL A   1      38.090  32.190  37.688  1.00  0.00     0.055 A 
ATOM     81  C   UNL A   1      39.202  34.115  36.773  1.00  0.00     0.041 A 
ATOM     82  F   UNL A   1      40.316  33.945  34.717  1.00  0.00    -0.206 F 
ATOM     83  C   UNL A   1      38.434  33.540  37.782  1.00  0.00     0.022 A 
BRANCH  80  84
ATOM     84  S   UNL A   1      36.998  31.441  38.926  1.00  0.00     0.124 S 
ATOM     85  O   UNL A   1      37.810  31.536  40.134  1.00  0.00    -0.237 OA
ATOM     86  O   UNL A   1      35.829  32.311  38.866  1.00  0.00    -0.237 OA
ATOM     87  O   UNL A   1      36.790  30.085  38.419  1.00  0.00    -0.744 OA
ENDBRANCH  80  84
ENDBRANCH  53  77
BRANCH  65  88
ATOM     88  C   UNL A   1      44.611  27.629  34.439  1.00  0.00     0.023 A 
ATOM     89  C   UNL A   1      44.523  26.520  35.299  1.00  0.00     0.031 A 
ATOM     90  C   UNL A   1      45.823  28.343  34.400  1.00  0.00     0.131 A 
ATOM     91  C   UNL A   1      45.611  26.185  36.119  1.00  0.00     0.055 A 
ATOM     92  C   UNL A   1      46.923  27.967  35.173  1.00  0.00     0.041 A 
ATOM     93  F   UNL A   1      45.961  29.413  33.602  1.00  0.00    -0.206 F 
ATOM     94  C   UNL A   1      46.816  26.889  36.047  1.00  0.00     0.022 A 
BRANCH  91  95
ATOM     95  S   UNL A   1      45.406  24.864  37.345  1.00  0.00     0.124 S 
ATOM     96  O   UNL A   1      43.975  24.932  37.625  1.00  0.00    -0.237 OA
ATOM     97  O   UNL A   1      45.856  23.685  36.614  1.00  0.00    -0.237 OA
ATOM     98  O   UNL A   1      46.273  25.279  38.446  1.00  0.00    -0.744 OA
ENDBRANCH  91  95
ENDBRANCH  65  88
ENDBRANCH  39  40
ENDBRANCH  31  34
ENDBRANCH  29  30
ENDBRANCH   1  29
TORSDOF 18
ENDMDL
MODEL 3
REMARK VINA RESULT:     -11.9      1.313      7.403
REMARK SMILES CCCc1cc(OC(F)(F)F)cc2c1O[C@H](C(F)(F)F)C(C(=O)NCCCNC(=O)c1ccc(-c3c4nc(c(-c5cc(S(=O)(=O)[O-])ccc5F)c5ccc([nH]5)c(-c5cc(S(=O)(=O)[O-])ccc5F)c5nc(c(-c6cc(S(=O)(=O)[O-])ccc6F)c6ccc3[nH]6)C=C5)C=C4)cc1)=C2
REMARK SMILES IDX 26 1 25 2 24 3 22 4 23 5 21 7 4 8 5 9 14 10 6 11 13 12 15 13
REMARK SMILES IDX 12 14 94 15 16 16 3 17 2 18 1 19 7 20 8 21 9 22 10 23 11 24
REMARK SMILES IDX 17 25 18 26 19 27 20 28 27 29 28 30 29 31 30 33 31 34 32 35
REMARK SMILES IDX 93 36 33 37 92 38 34 39 35 40 36 41 86 42 37 43 91 44 85 45
REMARK SMILES IDX 87 46 38 47 90 48 84 49 83 50 39 52 71 53 51 54 70 55 52 56
REMARK SMILES IDX 55 57 69 58 88 59 53 60 54 61 68 63 89 64 56 65 40 66 41 67
REMARK SMILES IDX 49 68 42 69 48 70 50 71 47 72 43 73 44 74 45 75 46 76 72 77
REMARK SMILES IDX 73 78 81 79 74 80 80 81 82 82 79 83 75 84 76 85 77 86 78 87
REMARK SMILES IDX 57 88 58 89 66 90 59 91 65 92 67 93 64 94 60 95 61 96 62 97
REMARK SMILES IDX 63 98
REMARK H PARENT 24 6 28 32 87 51 55 62
REMARK Flexibility Score: inf
ROOT
ATOM      1  C   UNL A   1      36.950  22.398  23.916  1.00  0.00     0.042 C 
ENDROOT
BRANCH   1   2
ATOM      2  C   UNL A   1      35.630  23.021  23.470  1.00  0.00     0.118 C 
BRANCH   2   3
ATOM      3  N   UNL A   1      34.508  22.396  24.146  1.00  0.00    -0.352 N 
ATOM      4  C   UNL A   1      33.415  22.889  24.776  1.00  0.00     0.251 C 
ATOM      5  O   UNL A   1      32.621  22.071  25.243  1.00  0.00    -0.270 OA
ATOM      6  H   UNL A   1      34.551  21.412  24.149  1.00  0.00     0.163 HD
BRANCH   4   7
ATOM      7  C   UNL A   1      33.068  24.336  24.818  1.00  0.00     0.067 C 
ATOM      8  C   UNL A   1      32.627  28.436  24.022  1.00  0.00    -0.002 A 
ATOM      9  C   UNL A   1      32.939  29.364  25.033  1.00  0.00     0.054 A 
ATOM     10  C   UNL A   1      32.718  27.065  24.309  1.00  0.00     0.131 A 
ATOM     11  C   UNL A   1      33.328  28.934  26.305  1.00  0.00     0.130 A 
ATOM     12  C   UNL A   1      33.123  26.624  25.570  1.00  0.00     0.021 A 
ATOM     13  O   UNL A   1      32.468  26.199  23.283  1.00  0.00    -0.475 OA
ATOM     14  C   UNL A   1      33.422  27.562  26.562  1.00  0.00     0.058 A 
ATOM     15  C   UNL A   1      33.358  25.202  25.799  1.00  0.00     0.025 C 
ATOM     16  C   UNL A   1      32.273  24.800  23.609  1.00  0.00     0.314 C 
BRANCH   8  17
ATOM     17  C   UNL A   1      32.194  28.922  22.656  1.00  0.00     0.039 C 
BRANCH  17  18
ATOM     18  C   UNL A   1      30.752  29.436  22.570  1.00  0.00     0.001 C 
ATOM     19  C   UNL A   1      29.733  28.616  23.351  1.00  0.00     0.004 C 
ENDBRANCH  17  18
ENDBRANCH   8  17
BRANCH  11  20
ATOM     20  O   UNL A   1      33.667  29.722  27.366  1.00  0.00    -0.406 OA
BRANCH  20  21
ATOM     21  C   UNL A   1      35.041  29.992  27.585  1.00  0.00     0.573 C 
ATOM     22  F   UNL A   1      35.326  31.289  27.335  1.00  0.00    -0.132 F 
ATOM     23  F   UNL A   1      35.404  29.689  28.850  1.00  0.00    -0.132 F 
ATOM     24  F   UNL A   1      35.774  29.234  26.741  1.00  0.00    -0.132 F 
ENDBRANCH  20  21
ENDBRANCH  11  20
BRANCH  16  25
ATOM     25  C   UNL A   1      30.764  24.508  23.738  1.00  0.00     0.429 C 
ATOM     26  F   UNL A   1      30.408  23.368  23.099  1.00  0.00    -0.167 F 
ATOM     27  F   UNL A   1      30.411  24.353  25.042  1.00  0.00    -0.167 F 
ATOM     28  F   UNL A   1      29.989  25.502  23.254  1.00  0.00    -0.167 F 
ENDBRANCH  16  25
ENDBRANCH   4   7
ENDBRANCH   2   3
ENDBRANCH   1   2
BRANCH   1  29
ATOM     29  C   UNL A   1      37.106  22.371  25.436  1.00  0.00     0.118 C 
BRANCH  29  30
ATOM     30  N   UNL A   1      38.120  21.410  25.852  1.00  0.00    -0.352 N 
ATOM     31  C   UNL A   1      39.386  21.626  26.338  1.00  0.00     0.251 C 
ATOM     32  H   UNL A   1      37.858  20.465  25.773  1.00  0.00     0.163 HD
ATOM     33  O   UNL A   1      40.188  20.698  26.363  1.00  0.00    -0.269 OA
BRANCH  31  34
ATOM     34  C   UNL A   1      39.777  22.970  26.814  1.00  0.00     0.039 A 
ATOM     35  C   UNL A   1      40.709  23.082  27.849  1.00  0.00     0.014 A 
ATOM     36  C   UNL A   1      39.212  24.117  26.249  1.00  0.00     0.014 A 
ATOM     37  C   UNL A   1      41.133  24.348  28.262  1.00  0.00     0.010 A 
ATOM     38  C   UNL A   1      39.688  25.372  26.611  1.00  0.00     0.010 A 
ATOM     39  C   UNL A   1      40.660  25.500  27.614  1.00  0.00    -0.014 A 
BRANCH  39  40
ATOM     40  C   UNL A   1      41.187  26.849  27.943  1.00  0.00     0.031 A 
ATOM     41  C   UNL A   1      42.619  27.194  27.650  1.00  0.00     0.074 A 
ATOM     42  C   UNL A   1      40.393  27.729  28.583  1.00  0.00     0.049 A 
ATOM     43  N   UNL A   1      43.292  28.273  27.960  1.00  0.00    -0.248 NA
ATOM     44  C   UNL A   1      43.403  26.176  26.937  1.00  0.00     0.031 C 
ATOM     45  C   UNL A   1      38.992  27.498  28.939  1.00  0.00     0.029 A 
ATOM     46  N   UNL A   1      40.652  28.989  29.058  1.00  0.00    -0.354 N 
ATOM     47  C   UNL A   1      44.582  28.062  27.485  1.00  0.00     0.074 A 
ATOM     48  C   UNL A   1      44.608  26.724  26.932  1.00  0.00     0.031 C 
ATOM     49  C   UNL A   1      38.507  28.591  29.547  1.00  0.00     0.029 A 
ATOM     50  C   UNL A   1      39.575  29.576  29.681  1.00  0.00     0.049 A 
ATOM     51  H   UNL A   1      41.526  29.432  28.963  1.00  0.00     0.167 HD
ATOM     52  C   UNL A   1      45.637  28.916  27.489  1.00  0.00     0.034 A 
ATOM     53  C   UNL A   1      39.466  30.765  30.303  1.00  0.00     0.034 A 
ATOM     54  C   UNL A   1      45.592  30.241  28.060  1.00  0.00     0.049 A 
ATOM     55  C   UNL A   1      40.676  31.661  30.380  1.00  0.00     0.074 A 
ATOM     56  C   UNL A   1      46.584  31.205  28.088  1.00  0.00     0.029 A 
ATOM     57  N   UNL A   1      44.496  30.784  28.724  1.00  0.00    -0.354 N 
ATOM     58  N   UNL A   1      41.880  31.467  29.891  1.00  0.00    -0.248 NA
ATOM     59  C   UNL A   1      40.512  32.932  31.094  1.00  0.00     0.031 C 
ATOM     60  C   UNL A   1      46.120  32.294  28.836  1.00  0.00     0.029 A 
ATOM     61  C   UNL A   1      44.806  32.048  29.203  1.00  0.00     0.049 A 
ATOM     62  H   UNL A   1      43.628  30.336  28.838  1.00  0.00     0.167 HD
ATOM     63  C   UNL A   1      42.606  32.610  30.213  1.00  0.00     0.074 A 
ATOM     64  C   UNL A   1      41.703  33.487  30.928  1.00  0.00     0.031 C 
ATOM     65  C   UNL A   1      43.902  32.908  29.934  1.00  0.00     0.034 A 
BRANCH  52  66
ATOM     66  C   UNL A   1      46.930  28.415  26.884  1.00  0.00     0.023 A 
ATOM     67  C   UNL A   1      47.147  28.438  25.495  1.00  0.00     0.031 A 
ATOM     68  C   UNL A   1      47.931  27.851  27.694  1.00  0.00     0.131 A 
ATOM     69  C   UNL A   1      48.279  27.813  24.951  1.00  0.00     0.055 A 
ATOM     70  C   UNL A   1      49.105  27.320  27.152  1.00  0.00     0.041 A 
ATOM     71  F   UNL A   1      47.777  27.781  29.025  1.00  0.00    -0.206 F 
ATOM     72  C   UNL A   1      49.273  27.278  25.770  1.00  0.00     0.022 A 
BRANCH  69  73
ATOM     73  S   UNL A   1      48.332  27.539  23.158  1.00  0.00     0.124 S 
ATOM     74  O   UNL A   1      48.262  26.081  23.082  1.00  0.00    -0.237 OA
ATOM     75  O   UNL A   1      47.154  28.260  22.693  1.00  0.00    -0.237 OA
ATOM     76  O   UNL A   1      49.617  28.112  22.761  1.00  0.00    -0.744 OA
ENDBRANCH  69  73
ENDBRANCH  52  66
BRANCH  53  77
ATOM     77  C   UNL A   1      38.169  31.182  30.907  1.00  0.00     0.023 A 
ATOM     78  C   UNL A   1      37.281  32.001  30.192  1.00  0.00     0.031 A 
ATOM     79  C   UNL A   1      37.805  30.790  32.207  1.00  0.00     0.131 A 
ATOM     80  C   UNL A   1      36.089  32.433  30.795  1.00  0.00     0.055 A 
ATOM     81  C   UNL A   1      36.595  31.179  32.783  1.00  0.00     0.041 A 
ATOM     82  F   UNL A   1      38.617  30.003  32.932  1.00  0.00    -0.206 F 
ATOM     83  C   UNL A   1      35.732  32.015  32.079  1.00  0.00     0.022 A 
BRANCH  80  84
ATOM     84  S   UNL A   1      35.044  33.610  29.897  1.00  0.00     0.124 S 
ATOM     85  O   UNL A   1      33.916  32.770  29.511  1.00  0.00    -0.237 OA
ATOM     86  O   UNL A   1      34.776  34.618  30.918  1.00  0.00    -0.237 OA
ATOM     87  O   UNL A   1      35.899  34.054  28.797  1.00  0.00    -0.744 OA
ENDBRANCH  80  84
ENDBRANCH  53  77
BRANCH  65  88
ATOM     88  C   UNL A   1      44.404  34.261  30.376  1.00  0.00     0.023 A 
ATOM     89  C   UNL A   1      44.223  35.412  29.590  1.00  0.00     0.031 A 
ATOM     90  C   UNL A   1      45.074  34.398  31.605  1.00  0.00     0.131 A 
ATOM     91  C   UNL A   1      44.747  36.641  30.019  1.00  0.00     0.055 A 
ATOM     92  C   UNL A   1      45.539  35.635  32.056  1.00  0.00     0.041 A 
ATOM     93  F   UNL A   1      45.281  33.332  32.394  1.00  0.00    -0.206 F 
ATOM     94  C   UNL A   1      45.386  36.763  31.256  1.00  0.00     0.022 A 
BRANCH  91  95
ATOM     95  S   UNL A   1      44.655  38.067  28.902  1.00  0.00     0.124 S 
ATOM     96  O   UNL A   1      43.594  38.862  29.512  1.00  0.00    -0.237 OA
ATOM     97  O   UNL A   1      46.001  38.624  28.993  1.00  0.00    -0.237 OA
ATOM     98  O   UNL A   1      44.318  37.472  27.611  1.00  0.00    -0.744 OA
ENDBRANCH  91  95
ENDBRANCH  65  88
ENDBRANCH  39  40
ENDBRANCH  31  34
ENDBRANCH  29  30
ENDBRANCH   1  29
TORSDOF 18
ENDMDL
