MODEL 1
REMARK VINA RESULT:     -11.1      0.000      0.000
REMARK SMILES CN(CC(C)(C)O)C(=O)N1CCCC[C@H]1CC(=O)NCCCNC(=O)c1ccc(-c2c3nc(c(-c4cc(S(=O)(=O)[O-])ccc4F)c4ccc([nH]4)c(-c4cc(S(=O)(=O)[O-])ccc4F)c4nc(c(-c5cc(S(=O)(=O)[O-])ccc5F)c5ccc2[nH]5)C=C4)C=C3)cc1
REMARK SMILES IDX 17 1 18 2 19 3 16 5 15 6 10 7 11 8 12 9 14 10 13 11 8 12
REMARK SMILES IDX 9 13 2 14 1 15 3 16 4 17 5 18 6 19 7 20 20 22 21 23 22 24
REMARK SMILES IDX 23 25 24 26 25 28 26 29 27 30 88 31 28 32 87 33 29 34 30 35
REMARK SMILES IDX 31 36 81 37 32 38 86 39 80 40 82 41 33 42 85 43 79 44 78 45
REMARK SMILES IDX 34 47 66 48 46 49 65 50 47 51 50 52 64 53 83 54 48 55 49 56
REMARK SMILES IDX 63 58 84 59 51 60 35 61 36 62 44 63 37 64 43 65 45 66 42 67
REMARK SMILES IDX 38 68 39 69 40 70 41 71 67 72 68 73 76 74 69 75 75 76 77 77
REMARK SMILES IDX 74 78 70 79 71 80 72 81 73 82 52 83 53 84 61 85 54 86 60 87
REMARK SMILES IDX 62 88 59 89 55 90 56 91 57 92 58 93
REMARK H PARENT 19 4 7 21 23 27 82 46 50 57
REMARK Flexibility Score: inf
ROOT
ATOM      1  C   UNL A   1      33.549  29.505  26.282  1.00  0.00     0.222 C 
ATOM      2  O   UNL A   1      34.581  29.054  26.788  1.00  0.00    -0.275 OA
ATOM      3  N   UNL A   1      32.671  30.157  27.096  1.00  0.00    -0.356 N 
ATOM      4  H   UNL A   1      32.941  30.197  28.041  1.00  0.00     0.163 HD
ENDROOT
BRANCH   1   5
ATOM      5  C   UNL A   1      33.272  29.294  24.809  1.00  0.00     0.125 C 
BRANCH   5   6
ATOM      6  C   UNL A   1      32.205  28.212  24.535  1.00  0.00     0.096 C 
ATOM      7  N   UNL A   1      32.119  27.783  23.133  1.00  0.00    -0.321 N 
ATOM      8  C   UNL A   1      33.326  27.095  22.640  1.00  0.00     0.121 C 
ATOM      9  C   UNL A   1      33.683  25.877  23.489  1.00  0.00     0.022 C 
ATOM     10  C   UNL A   1      32.441  26.950  25.395  1.00  0.00     0.026 C 
ATOM     11  C   UNL A   1      33.710  26.209  24.981  1.00  0.00     0.004 C 
BRANCH   7  12
ATOM     12  C   UNL A   1      30.948  27.546  22.421  1.00  0.00     0.320 C 
ATOM     13  O   UNL A   1      30.986  26.785  21.447  1.00  0.00    -0.248 OA
BRANCH  12  14
ATOM     14  N   UNL A   1      29.775  28.248  22.693  1.00  0.00    -0.325 N 
ATOM     15  C   UNL A   1      28.862  27.530  23.588  1.00  0.00     0.148 C 
BRANCH  14  16
ATOM     16  C   UNL A   1      29.158  29.382  21.984  1.00  0.00     0.155 C 
BRANCH  16  17
ATOM     17  C   UNL A   1      28.919  30.681  22.814  1.00  0.00     0.077 C 
ATOM     18  C   UNL A   1      28.957  31.978  22.002  1.00  0.00     0.043 C 
ATOM     19  C   UNL A   1      27.556  30.574  23.513  1.00  0.00     0.043 C 
BRANCH  17  20
ATOM     20  O   UNL A   1      29.900  30.799  23.849  1.00  0.00    -0.389 OA
ATOM     21  H   UNL A   1      29.615  31.470  24.490  1.00  0.00     0.211 HD
ENDBRANCH  17  20
ENDBRANCH  16  17
ENDBRANCH  14  16
ENDBRANCH  12  14
ENDBRANCH   7  12
ENDBRANCH   5   6
ENDBRANCH   1   5
BRANCH   3  22
ATOM     22  C   UNL A   1      31.400  30.805  26.801  1.00  0.00     0.117 C 
BRANCH  22  23
ATOM     23  C   UNL A   1      31.479  32.332  26.778  1.00  0.00     0.042 C 
BRANCH  23  24
ATOM     24  C   UNL A   1      32.825  32.927  27.181  1.00  0.00     0.118 C 
BRANCH  24  25
ATOM     25  N   UNL A   1      32.681  34.300  27.625  1.00  0.00    -0.352 N 
ATOM     26  C   UNL A   1      33.151  34.920  28.759  1.00  0.00     0.251 C 
ATOM     27  H   UNL A   1      32.164  34.881  27.020  1.00  0.00     0.163 HD
ATOM     28  O   UNL A   1      32.614  35.973  29.100  1.00  0.00    -0.269 OA
BRANCH  26  29
ATOM     29  C   UNL A   1      34.274  34.373  29.568  1.00  0.00     0.039 A 
ATOM     30  C   UNL A   1      35.576  34.511  29.069  1.00  0.00     0.014 A 
ATOM     31  C   UNL A   1      34.073  33.621  30.729  1.00  0.00     0.014 A 
ATOM     32  C   UNL A   1      36.660  33.915  29.729  1.00  0.00     0.010 A 
ATOM     33  C   UNL A   1      35.165  33.077  31.422  1.00  0.00     0.010 A 
ATOM     34  C   UNL A   1      36.470  33.200  30.920  1.00  0.00    -0.014 A 
BRANCH  34  35
ATOM     35  C   UNL A   1      37.623  32.553  31.617  1.00  0.00     0.031 A 
ATOM     36  C   UNL A   1      38.371  31.413  30.970  1.00  0.00     0.074 A 
ATOM     37  C   UNL A   1      37.998  32.977  32.841  1.00  0.00     0.049 A 
ATOM     38  N   UNL A   1      39.369  30.701  31.436  1.00  0.00    -0.248 NA
ATOM     39  C   UNL A   1      37.926  31.008  29.629  1.00  0.00     0.031 C 
ATOM     40  C   UNL A   1      37.359  34.062  33.589  1.00  0.00     0.029 A 
ATOM     41  N   UNL A   1      39.003  32.549  33.676  1.00  0.00    -0.354 N 
ATOM     42  C   UNL A   1      39.662  29.760  30.454  1.00  0.00     0.074 A 
ATOM     43  C   UNL A   1      38.701  29.960  29.390  1.00  0.00     0.031 C 
ATOM     44  C   UNL A   1      37.999  34.226  34.757  1.00  0.00     0.029 A 
ATOM     45  C   UNL A   1      39.062  33.231  34.870  1.00  0.00     0.049 A 
ATOM     46  H   UNL A   1      39.625  31.822  33.441  1.00  0.00     0.167 HD
ATOM     47  C   UNL A   1      40.651  28.829  30.431  1.00  0.00     0.034 A 
ATOM     48  C   UNL A   1      39.863  33.067  35.943  1.00  0.00     0.034 A 
ATOM     49  C   UNL A   1      41.612  28.640  31.493  1.00  0.00     0.049 A 
ATOM     50  C   UNL A   1      40.922  31.993  35.916  1.00  0.00     0.074 A 
ATOM     51  C   UNL A   1      42.680  27.759  31.543  1.00  0.00     0.029 A 
ATOM     52  N   UNL A   1      41.620  29.334  32.696  1.00  0.00    -0.354 N 
ATOM     53  N   UNL A   1      41.208  31.138  34.962  1.00  0.00    -0.248 NA
ATOM     54  C   UNL A   1      41.772  31.868  37.108  1.00  0.00     0.031 C 
ATOM     55  C   UNL A   1      43.282  27.865  32.800  1.00  0.00     0.029 A 
ATOM     56  C   UNL A   1      42.649  28.873  33.507  1.00  0.00     0.049 A 
ATOM     57  H   UNL A   1      40.988  30.049  32.939  1.00  0.00     0.167 HD
ATOM     58  C   UNL A   1      42.292  30.397  35.428  1.00  0.00     0.074 A 
ATOM     59  C   UNL A   1      42.617  30.915  36.740  1.00  0.00     0.031 C 
ATOM     60  C   UNL A   1      42.961  29.383  34.822  1.00  0.00     0.034 A 
BRANCH  47  61
ATOM     61  C   UNL A   1      40.722  27.915  29.227  1.00  0.00     0.023 A 
ATOM     62  C   UNL A   1      41.665  28.109  28.202  1.00  0.00     0.031 A 
ATOM     63  C   UNL A   1      39.827  26.838  29.097  1.00  0.00     0.131 A 
ATOM     64  C   UNL A   1      41.642  27.291  27.062  1.00  0.00     0.055 A 
ATOM     65  C   UNL A   1      39.864  25.975  27.999  1.00  0.00     0.041 A 
ATOM     66  F   UNL A   1      38.891  26.609  30.032  1.00  0.00    -0.206 F 
ATOM     67  C   UNL A   1      40.765  26.209  26.966  1.00  0.00     0.022 A 
BRANCH  64  68
ATOM     68  S   UNL A   1      42.675  27.750  25.643  1.00  0.00     0.124 S 
ATOM     69  O   UNL A   1      41.934  28.882  25.092  1.00  0.00    -0.237 OA
ATOM     70  O   UNL A   1      43.952  28.069  26.274  1.00  0.00    -0.237 OA
ATOM     71  O   UNL A   1      42.673  26.550  24.813  1.00  0.00    -0.744 OA
ENDBRANCH  64  68
ENDBRANCH  47  61
BRANCH  48  72
ATOM     72  C   UNL A   1      39.687  33.922  37.154  1.00  0.00     0.023 A 
ATOM     73  C   UNL A   1      39.043  33.432  38.303  1.00  0.00     0.031 A 
ATOM     74  C   UNL A   1      40.115  35.261  37.160  1.00  0.00     0.131 A 
ATOM     75  C   UNL A   1      38.806  34.289  39.390  1.00  0.00     0.055 A 
ATOM     76  C   UNL A   1      39.930  36.091  38.266  1.00  0.00     0.041 A 
ATOM     77  F   UNL A   1      40.733  35.781  36.088  1.00  0.00    -0.206 F 
ATOM     78  C   UNL A   1      39.258  35.609  39.386  1.00  0.00     0.022 A 
BRANCH  75  79
ATOM     79  S   UNL A   1      37.811  33.675  40.778  1.00  0.00     0.124 S 
ATOM     80  O   UNL A   1      38.776  32.845  41.490  1.00  0.00    -0.237 OA
ATOM     81  O   UNL A   1      37.417  34.913  41.440  1.00  0.00    -0.237 OA
ATOM     82  O   UNL A   1      36.725  32.948  40.122  1.00  0.00    -0.744 OA
ENDBRANCH  75  79
ENDBRANCH  48  72
BRANCH  60  83
ATOM     83  C   UNL A   1      44.147  28.801  35.556  1.00  0.00     0.023 A 
ATOM     84  C   UNL A   1      44.016  27.715  36.440  1.00  0.00     0.031 A 
ATOM     85  C   UNL A   1      45.430  29.350  35.373  1.00  0.00     0.131 A 
ATOM     86  C   UNL A   1      45.135  27.249  37.148  1.00  0.00     0.055 A 
ATOM     87  C   UNL A   1      46.550  28.842  36.034  1.00  0.00     0.041 A 
ATOM     88  F   UNL A   1      45.616  30.390  34.545  1.00  0.00    -0.206 F 
ATOM     89  C   UNL A   1      46.404  27.794  36.937  1.00  0.00     0.022 A 
BRANCH  86  90
ATOM     90  S   UNL A   1      44.897  25.978  38.421  1.00  0.00     0.124 S 
ATOM     91  O   UNL A   1      43.759  26.505  39.167  1.00  0.00    -0.237 OA
ATOM     92  O   UNL A   1      44.637  24.782  37.625  1.00  0.00    -0.237 OA
ATOM     93  O   UNL A   1      46.166  25.975  39.146  1.00  0.00    -0.744 OA
ENDBRANCH  86  90
ENDBRANCH  60  83
ENDBRANCH  34  35
ENDBRANCH  26  29
ENDBRANCH  24  25
ENDBRANCH  23  24
ENDBRANCH  22  23
ENDBRANCH   3  22
TORSDOF 19
ENDMDL
MODEL 2
REMARK VINA RESULT:     -10.9      2.898      4.786
REMARK SMILES CN(CC(C)(C)O)C(=O)N1CCCC[C@H]1CC(=O)NCCCNC(=O)c1ccc(-c2c3nc(c(-c4cc(S(=O)(=O)[O-])ccc4F)c4ccc([nH]4)c(-c4cc(S(=O)(=O)[O-])ccc4F)c4nc(c(-c5cc(S(=O)(=O)[O-])ccc5F)c5ccc2[nH]5)C=C4)C=C3)cc1
REMARK SMILES IDX 17 1 18 2 19 3 16 5 15 6 10 7 11 8 12 9 14 10 13 11 8 12
REMARK SMILES IDX 9 13 2 14 1 15 3 16 4 17 5 18 6 19 7 20 20 22 21 23 22 24
REMARK SMILES IDX 23 25 24 26 25 28 26 29 27 30 88 31 28 32 87 33 29 34 30 35
REMARK SMILES IDX 31 36 81 37 32 38 86 39 80 40 82 41 33 42 85 43 79 44 78 45
REMARK SMILES IDX 34 47 66 48 46 49 65 50 47 51 50 52 64 53 83 54 48 55 49 56
REMARK SMILES IDX 63 58 84 59 51 60 35 61 36 62 44 63 37 64 43 65 45 66 42 67
REMARK SMILES IDX 38 68 39 69 40 70 41 71 67 72 68 73 76 74 69 75 75 76 77 77
REMARK SMILES IDX 74 78 70 79 71 80 72 81 73 82 52 83 53 84 61 85 54 86 60 87
REMARK SMILES IDX 62 88 59 89 55 90 56 91 57 92 58 93
REMARK H PARENT 19 4 7 21 23 27 82 46 50 57
REMARK Flexibility Score: inf
ROOT
ATOM      1  C   UNL A   1      32.554  26.366  21.833  1.00  0.00     0.222 C 
ATOM      2  O   UNL A   1      33.283  25.746  21.053  1.00  0.00    -0.275 OA
ATOM      3  N   UNL A   1      32.726  27.714  21.934  1.00  0.00    -0.356 N 
ATOM      4  H   UNL A   1      33.447  28.078  21.371  1.00  0.00     0.163 HD
ENDROOT
BRANCH   1   5
ATOM      5  C   UNL A   1      31.532  25.623  22.667  1.00  0.00     0.125 C 
BRANCH   5   6
ATOM      6  C   UNL A   1      32.077  24.314  23.281  1.00  0.00     0.096 C 
ATOM      7  N   UNL A   1      33.374  24.452  23.957  1.00  0.00    -0.321 N 
ATOM      8  C   UNL A   1      33.339  25.312  25.154  1.00  0.00     0.121 C 
ATOM      9  C   UNL A   1      32.316  24.828  26.181  1.00  0.00     0.022 C 
ATOM     10  C   UNL A   1      31.084  23.705  24.296  1.00  0.00     0.026 C 
ATOM     11  C   UNL A   1      30.949  24.571  25.547  1.00  0.00     0.004 C 
BRANCH   7  12
ATOM     12  C   UNL A   1      34.436  23.558  23.878  1.00  0.00     0.320 C 
ATOM     13  O   UNL A   1      34.914  23.298  22.768  1.00  0.00    -0.248 OA
BRANCH  12  14
ATOM     14  N   UNL A   1      34.878  22.851  24.994  1.00  0.00    -0.325 N 
ATOM     15  C   UNL A   1      33.975  21.766  25.390  1.00  0.00     0.148 C 
BRANCH  14  16
ATOM     16  C   UNL A   1      35.871  23.214  26.020  1.00  0.00     0.155 C 
BRANCH  16  17
ATOM     17  C   UNL A   1      37.371  23.146  25.598  1.00  0.00     0.077 C 
ATOM     18  C   UNL A   1      38.336  23.878  26.535  1.00  0.00     0.043 C 
ATOM     19  C   UNL A   1      37.790  21.671  25.508  1.00  0.00     0.043 C 
BRANCH  17  20
ATOM     20  O   UNL A   1      37.546  23.700  24.290  1.00  0.00    -0.389 OA
ATOM     21  H   UNL A   1      37.419  23.005  23.625  1.00  0.00     0.211 HD
ENDBRANCH  17  20
ENDBRANCH  16  17
ENDBRANCH  14  16
ENDBRANCH  12  14
ENDBRANCH   7  12
ENDBRANCH   5   6
ENDBRANCH   1   5
BRANCH   3  22
ATOM     22  C   UNL A   1      32.024  28.707  22.735  1.00  0.00     0.117 C 
BRANCH  22  23
ATOM     23  C   UNL A   1      32.059  28.422  24.237  1.00  0.00     0.042 C 
BRANCH  23  24
ATOM     24  C   UNL A   1      33.148  29.149  25.019  1.00  0.00     0.118 C 
BRANCH  24  25
ATOM     25  N   UNL A   1      32.642  30.375  25.608  1.00  0.00    -0.352 N 
ATOM     26  C   UNL A   1      33.018  31.028  26.758  1.00  0.00     0.251 C 
ATOM     27  H   UNL A   1      31.915  30.808  25.105  1.00  0.00     0.163 HD
ATOM     28  O   UNL A   1      32.227  31.836  27.242  1.00  0.00    -0.269 OA
BRANCH  26  29
ATOM     29  C   UNL A   1      34.332  30.801  27.419  1.00  0.00     0.039 A 
ATOM     30  C   UNL A   1      34.616  29.517  27.901  1.00  0.00     0.014 A 
ATOM     31  C   UNL A   1      35.230  31.837  27.692  1.00  0.00     0.014 A 
ATOM     32  C   UNL A   1      35.786  29.271  28.633  1.00  0.00     0.010 A 
ATOM     33  C   UNL A   1      36.430  31.579  28.371  1.00  0.00     0.010 A 
ATOM     34  C   UNL A   1      36.714  30.296  28.869  1.00  0.00    -0.014 A 
BRANCH  34  35
ATOM     35  C   UNL A   1      37.955  30.040  29.662  1.00  0.00     0.031 A 
ATOM     36  C   UNL A   1      39.032  29.126  29.127  1.00  0.00     0.074 A 
ATOM     37  C   UNL A   1      38.117  30.616  30.870  1.00  0.00     0.049 A 
ATOM     38  N   UNL A   1      40.157  28.752  29.687  1.00  0.00    -0.248 NA
ATOM     39  C   UNL A   1      38.804  28.544  27.798  1.00  0.00     0.031 C 
ATOM     40  C   UNL A   1      37.154  31.512  31.512  1.00  0.00     0.029 A 
ATOM     41  N   UNL A   1      39.147  30.533  31.777  1.00  0.00    -0.354 N 
ATOM     42  C   UNL A   1      40.764  27.883  28.785  1.00  0.00     0.074 A 
ATOM     43  C   UNL A   1      39.855  27.748  27.666  1.00  0.00     0.031 C 
ATOM     44  C   UNL A   1      37.646  31.910  32.695  1.00  0.00     0.029 A 
ATOM     45  C   UNL A   1      38.937  31.265  32.925  1.00  0.00     0.049 A 
ATOM     46  H   UNL A   1      39.961  30.001  31.621  1.00  0.00     0.167 HD
ATOM     47  C   UNL A   1      41.973  27.270  28.870  1.00  0.00     0.034 A 
ATOM     48  C   UNL A   1      39.682  31.390  34.042  1.00  0.00     0.034 A 
ATOM     49  C   UNL A   1      42.880  27.417  29.986  1.00  0.00     0.049 A 
ATOM     50  C   UNL A   1      40.999  30.660  34.136  1.00  0.00     0.074 A 
ATOM     51  C   UNL A   1      44.146  26.878  30.145  1.00  0.00     0.029 A 
ATOM     52  N   UNL A   1      42.617  28.146  31.139  1.00  0.00    -0.354 N 
ATOM     53  N   UNL A   1      41.573  29.873  33.257  1.00  0.00    -0.248 NA
ATOM     54  C   UNL A   1      41.772  30.843  35.373  1.00  0.00     0.031 C 
ATOM     55  C   UNL A   1      44.614  27.215  31.419  1.00  0.00     0.029 A 
ATOM     56  C   UNL A   1      43.679  28.038  32.026  1.00  0.00     0.049 A 
ATOM     57  H   UNL A   1      41.796  28.664  31.303  1.00  0.00     0.167 HD
ATOM     58  C   UNL A   1      42.789  29.495  33.821  1.00  0.00     0.074 A 
ATOM     59  C   UNL A   1      42.871  30.151  35.109  1.00  0.00     0.031 C 
ATOM     60  C   UNL A   1      43.753  28.683  33.317  1.00  0.00     0.034 A 
BRANCH  47  61
ATOM     61  C   UNL A   1      42.374  26.353  27.736  1.00  0.00     0.023 A 
ATOM     62  C   UNL A   1      42.089  24.976  27.758  1.00  0.00     0.031 A 
ATOM     63  C   UNL A   1      43.062  26.861  26.619  1.00  0.00     0.131 A 
ATOM     64  C   UNL A   1      42.554  24.146  26.726  1.00  0.00     0.055 A 
ATOM     65  C   UNL A   1      43.447  26.043  25.554  1.00  0.00     0.041 A 
ATOM     66  F   UNL A   1      43.380  28.164  26.546  1.00  0.00    -0.206 F 
ATOM     67  C   UNL A   1      43.208  24.674  25.612  1.00  0.00     0.022 A 
BRANCH  64  68
ATOM     68  S   UNL A   1      42.419  22.348  26.931  1.00  0.00     0.124 S 
ATOM     69  O   UNL A   1      42.425  22.216  28.386  1.00  0.00    -0.237 OA
ATOM     70  O   UNL A   1      41.153  22.050  26.268  1.00  0.00    -0.237 OA
ATOM     71  O   UNL A   1      43.610  21.836  26.261  1.00  0.00    -0.744 OA
ENDBRANCH  64  68
ENDBRANCH  47  61
BRANCH  48  72
ATOM     72  C   UNL A   1      39.196  32.221  35.184  1.00  0.00     0.023 A 
ATOM     73  C   UNL A   1      39.651  33.536  35.372  1.00  0.00     0.031 A 
ATOM     74  C   UNL A   1      38.306  31.690  36.134  1.00  0.00     0.131 A 
ATOM     75  C   UNL A   1      39.252  34.259  36.507  1.00  0.00     0.055 A 
ATOM     76  C   UNL A   1      37.866  32.434  37.230  1.00  0.00     0.041 A 
ATOM     77  F   UNL A   1      37.842  30.437  36.005  1.00  0.00    -0.206 F 
ATOM     78  C   UNL A   1      38.351  33.723  37.429  1.00  0.00     0.022 A 
BRANCH  75  79
ATOM     79  S   UNL A   1      40.004  35.882  36.812  1.00  0.00     0.124 S 
ATOM     80  O   UNL A   1      41.405  35.527  37.012  1.00  0.00    -0.237 OA
ATOM     81  O   UNL A   1      39.693  36.597  35.580  1.00  0.00    -0.237 OA
ATOM     82  O   UNL A   1      39.305  36.362  38.003  1.00  0.00    -0.744 OA
ENDBRANCH  75  79
ENDBRANCH  48  72
BRANCH  60  83
ATOM     83  C   UNL A   1      45.005  28.499  34.143  1.00  0.00     0.023 A 
ATOM     84  C   UNL A   1      45.152  27.429  35.043  1.00  0.00     0.031 A 
ATOM     85  C   UNL A   1      46.065  29.418  34.032  1.00  0.00     0.131 A 
ATOM     86  C   UNL A   1      46.308  27.335  35.836  1.00  0.00     0.055 A 
ATOM     87  C   UNL A   1      47.237  29.284  34.778  1.00  0.00     0.041 A 
ATOM     88  F   UNL A   1      45.979  30.462  33.192  1.00  0.00    -0.206 F 
ATOM     89  C   UNL A   1      47.358  28.246  35.696  1.00  0.00     0.022 A 
BRANCH  86  90
ATOM     90  S   UNL A   1      46.384  26.057  37.122  1.00  0.00     0.124 S 
ATOM     91  O   UNL A   1      45.013  25.556  37.133  1.00  0.00    -0.237 OA
ATOM     92  O   UNL A   1      47.392  25.143  36.595  1.00  0.00    -0.237 OA
ATOM     93  O   UNL A   1      46.783  26.796  38.318  1.00  0.00    -0.744 OA
ENDBRANCH  86  90
ENDBRANCH  60  83
ENDBRANCH  34  35
ENDBRANCH  26  29
ENDBRANCH  24  25
ENDBRANCH  23  24
ENDBRANCH  22  23
ENDBRANCH   3  22
TORSDOF 19
ENDMDL
MODEL 3
REMARK VINA RESULT:     -10.7      1.510      2.955
REMARK SMILES CN(CC(C)(C)O)C(=O)N1CCCC[C@H]1CC(=O)NCCCNC(=O)c1ccc(-c2c3nc(c(-c4cc(S(=O)(=O)[O-])ccc4F)c4ccc([nH]4)c(-c4cc(S(=O)(=O)[O-])ccc4F)c4nc(c(-c5cc(S(=O)(=O)[O-])ccc5F)c5ccc2[nH]5)C=C4)C=C3)cc1
REMARK SMILES IDX 17 1 18 2 19 3 16 5 15 6 10 7 11 8 12 9 14 10 13 11 8 12
REMARK SMILES IDX 9 13 2 14 1 15 3 16 4 17 5 18 6 19 7 20 20 22 21 23 22 24
REMARK SMILES IDX 23 25 24 26 25 28 26 29 27 30 88 31 28 32 87 33 29 34 30 35
REMARK SMILES IDX 31 36 81 37 32 38 86 39 80 40 82 41 33 42 85 43 79 44 78 45
REMARK SMILES IDX 34 47 66 48 46 49 65 50 47 51 50 52 64 53 83 54 48 55 49 56
REMARK SMILES IDX 63 58 84 59 51 60 35 61 36 62 44 63 37 64 43 65 45 66 42 67
REMARK SMILES IDX 38 68 39 69 40 70 41 71 67 72 68 73 76 74 69 75 75 76 77 77
REMARK SMILES IDX 74 78 70 79 71 80 72 81 73 82 52 83 53 84 61 85 54 86 60 87
REMARK SMILES IDX 62 88 59 89 55 90 56 91 57 92 58 93
REMARK H PARENT 19 4 7 21 23 27 82 46 50 57
REMARK Flexibility Score: inf
ROOT
ATOM      1  C   UNL A   1      33.092  28.617  26.464  1.00  0.00     0.222 C 
ATOM      2  O   UNL A   1      34.280  28.309  26.589  1.00  0.00    -0.275 OA
ATOM      3  N   UNL A   1      32.788  29.936  26.298  1.00  0.00    -0.356 N 
ATOM      4  H   UNL A   1      33.565  30.539  26.307  1.00  0.00     0.163 HD
ENDROOT
BRANCH   1   5
ATOM      5  C   UNL A   1      32.020  27.550  26.536  1.00  0.00     0.125 C 
BRANCH   5   6
ATOM      6  C   UNL A   1      32.147  26.480  25.430  1.00  0.00     0.096 C 
ATOM      7  N   UNL A   1      31.227  25.344  25.574  1.00  0.00    -0.321 N 
ATOM      8  C   UNL A   1      29.804  25.703  25.434  1.00  0.00     0.121 C 
ATOM      9  C   UNL A   1      29.510  26.387  24.100  1.00  0.00     0.022 C 
ATOM     10  C   UNL A   1      31.926  27.084  24.025  1.00  0.00     0.026 C 
ATOM     11  C   UNL A   1      30.481  27.534  23.822  1.00  0.00     0.004 C 
BRANCH   7  12
ATOM     12  C   UNL A   1      31.542  24.006  25.368  1.00  0.00     0.320 C 
ATOM     13  O   UNL A   1      30.714  23.278  24.807  1.00  0.00    -0.248 OA
BRANCH  12  14
ATOM     14  N   UNL A   1      32.700  23.440  25.898  1.00  0.00    -0.325 N 
ATOM     15  C   UNL A   1      32.558  23.027  27.298  1.00  0.00     0.148 C 
BRANCH  14  16
ATOM     16  C   UNL A   1      34.094  23.507  25.427  1.00  0.00     0.155 C 
BRANCH  16  17
ATOM     17  C   UNL A   1      34.470  22.597  24.218  1.00  0.00     0.077 C 
ATOM     18  C   UNL A   1      35.452  23.223  23.223  1.00  0.00     0.043 C 
ATOM     19  C   UNL A   1      35.073  21.290  24.754  1.00  0.00     0.043 C 
BRANCH  17  20
ATOM     20  O   UNL A   1      33.296  22.234  23.483  1.00  0.00    -0.389 OA
ATOM     21  H   UNL A   1      32.885  21.457  23.896  1.00  0.00     0.211 HD
ENDBRANCH  17  20
ENDBRANCH  16  17
ENDBRANCH  14  16
ENDBRANCH  12  14
ENDBRANCH   7  12
ENDBRANCH   5   6
ENDBRANCH   1   5
BRANCH   3  22
ATOM     22  C   UNL A   1      31.506  30.602  26.109  1.00  0.00     0.117 C 
BRANCH  22  23
ATOM     23  C   UNL A   1      31.492  32.054  26.587  1.00  0.00     0.042 C 
BRANCH  23  24
ATOM     24  C   UNL A   1      32.782  32.546  27.235  1.00  0.00     0.118 C 
BRANCH  24  25
ATOM     25  N   UNL A   1      32.676  33.939  27.625  1.00  0.00    -0.352 N 
ATOM     26  C   UNL A   1      33.175  34.593  28.727  1.00  0.00     0.251 C 
ATOM     27  H   UNL A   1      32.165  34.507  27.003  1.00  0.00     0.163 HD
ATOM     28  O   UNL A   1      32.668  35.671  29.032  1.00  0.00    -0.269 OA
BRANCH  26  29
ATOM     29  C   UNL A   1      34.295  34.052  29.544  1.00  0.00     0.039 A 
ATOM     30  C   UNL A   1      35.606  34.353  29.150  1.00  0.00     0.014 A 
ATOM     31  C   UNL A   1      34.097  33.158  30.601  1.00  0.00     0.014 A 
ATOM     32  C   UNL A   1      36.700  33.777  29.811  1.00  0.00     0.010 A 
ATOM     33  C   UNL A   1      35.192  32.631  31.301  1.00  0.00     0.010 A 
ATOM     34  C   UNL A   1      36.508  32.917  30.903  1.00  0.00    -0.014 A 
BRANCH  34  35
ATOM     35  C   UNL A   1      37.673  32.292  31.600  1.00  0.00     0.031 A 
ATOM     36  C   UNL A   1      38.446  31.170  30.950  1.00  0.00     0.074 A 
ATOM     37  C   UNL A   1      38.037  32.721  32.826  1.00  0.00     0.049 A 
ATOM     38  N   UNL A   1      39.457  30.478  31.417  1.00  0.00    -0.248 NA
ATOM     39  C   UNL A   1      38.011  30.760  29.608  1.00  0.00     0.031 C 
ATOM     40  C   UNL A   1      37.374  33.790  33.575  1.00  0.00     0.029 A 
ATOM     41  N   UNL A   1      39.050  32.311  33.661  1.00  0.00    -0.354 N 
ATOM     42  C   UNL A   1      39.772  29.546  30.432  1.00  0.00     0.074 A 
ATOM     43  C   UNL A   1      38.808  29.729  29.367  1.00  0.00     0.031 C 
ATOM     44  C   UNL A   1      38.009  33.964  34.745  1.00  0.00     0.029 A 
ATOM     45  C   UNL A   1      39.092  32.992  34.857  1.00  0.00     0.049 A 
ATOM     46  H   UNL A   1      39.686  31.598  33.425  1.00  0.00     0.167 HD
ATOM     47  C   UNL A   1      40.779  28.636  30.408  1.00  0.00     0.034 A 
ATOM     48  C   UNL A   1      39.895  32.841  35.931  1.00  0.00     0.034 A 
ATOM     49  C   UNL A   1      41.743  28.464  31.471  1.00  0.00     0.049 A 
ATOM     50  C   UNL A   1      40.976  31.789  35.902  1.00  0.00     0.074 A 
ATOM     51  C   UNL A   1      42.828  27.605  31.520  1.00  0.00     0.029 A 
ATOM     52  N   UNL A   1      41.735  29.154  32.676  1.00  0.00    -0.354 N 
ATOM     53  N   UNL A   1      41.282  30.943  34.947  1.00  0.00    -0.248 NA
ATOM     54  C   UNL A   1      41.826  31.678  37.096  1.00  0.00     0.031 C 
ATOM     55  C   UNL A   1      43.427  27.719  32.779  1.00  0.00     0.029 A 
ATOM     56  C   UNL A   1      42.771  28.712  33.488  1.00  0.00     0.049 A 
ATOM     57  H   UNL A   1      41.087  29.855  32.920  1.00  0.00     0.167 HD
ATOM     58  C   UNL A   1      42.380  30.223  35.412  1.00  0.00     0.074 A 
ATOM     59  C   UNL A   1      42.691  30.744  36.727  1.00  0.00     0.031 C 
ATOM     60  C   UNL A   1      43.071  29.225  34.805  1.00  0.00     0.034 A 
BRANCH  47  61
ATOM     61  C   UNL A   1      40.872  27.726  29.202  1.00  0.00     0.023 A 
ATOM     62  C   UNL A   1      41.807  27.947  28.176  1.00  0.00     0.031 A 
ATOM     63  C   UNL A   1      40.004  26.628  29.070  1.00  0.00     0.131 A 
ATOM     64  C   UNL A   1      41.803  27.131  27.034  1.00  0.00     0.055 A 
ATOM     65  C   UNL A   1      40.061  25.769  27.970  1.00  0.00     0.041 A 
ATOM     66  F   UNL A   1      39.075  26.373  30.007  1.00  0.00    -0.206 F 
ATOM     67  C   UNL A   1      40.954  26.028  26.936  1.00  0.00     0.022 A 
BRANCH  64  68
ATOM     68  S   UNL A   1      42.823  27.620  25.614  1.00  0.00     0.124 S 
ATOM     69  O   UNL A   1      42.291  28.947  25.312  1.00  0.00    -0.237 OA
ATOM     70  O   UNL A   1      44.172  27.583  26.169  1.00  0.00    -0.237 OA
ATOM     71  O   UNL A   1      42.531  26.598  24.614  1.00  0.00    -0.744 OA
ENDBRANCH  64  68
ENDBRANCH  47  61
BRANCH  48  72
ATOM     72  C   UNL A   1      39.699  33.688  37.144  1.00  0.00     0.023 A 
ATOM     73  C   UNL A   1      39.181  33.148  38.333  1.00  0.00     0.031 A 
ATOM     74  C   UNL A   1      39.979  35.066  37.115  1.00  0.00     0.131 A 
ATOM     75  C   UNL A   1      38.917  33.989  39.426  1.00  0.00     0.055 A 
ATOM     76  C   UNL A   1      39.770  35.886  38.224  1.00  0.00     0.041 A 
ATOM     77  F   UNL A   1      40.472  35.634  36.003  1.00  0.00    -0.206 F 
ATOM     78  C   UNL A   1      39.222  35.350  39.385  1.00  0.00     0.022 A 
BRANCH  75  79
ATOM     79  S   UNL A   1      38.078  33.291  40.876  1.00  0.00     0.124 S 
ATOM     80  O   UNL A   1      38.438  34.247  41.917  1.00  0.00    -0.237 OA
ATOM     81  O   UNL A   1      36.682  33.299  40.452  1.00  0.00    -0.237 OA
ATOM     82  O   UNL A   1      38.679  31.965  41.011  1.00  0.00    -0.744 OA
ENDBRANCH  75  79
ENDBRANCH  48  72
BRANCH  60  83
ATOM     83  C   UNL A   1      44.267  28.666  35.539  1.00  0.00     0.023 A 
ATOM     84  C   UNL A   1      44.148  27.611  36.461  1.00  0.00     0.031 A 
ATOM     85  C   UNL A   1      45.548  29.206  35.318  1.00  0.00     0.131 A 
ATOM     86  C   UNL A   1      45.278  27.166  37.167  1.00  0.00     0.055 A 
ATOM     87  C   UNL A   1      46.677  28.718  35.977  1.00  0.00     0.041 A 
ATOM     88  F   UNL A   1      45.723  30.217  34.452  1.00  0.00    -0.206 F 
ATOM     89  C   UNL A   1      46.544  27.702  36.917  1.00  0.00     0.022 A 
BRANCH  86  90
ATOM     90  S   UNL A   1      45.058  25.939  38.485  1.00  0.00     0.124 S 
ATOM     91  O   UNL A   1      44.443  24.828  37.766  1.00  0.00    -0.237 OA
ATOM     92  O   UNL A   1      46.427  25.722  38.943  1.00  0.00    -0.237 OA
ATOM     93  O   UNL A   1      44.186  26.616  39.443  1.00  0.00    -0.744 OA
ENDBRANCH  86  90
ENDBRANCH  60  83
ENDBRANCH  34  35
ENDBRANCH  26  29
ENDBRANCH  24  25
ENDBRANCH  23  24
ENDBRANCH  22  23
ENDBRANCH   3  22
TORSDOF 19
ENDMDL
