MODEL 1
REMARK VINA RESULT:     -12.5      0.000      0.000
REMARK SMILES O=C(NCCCNC(=O)C1(NC(=O)c2c[nH]c(=O)c(Cl)c2)CCCCC1)c1ccc(-c2c3nc(c(-c4cc(S(=O)(=O)[O-])ccc4F)c4ccc([nH]4)c(-c4cc(S(=O)(=O)[O-])ccc4F)c4nc(c(-c5cc(S(=O)(=O)[O-])ccc5F)c5ccc2[nH]5)C=C4)C=C3)cc1
REMARK SMILES IDX 4 1 3 2 1 3 2 4 27 6 28 7 89 8 29 9 88 10 30 11 31 12 32 13
REMARK SMILES IDX 82 14 33 15 87 16 81 17 83 18 34 19 86 20 80 21 79 22 35 24
REMARK SMILES IDX 67 25 47 26 66 27 48 28 51 29 65 30 84 31 49 32 50 33 64 35
REMARK SMILES IDX 85 36 52 37 36 38 37 39 45 40 38 41 44 42 46 43 43 44 39 45
REMARK SMILES IDX 40 46 41 47 42 48 68 49 69 50 77 51 70 52 76 53 78 54 75 55
REMARK SMILES IDX 71 56 72 57 73 58 74 59 53 60 54 61 62 62 55 63 61 64 63 65
REMARK SMILES IDX 60 66 56 67 57 68 58 69 59 70 5 71 6 72 7 73 8 74 9 76 10 77
REMARK SMILES IDX 22 78 26 79 23 80 25 81 24 82 11 83 12 84 13 86 14 87 15 88
REMARK SMILES IDX 21 89 16 90 19 91 17 92 20 94 18 95
REMARK H PARENT 3 5 83 23 51 34 7 75 11 85 16 93
REMARK Flexibility Score: inf
ROOT
ATOM      1  C   UNL A   1      32.989  29.112  25.330  1.00  0.00     0.118 C 
ENDROOT
BRANCH   1   2
ATOM      2  N   UNL A   1      32.543  30.448  25.700  1.00  0.00    -0.352 N 
ATOM      3  O   UNL A   1      32.169  32.209  27.038  1.00  0.00    -0.269 OA
ATOM      4  C   UNL A   1      32.869  31.235  26.777  1.00  0.00     0.251 C 
ATOM      5  H   UNL A   1      31.902  30.855  25.074  1.00  0.00     0.163 HD
BRANCH   4   6
ATOM      6  C   UNL A   1      34.052  30.925  27.609  1.00  0.00     0.039 A 
ATOM      7  C   UNL A   1      34.316  29.614  28.007  1.00  0.00     0.014 A 
ATOM      8  C   UNL A   1      34.953  31.946  27.928  1.00  0.00     0.014 A 
ATOM      9  C   UNL A   1      35.403  29.344  28.830  1.00  0.00     0.010 A 
ATOM     10  C   UNL A   1      36.100  31.657  28.674  1.00  0.00     0.010 A 
ATOM     11  C   UNL A   1      36.325  30.354  29.147  1.00  0.00    -0.014 A 
BRANCH  11  12
ATOM     12  C   UNL A   1      37.555  30.001  29.901  1.00  0.00     0.031 A 
ATOM     13  C   UNL A   1      38.632  29.159  29.278  1.00  0.00     0.074 A 
ATOM     14  C   UNL A   1      37.702  30.479  31.152  1.00  0.00     0.049 A 
ATOM     15  N   UNL A   1      39.767  28.760  29.791  1.00  0.00    -0.248 NA
ATOM     16  C   UNL A   1      38.402  28.700  27.900  1.00  0.00     0.031 C 
ATOM     17  C   UNL A   1      36.719  31.311  31.855  1.00  0.00     0.029 A 
ATOM     18  N   UNL A   1      38.732  30.361  32.050  1.00  0.00    -0.354 N 
ATOM     19  C   UNL A   1      40.386  27.996  28.809  1.00  0.00     0.074 A 
ATOM     20  C   UNL A   1      39.476  27.955  27.681  1.00  0.00     0.031 C 
ATOM     21  C   UNL A   1      37.216  31.671  33.046  1.00  0.00     0.029 A 
ATOM     22  C   UNL A   1      38.512  31.032  33.232  1.00  0.00     0.049 A 
ATOM     23  H   UNL A   1      39.551  29.847  31.867  1.00  0.00     0.167 HD
ATOM     24  C   UNL A   1      41.602  27.395  28.844  1.00  0.00     0.034 A 
ATOM     25  C   UNL A   1      39.255  31.102  34.352  1.00  0.00     0.034 A 
ATOM     26  C   UNL A   1      42.486  27.442  29.986  1.00  0.00     0.049 A 
ATOM     27  C   UNL A   1      40.566  30.366  34.390  1.00  0.00     0.074 A 
ATOM     28  C   UNL A   1      43.743  26.880  30.127  1.00  0.00     0.029 A 
ATOM     29  N   UNL A   1      42.202  28.078  31.190  1.00  0.00    -0.354 N 
ATOM     30  N   UNL A   1      41.139  29.651  33.448  1.00  0.00    -0.248 NA
ATOM     31  C   UNL A   1      41.331  30.445  35.639  1.00  0.00     0.031 C 
ATOM     32  C   UNL A   1      44.185  27.109  31.435  1.00  0.00     0.029 A 
ATOM     33  C   UNL A   1      43.245  27.891  32.087  1.00  0.00     0.049 A 
ATOM     34  H   UNL A   1      41.381  28.587  31.378  1.00  0.00     0.167 HD
ATOM     35  C   UNL A   1      42.346  29.216  33.986  1.00  0.00     0.074 A 
ATOM     36  C   UNL A   1      42.425  29.768  35.325  1.00  0.00     0.031 C 
ATOM     37  C   UNL A   1      43.303  28.434  33.424  1.00  0.00     0.034 A 
BRANCH  24  38
ATOM     38  C   UNL A   1      42.023  26.601  27.628  1.00  0.00     0.023 A 
ATOM     39  C   UNL A   1      41.734  25.231  27.501  1.00  0.00     0.031 A 
ATOM     40  C   UNL A   1      42.739  27.219  26.587  1.00  0.00     0.131 A 
ATOM     41  C   UNL A   1      42.220  24.510  26.399  1.00  0.00     0.055 A 
ATOM     42  C   UNL A   1      43.147  26.514  25.452  1.00  0.00     0.041 A 
ATOM     43  F   UNL A   1      43.066  28.519  26.659  1.00  0.00    -0.206 F 
ATOM     44  C   UNL A   1      42.901  25.148  25.360  1.00  0.00     0.022 A 
BRANCH  41  45
ATOM     45  S   UNL A   1      42.074  22.702  26.414  1.00  0.00     0.124 S 
ATOM     46  O   UNL A   1      42.873  22.350  27.588  1.00  0.00    -0.237 OA
ATOM     47  O   UNL A   1      40.636  22.501  26.539  1.00  0.00    -0.237 OA
ATOM     48  O   UNL A   1      42.654  22.300  25.134  1.00  0.00    -0.744 OA
ENDBRANCH  41  45
ENDBRANCH  24  38
BRANCH  25  49
ATOM     49  C   UNL A   1      38.763  31.865  35.535  1.00  0.00     0.023 A 
ATOM     50  C   UNL A   1      38.212  31.206  36.644  1.00  0.00     0.031 A 
ATOM     51  C   UNL A   1      38.807  33.271  35.558  1.00  0.00     0.131 A 
ATOM     52  C   UNL A   1      37.690  31.953  37.711  1.00  0.00     0.055 A 
ATOM     53  C   UNL A   1      38.343  34.007  36.649  1.00  0.00     0.041 A 
ATOM     54  F   UNL A   1      39.323  33.953  34.523  1.00  0.00    -0.206 F 
ATOM     55  C   UNL A   1      37.767  33.347  37.729  1.00  0.00     0.022 A 
BRANCH  52  56
ATOM     56  S   UNL A   1      36.820  31.075  39.038  1.00  0.00     0.124 S 
ATOM     57  O   UNL A   1      37.766  31.194  40.141  1.00  0.00    -0.237 OA
ATOM     58  O   UNL A   1      35.591  31.852  39.159  1.00  0.00    -0.237 OA
ATOM     59  O   UNL A   1      36.653  29.726  38.501  1.00  0.00    -0.744 OA
ENDBRANCH  52  56
ENDBRANCH  25  49
BRANCH  37  60
ATOM     60  C   UNL A   1      44.538  28.171  34.252  1.00  0.00     0.023 A 
ATOM     61  C   UNL A   1      44.638  27.054  35.100  1.00  0.00     0.031 A 
ATOM     62  C   UNL A   1      45.621  29.066  34.206  1.00  0.00     0.131 A 
ATOM     63  C   UNL A   1      45.770  26.894  35.914  1.00  0.00     0.055 A 
ATOM     64  C   UNL A   1      46.773  28.866  34.968  1.00  0.00     0.041 A 
ATOM     65  F   UNL A   1      45.578  30.153  33.417  1.00  0.00    -0.206 F 
ATOM     66  C   UNL A   1      46.846  27.782  35.838  1.00  0.00     0.022 A 
BRANCH  63  67
ATOM     67  S   UNL A   1      45.773  25.566  37.148  1.00  0.00     0.124 S 
ATOM     68  O   UNL A   1      46.802  24.671  36.627  1.00  0.00    -0.237 OA
ATOM     69  O   UNL A   1      46.110  26.279  38.375  1.00  0.00    -0.237 OA
ATOM     70  O   UNL A   1      44.409  25.042  37.090  1.00  0.00    -0.744 OA
ENDBRANCH  63  67
ENDBRANCH  37  60
ENDBRANCH  11  12
ENDBRANCH   4   6
ENDBRANCH   1   2
BRANCH   1  71
ATOM     71  C   UNL A   1      31.945  28.041  25.643  1.00  0.00     0.042 C 
BRANCH  71  72
ATOM     72  C   UNL A   1      32.387  27.062  26.727  1.00  0.00     0.117 C 
BRANCH  72  73
ATOM     73  N   UNL A   1      31.540  25.886  26.816  1.00  0.00    -0.354 N 
ATOM     74  C   UNL A   1      31.717  24.563  26.577  1.00  0.00     0.245 C 
ATOM     75  H   UNL A   1      30.627  26.098  27.117  1.00  0.00     0.163 HD
ATOM     76  O   UNL A   1      30.833  23.842  27.065  1.00  0.00    -0.272 OA
BRANCH  74  77
ATOM     77  C   UNL A   1      32.938  23.904  25.837  1.00  0.00     0.119 C 
ATOM     78  C   UNL A   1      34.031  24.816  25.244  1.00  0.00     0.038 C 
ATOM     79  C   UNL A   1      33.536  22.998  26.957  1.00  0.00     0.038 C 
ATOM     80  C   UNL A   1      35.349  24.095  24.920  1.00  0.00     0.003 C 
ATOM     81  C   UNL A   1      34.853  22.316  26.606  1.00  0.00     0.003 C 
ATOM     82  C   UNL A   1      35.878  23.328  26.126  1.00  0.00     0.000 C 
BRANCH  77  83
ATOM     83  N   UNL A   1      32.478  22.994  24.734  1.00  0.00    -0.338 N 
ATOM     84  C   UNL A   1      32.209  23.195  23.411  1.00  0.00     0.253 C 
ATOM     85  H   UNL A   1      32.342  22.063  25.025  1.00  0.00     0.164 HD
ATOM     86  O   UNL A   1      32.251  22.243  22.636  1.00  0.00    -0.269 OA
BRANCH  84  87
ATOM     87  C   UNL A   1      31.656  24.495  22.960  1.00  0.00     0.057 A 
ATOM     88  C   UNL A   1      32.314  25.280  22.093  1.00  0.00     0.099 A 
ATOM     89  C   UNL A   1      30.374  24.928  23.490  1.00  0.00     0.041 A 
ATOM     90  N   UNL A   1      31.837  26.539  21.806  1.00  0.00    -0.327 N 
ATOM     91  C   UNL A   1      29.904  26.159  23.241  1.00  0.00     0.106 A 
ATOM     92  C   UNL A   1      30.701  27.087  22.376  1.00  0.00     0.266 A 
ATOM     93  H   UNL A   1      32.335  27.083  21.155  1.00  0.00     0.169 HD
ATOM     94  Cl  UNL A   1      28.402  26.703  23.876  1.00  0.00    -0.078 Cl
ATOM     95  O   UNL A   1      30.388  28.253  22.168  1.00  0.00    -0.268 OA
ENDBRANCH  84  87
ENDBRANCH  77  83
ENDBRANCH  74  77
ENDBRANCH  72  73
ENDBRANCH  71  72
ENDBRANCH   1  71
TORSDOF 15
ENDMDL
MODEL 2
REMARK VINA RESULT:     -12.4      0.702      7.507
REMARK SMILES O=C(NCCCNC(=O)C1(NC(=O)c2c[nH]c(=O)c(Cl)c2)CCCCC1)c1ccc(-c2c3nc(c(-c4cc(S(=O)(=O)[O-])ccc4F)c4ccc([nH]4)c(-c4cc(S(=O)(=O)[O-])ccc4F)c4nc(c(-c5cc(S(=O)(=O)[O-])ccc5F)c5ccc2[nH]5)C=C4)C=C3)cc1
REMARK SMILES IDX 4 1 3 2 1 3 2 4 27 6 28 7 89 8 29 9 88 10 30 11 31 12 32 13
REMARK SMILES IDX 82 14 33 15 87 16 81 17 83 18 34 19 86 20 80 21 79 22 35 24
REMARK SMILES IDX 67 25 47 26 66 27 48 28 51 29 65 30 84 31 49 32 50 33 64 35
REMARK SMILES IDX 85 36 52 37 36 38 37 39 45 40 38 41 44 42 46 43 43 44 39 45
REMARK SMILES IDX 40 46 41 47 42 48 68 49 69 50 77 51 70 52 76 53 78 54 75 55
REMARK SMILES IDX 71 56 72 57 73 58 74 59 53 60 54 61 62 62 55 63 61 64 63 65
REMARK SMILES IDX 60 66 56 67 57 68 58 69 59 70 5 71 6 72 7 73 8 74 9 76 10 77
REMARK SMILES IDX 22 78 26 79 23 80 25 81 24 82 11 83 12 84 13 86 14 87 15 88
REMARK SMILES IDX 21 89 16 90 19 91 17 92 20 94 18 95
REMARK H PARENT 3 5 83 23 51 34 7 75 11 85 16 93
REMARK Flexibility Score: inf
ROOT
ATOM      1  C   UNL A   1      33.370  29.165  25.295  1.00  0.00     0.118 C 
ENDROOT
BRANCH   1   2
ATOM      2  N   UNL A   1      32.881  30.454  25.764  1.00  0.00    -0.352 N 
ATOM      3  O   UNL A   1      32.480  32.109  27.224  1.00  0.00    -0.269 OA
ATOM      4  C   UNL A   1      33.211  31.186  26.878  1.00  0.00     0.251 C 
ATOM      5  H   UNL A   1      32.202  30.871  25.186  1.00  0.00     0.163 HD
BRANCH   4   6
ATOM      6  C   UNL A   1      34.434  30.877  27.650  1.00  0.00     0.039 A 
ATOM      7  C   UNL A   1      34.594  29.631  28.259  1.00  0.00     0.014 A 
ATOM      8  C   UNL A   1      35.470  31.814  27.698  1.00  0.00     0.014 A 
ATOM      9  C   UNL A   1      35.726  29.371  29.023  1.00  0.00     0.010 A 
ATOM     10  C   UNL A   1      36.651  31.515  28.386  1.00  0.00     0.010 A 
ATOM     11  C   UNL A   1      36.781  30.296  29.069  1.00  0.00    -0.014 A 
BRANCH  11  12
ATOM     12  C   UNL A   1      38.038  29.925  29.768  1.00  0.00     0.031 A 
ATOM     13  C   UNL A   1      38.357  30.467  31.132  1.00  0.00     0.074 A 
ATOM     14  C   UNL A   1      38.879  29.062  29.164  1.00  0.00     0.049 A 
ATOM     15  N   UNL A   1      39.405  30.246  31.883  1.00  0.00    -0.248 NA
ATOM     16  C   UNL A   1      37.374  31.383  31.728  1.00  0.00     0.031 C 
ATOM     17  C   UNL A   1      38.666  28.469  27.839  1.00  0.00     0.029 A 
ATOM     18  N   UNL A   1      40.063  28.512  29.582  1.00  0.00    -0.354 N 
ATOM     19  C   UNL A   1      39.216  30.998  33.037  1.00  0.00     0.074 A 
ATOM     20  C   UNL A   1      37.969  31.716  32.865  1.00  0.00     0.031 C 
ATOM     21  C   UNL A   1      39.653  27.601  27.580  1.00  0.00     0.029 A 
ATOM     22  C   UNL A   1      40.613  27.634  28.675  1.00  0.00     0.049 A 
ATOM     23  H   UNL A   1      40.480  28.723  30.448  1.00  0.00     0.167 HD
ATOM     24  C   UNL A   1      40.007  31.073  34.137  1.00  0.00     0.034 A 
ATOM     25  C   UNL A   1      41.775  26.954  28.706  1.00  0.00     0.034 A 
ATOM     26  C   UNL A   1      41.253  30.356  34.278  1.00  0.00     0.049 A 
ATOM     27  C   UNL A   1      42.667  27.113  29.906  1.00  0.00     0.074 A 
ATOM     28  C   UNL A   1      42.127  30.349  35.352  1.00  0.00     0.029 A 
ATOM     29  N   UNL A   1      41.811  29.525  33.312  1.00  0.00    -0.354 N 
ATOM     30  N   UNL A   1      42.471  27.826  30.992  1.00  0.00    -0.248 NA
ATOM     31  C   UNL A   1      43.935  26.376  29.887  1.00  0.00     0.031 C 
ATOM     32  C   UNL A   1      43.244  29.580  35.007  1.00  0.00     0.029 A 
ATOM     33  C   UNL A   1      43.031  29.031  33.752  1.00  0.00     0.049 A 
ATOM     34  H   UNL A   1      41.399  29.318  32.442  1.00  0.00     0.167 HD
ATOM     35  C   UNL A   1      43.583  27.602  31.797  1.00  0.00     0.074 A 
ATOM     36  C   UNL A   1      44.432  26.672  31.078  1.00  0.00     0.031 C 
ATOM     37  C   UNL A   1      43.875  28.117  33.019  1.00  0.00     0.034 A 
BRANCH  24  38
ATOM     38  C   UNL A   1      39.567  31.997  35.250  1.00  0.00     0.023 A 
ATOM     39  C   UNL A   1      38.868  31.523  36.374  1.00  0.00     0.031 A 
ATOM     40  C   UNL A   1      39.836  33.376  35.179  1.00  0.00     0.131 A 
ATOM     41  C   UNL A   1      38.400  32.425  37.342  1.00  0.00     0.055 A 
ATOM     42  C   UNL A   1      39.441  34.257  36.187  1.00  0.00     0.041 A 
ATOM     43  F   UNL A   1      40.479  33.894  34.121  1.00  0.00    -0.206 F 
ATOM     44  C   UNL A   1      38.705  33.787  37.270  1.00  0.00     0.022 A 
BRANCH  41  45
ATOM     45  S   UNL A   1      37.263  31.815  38.618  1.00  0.00     0.124 S 
ATOM     46  O   UNL A   1      37.029  30.442  38.172  1.00  0.00    -0.237 OA
ATOM     47  O   UNL A   1      38.047  31.964  39.837  1.00  0.00    -0.237 OA
ATOM     48  O   UNL A   1      36.109  32.704  38.503  1.00  0.00    -0.744 OA
ENDBRANCH  41  45
ENDBRANCH  24  38
BRANCH  25  49
ATOM     49  C   UNL A   1      42.174  26.094  27.555  1.00  0.00     0.023 A 
ATOM     50  C   UNL A   1      41.787  24.747  27.489  1.00  0.00     0.031 A 
ATOM     51  C   UNL A   1      42.976  26.601  26.516  1.00  0.00     0.131 A 
ATOM     52  C   UNL A   1      42.239  23.943  26.432  1.00  0.00     0.055 A 
ATOM     53  C   UNL A   1      43.370  25.813  25.435  1.00  0.00     0.041 A 
ATOM     54  F   UNL A   1      43.375  27.884  26.529  1.00  0.00    -0.206 F 
ATOM     55  C   UNL A   1      43.013  24.470  25.396  1.00  0.00     0.022 A 
BRANCH  52  56
ATOM     56  S   UNL A   1      41.875  22.167  26.479  1.00  0.00     0.124 S 
ATOM     57  O   UNL A   1      42.685  21.669  25.374  1.00  0.00    -0.237 OA
ATOM     58  O   UNL A   1      42.324  21.803  27.820  1.00  0.00    -0.237 OA
ATOM     59  O   UNL A   1      40.430  22.111  26.271  1.00  0.00    -0.744 OA
ENDBRANCH  52  56
ENDBRANCH  25  49
BRANCH  37  60
ATOM     60  C   UNL A   1      45.153  27.641  33.668  1.00  0.00     0.023 A 
ATOM     61  C   UNL A   1      45.183  26.511  34.504  1.00  0.00     0.031 A 
ATOM     62  C   UNL A   1      46.352  28.345  33.462  1.00  0.00     0.131 A 
ATOM     63  C   UNL A   1      46.375  26.155  35.153  1.00  0.00     0.055 A 
ATOM     64  C   UNL A   1      47.550  27.946  34.057  1.00  0.00     0.041 A 
ATOM     65  F   UNL A   1      46.381  29.435  32.677  1.00  0.00    -0.206 F 
ATOM     66  C   UNL A   1      47.563  26.853  34.919  1.00  0.00     0.022 A 
BRANCH  63  67
ATOM     67  S   UNL A   1      46.330  24.827  36.386  1.00  0.00     0.124 S 
ATOM     68  O   UNL A   1      47.265  23.858  35.823  1.00  0.00    -0.237 OA
ATOM     69  O   UNL A   1      46.771  25.509  37.598  1.00  0.00    -0.237 OA
ATOM     70  O   UNL A   1      44.929  24.408  36.387  1.00  0.00    -0.744 OA
ENDBRANCH  63  67
ENDBRANCH  37  60
ENDBRANCH  11  12
ENDBRANCH   4   6
ENDBRANCH   1   2
BRANCH   1  71
ATOM     71  C   UNL A   1      32.331  28.055  25.454  1.00  0.00     0.042 C 
BRANCH  71  72
ATOM     72  C   UNL A   1      32.571  27.171  26.676  1.00  0.00     0.117 C 
BRANCH  72  73
ATOM     73  N   UNL A   1      31.669  26.035  26.746  1.00  0.00    -0.354 N 
ATOM     74  C   UNL A   1      31.791  24.705  26.511  1.00  0.00     0.245 C 
ATOM     75  H   UNL A   1      30.760  26.289  27.027  1.00  0.00     0.163 HD
ATOM     76  O   UNL A   1      30.865  24.025  26.979  1.00  0.00    -0.272 OA
BRANCH  74  77
ATOM     77  C   UNL A   1      32.996  23.991  25.798  1.00  0.00     0.119 C 
ATOM     78  C   UNL A   1      34.125  24.854  25.195  1.00  0.00     0.038 C 
ATOM     79  C   UNL A   1      33.554  23.091  26.942  1.00  0.00     0.038 C 
ATOM     80  C   UNL A   1      35.420  24.083  24.900  1.00  0.00     0.003 C 
ATOM     81  C   UNL A   1      34.852  22.359  26.619  1.00  0.00     0.003 C 
ATOM     82  C   UNL A   1      35.913  23.326  26.127  1.00  0.00     0.000 C 
BRANCH  77  83
ATOM     83  N   UNL A   1      32.517  23.073  24.709  1.00  0.00    -0.338 N 
ATOM     84  C   UNL A   1      32.217  23.265  23.392  1.00  0.00     0.253 C 
ATOM     85  H   UNL A   1      32.394  22.142  25.008  1.00  0.00     0.164 HD
ATOM     86  O   UNL A   1      32.247  22.309  22.621  1.00  0.00    -0.269 OA
BRANCH  84  87
ATOM     87  C   UNL A   1      31.646  24.559  22.947  1.00  0.00     0.057 A 
ATOM     88  C   UNL A   1      32.292  25.357  22.084  1.00  0.00     0.099 A 
ATOM     89  C   UNL A   1      30.357  24.972  23.480  1.00  0.00     0.041 A 
ATOM     90  N   UNL A   1      31.796  26.611  21.803  1.00  0.00    -0.327 N 
ATOM     91  C   UNL A   1      29.871  26.198  23.238  1.00  0.00     0.106 A 
ATOM     92  C   UNL A   1      30.654  27.140  22.376  1.00  0.00     0.266 A 
ATOM     93  H   UNL A   1      32.286  27.165  21.154  1.00  0.00     0.169 HD
ATOM     94  Cl  UNL A   1      28.362  26.718  23.876  1.00  0.00    -0.078 Cl
ATOM     95  O   UNL A   1      30.324  28.303  22.174  1.00  0.00    -0.268 OA
ENDBRANCH  84  87
ENDBRANCH  77  83
ENDBRANCH  74  77
ENDBRANCH  72  73
ENDBRANCH  71  72
ENDBRANCH   1  71
TORSDOF 15
ENDMDL
MODEL 3
REMARK VINA RESULT:     -12.3      2.008      7.708
REMARK SMILES O=C(NCCCNC(=O)C1(NC(=O)c2c[nH]c(=O)c(Cl)c2)CCCCC1)c1ccc(-c2c3nc(c(-c4cc(S(=O)(=O)[O-])ccc4F)c4ccc([nH]4)c(-c4cc(S(=O)(=O)[O-])ccc4F)c4nc(c(-c5cc(S(=O)(=O)[O-])ccc5F)c5ccc2[nH]5)C=C4)C=C3)cc1
REMARK SMILES IDX 4 1 3 2 1 3 2 4 27 6 28 7 89 8 29 9 88 10 30 11 31 12 32 13
REMARK SMILES IDX 82 14 33 15 87 16 81 17 83 18 34 19 86 20 80 21 79 22 35 24
REMARK SMILES IDX 67 25 47 26 66 27 48 28 51 29 65 30 84 31 49 32 50 33 64 35
REMARK SMILES IDX 85 36 52 37 36 38 37 39 45 40 38 41 44 42 46 43 43 44 39 45
REMARK SMILES IDX 40 46 41 47 42 48 68 49 69 50 77 51 70 52 76 53 78 54 75 55
REMARK SMILES IDX 71 56 72 57 73 58 74 59 53 60 54 61 62 62 55 63 61 64 63 65
REMARK SMILES IDX 60 66 56 67 57 68 58 69 59 70 5 71 6 72 7 73 8 74 9 76 10 77
REMARK SMILES IDX 22 78 26 79 23 80 25 81 24 82 11 83 12 84 13 86 14 87 15 88
REMARK SMILES IDX 21 89 16 90 19 91 17 92 20 94 18 95
REMARK H PARENT 3 5 83 23 51 34 7 75 11 85 16 93
REMARK Flexibility Score: inf
ROOT
ATOM      1  C   UNL A   1      33.910  28.961  26.313  1.00  0.00     0.118 C 
ENDROOT
BRANCH   1   2
ATOM      2  N   UNL A   1      33.715  30.344  26.722  1.00  0.00    -0.352 N 
ATOM      3  O   UNL A   1      33.850  32.151  28.046  1.00  0.00    -0.269 OA
ATOM      4  C   UNL A   1      34.358  31.096  27.675  1.00  0.00     0.251 C 
ATOM      5  H   UNL A   1      33.005  30.821  26.235  1.00  0.00     0.163 HD
BRANCH   4   6
ATOM      6  C   UNL A   1      35.649  30.653  28.244  1.00  0.00     0.039 A 
ATOM      7  C   UNL A   1      35.686  29.718  29.279  1.00  0.00     0.014 A 
ATOM      8  C   UNL A   1      36.842  31.116  27.680  1.00  0.00     0.014 A 
ATOM      9  C   UNL A   1      36.903  29.347  29.837  1.00  0.00     0.010 A 
ATOM     10  C   UNL A   1      38.070  30.667  28.178  1.00  0.00     0.010 A 
ATOM     11  C   UNL A   1      38.109  29.791  29.274  1.00  0.00    -0.014 A 
BRANCH  11  12
ATOM     12  C   UNL A   1      39.393  29.256  29.798  1.00  0.00     0.031 A 
ATOM     13  C   UNL A   1      40.042  29.850  31.015  1.00  0.00     0.074 A 
ATOM     14  C   UNL A   1      39.952  28.201  29.173  1.00  0.00     0.049 A 
ATOM     15  N   UNL A   1      41.157  29.506  31.605  1.00  0.00    -0.248 NA
ATOM     16  C   UNL A   1      39.352  30.983  31.648  1.00  0.00     0.031 C 
ATOM     17  C   UNL A   1      39.404  27.542  27.982  1.00  0.00     0.029 A 
ATOM     18  N   UNL A   1      41.084  27.480  29.454  1.00  0.00    -0.354 N 
ATOM     19  C   UNL A   1      41.312  30.380  32.675  1.00  0.00     0.074 A 
ATOM     20  C   UNL A   1      40.193  31.299  32.624  1.00  0.00     0.031 C 
ATOM     21  C   UNL A   1      40.167  26.486  27.671  1.00  0.00     0.029 A 
ATOM     22  C   UNL A   1      41.304  26.437  28.582  1.00  0.00     0.049 A 
ATOM     23  H   UNL A   1      41.681  27.686  30.208  1.00  0.00     0.167 HD
ATOM     24  C   UNL A   1      42.291  30.405  33.613  1.00  0.00     0.034 A 
ATOM     25  C   UNL A   1      42.320  25.558  28.505  1.00  0.00     0.034 A 
ATOM     26  C   UNL A   1      43.404  29.483  33.634  1.00  0.00     0.049 A 
ATOM     27  C   UNL A   1      43.431  25.655  29.515  1.00  0.00     0.074 A 
ATOM     28  C   UNL A   1      44.446  29.410  34.544  1.00  0.00     0.029 A 
ATOM     29  N   UNL A   1      43.628  28.480  32.698  1.00  0.00    -0.354 N 
ATOM     30  N   UNL A   1      43.558  26.486  30.524  1.00  0.00    -0.248 NA
ATOM     31  C   UNL A   1      44.532  24.696  29.378  1.00  0.00     0.031 C 
ATOM     32  C   UNL A   1      45.335  28.419  34.115  1.00  0.00     0.029 A 
ATOM     33  C   UNL A   1      44.808  27.809  32.989  1.00  0.00     0.049 A 
ATOM     34  H   UNL A   1      43.036  28.276  31.939  1.00  0.00     0.167 HD
ATOM     35  C   UNL A   1      44.746  26.132  31.156  1.00  0.00     0.074 A 
ATOM     36  C   UNL A   1      45.281  24.999  30.427  1.00  0.00     0.031 C 
ATOM     37  C   UNL A   1      45.338  26.691  32.243  1.00  0.00     0.034 A 
BRANCH  24  38
ATOM     38  C   UNL A   1      42.224  31.490  34.663  1.00  0.00     0.023 A 
ATOM     39  C   UNL A   1      41.247  31.483  35.675  1.00  0.00     0.031 A 
ATOM     40  C   UNL A   1      43.139  32.558  34.644  1.00  0.00     0.131 A 
ATOM     41  C   UNL A   1      41.162  32.556  36.576  1.00  0.00     0.055 A 
ATOM     42  C   UNL A   1      43.103  33.579  35.596  1.00  0.00     0.041 A 
ATOM     43  F   UNL A   1      44.081  32.634  33.690  1.00  0.00    -0.206 F 
ATOM     44  C   UNL A   1      42.101  33.590  36.561  1.00  0.00     0.022 A 
BRANCH  41  45
ATOM     45  S   UNL A   1      39.723  32.652  37.676  1.00  0.00     0.124 S 
ATOM     46  O   UNL A   1      39.200  33.981  37.363  1.00  0.00    -0.237 OA
ATOM     47  O   UNL A   1      38.909  31.527  37.232  1.00  0.00    -0.237 OA
ATOM     48  O   UNL A   1      40.301  32.518  39.012  1.00  0.00    -0.744 OA
ENDBRANCH  41  45
ENDBRANCH  24  38
BRANCH  25  49
ATOM     49  C   UNL A   1      42.352  24.539  27.416  1.00  0.00     0.023 A 
ATOM     50  C   UNL A   1      41.567  23.378  27.488  1.00  0.00     0.031 A 
ATOM     51  C   UNL A   1      43.195  24.697  26.301  1.00  0.00     0.131 A 
ATOM     52  C   UNL A   1      41.673  22.402  26.486  1.00  0.00     0.055 A 
ATOM     53  C   UNL A   1      43.249  23.753  25.276  1.00  0.00     0.041 A 
ATOM     54  F   UNL A   1      43.968  25.789  26.182  1.00  0.00    -0.206 F 
ATOM     55  C   UNL A   1      42.495  22.589  25.372  1.00  0.00     0.022 A 
BRANCH  52  56
ATOM     56  S   UNL A   1      40.785  20.836  26.707  1.00  0.00     0.124 S 
ATOM     57  O   UNL A   1      39.479  21.154  26.143  1.00  0.00    -0.237 OA
ATOM     58  O   UNL A   1      41.610  19.911  25.935  1.00  0.00    -0.237 OA
ATOM     59  O   UNL A   1      40.810  20.633  28.154  1.00  0.00    -0.744 OA
ENDBRANCH  52  56
ENDBRANCH  25  49
BRANCH  37  60
ATOM     60  C   UNL A   1      46.614  26.046  32.727  1.00  0.00     0.023 A 
ATOM     61  C   UNL A   1      46.605  24.982  33.646  1.00  0.00     0.031 A 
ATOM     62  C   UNL A   1      47.859  26.520  32.275  1.00  0.00     0.131 A 
ATOM     63  C   UNL A   1      47.817  24.469  34.133  1.00  0.00     0.055 A 
ATOM     64  C   UNL A   1      49.060  25.960  32.711  1.00  0.00     0.041 A 
ATOM     65  F   UNL A   1      47.928  27.536  31.400  1.00  0.00    -0.206 F 
ATOM     66  C   UNL A   1      49.044  24.938  33.656  1.00  0.00     0.022 A 
BRANCH  63  67
ATOM     67  S   UNL A   1      47.769  23.249  35.473  1.00  0.00     0.124 S 
ATOM     68  O   UNL A   1      46.611  23.690  36.244  1.00  0.00    -0.237 OA
ATOM     69  O   UNL A   1      47.612  21.993  34.748  1.00  0.00    -0.237 OA
ATOM     70  O   UNL A   1      49.059  23.422  36.139  1.00  0.00    -0.744 OA
ENDBRANCH  63  67
ENDBRANCH  37  60
ENDBRANCH  11  12
ENDBRANCH   4   6
ENDBRANCH   1   2
BRANCH   1  71
ATOM     71  C   UNL A   1      32.873  28.020  26.925  1.00  0.00     0.042 C 
BRANCH  71  72
ATOM     72  C   UNL A   1      32.181  27.129  25.896  1.00  0.00     0.117 C 
BRANCH  72  73
ATOM     73  N   UNL A   1      31.611  25.925  26.474  1.00  0.00    -0.354 N 
ATOM     74  C   UNL A   1      32.003  24.630  26.557  1.00  0.00     0.245 C 
ATOM     75  H   UNL A   1      30.739  26.086  26.901  1.00  0.00     0.163 HD
ATOM     76  O   UNL A   1      31.376  23.968  27.398  1.00  0.00    -0.272 OA
BRANCH  74  77
ATOM     77  C   UNL A   1      33.186  23.961  25.766  1.00  0.00     0.119 C 
ATOM     78  C   UNL A   1      34.247  24.865  25.105  1.00  0.00     0.038 C 
ATOM     79  C   UNL A   1      33.841  23.072  26.867  1.00  0.00     0.038 C 
ATOM     80  C   UNL A   1      35.547  24.140  24.725  1.00  0.00     0.003 C 
ATOM     81  C   UNL A   1      35.140  22.386  26.460  1.00  0.00     0.003 C 
ATOM     82  C   UNL A   1      36.138  23.391  25.914  1.00  0.00     0.000 C 
BRANCH  77  83
ATOM     83  N   UNL A   1      32.672  23.035  24.700  1.00  0.00    -0.338 N 
ATOM     84  C   UNL A   1      32.336  23.217  23.390  1.00  0.00     0.253 C 
ATOM     85  H   UNL A   1      32.554  22.108  25.011  1.00  0.00     0.164 HD
ATOM     86  O   UNL A   1      32.341  22.253  22.627  1.00  0.00    -0.269 OA
BRANCH  84  87
ATOM     87  C   UNL A   1      31.759  24.510  22.949  1.00  0.00     0.057 A 
ATOM     88  C   UNL A   1      32.415  25.327  22.112  1.00  0.00     0.099 A 
ATOM     89  C   UNL A   1      30.453  24.899  23.457  1.00  0.00     0.041 A 
ATOM     90  N   UNL A   1      31.910  26.578  21.836  1.00  0.00    -0.327 N 
ATOM     91  C   UNL A   1      29.956  26.121  23.220  1.00  0.00     0.106 A 
ATOM     92  C   UNL A   1      30.747  27.085  22.390  1.00  0.00     0.266 A 
ATOM     93  H   UNL A   1      32.408  27.148  21.207  1.00  0.00     0.169 HD
ATOM     94  Cl  UNL A   1      28.426  26.613  23.829  1.00  0.00    -0.078 Cl
ATOM     95  O   UNL A   1      30.407  28.247  22.195  1.00  0.00    -0.268 OA
ENDBRANCH  84  87
ENDBRANCH  77  83
ENDBRANCH  74  77
ENDBRANCH  72  73
ENDBRANCH  71  72
ENDBRANCH   1  71
TORSDOF 15
ENDMDL
