MODEL 1
REMARK VINA RESULT:     -12.0      0.000      0.000
REMARK SMILES Cn1cc(CNC(=O)Cn2ccc(C(=O)NCCCNC(=O)c3ccc(-c4c5nc(c(-c6cc(S(=O)(=O)[O-])ccc6F)c6ccc([nH]6)c(-c6cc(S(=O)(=O)[O-])ccc6F)c6nc(c(-c7cc(S(=O)(=O)[O-])ccc7F)c7ccc4[nH]7)C=C6)C=C5)cc3)n2)cn1
REMARK SMILES IDX 17 1 16 2 14 3 15 4 13 6 10 7 11 8 86 9 12 10 9 11 7 12 6 13
REMARK SMILES IDX 8 15 5 16 4 17 1 18 2 19 3 20 88 21 87 22 18 23 19 24 20 25
REMARK SMILES IDX 21 26 22 28 23 29 24 30 85 31 25 32 84 33 26 34 27 35 28 36
REMARK SMILES IDX 78 37 29 38 83 39 77 40 79 41 30 42 82 43 76 44 75 45 31 47
REMARK SMILES IDX 63 48 43 49 62 50 44 51 47 52 61 53 80 54 45 55 46 56 60 58
REMARK SMILES IDX 81 59 48 60 32 61 33 62 41 63 34 64 40 65 42 66 39 67 35 68
REMARK SMILES IDX 36 69 37 70 38 71 64 72 65 73 73 74 66 75 72 76 74 77 71 78
REMARK SMILES IDX 67 79 68 80 69 81 70 82 49 83 50 84 58 85 51 86 57 87 59 88
REMARK SMILES IDX 56 89 52 90 53 91 54 92 55 93
REMARK H PARENT 16 5 6 14 20 27 79 46 47 57
REMARK Flexibility Score: inf
ROOT
ATOM      1  C   UNL A   1      33.181  29.668  26.251  1.00  0.00     0.118 C 
ENDROOT
BRANCH   1   2
ATOM      2  N   UNL A   1      33.345  29.686  24.810  1.00  0.00    -0.351 N 
ATOM      3  C   UNL A   1      32.941  28.798  23.838  1.00  0.00     0.271 C 
ATOM      4  O   UNL A   1      33.075  29.171  22.670  1.00  0.00    -0.267 OA
ATOM      5  H   UNL A   1      33.830  30.471  24.468  1.00  0.00     0.163 HD
BRANCH   3   6
ATOM      6  C   UNL A   1      32.373  27.474  24.182  1.00  0.00     0.150 A 
ATOM      7  N   UNL A   1      32.298  25.336  24.330  1.00  0.00    -0.263 N 
ATOM      8  C   UNL A   1      31.191  25.758  24.997  1.00  0.00     0.110 A 
ATOM      9  N   UNL A   1      33.003  26.344  23.792  1.00  0.00    -0.167 NA
ATOM     10  C   UNL A   1      31.216  27.128  24.931  1.00  0.00     0.056 A 
BRANCH   7  11
ATOM     11  C   UNL A   1      32.760  23.974  24.131  1.00  0.00     0.243 C 
BRANCH  11  12
ATOM     12  C   UNL A   1      33.894  23.888  23.138  1.00  0.00     0.241 C 
ATOM     13  N   UNL A   1      35.186  23.963  23.571  1.00  0.00    -0.350 N 
ATOM     14  H   UNL A   1      35.875  23.926  22.869  1.00  0.00     0.163 HD
ATOM     15  O   UNL A   1      33.690  23.756  21.930  1.00  0.00    -0.273 OA
BRANCH  13  16
ATOM     16  C   UNL A   1      35.677  24.091  24.928  1.00  0.00     0.155 C 
BRANCH  16  17
ATOM     17  C   UNL A   1      36.702  23.042  25.132  1.00  0.00     0.009 A 
ATOM     18  C   UNL A   1      39.726  21.479  26.317  1.00  0.00     0.173 C 
ATOM     19  N   UNL A   1      38.471  21.893  25.741  1.00  0.00    -0.275 N 
ATOM     20  C   UNL A   1      37.865  23.107  25.873  1.00  0.00     0.113 A 
ATOM     21  N   UNL A   1      37.788  21.035  24.965  1.00  0.00    -0.181 NA
ATOM     22  C   UNL A   1      36.707  21.728  24.606  1.00  0.00     0.140 A 
ENDBRANCH  16  17
ENDBRANCH  13  16
ENDBRANCH  11  12
ENDBRANCH   7  11
ENDBRANCH   3   6
ENDBRANCH   1   2
BRANCH   1  23
ATOM     23  C   UNL A   1      34.298  30.419  26.983  1.00  0.00     0.042 C 
BRANCH  23  24
ATOM     24  C   UNL A   1      35.209  29.485  27.765  1.00  0.00     0.118 C 
BRANCH  24  25
ATOM     25  N   UNL A   1      35.439  29.959  29.130  1.00  0.00    -0.352 N 
ATOM     26  C   UNL A   1      36.445  29.609  30.005  1.00  0.00     0.251 C 
ATOM     27  H   UNL A   1      34.789  30.617  29.468  1.00  0.00     0.163 HD
ATOM     28  O   UNL A   1      36.293  29.809  31.213  1.00  0.00    -0.269 OA
BRANCH  26  29
ATOM     29  C   UNL A   1      37.680  28.988  29.494  1.00  0.00     0.039 A 
ATOM     30  C   UNL A   1      38.312  29.483  28.351  1.00  0.00     0.014 A 
ATOM     31  C   UNL A   1      38.219  27.901  30.181  1.00  0.00     0.014 A 
ATOM     32  C   UNL A   1      39.534  28.935  27.966  1.00  0.00     0.010 A 
ATOM     33  C   UNL A   1      39.485  27.453  29.884  1.00  0.00     0.010 A 
ATOM     34  C   UNL A   1      40.135  27.938  28.757  1.00  0.00    -0.014 A 
BRANCH  34  35
ATOM     35  C   UNL A   1      41.528  27.547  28.530  1.00  0.00     0.031 A 
ATOM     36  C   UNL A   1      41.652  26.270  27.779  1.00  0.00     0.074 A 
ATOM     37  C   UNL A   1      42.598  28.342  28.761  1.00  0.00     0.049 A 
ATOM     38  N   UNL A   1      42.003  25.120  28.247  1.00  0.00    -0.248 NA
ATOM     39  C   UNL A   1      41.117  26.207  26.406  1.00  0.00     0.031 C 
ATOM     40  C   UNL A   1      42.598  29.731  29.229  1.00  0.00     0.029 A 
ATOM     41  N   UNL A   1      43.925  28.113  28.528  1.00  0.00    -0.354 N 
ATOM     42  C   UNL A   1      42.028  24.263  27.155  1.00  0.00     0.074 A 
ATOM     43  C   UNL A   1      41.231  24.903  26.145  1.00  0.00     0.031 C 
ATOM     44  C   UNL A   1      43.816  30.283  29.029  1.00  0.00     0.029 A 
ATOM     45  C   UNL A   1      44.732  29.254  28.566  1.00  0.00     0.049 A 
ATOM     46  H   UNL A   1      44.284  27.214  28.348  1.00  0.00     0.167 HD
ATOM     47  C   UNL A   1      42.957  23.266  27.081  1.00  0.00     0.034 A 
ATOM     48  C   UNL A   1      46.051  29.359  28.233  1.00  0.00     0.034 A 
ATOM     49  C   UNL A   1      43.557  23.039  28.383  1.00  0.00     0.049 A 
ATOM     50  C   UNL A   1      46.624  27.998  28.343  1.00  0.00     0.074 A 
ATOM     51  C   UNL A   1      43.064  22.732  29.639  1.00  0.00     0.029 A 
ATOM     52  N   UNL A   1      44.828  23.526  28.598  1.00  0.00    -0.354 N 
ATOM     53  N   UNL A   1      46.726  27.357  29.473  1.00  0.00    -0.248 NA
ATOM     54  C   UNL A   1      46.626  27.158  27.155  1.00  0.00     0.031 C 
ATOM     55  C   UNL A   1      43.848  23.511  30.542  1.00  0.00     0.029 A 
ATOM     56  C   UNL A   1      44.844  24.165  29.815  1.00  0.00     0.049 A 
ATOM     57  H   UNL A   1      45.593  23.434  27.986  1.00  0.00     0.167 HD
ATOM     58  C   UNL A   1      46.327  26.062  29.183  1.00  0.00     0.074 A 
ATOM     59  C   UNL A   1      46.390  25.971  27.724  1.00  0.00     0.031 C 
ATOM     60  C   UNL A   1      45.708  25.290  30.127  1.00  0.00     0.034 A 
BRANCH  47  61
ATOM     61  C   UNL A   1      43.635  22.812  25.799  1.00  0.00     0.023 A 
ATOM     62  C   UNL A   1      43.738  21.421  25.602  1.00  0.00     0.031 A 
ATOM     63  C   UNL A   1      44.429  23.606  24.939  1.00  0.00     0.131 A 
ATOM     64  C   UNL A   1      44.691  20.882  24.722  1.00  0.00     0.055 A 
ATOM     65  C   UNL A   1      45.328  23.063  24.015  1.00  0.00     0.041 A 
ATOM     66  F   UNL A   1      44.451  24.941  24.984  1.00  0.00    -0.206 F 
ATOM     67  C   UNL A   1      45.495  21.694  23.931  1.00  0.00     0.022 A 
BRANCH  64  68
ATOM     68  S   UNL A   1      44.990  19.098  24.785  1.00  0.00     0.124 S 
ATOM     69  O   UNL A   1      43.724  18.617  25.329  1.00  0.00    -0.237 OA
ATOM     70  O   UNL A   1      45.250  18.789  23.383  1.00  0.00    -0.237 OA
ATOM     71  O   UNL A   1      46.142  18.981  25.676  1.00  0.00    -0.744 OA
ENDBRANCH  64  68
ENDBRANCH  47  61
BRANCH  48  72
ATOM     72  C   UNL A   1      46.761  30.489  27.557  1.00  0.00     0.023 A 
ATOM     73  C   UNL A   1      46.089  31.563  26.922  1.00  0.00     0.031 A 
ATOM     74  C   UNL A   1      48.147  30.657  27.769  1.00  0.00     0.131 A 
ATOM     75  C   UNL A   1      46.798  32.734  26.546  1.00  0.00     0.055 A 
ATOM     76  C   UNL A   1      48.839  31.813  27.400  1.00  0.00     0.041 A 
ATOM     77  F   UNL A   1      48.865  29.737  28.432  1.00  0.00    -0.206 F 
ATOM     78  C   UNL A   1      48.166  32.862  26.798  1.00  0.00     0.022 A 
BRANCH  75  79
ATOM     79  S   UNL A   1      45.937  34.165  25.805  1.00  0.00     0.124 S 
ATOM     80  O   UNL A   1      45.644  34.992  26.970  1.00  0.00    -0.237 OA
ATOM     81  O   UNL A   1      46.929  34.684  24.871  1.00  0.00    -0.237 OA
ATOM     82  O   UNL A   1      44.761  33.566  25.170  1.00  0.00    -0.744 OA
ENDBRANCH  75  79
ENDBRANCH  48  72
BRANCH  60  83
ATOM     83  C   UNL A   1      45.781  25.735  31.580  1.00  0.00     0.023 A 
ATOM     84  C   UNL A   1      46.875  25.526  32.453  1.00  0.00     0.031 A 
ATOM     85  C   UNL A   1      44.693  26.477  32.075  1.00  0.00     0.131 A 
ATOM     86  C   UNL A   1      46.837  26.029  33.769  1.00  0.00     0.055 A 
ATOM     87  C   UNL A   1      44.671  26.997  33.368  1.00  0.00     0.041 A 
ATOM     88  F   UNL A   1      43.629  26.732  31.295  1.00  0.00    -0.206 F 
ATOM     89  C   UNL A   1      45.738  26.765  34.224  1.00  0.00     0.022 A 
BRANCH  86  90
ATOM     90  S   UNL A   1      48.196  25.699  34.940  1.00  0.00     0.124 S 
ATOM     91  O   UNL A   1      47.645  26.099  36.229  1.00  0.00    -0.237 OA
ATOM     92  O   UNL A   1      48.428  24.269  34.760  1.00  0.00    -0.237 OA
ATOM     93  O   UNL A   1      49.279  26.555  34.450  1.00  0.00    -0.744 OA
ENDBRANCH  86  90
ENDBRANCH  60  83
ENDBRANCH  34  35
ENDBRANCH  26  29
ENDBRANCH  24  25
ENDBRANCH  23  24
ENDBRANCH   1  23
TORSDOF 17
ENDMDL
MODEL 2
REMARK VINA RESULT:     -11.8      6.517     12.951
REMARK SMILES Cn1cc(CNC(=O)Cn2ccc(C(=O)NCCCNC(=O)c3ccc(-c4c5nc(c(-c6cc(S(=O)(=O)[O-])ccc6F)c6ccc([nH]6)c(-c6cc(S(=O)(=O)[O-])ccc6F)c6nc(c(-c7cc(S(=O)(=O)[O-])ccc7F)c7ccc4[nH]7)C=C6)C=C5)cc3)n2)cn1
REMARK SMILES IDX 17 1 16 2 14 3 15 4 13 6 10 7 11 8 86 9 12 10 9 11 7 12 6 13
REMARK SMILES IDX 8 15 5 16 4 17 1 18 2 19 3 20 88 21 87 22 18 23 19 24 20 25
REMARK SMILES IDX 21 26 22 28 23 29 24 30 85 31 25 32 84 33 26 34 27 35 28 36
REMARK SMILES IDX 78 37 29 38 83 39 77 40 79 41 30 42 82 43 76 44 75 45 31 47
REMARK SMILES IDX 63 48 43 49 62 50 44 51 47 52 61 53 80 54 45 55 46 56 60 58
REMARK SMILES IDX 81 59 48 60 32 61 33 62 41 63 34 64 40 65 42 66 39 67 35 68
REMARK SMILES IDX 36 69 37 70 38 71 64 72 65 73 73 74 66 75 72 76 74 77 71 78
REMARK SMILES IDX 67 79 68 80 69 81 70 82 49 83 50 84 58 85 51 86 57 87 59 88
REMARK SMILES IDX 56 89 52 90 53 91 54 92 55 93
REMARK H PARENT 16 5 6 14 20 27 79 46 47 57
REMARK Flexibility Score: inf
ROOT
ATOM      1  C   UNL A   1      45.963  21.926  37.435  1.00  0.00     0.118 C 
ENDROOT
BRANCH   1   2
ATOM      2  N   UNL A   1      45.957  20.894  36.417  1.00  0.00    -0.351 N 
ATOM      3  C   UNL A   1      45.966  19.520  36.515  1.00  0.00     0.271 C 
ATOM      4  O   UNL A   1      45.781  18.897  35.466  1.00  0.00    -0.267 OA
ATOM      5  H   UNL A   1      45.945  21.235  35.494  1.00  0.00     0.163 HD
BRANCH   3   6
ATOM      6  C   UNL A   1      46.179  18.834  37.810  1.00  0.00     0.150 A 
ATOM      7  N   UNL A   1      45.780  17.457  39.405  1.00  0.00    -0.263 N 
ATOM      8  C   UNL A   1      46.980  18.008  39.730  1.00  0.00     0.110 A 
ATOM      9  N   UNL A   1      45.255  17.968  38.280  1.00  0.00    -0.167 NA
ATOM     10  C   UNL A   1      47.270  18.889  38.719  1.00  0.00     0.056 A 
BRANCH   7  11
ATOM     11  C   UNL A   1      45.035  16.441  40.127  1.00  0.00     0.243 C 
BRANCH  11  12
ATOM     12  C   UNL A   1      43.824  17.002  40.831  1.00  0.00     0.241 C 
ATOM     13  N   UNL A   1      42.608  16.403  40.678  1.00  0.00    -0.350 N 
ATOM     14  H   UNL A   1      41.856  16.835  41.143  1.00  0.00     0.163 HD
ATOM     15  O   UNL A   1      43.896  18.003  41.547  1.00  0.00    -0.273 OA
BRANCH  13  16
ATOM     16  C   UNL A   1      42.277  15.215  39.918  1.00  0.00     0.155 C 
BRANCH  16  17
ATOM     17  C   UNL A   1      42.096  14.105  40.881  1.00  0.00     0.009 A 
ATOM     18  C   UNL A   1      42.205  12.314  44.008  1.00  0.00     0.173 C 
ATOM     19  N   UNL A   1      42.060  12.833  42.671  1.00  0.00    -0.275 N 
ATOM     20  C   UNL A   1      42.401  14.077  42.228  1.00  0.00     0.113 A 
ATOM     21  N   UNL A   1      41.553  12.042  41.709  1.00  0.00    -0.181 NA
ATOM     22  C   UNL A   1      41.563  12.819  40.626  1.00  0.00     0.140 A 
ENDBRANCH  16  17
ENDBRANCH  13  16
ENDBRANCH  11  12
ENDBRANCH   7  11
ENDBRANCH   3   6
ENDBRANCH   1   2
BRANCH   1  23
ATOM     23  C   UNL A   1      47.096  22.940  37.243  1.00  0.00     0.042 C 
BRANCH  23  24
ATOM     24  C   UNL A   1      46.606  24.378  37.327  1.00  0.00     0.118 C 
BRANCH  24  25
ATOM     25  N   UNL A   1      45.149  24.456  37.422  1.00  0.00    -0.352 N 
ATOM     26  C   UNL A   1      44.244  24.880  36.472  1.00  0.00     0.251 C 
ATOM     27  H   UNL A   1      44.761  24.165  38.280  1.00  0.00     0.163 HD
ATOM     28  O   UNL A   1      43.114  25.227  36.824  1.00  0.00    -0.269 OA
BRANCH  26  29
ATOM     29  C   UNL A   1      44.639  24.929  35.053  1.00  0.00     0.039 A 
ATOM     30  C   UNL A   1      44.638  23.773  34.268  1.00  0.00     0.014 A 
ATOM     31  C   UNL A   1      45.002  26.155  34.499  1.00  0.00     0.014 A 
ATOM     32  C   UNL A   1      44.914  23.883  32.906  1.00  0.00     0.010 A 
ATOM     33  C   UNL A   1      45.140  26.286  33.137  1.00  0.00     0.010 A 
ATOM     34  C   UNL A   1      45.133  25.151  32.336  1.00  0.00    -0.014 A 
BRANCH  34  35
ATOM     35  C   UNL A   1      45.150  25.321  30.881  1.00  0.00     0.031 A 
ATOM     36  C   UNL A   1      46.328  26.093  30.406  1.00  0.00     0.074 A 
ATOM     37  C   UNL A   1      44.332  24.672  30.021  1.00  0.00     0.049 A 
ATOM     38  N   UNL A   1      46.341  27.309  29.976  1.00  0.00    -0.248 NA
ATOM     39  C   UNL A   1      47.673  25.537  30.639  1.00  0.00     0.031 C 
ATOM     40  C   UNL A   1      43.317  23.662  30.339  1.00  0.00     0.029 A 
ATOM     41  N   UNL A   1      44.300  24.698  28.656  1.00  0.00    -0.354 N 
ATOM     42  C   UNL A   1      47.654  27.557  29.595  1.00  0.00     0.074 A 
ATOM     43  C   UNL A   1      48.444  26.562  30.266  1.00  0.00     0.031 C 
ATOM     44  C   UNL A   1      42.941  23.019  29.211  1.00  0.00     0.029 A 
ATOM     45  C   UNL A   1      43.562  23.667  28.067  1.00  0.00     0.049 A 
ATOM     46  H   UNL A   1      44.760  25.390  28.128  1.00  0.00     0.167 HD
ATOM     47  C   UNL A   1      47.922  28.356  28.523  1.00  0.00     0.034 A 
ATOM     48  C   UNL A   1      43.471  23.351  26.743  1.00  0.00     0.034 A 
ATOM     49  C   UNL A   1      46.749  29.133  28.166  1.00  0.00     0.049 A 
ATOM     50  C   UNL A   1      43.831  24.576  25.991  1.00  0.00     0.074 A 
ATOM     51  C   UNL A   1      45.925  30.013  28.845  1.00  0.00     0.029 A 
ATOM     52  N   UNL A   1      46.029  28.737  27.059  1.00  0.00    -0.354 N 
ATOM     53  N   UNL A   1      43.113  25.663  26.016  1.00  0.00    -0.248 NA
ATOM     54  C   UNL A   1      45.224  24.766  25.617  1.00  0.00     0.031 C 
ATOM     55  C   UNL A   1      44.606  29.705  28.393  1.00  0.00     0.029 A 
ATOM     56  C   UNL A   1      44.696  28.739  27.390  1.00  0.00     0.049 A 
ATOM     57  H   UNL A   1      46.405  28.495  26.182  1.00  0.00     0.167 HD
ATOM     58  C   UNL A   1      44.032  26.693  26.135  1.00  0.00     0.074 A 
ATOM     59  C   UNL A   1      45.315  26.091  25.768  1.00  0.00     0.031 C 
ATOM     60  C   UNL A   1      43.714  27.846  26.798  1.00  0.00     0.034 A 
BRANCH  47  61
ATOM     61  C   UNL A   1      49.057  28.125  27.538  1.00  0.00     0.023 A 
ATOM     62  C   UNL A   1      49.925  29.212  27.315  1.00  0.00     0.031 A 
ATOM     63  C   UNL A   1      49.163  27.066  26.608  1.00  0.00     0.131 A 
ATOM     64  C   UNL A   1      50.712  29.286  26.154  1.00  0.00     0.055 A 
ATOM     65  C   UNL A   1      50.001  27.115  25.488  1.00  0.00     0.041 A 
ATOM     66  F   UNL A   1      48.421  25.957  26.670  1.00  0.00    -0.206 F 
ATOM     67  C   UNL A   1      50.751  28.247  25.232  1.00  0.00     0.022 A 
BRANCH  64  68
ATOM     68  S   UNL A   1      51.529  30.857  25.782  1.00  0.00     0.124 S 
ATOM     69  O   UNL A   1      52.639  30.831  26.728  1.00  0.00    -0.237 OA
ATOM     70  O   UNL A   1      51.876  30.688  24.375  1.00  0.00    -0.237 OA
ATOM     71  O   UNL A   1      50.492  31.849  26.055  1.00  0.00    -0.744 OA
ENDBRANCH  64  68
ENDBRANCH  47  61
BRANCH  48  72
ATOM     72  C   UNL A   1      43.378  22.003  26.103  1.00  0.00     0.023 A 
ATOM     73  C   UNL A   1      44.491  21.327  25.543  1.00  0.00     0.031 A 
ATOM     74  C   UNL A   1      42.206  21.235  26.281  1.00  0.00     0.131 A 
ATOM     75  C   UNL A   1      44.402  19.952  25.204  1.00  0.00     0.055 A 
ATOM     76  C   UNL A   1      42.126  19.880  25.948  1.00  0.00     0.041 A 
ATOM     77  F   UNL A   1      41.120  21.753  26.874  1.00  0.00    -0.206 F 
ATOM     78  C   UNL A   1      43.227  19.229  25.420  1.00  0.00     0.022 A 
BRANCH  75  79
ATOM     79  S   UNL A   1      45.849  19.040  24.561  1.00  0.00     0.124 S 
ATOM     80  O   UNL A   1      45.482  18.811  23.168  1.00  0.00    -0.237 OA
ATOM     81  O   UNL A   1      46.944  19.972  24.801  1.00  0.00    -0.237 OA
ATOM     82  O   UNL A   1      45.889  17.833  25.388  1.00  0.00    -0.744 OA
ENDBRANCH  75  79
ENDBRANCH  48  72
BRANCH  60  83
ATOM     83  C   UNL A   1      42.248  28.126  27.090  1.00  0.00     0.023 A 
ATOM     84  C   UNL A   1      41.594  27.892  28.324  1.00  0.00     0.031 A 
ATOM     85  C   UNL A   1      41.498  28.731  26.066  1.00  0.00     0.131 A 
ATOM     86  C   UNL A   1      40.236  28.237  28.481  1.00  0.00     0.055 A 
ATOM     87  C   UNL A   1      40.163  29.097  26.235  1.00  0.00     0.041 A 
ATOM     88  F   UNL A   1      42.059  29.001  24.876  1.00  0.00    -0.206 F 
ATOM     89  C   UNL A   1      39.523  28.841  27.440  1.00  0.00     0.022 A 
BRANCH  86  90
ATOM     90  S   UNL A   1      39.347  27.869  30.030  1.00  0.00     0.124 S 
ATOM     91  O   UNL A   1      38.258  28.837  30.043  1.00  0.00    -0.237 OA
ATOM     92  O   UNL A   1      38.959  26.473  29.848  1.00  0.00    -0.237 OA
ATOM     93  O   UNL A   1      40.364  28.084  31.063  1.00  0.00    -0.744 OA
ENDBRANCH  86  90
ENDBRANCH  60  83
ENDBRANCH  34  35
ENDBRANCH  26  29
ENDBRANCH  24  25
ENDBRANCH  23  24
ENDBRANCH   1  23
TORSDOF 17
ENDMDL
MODEL 3
REMARK VINA RESULT:     -11.7      3.785      9.012
REMARK SMILES Cn1cc(CNC(=O)Cn2ccc(C(=O)NCCCNC(=O)c3ccc(-c4c5nc(c(-c6cc(S(=O)(=O)[O-])ccc6F)c6ccc([nH]6)c(-c6cc(S(=O)(=O)[O-])ccc6F)c6nc(c(-c7cc(S(=O)(=O)[O-])ccc7F)c7ccc4[nH]7)C=C6)C=C5)cc3)n2)cn1
REMARK SMILES IDX 17 1 16 2 14 3 15 4 13 6 10 7 11 8 86 9 12 10 9 11 7 12 6 13
REMARK SMILES IDX 8 15 5 16 4 17 1 18 2 19 3 20 88 21 87 22 18 23 19 24 20 25
REMARK SMILES IDX 21 26 22 28 23 29 24 30 85 31 25 32 84 33 26 34 27 35 28 36
REMARK SMILES IDX 78 37 29 38 83 39 77 40 79 41 30 42 82 43 76 44 75 45 31 47
REMARK SMILES IDX 63 48 43 49 62 50 44 51 47 52 61 53 80 54 45 55 46 56 60 58
REMARK SMILES IDX 81 59 48 60 32 61 33 62 41 63 34 64 40 65 42 66 39 67 35 68
REMARK SMILES IDX 36 69 37 70 38 71 64 72 65 73 73 74 66 75 72 76 74 77 71 78
REMARK SMILES IDX 67 79 68 80 69 81 70 82 49 83 50 84 58 85 51 86 57 87 59 88
REMARK SMILES IDX 56 89 52 90 53 91 54 92 55 93
REMARK H PARENT 16 5 6 14 20 27 79 46 47 57
REMARK Flexibility Score: inf
ROOT
ATOM      1  C   UNL A   1      38.095  22.697  26.016  1.00  0.00     0.118 C 
ENDROOT
BRANCH   1   2
ATOM      2  N   UNL A   1      37.834  23.015  24.626  1.00  0.00    -0.351 N 
ATOM      3  C   UNL A   1      36.740  22.765  23.826  1.00  0.00     0.271 C 
ATOM      4  O   UNL A   1      36.738  23.313  22.720  1.00  0.00    -0.267 OA
ATOM      5  H   UNL A   1      38.566  23.493  24.175  1.00  0.00     0.163 HD
BRANCH   3   6
ATOM      6  C   UNL A   1      35.632  21.892  24.275  1.00  0.00     0.150 A 
ATOM      7  N   UNL A   1      33.607  21.207  24.460  1.00  0.00    -0.263 N 
ATOM      8  C   UNL A   1      34.346  20.243  25.070  1.00  0.00     0.110 A 
ATOM      9  N   UNL A   1      34.351  22.232  24.012  1.00  0.00    -0.167 NA
ATOM     10  C   UNL A   1      35.652  20.647  24.959  1.00  0.00     0.056 A 
BRANCH   7  11
ATOM     11  C   UNL A   1      32.169  21.252  24.271  1.00  0.00     0.243 C 
BRANCH  11  12
ATOM     12  C   UNL A   1      31.781  21.636  22.864  1.00  0.00     0.241 C 
ATOM     13  N   UNL A   1      31.387  22.914  22.591  1.00  0.00    -0.350 N 
ATOM     14  H   UNL A   1      31.123  23.090  21.660  1.00  0.00     0.163 HD
ATOM     15  O   UNL A   1      31.802  20.821  21.940  1.00  0.00    -0.273 OA
BRANCH  13  16
ATOM     16  C   UNL A   1      31.304  24.045  23.493  1.00  0.00     0.155 C 
BRANCH  16  17
ATOM     17  C   UNL A   1      32.159  25.119  22.939  1.00  0.00     0.009 A 
ATOM     18  C   UNL A   1      33.772  28.331  22.668  1.00  0.00     0.173 C 
ATOM     19  N   UNL A   1      33.244  26.994  22.575  1.00  0.00    -0.275 N 
ATOM     20  C   UNL A   1      32.401  26.377  23.453  1.00  0.00     0.113 A 
ATOM     21  N   UNL A   1      33.571  26.228  21.520  1.00  0.00    -0.181 NA
ATOM     22  C   UNL A   1      32.922  25.086  21.747  1.00  0.00     0.140 A 
ENDBRANCH  16  17
ENDBRANCH  13  16
ENDBRANCH  11  12
ENDBRANCH   7  11
ENDBRANCH   3   6
ENDBRANCH   1   2
BRANCH   1  23
ATOM     23  C   UNL A   1      39.073  21.529  26.183  1.00  0.00     0.042 C 
BRANCH  23  24
ATOM     24  C   UNL A   1      40.211  21.859  27.136  1.00  0.00     0.118 C 
BRANCH  24  25
ATOM     25  N   UNL A   1      41.476  22.065  26.430  1.00  0.00    -0.352 N 
ATOM     26  C   UNL A   1      42.145  23.245  26.187  1.00  0.00     0.251 C 
ATOM     27  H   UNL A   1      41.907  21.250  26.083  1.00  0.00     0.163 HD
ATOM     28  O   UNL A   1      42.983  23.290  25.283  1.00  0.00    -0.269 OA
BRANCH  26  29
ATOM     29  C   UNL A   1      41.842  24.440  26.994  1.00  0.00     0.039 A 
ATOM     30  C   UNL A   1      42.561  24.720  28.158  1.00  0.00     0.014 A 
ATOM     31  C   UNL A   1      40.832  25.300  26.568  1.00  0.00     0.014 A 
ATOM     32  C   UNL A   1      42.316  25.915  28.832  1.00  0.00     0.010 A 
ATOM     33  C   UNL A   1      40.684  26.538  27.150  1.00  0.00     0.010 A 
ATOM     34  C   UNL A   1      41.396  26.840  28.304  1.00  0.00    -0.014 A 
BRANCH  34  35
ATOM     35  C   UNL A   1      41.323  28.204  28.833  1.00  0.00     0.031 A 
ATOM     36  C   UNL A   1      42.342  29.108  28.237  1.00  0.00     0.074 A 
ATOM     37  C   UNL A   1      40.317  28.677  29.604  1.00  0.00     0.049 A 
ATOM     38  N   UNL A   1      43.412  29.557  28.800  1.00  0.00    -0.248 NA
ATOM     39  C   UNL A   1      42.288  29.367  26.787  1.00  0.00     0.031 C 
ATOM     40  C   UNL A   1      39.103  27.971  30.026  1.00  0.00     0.029 A 
ATOM     41  N   UNL A   1      40.109  29.935  30.096  1.00  0.00    -0.354 N 
ATOM     42  C   UNL A   1      43.999  30.403  27.869  1.00  0.00     0.074 A 
ATOM     43  C   UNL A   1      43.429  30.035  26.602  1.00  0.00     0.031 C 
ATOM     44  C   UNL A   1      38.199  28.857  30.502  1.00  0.00     0.029 A 
ATOM     45  C   UNL A   1      38.816  30.172  30.570  1.00  0.00     0.049 A 
ATOM     46  H   UNL A   1      40.816  30.620  30.116  1.00  0.00     0.167 HD
ATOM     47  C   UNL A   1      44.656  31.527  28.275  1.00  0.00     0.034 A 
ATOM     48  C   UNL A   1      38.277  31.357  30.979  1.00  0.00     0.034 A 
ATOM     49  C   UNL A   1      44.951  31.454  29.695  1.00  0.00     0.049 A 
ATOM     50  C   UNL A   1      39.413  32.232  31.350  1.00  0.00     0.074 A 
ATOM     51  C   UNL A   1      45.621  30.552  30.501  1.00  0.00     0.029 A 
ATOM     52  N   UNL A   1      44.172  32.202  30.551  1.00  0.00    -0.354 N 
ATOM     53  N   UNL A   1      40.205  31.984  32.355  1.00  0.00    -0.248 NA
ATOM     54  C   UNL A   1      39.972  33.100  30.325  1.00  0.00     0.031 C 
ATOM     55  C   UNL A   1      44.842  30.473  31.694  1.00  0.00     0.029 A 
ATOM     56  C   UNL A   1      43.804  31.403  31.607  1.00  0.00     0.049 A 
ATOM     57  H   UNL A   1      43.923  33.147  30.429  1.00  0.00     0.167 HD
ATOM     58  C   UNL A   1      41.478  32.250  31.878  1.00  0.00     0.074 A 
ATOM     59  C   UNL A   1      41.264  33.042  30.666  1.00  0.00     0.031 C 
ATOM     60  C   UNL A   1      42.562  31.558  32.344  1.00  0.00     0.034 A 
BRANCH  47  61
ATOM     61  C   UNL A   1      44.641  32.852  27.531  1.00  0.00     0.023 A 
ATOM     62  C   UNL A   1      43.914  33.900  28.129  1.00  0.00     0.031 A 
ATOM     63  C   UNL A   1      45.012  33.066  26.183  1.00  0.00     0.131 A 
ATOM     64  C   UNL A   1      43.462  34.995  27.373  1.00  0.00     0.055 A 
ATOM     65  C   UNL A   1      44.617  34.193  25.453  1.00  0.00     0.041 A 
ATOM     66  F   UNL A   1      45.707  32.181  25.464  1.00  0.00    -0.206 F 
ATOM     67  C   UNL A   1      43.802  35.145  26.034  1.00  0.00     0.022 A 
BRANCH  64  68
ATOM     68  S   UNL A   1      42.256  36.110  28.132  1.00  0.00     0.124 S 
ATOM     69  O   UNL A   1      42.431  37.311  27.322  1.00  0.00    -0.237 OA
ATOM     70  O   UNL A   1      41.009  35.377  27.939  1.00  0.00    -0.237 OA
ATOM     71  O   UNL A   1      42.715  36.211  29.515  1.00  0.00    -0.744 OA
ENDBRANCH  64  68
ENDBRANCH  47  61
BRANCH  48  72
ATOM     72  C   UNL A   1      36.884  31.868  30.794  1.00  0.00     0.023 A 
ATOM     73  C   UNL A   1      36.202  32.640  31.767  1.00  0.00     0.031 A 
ATOM     74  C   UNL A   1      36.296  31.819  29.511  1.00  0.00     0.131 A 
ATOM     75  C   UNL A   1      35.004  33.325  31.433  1.00  0.00     0.055 A 
ATOM     76  C   UNL A   1      35.118  32.499  29.187  1.00  0.00     0.041 A 
ATOM     77  F   UNL A   1      36.898  31.183  28.495  1.00  0.00    -0.206 F 
ATOM     78  C   UNL A   1      34.474  33.264  30.143  1.00  0.00     0.022 A 
BRANCH  75  79
ATOM     79  S   UNL A   1      34.155  34.394  32.647  1.00  0.00     0.124 S 
ATOM     80  O   UNL A   1      32.934  34.763  31.939  1.00  0.00    -0.237 OA
ATOM     81  O   UNL A   1      34.000  33.510  33.796  1.00  0.00    -0.237 OA
ATOM     82  O   UNL A   1      35.098  35.496  32.852  1.00  0.00    -0.744 OA
ENDBRANCH  75  79
ENDBRANCH  48  72
BRANCH  60  83
ATOM     83  C   UNL A   1      42.405  30.757  33.627  1.00  0.00     0.023 A 
ATOM     84  C   UNL A   1      42.100  29.376  33.705  1.00  0.00     0.031 A 
ATOM     85  C   UNL A   1      42.650  31.432  34.836  1.00  0.00     0.131 A 
ATOM     86  C   UNL A   1      42.026  28.737  34.959  1.00  0.00     0.055 A 
ATOM     87  C   UNL A   1      42.604  30.790  36.073  1.00  0.00     0.041 A 
ATOM     88  F   UNL A   1      42.965  32.738  34.837  1.00  0.00    -0.206 F 
ATOM     89  C   UNL A   1      42.280  29.442  36.140  1.00  0.00     0.022 A 
BRANCH  86  90
ATOM     90  S   UNL A   1      41.551  26.981  35.092  1.00  0.00     0.124 S 
ATOM     91  O   UNL A   1      41.166  26.832  36.489  1.00  0.00    -0.237 OA
ATOM     92  O   UNL A   1      40.471  26.871  34.116  1.00  0.00    -0.237 OA
ATOM     93  O   UNL A   1      42.777  26.271  34.720  1.00  0.00    -0.744 OA
ENDBRANCH  86  90
ENDBRANCH  60  83
ENDBRANCH  34  35
ENDBRANCH  26  29
ENDBRANCH  24  25
ENDBRANCH  23  24
ENDBRANCH   1  23
TORSDOF 17
ENDMDL
