MODEL 1
REMARK VINA RESULT:     -13.5      0.000      0.000
REMARK SMILES Cc1ccccc1OC1(C(=O)NCCCNC(=O)c2ccc(-c3c4nc(c(-c5cc(S(=O)(=O)[O-])ccc5F)c5ccc([nH]5)c(-c5cc(S(=O)(=O)[O-])ccc5F)c5nc(c(-c6cc(S(=O)(=O)[O-])ccc6F)c6ccc3[nH]6)C=C5)C=C4)cc2)CCN(C(=O)[C@H]2CCCCO2)CC1
REMARK SMILES IDX 14 1 13 2 12 3 10 4 11 5 9 7 82 8 94 9 83 10 93 11 84 12
REMARK SMILES IDX 85 13 86 14 8 15 7 16 1 17 2 18 3 19 4 20 6 21 5 22 87 23
REMARK SMILES IDX 88 24 92 25 89 26 91 27 90 28 15 29 16 30 17 31 18 33 19 34
REMARK SMILES IDX 20 35 81 36 21 37 80 38 22 39 23 40 24 41 74 42 25 43 79 44
REMARK SMILES IDX 73 45 75 46 26 47 78 48 72 49 71 50 27 52 59 53 39 54 58 55
REMARK SMILES IDX 40 56 43 57 57 58 76 59 41 60 42 61 56 63 77 64 44 65 28 66
REMARK SMILES IDX 29 67 37 68 30 69 36 70 38 71 35 72 31 73 32 74 33 75 34 76
REMARK SMILES IDX 60 77 61 78 69 79 62 80 68 81 70 82 67 83 63 84 64 85 65 86
REMARK SMILES IDX 66 87 45 88 46 89 54 90 47 91 53 92 55 93 52 94 48 95 49 96
REMARK SMILES IDX 50 97 51 98
REMARK H PARENT 12 6 16 32 75 51 43 62
REMARK Flexibility Score: inf
ROOT
ATOM      1  C   UNL A   1      33.242  30.081  27.627  1.00  0.00     0.042 C 
ENDROOT
BRANCH   1   2
ATOM      2  C   UNL A   1      32.453  30.169  26.323  1.00  0.00     0.118 C 
BRANCH   2   3
ATOM      3  N   UNL A   1      33.266  29.948  25.133  1.00  0.00    -0.353 N 
ATOM      4  C   UNL A   1      33.265  29.036  24.120  1.00  0.00     0.264 C 
ATOM      5  O   UNL A   1      34.020  29.325  23.179  1.00  0.00    -0.270 OA
ATOM      6  H   UNL A   1      33.986  30.613  25.039  1.00  0.00     0.163 HD
BRANCH   4   7
ATOM      7  C   UNL A   1      32.473  27.668  24.137  1.00  0.00     0.190 C 
ATOM      8  C   UNL A   1      32.424  27.173  22.696  1.00  0.00     0.080 C 
ATOM      9  C   UNL A   1      33.002  26.751  25.236  1.00  0.00     0.080 C 
ATOM     10  C   UNL A   1      33.216  25.922  22.384  1.00  0.00     0.124 C 
ATOM     11  C   UNL A   1      33.739  25.491  24.796  1.00  0.00     0.124 C 
ATOM     12  N   UNL A   1      33.401  24.976  23.472  1.00  0.00    -0.340 N 
ATOM     13  C   UNL A   1      33.640  23.649  23.087  1.00  0.00     0.251 C 
ATOM     14  O   UNL A   1      33.648  23.327  21.893  1.00  0.00    -0.272 OA
BRANCH   7  15
ATOM     15  O   UNL A   1      31.146  28.138  24.536  1.00  0.00    -0.477 OA
BRANCH  15  16
ATOM     16  C   UNL A   1      30.016  28.463  23.853  1.00  0.00     0.123 A 
ATOM     17  C   UNL A   1      28.550  26.330  23.879  1.00  0.00     0.048 C 
ATOM     18  C   UNL A   1      28.856  27.746  23.525  1.00  0.00    -0.009 A 
ATOM     19  C   UNL A   1      27.846  28.375  22.753  1.00  0.00     0.007 A 
ATOM     20  C   UNL A   1      27.949  29.697  22.341  1.00  0.00     0.001 A 
ATOM     21  C   UNL A   1      30.093  29.803  23.420  1.00  0.00     0.047 A 
ATOM     22  C   UNL A   1      29.078  30.419  22.681  1.00  0.00     0.004 A 
ENDBRANCH  15  16
ENDBRANCH   7  15
BRANCH  13  23
ATOM     23  C   UNL A   1      33.788  22.575  24.191  1.00  0.00     0.207 C 
ATOM     24  C   UNL A   1      32.694  21.521  23.954  1.00  0.00     0.042 C 
ATOM     25  O   UNL A   1      35.091  21.984  24.094  1.00  0.00    -0.368 OA
ATOM     26  C   UNL A   1      32.905  20.248  24.762  1.00  0.00     0.006 C 
ATOM     27  C   UNL A   1      35.288  20.905  24.997  1.00  0.00     0.161 C 
ATOM     28  C   UNL A   1      34.343  19.770  24.646  1.00  0.00     0.029 C 
ENDBRANCH  13  23
ENDBRANCH   4   7
ENDBRANCH   2   3
ENDBRANCH   1   2
BRANCH   1  29
ATOM     29  C   UNL A   1      34.750  30.010  27.436  1.00  0.00     0.118 C 
BRANCH  29  30
ATOM     30  N   UNL A   1      35.512  30.966  28.257  1.00  0.00    -0.352 N 
ATOM     31  C   UNL A   1      36.782  30.814  28.777  1.00  0.00     0.251 C 
ATOM     32  H   UNL A   1      35.060  31.816  28.461  1.00  0.00     0.163 HD
ATOM     33  O   UNL A   1      37.336  31.679  29.433  1.00  0.00    -0.269 OA
BRANCH  31  34
ATOM     34  C   UNL A   1      37.522  29.587  28.393  1.00  0.00     0.039 A 
ATOM     35  C   UNL A   1      37.744  28.651  29.407  1.00  0.00     0.014 A 
ATOM     36  C   UNL A   1      38.291  29.599  27.232  1.00  0.00     0.014 A 
ATOM     37  C   UNL A   1      38.916  27.906  29.381  1.00  0.00     0.010 A 
ATOM     38  C   UNL A   1      39.501  28.934  27.258  1.00  0.00     0.010 A 
ATOM     39  C   UNL A   1      39.846  28.150  28.368  1.00  0.00    -0.014 A 
BRANCH  39  40
ATOM     40  C   UNL A   1      41.246  27.749  28.487  1.00  0.00     0.031 A 
ATOM     41  C   UNL A   1      41.691  26.440  27.976  1.00  0.00     0.074 A 
ATOM     42  C   UNL A   1      42.147  28.556  29.091  1.00  0.00     0.049 A 
ATOM     43  N   UNL A   1      42.639  25.740  28.504  1.00  0.00    -0.248 NA
ATOM     44  C   UNL A   1      41.058  25.791  26.837  1.00  0.00     0.031 C 
ATOM     45  C   UNL A   1      43.597  28.380  29.136  1.00  0.00     0.029 A 
ATOM     46  N   UNL A   1      41.899  29.586  29.992  1.00  0.00    -0.354 N 
ATOM     47  C   UNL A   1      42.929  24.713  27.636  1.00  0.00     0.074 A 
ATOM     48  C   UNL A   1      41.876  24.753  26.646  1.00  0.00     0.031 C 
ATOM     49  C   UNL A   1      44.088  29.074  30.174  1.00  0.00     0.029 A 
ATOM     50  C   UNL A   1      42.965  29.633  30.904  1.00  0.00     0.049 A 
ATOM     51  H   UNL A   1      41.114  30.179  29.990  1.00  0.00     0.167 HD
ATOM     52  C   UNL A   1      44.100  24.027  27.757  1.00  0.00     0.034 A 
ATOM     53  C   UNL A   1      42.750  29.499  32.244  1.00  0.00     0.034 A 
ATOM     54  C   UNL A   1      44.901  24.505  28.883  1.00  0.00     0.049 A 
ATOM     55  C   UNL A   1      43.393  28.264  32.839  1.00  0.00     0.074 A 
ATOM     56  C   UNL A   1      45.986  25.363  28.963  1.00  0.00     0.029 A 
ATOM     57  N   UNL A   1      44.443  24.332  30.187  1.00  0.00    -0.354 N 
ATOM     58  N   UNL A   1      43.908  27.293  32.136  1.00  0.00    -0.248 NA
ATOM     59  C   UNL A   1      43.482  28.016  34.275  1.00  0.00     0.031 C 
ATOM     60  C   UNL A   1      46.135  25.760  30.316  1.00  0.00     0.029 A 
ATOM     61  C   UNL A   1      45.164  25.118  31.066  1.00  0.00     0.049 A 
ATOM     62  H   UNL A   1      43.708  23.732  30.446  1.00  0.00     0.167 HD
ATOM     63  C   UNL A   1      44.345  26.295  32.973  1.00  0.00     0.074 A 
ATOM     64  C   UNL A   1      44.091  26.818  34.304  1.00  0.00     0.031 C 
ATOM     65  C   UNL A   1      44.861  25.121  32.493  1.00  0.00     0.034 A 
BRANCH  52  66
ATOM     66  C   UNL A   1      44.648  23.157  26.649  1.00  0.00     0.023 A 
ATOM     67  C   UNL A   1      44.052  21.908  26.377  1.00  0.00     0.031 A 
ATOM     68  C   UNL A   1      45.775  23.473  25.864  1.00  0.00     0.131 A 
ATOM     69  C   UNL A   1      44.635  20.999  25.475  1.00  0.00     0.055 A 
ATOM     70  C   UNL A   1      46.399  22.542  25.024  1.00  0.00     0.041 A 
ATOM     71  F   UNL A   1      46.289  24.711  25.848  1.00  0.00    -0.206 F 
ATOM     72  C   UNL A   1      45.839  21.288  24.839  1.00  0.00     0.022 A 
BRANCH  69  73
ATOM     73  S   UNL A   1      43.786  19.434  25.126  1.00  0.00     0.124 S 
ATOM     74  O   UNL A   1      42.389  19.774  25.376  1.00  0.00    -0.237 OA
ATOM     75  O   UNL A   1      44.153  19.190  23.736  1.00  0.00    -0.237 OA
ATOM     76  O   UNL A   1      44.377  18.506  26.090  1.00  0.00    -0.744 OA
ENDBRANCH  69  73
ENDBRANCH  52  66
BRANCH  53  77
ATOM     77  C   UNL A   1      41.475  30.126  32.690  1.00  0.00     0.023 A 
ATOM     78  C   UNL A   1      41.435  31.537  32.739  1.00  0.00     0.031 A 
ATOM     79  C   UNL A   1      40.258  29.434  32.644  1.00  0.00     0.131 A 
ATOM     80  C   UNL A   1      40.220  32.217  32.574  1.00  0.00     0.055 A 
ATOM     81  C   UNL A   1      39.041  30.117  32.530  1.00  0.00     0.041 A 
ATOM     82  F   UNL A   1      40.235  28.094  32.566  1.00  0.00    -0.206 F 
ATOM     83  C   UNL A   1      39.022  31.511  32.445  1.00  0.00     0.022 A 
BRANCH  80  84
ATOM     84  S   UNL A   1      40.230  34.011  32.277  1.00  0.00     0.124 S 
ATOM     85  O   UNL A   1      39.189  34.485  33.179  1.00  0.00    -0.237 OA
ATOM     86  O   UNL A   1      41.593  34.404  32.621  1.00  0.00    -0.237 OA
ATOM     87  O   UNL A   1      39.932  34.117  30.849  1.00  0.00    -0.744 OA
ENDBRANCH  80  84
ENDBRANCH  53  77
BRANCH  65  88
ATOM     88  C   UNL A   1      45.219  23.905  33.326  1.00  0.00     0.023 A 
ATOM     89  C   UNL A   1      46.472  23.718  33.929  1.00  0.00     0.031 A 
ATOM     90  C   UNL A   1      44.261  22.895  33.592  1.00  0.00     0.131 A 
ATOM     91  C   UNL A   1      46.771  22.546  34.650  1.00  0.00     0.055 A 
ATOM     92  C   UNL A   1      44.532  21.771  34.381  1.00  0.00     0.041 A 
ATOM     93  F   UNL A   1      43.015  22.954  33.099  1.00  0.00    -0.206 F 
ATOM     94  C   UNL A   1      45.801  21.579  34.899  1.00  0.00     0.022 A 
BRANCH  91  95
ATOM     95  S   UNL A   1      48.481  22.281  35.187  1.00  0.00     0.124 S 
ATOM     96  O   UNL A   1      49.171  23.400  34.548  1.00  0.00    -0.237 OA
ATOM     97  O   UNL A   1      48.369  22.356  36.640  1.00  0.00    -0.237 OA
ATOM     98  O   UNL A   1      48.812  20.962  34.655  1.00  0.00    -0.744 OA
ENDBRANCH  91  95
ENDBRANCH  65  88
ENDBRANCH  39  40
ENDBRANCH  31  34
ENDBRANCH  29  30
ENDBRANCH   1  29
TORSDOF 16
ENDMDL
MODEL 2
REMARK VINA RESULT:     -13.4      4.039     10.896
REMARK SMILES Cc1ccccc1OC1(C(=O)NCCCNC(=O)c2ccc(-c3c4nc(c(-c5cc(S(=O)(=O)[O-])ccc5F)c5ccc([nH]5)c(-c5cc(S(=O)(=O)[O-])ccc5F)c5nc(c(-c6cc(S(=O)(=O)[O-])ccc6F)c6ccc3[nH]6)C=C5)C=C4)cc2)CCN(C(=O)[C@H]2CCCCO2)CC1
REMARK SMILES IDX 14 1 13 2 12 3 10 4 11 5 9 7 82 8 94 9 83 10 93 11 84 12
REMARK SMILES IDX 85 13 86 14 8 15 7 16 1 17 2 18 3 19 4 20 6 21 5 22 87 23
REMARK SMILES IDX 88 24 92 25 89 26 91 27 90 28 15 29 16 30 17 31 18 33 19 34
REMARK SMILES IDX 20 35 81 36 21 37 80 38 22 39 23 40 24 41 74 42 25 43 79 44
REMARK SMILES IDX 73 45 75 46 26 47 78 48 72 49 71 50 27 52 59 53 39 54 58 55
REMARK SMILES IDX 40 56 43 57 57 58 76 59 41 60 42 61 56 63 77 64 44 65 28 66
REMARK SMILES IDX 29 67 37 68 30 69 36 70 38 71 35 72 31 73 32 74 33 75 34 76
REMARK SMILES IDX 60 77 61 78 69 79 62 80 68 81 70 82 67 83 63 84 64 85 65 86
REMARK SMILES IDX 66 87 45 88 46 89 54 90 47 91 53 92 55 93 52 94 48 95 49 96
REMARK SMILES IDX 50 97 51 98
REMARK H PARENT 12 6 16 32 75 51 43 62
REMARK Flexibility Score: inf
ROOT
ATOM      1  C   UNL A   1      39.442  21.732  26.229  1.00  0.00     0.042 C 
ENDROOT
BRANCH   1   2
ATOM      2  C   UNL A   1      37.946  21.787  25.933  1.00  0.00     0.118 C 
BRANCH   2   3
ATOM      3  N   UNL A   1      37.637  22.056  24.532  1.00  0.00    -0.353 N 
ATOM      4  C   UNL A   1      36.605  22.648  23.870  1.00  0.00     0.264 C 
ATOM      5  O   UNL A   1      36.827  22.853  22.667  1.00  0.00    -0.270 OA
ATOM      6  H   UNL A   1      38.339  21.732  23.923  1.00  0.00     0.163 HD
BRANCH   4   7
ATOM      7  C   UNL A   1      35.192  22.972  24.502  1.00  0.00     0.190 C 
ATOM      8  C   UNL A   1      35.410  24.096  25.509  1.00  0.00     0.080 C 
ATOM      9  C   UNL A   1      34.134  23.124  23.412  1.00  0.00     0.080 C 
ATOM     10  C   UNL A   1      34.799  25.437  25.165  1.00  0.00     0.124 C 
ATOM     11  C   UNL A   1      33.554  24.517  23.196  1.00  0.00     0.124 C 
ATOM     12  N   UNL A   1      33.601  25.420  24.343  1.00  0.00    -0.340 N 
ATOM     13  C   UNL A   1      32.765  26.539  24.466  1.00  0.00     0.251 C 
ATOM     14  O   UNL A   1      33.036  27.448  25.259  1.00  0.00    -0.272 OA
BRANCH   7  15
ATOM     15  O   UNL A   1      34.933  21.721  25.217  1.00  0.00    -0.477 OA
BRANCH  15  16
ATOM     16  C   UNL A   1      34.167  20.628  24.958  1.00  0.00     0.123 A 
ATOM     17  C   UNL A   1      31.716  21.418  25.219  1.00  0.00     0.048 C 
ATOM     18  C   UNL A   1      32.782  20.412  24.940  1.00  0.00    -0.009 A 
ATOM     19  C   UNL A   1      32.284  19.115  24.658  1.00  0.00     0.007 A 
ATOM     20  C   UNL A   1      33.127  18.051  24.359  1.00  0.00     0.001 A 
ATOM     21  C   UNL A   1      34.997  19.530  24.653  1.00  0.00     0.047 A 
ATOM     22  C   UNL A   1      34.493  18.261  24.352  1.00  0.00     0.004 A 
ENDBRANCH  15  16
ENDBRANCH   7  15
BRANCH  13  23
ATOM     23  C   UNL A   1      31.442  26.565  23.664  1.00  0.00     0.207 C 
ATOM     24  C   UNL A   1      30.310  26.201  24.638  1.00  0.00     0.042 C 
ATOM     25  O   UNL A   1      31.247  27.880  23.128  1.00  0.00    -0.368 OA
ATOM     26  C   UNL A   1      28.924  26.488  24.078  1.00  0.00     0.006 C 
ATOM     27  C   UNL A   1      30.001  28.039  22.465  1.00  0.00     0.161 C 
ATOM     28  C   UNL A   1      28.869  27.878  23.465  1.00  0.00     0.029 C 
ENDBRANCH  13  23
ENDBRANCH   4   7
ENDBRANCH   2   3
ENDBRANCH   1   2
BRANCH   1  29
ATOM     29  C   UNL A   1      39.960  22.920  27.026  1.00  0.00     0.118 C 
BRANCH  29  30
ATOM     30  N   UNL A   1      41.299  23.384  26.624  1.00  0.00    -0.352 N 
ATOM     31  C   UNL A   1      41.727  24.683  26.436  1.00  0.00     0.251 C 
ATOM     32  H   UNL A   1      41.972  22.682  26.472  1.00  0.00     0.163 HD
ATOM     33  O   UNL A   1      42.870  24.964  26.120  1.00  0.00    -0.269 OA
BRANCH  31  34
ATOM     34  C   UNL A   1      40.762  25.761  26.765  1.00  0.00     0.039 A 
ATOM     35  C   UNL A   1      40.960  26.990  26.129  1.00  0.00     0.014 A 
ATOM     36  C   UNL A   1      40.008  25.659  27.932  1.00  0.00     0.014 A 
ATOM     37  C   UNL A   1      40.639  28.154  26.815  1.00  0.00     0.010 A 
ATOM     38  C   UNL A   1      39.783  26.815  28.652  1.00  0.00     0.010 A 
ATOM     39  C   UNL A   1      40.170  28.056  28.126  1.00  0.00    -0.014 A 
BRANCH  39  40
ATOM     40  C   UNL A   1      40.211  29.184  29.052  1.00  0.00     0.031 A 
ATOM     41  C   UNL A   1      39.111  30.166  29.079  1.00  0.00     0.074 A 
ATOM     42  C   UNL A   1      41.268  29.364  29.876  1.00  0.00     0.049 A 
ATOM     43  N   UNL A   1      39.265  31.419  29.348  1.00  0.00    -0.248 NA
ATOM     44  C   UNL A   1      37.737  29.807  28.756  1.00  0.00     0.031 C 
ATOM     45  C   UNL A   1      41.381  30.330  30.967  1.00  0.00     0.029 A 
ATOM     46  N   UNL A   1      42.553  28.854  29.737  1.00  0.00    -0.354 N 
ATOM     47  C   UNL A   1      38.013  31.965  29.509  1.00  0.00     0.074 A 
ATOM     48  C   UNL A   1      37.097  30.936  29.069  1.00  0.00     0.031 C 
ATOM     49  C   UNL A   1      42.680  30.535  31.234  1.00  0.00     0.029 A 
ATOM     50  C   UNL A   1      43.455  29.796  30.255  1.00  0.00     0.049 A 
ATOM     51  H   UNL A   1      42.790  27.983  29.344  1.00  0.00     0.167 HD
ATOM     52  C   UNL A   1      37.868  33.170  30.130  1.00  0.00     0.034 A 
ATOM     53  C   UNL A   1      44.451  30.316  29.482  1.00  0.00     0.034 A 
ATOM     54  C   UNL A   1      39.155  33.741  30.524  1.00  0.00     0.049 A 
ATOM     55  C   UNL A   1      44.322  31.807  29.252  1.00  0.00     0.074 A 
ATOM     56  C   UNL A   1      39.833  33.774  31.732  1.00  0.00     0.029 A 
ATOM     57  N   UNL A   1      40.068  34.136  29.551  1.00  0.00    -0.354 N 
ATOM     58  N   UNL A   1      43.263  32.507  29.554  1.00  0.00    -0.248 NA
ATOM     59  C   UNL A   1      45.368  32.620  28.640  1.00  0.00     0.031 C 
ATOM     60  C   UNL A   1      41.182  34.126  31.470  1.00  0.00     0.029 A 
ATOM     61  C   UNL A   1      41.318  34.341  30.109  1.00  0.00     0.049 A 
ATOM     62  H   UNL A   1      39.855  34.255  28.599  1.00  0.00     0.167 HD
ATOM     63  C   UNL A   1      43.440  33.811  29.157  1.00  0.00     0.074 A 
ATOM     64  C   UNL A   1      44.792  33.836  28.627  1.00  0.00     0.031 C 
ATOM     65  C   UNL A   1      42.450  34.748  29.285  1.00  0.00     0.034 A 
BRANCH  52  66
ATOM     66  C   UNL A   1      36.538  33.652  30.665  1.00  0.00     0.023 A 
ATOM     67  C   UNL A   1      35.600  34.235  29.789  1.00  0.00     0.031 A 
ATOM     68  C   UNL A   1      36.157  33.611  32.020  1.00  0.00     0.131 A 
ATOM     69  C   UNL A   1      34.429  34.849  30.273  1.00  0.00     0.055 A 
ATOM     70  C   UNL A   1      35.032  34.286  32.513  1.00  0.00     0.041 A 
ATOM     71  F   UNL A   1      36.836  32.878  32.915  1.00  0.00    -0.206 F 
ATOM     72  C   UNL A   1      34.169  34.927  31.638  1.00  0.00     0.022 A 
BRANCH  69  73
ATOM     73  S   UNL A   1      33.235  35.530  29.089  1.00  0.00     0.124 S 
ATOM     74  O   UNL A   1      32.750  34.332  28.411  1.00  0.00    -0.237 OA
ATOM     75  O   UNL A   1      32.286  36.205  29.966  1.00  0.00    -0.237 OA
ATOM     76  O   UNL A   1      34.049  36.420  28.262  1.00  0.00    -0.744 OA
ENDBRANCH  69  73
ENDBRANCH  52  66
BRANCH  53  77
ATOM     77  C   UNL A   1      45.014  29.326  28.521  1.00  0.00     0.023 A 
ATOM     78  C   UNL A   1      45.863  28.330  29.050  1.00  0.00     0.031 A 
ATOM     79  C   UNL A   1      44.425  29.094  27.272  1.00  0.00     0.131 A 
ATOM     80  C   UNL A   1      45.971  27.083  28.418  1.00  0.00     0.055 A 
ATOM     81  C   UNL A   1      44.576  27.866  26.618  1.00  0.00     0.041 A 
ATOM     82  F   UNL A   1      43.585  29.992  26.734  1.00  0.00    -0.206 F 
ATOM     83  C   UNL A   1      45.311  26.838  27.213  1.00  0.00     0.022 A 
BRANCH  80  84
ATOM     84  S   UNL A   1      46.770  25.701  29.291  1.00  0.00     0.124 S 
ATOM     85  O   UNL A   1      48.097  26.232  29.571  1.00  0.00    -0.237 OA
ATOM     86  O   UNL A   1      45.912  25.493  30.453  1.00  0.00    -0.237 OA
ATOM     87  O   UNL A   1      46.712  24.611  28.317  1.00  0.00    -0.744 OA
ENDBRANCH  80  84
ENDBRANCH  53  77
BRANCH  65  88
ATOM     88  C   UNL A   1      42.492  36.161  28.735  1.00  0.00     0.023 A 
ATOM     89  C   UNL A   1      43.044  37.248  29.429  1.00  0.00     0.031 A 
ATOM     90  C   UNL A   1      42.013  36.452  27.433  1.00  0.00     0.131 A 
ATOM     91  C   UNL A   1      43.011  38.551  28.895  1.00  0.00     0.055 A 
ATOM     92  C   UNL A   1      42.059  37.732  26.868  1.00  0.00     0.041 A 
ATOM     93  F   UNL A   1      41.479  35.505  26.648  1.00  0.00    -0.206 F 
ATOM     94  C   UNL A   1      42.541  38.798  27.608  1.00  0.00     0.022 A 
BRANCH  91  95
ATOM     95  S   UNL A   1      43.528  39.927  29.955  1.00  0.00     0.124 S 
ATOM     96  O   UNL A   1      43.874  39.234  31.194  1.00  0.00    -0.237 OA
ATOM     97  O   UNL A   1      44.649  40.492  29.213  1.00  0.00    -0.237 OA
ATOM     98  O   UNL A   1      42.339  40.773  30.029  1.00  0.00    -0.744 OA
ENDBRANCH  91  95
ENDBRANCH  65  88
ENDBRANCH  39  40
ENDBRANCH  31  34
ENDBRANCH  29  30
ENDBRANCH   1  29
TORSDOF 16
ENDMDL
MODEL 3
REMARK VINA RESULT:     -13.3      3.868      9.904
REMARK SMILES Cc1ccccc1OC1(C(=O)NCCCNC(=O)c2ccc(-c3c4nc(c(-c5cc(S(=O)(=O)[O-])ccc5F)c5ccc([nH]5)c(-c5cc(S(=O)(=O)[O-])ccc5F)c5nc(c(-c6cc(S(=O)(=O)[O-])ccc6F)c6ccc3[nH]6)C=C5)C=C4)cc2)CCN(C(=O)[C@H]2CCCCO2)CC1
REMARK SMILES IDX 14 1 13 2 12 3 10 4 11 5 9 7 82 8 94 9 83 10 93 11 84 12
REMARK SMILES IDX 85 13 86 14 8 15 7 16 1 17 2 18 3 19 4 20 6 21 5 22 87 23
REMARK SMILES IDX 88 24 92 25 89 26 91 27 90 28 15 29 16 30 17 31 18 33 19 34
REMARK SMILES IDX 20 35 81 36 21 37 80 38 22 39 23 40 24 41 74 42 25 43 79 44
REMARK SMILES IDX 73 45 75 46 26 47 78 48 72 49 71 50 27 52 59 53 39 54 58 55
REMARK SMILES IDX 40 56 43 57 57 58 76 59 41 60 42 61 56 63 77 64 44 65 28 66
REMARK SMILES IDX 29 67 37 68 30 69 36 70 38 71 35 72 31 73 32 74 33 75 34 76
REMARK SMILES IDX 60 77 61 78 69 79 62 80 68 81 70 82 67 83 63 84 64 85 65 86
REMARK SMILES IDX 66 87 45 88 46 89 54 90 47 91 53 92 55 93 52 94 48 95 49 96
REMARK SMILES IDX 50 97 51 98
REMARK H PARENT 12 6 16 32 75 51 43 62
REMARK Flexibility Score: inf
ROOT
ATOM      1  C   UNL A   1      37.901  23.759  25.997  1.00  0.00     0.042 C 
ENDROOT
BRANCH   1   2
ATOM      2  C   UNL A   1      36.984  22.586  25.666  1.00  0.00     0.118 C 
BRANCH   2   3
ATOM      3  N   UNL A   1      35.959  22.343  26.675  1.00  0.00    -0.353 N 
ATOM      4  C   UNL A   1      34.599  22.262  26.668  1.00  0.00     0.264 C 
ATOM      5  O   UNL A   1      34.111  21.836  27.726  1.00  0.00    -0.270 OA
ATOM      6  H   UNL A   1      36.339  22.208  27.573  1.00  0.00     0.163 HD
BRANCH   4   7
ATOM      7  C   UNL A   1      33.671  22.750  25.485  1.00  0.00     0.190 C 
ATOM      8  C   UNL A   1      32.232  22.523  25.934  1.00  0.00     0.080 C 
ATOM      9  C   UNL A   1      34.103  24.128  24.991  1.00  0.00     0.080 C 
ATOM     10  C   UNL A   1      31.400  23.762  26.186  1.00  0.00     0.124 C 
ATOM     11  C   UNL A   1      33.153  25.291  25.258  1.00  0.00     0.124 C 
ATOM     12  N   UNL A   1      31.743  24.948  25.419  1.00  0.00    -0.340 N 
ATOM     13  C   UNL A   1      30.708  25.878  25.245  1.00  0.00     0.251 C 
ATOM     14  O   UNL A   1      29.576  25.657  25.692  1.00  0.00    -0.272 OA
BRANCH   7  15
ATOM     15  O   UNL A   1      34.020  21.769  24.456  1.00  0.00    -0.477 OA
BRANCH  15  16
ATOM     16  C   UNL A   1      33.491  20.577  24.071  1.00  0.00     0.123 A 
ATOM     17  C   UNL A   1      31.791  21.142  22.203  1.00  0.00     0.048 C 
ATOM     18  C   UNL A   1      32.529  20.221  23.115  1.00  0.00    -0.009 A 
ATOM     19  C   UNL A   1      32.160  18.859  22.974  1.00  0.00     0.007 A 
ATOM     20  C   UNL A   1      32.751  17.853  23.729  1.00  0.00     0.001 A 
ATOM     21  C   UNL A   1      34.071  19.536  24.824  1.00  0.00     0.047 A 
ATOM     22  C   UNL A   1      33.717  18.193  24.658  1.00  0.00     0.004 A 
ENDBRANCH  15  16
ENDBRANCH   7  15
BRANCH  13  23
ATOM     23  C   UNL A   1      30.983  27.138  24.390  1.00  0.00     0.207 C 
ATOM     24  C   UNL A   1      29.792  27.311  23.433  1.00  0.00     0.042 C 
ATOM     25  O   UNL A   1      31.106  28.272  25.259  1.00  0.00    -0.368 OA
ATOM     26  C   UNL A   1      29.766  28.672  22.752  1.00  0.00     0.006 C 
ATOM     27  C   UNL A   1      31.250  29.502  24.562  1.00  0.00     0.161 C 
ATOM     28  C   UNL A   1      29.989  29.784  23.763  1.00  0.00     0.029 C 
ENDBRANCH  13  23
ENDBRANCH   4   7
ENDBRANCH   2   3
ENDBRANCH   1   2
BRANCH   1  29
ATOM     29  C   UNL A   1      39.259  23.348  26.548  1.00  0.00     0.118 C 
BRANCH  29  30
ATOM     30  N   UNL A   1      39.760  22.062  26.035  1.00  0.00    -0.352 N 
ATOM     31  C   UNL A   1      41.057  21.589  26.049  1.00  0.00     0.251 C 
ATOM     32  H   UNL A   1      39.087  21.466  25.633  1.00  0.00     0.163 HD
ATOM     33  O   UNL A   1      41.367  20.495  25.614  1.00  0.00    -0.269 OA
BRANCH  31  34
ATOM     34  C   UNL A   1      42.066  22.423  26.747  1.00  0.00     0.039 A 
ATOM     35  C   UNL A   1      42.196  22.221  28.124  1.00  0.00     0.014 A 
ATOM     36  C   UNL A   1      42.512  23.594  26.138  1.00  0.00     0.014 A 
ATOM     37  C   UNL A   1      42.517  23.307  28.929  1.00  0.00     0.010 A 
ATOM     38  C   UNL A   1      42.731  24.693  26.945  1.00  0.00     0.010 A 
ATOM     39  C   UNL A   1      42.656  24.565  28.339  1.00  0.00    -0.014 A 
BRANCH  39  40
ATOM     40  C   UNL A   1      42.568  25.799  29.115  1.00  0.00     0.031 A 
ATOM     41  C   UNL A   1      41.369  26.653  29.023  1.00  0.00     0.074 A 
ATOM     42  C   UNL A   1      43.592  26.194  29.905  1.00  0.00     0.049 A 
ATOM     43  N   UNL A   1      41.384  27.939  29.130  1.00  0.00    -0.248 NA
ATOM     44  C   UNL A   1      40.044  26.110  28.754  1.00  0.00     0.031 C 
ATOM     45  C   UNL A   1      43.591  27.296  30.864  1.00  0.00     0.029 A 
ATOM     46  N   UNL A   1      44.925  25.811  29.825  1.00  0.00    -0.354 N 
ATOM     47  C   UNL A   1      40.080  28.363  29.228  1.00  0.00     0.074 A 
ATOM     48  C   UNL A   1      39.284  27.194  28.925  1.00  0.00     0.031 C 
ATOM     49  C   UNL A   1      44.857  27.672  31.097  1.00  0.00     0.029 A 
ATOM     50  C   UNL A   1      45.717  26.903  30.216  1.00  0.00     0.049 A 
ATOM     51  H   UNL A   1      45.258  24.929  29.544  1.00  0.00     0.167 HD
ATOM     52  C   UNL A   1      39.801  29.613  29.692  1.00  0.00     0.034 A 
ATOM     53  C   UNL A   1      46.657  27.426  29.378  1.00  0.00     0.034 A 
ATOM     54  C   UNL A   1      41.015  30.364  30.005  1.00  0.00     0.049 A 
ATOM     55  C   UNL A   1      46.371  28.853  28.963  1.00  0.00     0.074 A 
ATOM     56  C   UNL A   1      41.676  30.622  31.196  1.00  0.00     0.029 A 
ATOM     57  N   UNL A   1      41.890  30.730  28.986  1.00  0.00    -0.354 N 
ATOM     58  N   UNL A   1      45.240  29.468  29.179  1.00  0.00    -0.248 NA
ATOM     59  C   UNL A   1      47.329  29.690  28.248  1.00  0.00     0.031 C 
ATOM     60  C   UNL A   1      42.981  31.082  30.885  1.00  0.00     0.029 A 
ATOM     61  C   UNL A   1      43.105  31.137  29.507  1.00  0.00     0.049 A 
ATOM     62  H   UNL A   1      41.674  30.704  28.026  1.00  0.00     0.167 HD
ATOM     63  C   UNL A   1      45.281  30.722  28.620  1.00  0.00     0.074 A 
ATOM     64  C   UNL A   1      46.627  30.826  28.085  1.00  0.00     0.031 C 
ATOM     65  C   UNL A   1      44.195  31.556  28.633  1.00  0.00     0.034 A 
BRANCH  52  66
ATOM     66  C   UNL A   1      38.422  30.013  30.168  1.00  0.00     0.023 A 
ATOM     67  C   UNL A   1      37.581  30.769  29.326  1.00  0.00     0.031 A 
ATOM     68  C   UNL A   1      37.901  29.727  31.444  1.00  0.00     0.131 A 
ATOM     69  C   UNL A   1      36.366  31.304  29.793  1.00  0.00     0.055 A 
ATOM     70  C   UNL A   1      36.731  30.320  31.937  1.00  0.00     0.041 A 
ATOM     71  F   UNL A   1      38.482  28.826  32.251  1.00  0.00    -0.206 F 
ATOM     72  C   UNL A   1      35.964  31.130  31.114  1.00  0.00     0.022 A 
BRANCH  69  73
ATOM     73  S   UNL A   1      35.303  32.218  28.642  1.00  0.00     0.124 S 
ATOM     74  O   UNL A   1      34.281  32.765  29.527  1.00  0.00    -0.237 OA
ATOM     75  O   UNL A   1      36.235  33.177  28.060  1.00  0.00    -0.237 OA
ATOM     76  O   UNL A   1      34.832  31.183  27.722  1.00  0.00    -0.744 OA
ENDBRANCH  69  73
ENDBRANCH  52  66
BRANCH  53  77
ATOM     77  C   UNL A   1      47.332  26.389  28.548  1.00  0.00     0.023 A 
ATOM     78  C   UNL A   1      47.042  26.384  27.166  1.00  0.00     0.031 A 
ATOM     79  C   UNL A   1      48.499  25.744  28.979  1.00  0.00     0.131 A 
ATOM     80  C   UNL A   1      47.982  25.897  26.247  1.00  0.00     0.055 A 
ATOM     81  C   UNL A   1      49.413  25.213  28.060  1.00  0.00     0.041 A 
ATOM     82  F   UNL A   1      48.840  25.743  30.276  1.00  0.00    -0.206 F 
ATOM     83  C   UNL A   1      49.180  25.332  26.688  1.00  0.00     0.022 A 
BRANCH  80  84
ATOM     84  S   UNL A   1      47.756  26.226  24.472  1.00  0.00     0.124 S 
ATOM     85  O   UNL A   1      47.722  24.885  23.906  1.00  0.00    -0.237 OA
ATOM     86  O   UNL A   1      46.499  26.967  24.423  1.00  0.00    -0.237 OA
ATOM     87  O   UNL A   1      48.926  27.034  24.129  1.00  0.00    -0.744 OA
ENDBRANCH  80  84
ENDBRANCH  53  77
BRANCH  65  88
ATOM     88  C   UNL A   1      44.089  32.885  27.908  1.00  0.00     0.023 A 
ATOM     89  C   UNL A   1      43.920  34.115  28.563  1.00  0.00     0.031 A 
ATOM     90  C   UNL A   1      44.216  32.960  26.499  1.00  0.00     0.131 A 
ATOM     91  C   UNL A   1      43.776  35.315  27.840  1.00  0.00     0.055 A 
ATOM     92  C   UNL A   1      44.160  34.164  25.788  1.00  0.00     0.041 A 
ATOM     93  F   UNL A   1      44.404  31.865  25.747  1.00  0.00    -0.206 F 
ATOM     94  C   UNL A   1      43.916  35.352  26.456  1.00  0.00     0.022 A 
BRANCH  91  95
ATOM     95  S   UNL A   1      43.324  36.815  28.751  1.00  0.00     0.124 S 
ATOM     96  O   UNL A   1      41.938  37.011  28.332  1.00  0.00    -0.237 OA
ATOM     97  O   UNL A   1      43.513  36.410  30.139  1.00  0.00    -0.237 OA
ATOM     98  O   UNL A   1      44.267  37.816  28.260  1.00  0.00    -0.744 OA
ENDBRANCH  91  95
ENDBRANCH  65  88
ENDBRANCH  39  40
ENDBRANCH  31  34
ENDBRANCH  29  30
ENDBRANCH   1  29
TORSDOF 16
ENDMDL
