MODEL 1
REMARK VINA RESULT:     -12.4      0.000      0.000
REMARK SMILES Cc1n[nH]c(C)c1CC(=O)N1CC[C@H](C(=O)NCCCNC(=O)c2ccc(-c3c4nc(c(-c5cc(S(=O)(=O)[O-])ccc5F)c5ccc([nH]5)c(-c5cc(S(=O)(=O)[O-])ccc5F)c5nc(c(-c6cc(S(=O)(=O)[O-])ccc6F)c6ccc3[nH]6)C=C5)C=C4)cc2)[C@H]1C
REMARK SMILES IDX 19 1 18 2 17 3 15 4 16 5 14 7 11 8 12 9 87 10 13 11 88 12
REMARK SMILES IDX 9 13 10 14 8 15 7 16 1 17 2 18 3 19 4 20 5 21 6 23 20 24
REMARK SMILES IDX 21 25 22 26 23 28 24 29 25 30 86 31 26 32 85 33 27 34 28 35
REMARK SMILES IDX 29 36 79 37 30 38 84 39 78 40 80 41 31 42 83 43 77 44 76 45
REMARK SMILES IDX 32 47 64 48 44 49 63 50 45 51 48 52 62 53 81 54 46 55 47 56
REMARK SMILES IDX 61 58 82 59 49 60 33 61 34 62 42 63 35 64 41 65 43 66 40 67
REMARK SMILES IDX 36 68 37 69 38 70 39 71 65 72 66 73 74 74 67 75 73 76 75 77
REMARK SMILES IDX 72 78 68 79 69 80 70 81 71 82 50 83 51 84 59 85 52 86 58 87
REMARK SMILES IDX 60 88 57 89 53 90 54 91 55 92 56 93
REMARK H PARENT 17 6 4 22 21 27 80 46 48 57
REMARK Flexibility Score: inf
ROOT
ATOM      1  C   UNL A   1      31.660  31.804  26.710  1.00  0.00     0.042 C 
ENDROOT
BRANCH   1   2
ATOM      2  C   UNL A   1      31.905  30.344  26.353  1.00  0.00     0.117 C 
BRANCH   2   3
ATOM      3  N   UNL A   1      31.496  30.076  24.990  1.00  0.00    -0.356 N 
ATOM      4  C   UNL A   1      31.411  28.914  24.296  1.00  0.00     0.225 C 
ATOM      5  O   UNL A   1      31.149  29.019  23.094  1.00  0.00    -0.275 OA
ATOM      6  H   UNL A   1      31.236  30.876  24.479  1.00  0.00     0.163 HD
BRANCH   4   7
ATOM      7  C   UNL A   1      31.473  27.553  24.990  1.00  0.00     0.102 C 
ATOM      8  N   UNL A   1      32.409  25.911  23.535  1.00  0.00    -0.339 N 
ATOM      9  C   UNL A   1      31.003  26.071  23.185  1.00  0.00     0.120 C 
ATOM     10  C   UNL A   1      32.724  26.677  24.744  1.00  0.00     0.094 C 
ATOM     11  C   UNL A   1      30.359  26.646  24.438  1.00  0.00     0.037 C 
ATOM     12  C   UNL A   1      32.944  25.770  25.956  1.00  0.00     0.032 C 
BRANCH   8  13
ATOM     13  C   UNL A   1      33.281  25.372  22.606  1.00  0.00     0.227 C 
ATOM     14  O   UNL A   1      33.912  26.126  21.853  1.00  0.00    -0.275 OA
BRANCH  13  15
ATOM     15  C   UNL A   1      33.313  23.871  22.324  1.00  0.00     0.139 C 
BRANCH  15  16
ATOM     16  C   UNL A   1      33.770  22.932  23.388  1.00  0.00     0.005 A 
ATOM     17  C   UNL A   1      31.582  22.568  24.793  1.00  0.00     0.069 C 
ATOM     18  C   UNL A   1      33.010  22.348  24.442  1.00  0.00     0.063 A 
ATOM     19  N   UNL A   1      33.756  21.532  25.195  1.00  0.00    -0.181 NA
ATOM     20  N   UNL A   1      35.003  21.724  24.755  1.00  0.00    -0.282 N 
ATOM     21  C   UNL A   1      35.080  22.585  23.697  1.00  0.00     0.036 A 
ATOM     22  H   UNL A   1      35.789  21.287  25.154  1.00  0.00     0.190 HD
ATOM     23  C   UNL A   1      36.392  23.035  23.169  1.00  0.00     0.066 C 
ENDBRANCH  15  16
ENDBRANCH  13  15
ENDBRANCH   8  13
ENDBRANCH   4   7
ENDBRANCH   2   3
ENDBRANCH   1   2
BRANCH   1  24
ATOM     24  C   UNL A   1      32.857  32.520  27.323  1.00  0.00     0.118 C 
BRANCH  24  25
ATOM     25  N   UNL A   1      32.576  33.916  27.622  1.00  0.00    -0.352 N 
ATOM     26  C   UNL A   1      33.116  34.722  28.595  1.00  0.00     0.251 C 
ATOM     27  H   UNL A   1      31.903  34.343  27.045  1.00  0.00     0.163 HD
ATOM     28  O   UNL A   1      32.592  35.809  28.833  1.00  0.00    -0.269 OA
BRANCH  26  29
ATOM     29  C   UNL A   1      34.301  34.278  29.364  1.00  0.00     0.039 A 
ATOM     30  C   UNL A   1      34.114  33.561  30.547  1.00  0.00     0.014 A 
ATOM     31  C   UNL A   1      35.596  34.576  28.928  1.00  0.00     0.014 A 
ATOM     32  C   UNL A   1      35.221  33.080  31.253  1.00  0.00     0.010 A 
ATOM     33  C   UNL A   1      36.694  34.030  29.588  1.00  0.00     0.010 A 
ATOM     34  C   UNL A   1      36.520  33.274  30.757  1.00  0.00    -0.014 A 
BRANCH  34  35
ATOM     35  C   UNL A   1      37.711  32.691  31.434  1.00  0.00     0.031 A 
ATOM     36  C   UNL A   1      38.446  31.538  30.805  1.00  0.00     0.074 A 
ATOM     37  C   UNL A   1      38.070  33.133  32.654  1.00  0.00     0.049 A 
ATOM     38  N   UNL A   1      39.414  30.805  31.294  1.00  0.00    -0.248 NA
ATOM     39  C   UNL A   1      38.007  31.138  29.460  1.00  0.00     0.031 C 
ATOM     40  C   UNL A   1      37.411  34.217  33.386  1.00  0.00     0.029 A 
ATOM     41  N   UNL A   1      39.061  32.711  33.509  1.00  0.00    -0.354 N 
ATOM     42  C   UNL A   1      39.680  29.837  30.330  1.00  0.00     0.074 A 
ATOM     43  C   UNL A   1      38.734  30.050  29.254  1.00  0.00     0.031 C 
ATOM     44  C   UNL A   1      38.018  34.379  34.572  1.00  0.00     0.029 A 
ATOM     45  C   UNL A   1      39.068  33.376  34.713  1.00  0.00     0.049 A 
ATOM     46  H   UNL A   1      39.702  32.002  33.280  1.00  0.00     0.167 HD
ATOM     47  C   UNL A   1      40.633  28.870  30.339  1.00  0.00     0.034 A 
ATOM     48  C   UNL A   1      39.812  33.181  35.821  1.00  0.00     0.034 A 
ATOM     49  C   UNL A   1      41.569  28.680  31.422  1.00  0.00     0.049 A 
ATOM     50  C   UNL A   1      40.850  32.088  35.822  1.00  0.00     0.074 A 
ATOM     51  C   UNL A   1      42.620  27.782  31.503  1.00  0.00     0.029 A 
ATOM     52  N   UNL A   1      41.558  29.383  32.621  1.00  0.00    -0.354 N 
ATOM     53  N   UNL A   1      41.131  31.216  34.881  1.00  0.00    -0.248 NA
ATOM     54  C   UNL A   1      41.676  31.958  37.029  1.00  0.00     0.031 C 
ATOM     55  C   UNL A   1      43.185  27.880  32.779  1.00  0.00     0.029 A 
ATOM     56  C   UNL A   1      42.554  28.908  33.463  1.00  0.00     0.049 A 
ATOM     57  H   UNL A   1      40.933  30.111  32.840  1.00  0.00     0.167 HD
ATOM     58  C   UNL A   1      42.189  30.453  35.373  1.00  0.00     0.074 A 
ATOM     59  C   UNL A   1      42.497  30.974  36.689  1.00  0.00     0.031 C 
ATOM     60  C   UNL A   1      42.848  29.424  34.782  1.00  0.00     0.034 A 
BRANCH  47  61
ATOM     61  C   UNL A   1      40.670  27.918  29.161  1.00  0.00     0.023 A 
ATOM     62  C   UNL A   1      41.618  28.045  28.131  1.00  0.00     0.031 A 
ATOM     63  C   UNL A   1      39.712  26.895  29.046  1.00  0.00     0.131 A 
ATOM     64  C   UNL A   1      41.529  27.233  26.990  1.00  0.00     0.055 A 
ATOM     65  C   UNL A   1      39.688  26.027  27.951  1.00  0.00     0.041 A 
ATOM     66  F   UNL A   1      38.766  26.733  29.983  1.00  0.00    -0.206 F 
ATOM     67  C   UNL A   1      40.586  26.206  26.905  1.00  0.00     0.022 A 
BRANCH  64  68
ATOM     68  S   UNL A   1      42.539  27.659  25.544  1.00  0.00     0.124 S 
ATOM     69  O   UNL A   1      43.856  27.845  26.148  1.00  0.00    -0.237 OA
ATOM     70  O   UNL A   1      42.386  26.482  24.696  1.00  0.00    -0.237 OA
ATOM     71  O   UNL A   1      41.917  28.881  25.038  1.00  0.00    -0.744 OA
ENDBRANCH  64  68
ENDBRANCH  47  61
BRANCH  48  72
ATOM     72  C   UNL A   1      39.575  34.018  37.033  1.00  0.00     0.023 A 
ATOM     73  C   UNL A   1      38.941  33.496  38.170  1.00  0.00     0.031 A 
ATOM     74  C   UNL A   1      39.982  35.365  37.064  1.00  0.00     0.131 A 
ATOM     75  C   UNL A   1      38.706  34.323  39.281  1.00  0.00     0.055 A 
ATOM     76  C   UNL A   1      39.793  36.168  38.189  1.00  0.00     0.041 A 
ATOM     77  F   UNL A   1      40.596  35.913  36.003  1.00  0.00    -0.206 F 
ATOM     78  C   UNL A   1      39.143  35.650  39.304  1.00  0.00     0.022 A 
BRANCH  75  79
ATOM     79  S   UNL A   1      37.763  33.658  40.681  1.00  0.00     0.124 S 
ATOM     80  O   UNL A   1      38.791  32.923  41.410  1.00  0.00    -0.237 OA
ATOM     81  O   UNL A   1      37.268  34.874  41.319  1.00  0.00    -0.237 OA
ATOM     82  O   UNL A   1      36.741  32.832  40.042  1.00  0.00    -0.744 OA
ENDBRANCH  75  79
ENDBRANCH  48  72
BRANCH  60  83
ATOM     83  C   UNL A   1      44.015  28.824  35.534  1.00  0.00     0.023 A 
ATOM     84  C   UNL A   1      43.864  27.725  36.398  1.00  0.00     0.031 A 
ATOM     85  C   UNL A   1      45.304  29.365  35.375  1.00  0.00     0.131 A 
ATOM     86  C   UNL A   1      44.974  27.233  37.104  1.00  0.00     0.055 A 
ATOM     87  C   UNL A   1      46.414  28.830  36.028  1.00  0.00     0.041 A 
ATOM     88  F   UNL A   1      45.508  30.420  34.569  1.00  0.00    -0.206 F 
ATOM     89  C   UNL A   1      46.251  27.765  36.908  1.00  0.00     0.022 A 
BRANCH  86  90
ATOM     90  S   UNL A   1      44.715  25.945  38.356  1.00  0.00     0.124 S 
ATOM     91  O   UNL A   1      46.072  25.719  38.842  1.00  0.00    -0.237 OA
ATOM     92  O   UNL A   1      43.802  26.594  39.290  1.00  0.00    -0.237 OA
ATOM     93  O   UNL A   1      44.139  24.839  37.594  1.00  0.00    -0.744 OA
ENDBRANCH  86  90
ENDBRANCH  60  83
ENDBRANCH  34  35
ENDBRANCH  26  29
ENDBRANCH  24  25
ENDBRANCH   1  24
TORSDOF 16
ENDMDL
MODEL 2
REMARK VINA RESULT:     -12.2      3.974      9.055
REMARK SMILES Cc1n[nH]c(C)c1CC(=O)N1CC[C@H](C(=O)NCCCNC(=O)c2ccc(-c3c4nc(c(-c5cc(S(=O)(=O)[O-])ccc5F)c5ccc([nH]5)c(-c5cc(S(=O)(=O)[O-])ccc5F)c5nc(c(-c6cc(S(=O)(=O)[O-])ccc6F)c6ccc3[nH]6)C=C5)C=C4)cc2)[C@H]1C
REMARK SMILES IDX 19 1 18 2 17 3 15 4 16 5 14 7 11 8 12 9 87 10 13 11 88 12
REMARK SMILES IDX 9 13 10 14 8 15 7 16 1 17 2 18 3 19 4 20 5 21 6 23 20 24
REMARK SMILES IDX 21 25 22 26 23 28 24 29 25 30 86 31 26 32 85 33 27 34 28 35
REMARK SMILES IDX 29 36 79 37 30 38 84 39 78 40 80 41 31 42 83 43 77 44 76 45
REMARK SMILES IDX 32 47 64 48 44 49 63 50 45 51 48 52 62 53 81 54 46 55 47 56
REMARK SMILES IDX 61 58 82 59 49 60 33 61 34 62 42 63 35 64 41 65 43 66 40 67
REMARK SMILES IDX 36 68 37 69 38 70 39 71 65 72 66 73 74 74 67 75 73 76 75 77
REMARK SMILES IDX 72 78 68 79 69 80 70 81 71 82 50 83 51 84 59 85 52 86 58 87
REMARK SMILES IDX 60 88 57 89 53 90 54 91 55 92 56 93
REMARK H PARENT 17 6 4 22 21 27 80 46 48 57
REMARK Flexibility Score: inf
ROOT
ATOM      1  C   UNL A   1      32.709  28.252  27.123  1.00  0.00     0.042 C 
ENDROOT
BRANCH   1   2
ATOM      2  C   UNL A   1      31.606  27.519  26.372  1.00  0.00     0.117 C 
BRANCH   2   3
ATOM      3  N   UNL A   1      31.419  26.188  26.910  1.00  0.00    -0.356 N 
ATOM      4  C   UNL A   1      31.763  24.971  26.422  1.00  0.00     0.225 C 
ATOM      5  O   UNL A   1      31.351  23.995  27.057  1.00  0.00    -0.275 OA
ATOM      6  H   UNL A   1      30.961  26.162  27.782  1.00  0.00     0.163 HD
BRANCH   4   7
ATOM      7  C   UNL A   1      32.737  24.817  25.253  1.00  0.00     0.102 C 
ATOM      8  N   UNL A   1      33.702  22.636  25.245  1.00  0.00    -0.339 N 
ATOM      9  C   UNL A   1      34.430  23.444  26.215  1.00  0.00     0.120 C 
ATOM     10  C   UNL A   1      32.750  23.466  24.502  1.00  0.00     0.094 C 
ATOM     11  C   UNL A   1      34.182  24.881  25.779  1.00  0.00     0.037 C 
ATOM     12  C   UNL A   1      33.201  23.702  23.059  1.00  0.00     0.032 C 
BRANCH   8  13
ATOM     13  C   UNL A   1      33.748  21.256  25.343  1.00  0.00     0.227 C 
ATOM     14  O   UNL A   1      34.845  20.686  25.402  1.00  0.00    -0.275 OA
BRANCH  13  15
ATOM     15  C   UNL A   1      32.496  20.404  25.143  1.00  0.00     0.139 C 
BRANCH  15  16
ATOM     16  C   UNL A   1      32.513  19.291  24.150  1.00  0.00     0.005 A 
ATOM     17  C   UNL A   1      31.883  20.522  21.918  1.00  0.00     0.069 C 
ATOM     18  C   UNL A   1      32.272  19.352  22.748  1.00  0.00     0.063 A 
ATOM     19  N   UNL A   1      32.397  18.150  22.174  1.00  0.00    -0.181 NA
ATOM     20  N   UNL A   1      32.532  17.306  23.201  1.00  0.00    -0.282 N 
ATOM     21  C   UNL A   1      32.569  17.928  24.416  1.00  0.00     0.036 A 
ATOM     22  H   UNL A   1      32.600  16.330  23.092  1.00  0.00     0.190 HD
ATOM     23  C   UNL A   1      32.566  17.148  25.679  1.00  0.00     0.066 C 
ENDBRANCH  15  16
ENDBRANCH  13  15
ENDBRANCH   8  13
ENDBRANCH   4   7
ENDBRANCH   2   3
ENDBRANCH   1   2
BRANCH   1  24
ATOM     24  C   UNL A   1      33.629  29.092  26.246  1.00  0.00     0.118 C 
BRANCH  24  25
ATOM     25  N   UNL A   1      33.670  30.486  26.658  1.00  0.00    -0.352 N 
ATOM     26  C   UNL A   1      34.515  31.106  27.546  1.00  0.00     0.251 C 
ATOM     27  H   UNL A   1      32.996  31.069  26.239  1.00  0.00     0.163 HD
ATOM     28  O   UNL A   1      34.253  32.245  27.929  1.00  0.00    -0.269 OA
BRANCH  26  29
ATOM     29  C   UNL A   1      35.716  30.403  28.054  1.00  0.00     0.039 A 
ATOM     30  C   UNL A   1      36.889  30.427  27.296  1.00  0.00     0.014 A 
ATOM     31  C   UNL A   1      35.686  29.712  29.269  1.00  0.00     0.014 A 
ATOM     32  C   UNL A   1      38.049  29.823  27.789  1.00  0.00     0.010 A 
ATOM     33  C   UNL A   1      36.861  29.179  29.793  1.00  0.00     0.010 A 
ATOM     34  C   UNL A   1      38.056  29.230  29.061  1.00  0.00    -0.014 A 
BRANCH  34  35
ATOM     35  C   UNL A   1      39.300  28.665  29.653  1.00  0.00     0.031 A 
ATOM     36  C   UNL A   1      39.982  29.373  30.792  1.00  0.00     0.074 A 
ATOM     37  C   UNL A   1      39.865  27.572  29.105  1.00  0.00     0.049 A 
ATOM     38  N   UNL A   1      41.138  29.123  31.353  1.00  0.00    -0.248 NA
ATOM     39  C   UNL A   1      39.283  30.540  31.350  1.00  0.00     0.031 C 
ATOM     40  C   UNL A   1      39.322  26.820  27.973  1.00  0.00     0.029 A 
ATOM     41  N   UNL A   1      41.035  26.916  29.408  1.00  0.00    -0.354 N 
ATOM     42  C   UNL A   1      41.320  30.118  32.308  1.00  0.00     0.074 A 
ATOM     43  C   UNL A   1      40.177  31.003  32.210  1.00  0.00     0.031 C 
ATOM     44  C   UNL A   1      40.150  25.804  27.681  1.00  0.00     0.029 A 
ATOM     45  C   UNL A   1      41.311  25.866  28.563  1.00  0.00     0.049 A 
ATOM     46  H   UNL A   1      41.618  27.174  30.157  1.00  0.00     0.167 HD
ATOM     47  C   UNL A   1      42.340  30.271  33.191  1.00  0.00     0.034 A 
ATOM     48  C   UNL A   1      42.391  25.062  28.483  1.00  0.00     0.034 A 
ATOM     49  C   UNL A   1      43.468  29.374  33.273  1.00  0.00     0.049 A 
ATOM     50  C   UNL A   1      43.525  25.260  29.456  1.00  0.00     0.074 A 
ATOM     51  C   UNL A   1      44.518  29.391  34.176  1.00  0.00     0.029 A 
ATOM     52  N   UNL A   1      43.707  28.309  32.411  1.00  0.00    -0.354 N 
ATOM     53  N   UNL A   1      43.658  26.170  30.393  1.00  0.00    -0.248 NA
ATOM     54  C   UNL A   1      44.648  24.319  29.367  1.00  0.00     0.031 C 
ATOM     55  C   UNL A   1      45.432  28.398  33.806  1.00  0.00     0.029 A 
ATOM     56  C   UNL A   1      44.908  27.693  32.734  1.00  0.00     0.049 A 
ATOM     57  H   UNL A   1      43.111  28.034  31.678  1.00  0.00     0.167 HD
ATOM     58  C   UNL A   1      44.868  25.891  31.026  1.00  0.00     0.074 A 
ATOM     59  C   UNL A   1      45.419  24.724  30.367  1.00  0.00     0.031 C 
ATOM     60  C   UNL A   1      45.460  26.537  32.063  1.00  0.00     0.034 A 
BRANCH  47  61
ATOM     61  C   UNL A   1      42.299  31.483  34.099  1.00  0.00     0.023 A 
ATOM     62  C   UNL A   1      41.579  31.484  35.307  1.00  0.00     0.031 A 
ATOM     63  C   UNL A   1      42.954  32.670  33.728  1.00  0.00     0.131 A 
ATOM     64  C   UNL A   1      41.449  32.669  36.046  1.00  0.00     0.055 A 
ATOM     65  C   UNL A   1      42.900  33.821  34.518  1.00  0.00     0.041 A 
ATOM     66  F   UNL A   1      43.640  32.743  32.577  1.00  0.00    -0.206 F 
ATOM     67  C   UNL A   1      42.127  33.832  35.674  1.00  0.00     0.022 A 
BRANCH  64  68
ATOM     68  S   UNL A   1      40.235  32.720  37.394  1.00  0.00     0.124 S 
ATOM     69  O   UNL A   1      39.304  31.667  36.993  1.00  0.00    -0.237 OA
ATOM     70  O   UNL A   1      41.054  32.435  38.567  1.00  0.00    -0.237 OA
ATOM     71  O   UNL A   1      39.697  34.077  37.321  1.00  0.00    -0.744 OA
ENDBRANCH  64  68
ENDBRANCH  47  61
BRANCH  48  72
ATOM     72  C   UNL A   1      42.464  24.020  27.417  1.00  0.00     0.023 A 
ATOM     73  C   UNL A   1      41.863  22.763  27.581  1.00  0.00     0.031 A 
ATOM     74  C   UNL A   1      43.145  24.275  26.212  1.00  0.00     0.131 A 
ATOM     75  C   UNL A   1      41.979  21.796  26.569  1.00  0.00     0.055 A 
ATOM     76  C   UNL A   1      43.213  23.329  25.188  1.00  0.00     0.041 A 
ATOM     77  F   UNL A   1      43.735  25.462  26.003  1.00  0.00    -0.206 F 
ATOM     78  C   UNL A   1      42.636  22.077  25.367  1.00  0.00     0.022 A 
BRANCH  75  79
ATOM     79  S   UNL A   1      41.311  20.136  26.866  1.00  0.00     0.124 S 
ATOM     80  O   UNL A   1      40.904  20.224  28.264  1.00  0.00    -0.237 OA
ATOM     81  O   UNL A   1      40.231  20.063  25.886  1.00  0.00    -0.237 OA
ATOM     82  O   UNL A   1      42.449  19.258  26.601  1.00  0.00    -0.744 OA
ENDBRANCH  75  79
ENDBRANCH  48  72
BRANCH  60  83
ATOM     83  C   UNL A   1      46.753  25.959  32.592  1.00  0.00     0.023 A 
ATOM     84  C   UNL A   1      48.009  26.359  32.101  1.00  0.00     0.031 A 
ATOM     85  C   UNL A   1      46.723  24.993  33.615  1.00  0.00     0.131 A 
ATOM     86  C   UNL A   1      49.177  25.760  32.600  1.00  0.00     0.055 A 
ATOM     87  C   UNL A   1      47.890  24.450  34.152  1.00  0.00     0.041 A 
ATOM     88  F   UNL A   1      45.553  24.567  34.118  1.00  0.00    -0.206 F 
ATOM     89  C   UNL A   1      49.126  24.825  33.636  1.00  0.00     0.022 A 
BRANCH  86  90
ATOM     90  S   UNL A   1      50.765  26.150  31.813  1.00  0.00     0.124 S 
ATOM     91  O   UNL A   1      51.645  26.301  32.968  1.00  0.00    -0.237 OA
ATOM     92  O   UNL A   1      51.000  24.976  30.980  1.00  0.00    -0.237 OA
ATOM     93  O   UNL A   1      50.490  27.385  31.080  1.00  0.00    -0.744 OA
ENDBRANCH  86  90
ENDBRANCH  60  83
ENDBRANCH  34  35
ENDBRANCH  26  29
ENDBRANCH  24  25
ENDBRANCH   1  24
TORSDOF 16
ENDMDL
MODEL 3
REMARK VINA RESULT:     -12.2      6.361     11.620
REMARK SMILES Cc1n[nH]c(C)c1CC(=O)N1CC[C@H](C(=O)NCCCNC(=O)c2ccc(-c3c4nc(c(-c5cc(S(=O)(=O)[O-])ccc5F)c5ccc([nH]5)c(-c5cc(S(=O)(=O)[O-])ccc5F)c5nc(c(-c6cc(S(=O)(=O)[O-])ccc6F)c6ccc3[nH]6)C=C5)C=C4)cc2)[C@H]1C
REMARK SMILES IDX 19 1 18 2 17 3 15 4 16 5 14 7 11 8 12 9 87 10 13 11 88 12
REMARK SMILES IDX 9 13 10 14 8 15 7 16 1 17 2 18 3 19 4 20 5 21 6 23 20 24
REMARK SMILES IDX 21 25 22 26 23 28 24 29 25 30 86 31 26 32 85 33 27 34 28 35
REMARK SMILES IDX 29 36 79 37 30 38 84 39 78 40 80 41 31 42 83 43 77 44 76 45
REMARK SMILES IDX 32 47 64 48 44 49 63 50 45 51 48 52 62 53 81 54 46 55 47 56
REMARK SMILES IDX 61 58 82 59 49 60 33 61 34 62 42 63 35 64 41 65 43 66 40 67
REMARK SMILES IDX 36 68 37 69 38 70 39 71 65 72 66 73 74 74 67 75 73 76 75 77
REMARK SMILES IDX 72 78 68 79 69 80 70 81 71 82 50 83 51 84 59 85 52 86 58 87
REMARK SMILES IDX 60 88 57 89 53 90 54 91 55 92 56 93
REMARK H PARENT 17 6 4 22 21 27 80 46 48 57
REMARK Flexibility Score: inf
ROOT
ATOM      1  C   UNL A   1      37.746  19.915  24.986  1.00  0.00     0.042 C 
ENDROOT
BRANCH   1   2
ATOM      2  C   UNL A   1      36.696  20.986  24.722  1.00  0.00     0.117 C 
BRANCH   2   3
ATOM      3  N   UNL A   1      35.687  20.979  25.761  1.00  0.00    -0.356 N 
ATOM      4  C   UNL A   1      34.850  21.952  26.198  1.00  0.00     0.225 C 
ATOM      5  O   UNL A   1      34.181  21.682  27.200  1.00  0.00    -0.275 OA
ATOM      6  H   UNL A   1      35.594  20.120  26.232  1.00  0.00     0.163 HD
BRANCH   4   7
ATOM      7  C   UNL A   1      34.627  23.241  25.406  1.00  0.00     0.102 C 
ATOM      8  N   UNL A   1      32.414  24.063  25.744  1.00  0.00    -0.339 N 
ATOM      9  C   UNL A   1      32.351  23.009  24.740  1.00  0.00     0.120 C 
ATOM     10  C   UNL A   1      33.808  24.366  26.079  1.00  0.00     0.094 C 
ATOM     11  C   UNL A   1      33.761  22.938  24.170  1.00  0.00     0.037 C 
ATOM     12  C   UNL A   1      34.253  25.715  25.511  1.00  0.00     0.032 C 
BRANCH   8  13
ATOM     13  C   UNL A   1      31.268  24.404  26.441  1.00  0.00     0.227 C 
ATOM     14  O   UNL A   1      30.913  23.714  27.406  1.00  0.00    -0.275 OA
BRANCH  13  15
ATOM     15  C   UNL A   1      30.303  25.463  25.912  1.00  0.00     0.139 C 
BRANCH  15  16
ATOM     16  C   UNL A   1      30.842  26.738  25.356  1.00  0.00     0.005 A 
ATOM     17  C   UNL A   1      31.113  26.169  22.807  1.00  0.00     0.069 C 
ATOM     18  C   UNL A   1      31.167  27.048  24.004  1.00  0.00     0.063 A 
ATOM     19  N   UNL A   1      31.606  28.305  23.879  1.00  0.00    -0.181 NA
ATOM     20  N   UNL A   1      31.736  28.737  25.136  1.00  0.00    -0.282 N 
ATOM     21  C   UNL A   1      31.331  27.826  26.070  1.00  0.00     0.036 A 
ATOM     22  H   UNL A   1      32.088  29.626  25.368  1.00  0.00     0.190 HD
ATOM     23  C   UNL A   1      31.537  28.068  27.520  1.00  0.00     0.066 C 
ENDBRANCH  15  16
ENDBRANCH  13  15
ENDBRANCH   8  13
ENDBRANCH   4   7
ENDBRANCH   2   3
ENDBRANCH   1   2
BRANCH   1  24
ATOM     24  C   UNL A   1      38.994  20.408  25.709  1.00  0.00     0.118 C 
BRANCH  24  25
ATOM     25  N   UNL A   1      39.986  19.359  25.883  1.00  0.00    -0.352 N 
ATOM     26  C   UNL A   1      41.337  19.470  26.106  1.00  0.00     0.251 C 
ATOM     27  H   UNL A   1      39.640  18.439  25.835  1.00  0.00     0.163 HD
ATOM     28  O   UNL A   1      42.046  18.469  26.008  1.00  0.00    -0.269 OA
BRANCH  26  29
ATOM     29  C   UNL A   1      41.937  20.782  26.440  1.00  0.00     0.039 A 
ATOM     30  C   UNL A   1      42.168  21.704  25.416  1.00  0.00     0.014 A 
ATOM     31  C   UNL A   1      42.283  21.102  27.756  1.00  0.00     0.014 A 
ATOM     32  C   UNL A   1      42.675  22.970  25.720  1.00  0.00     0.010 A 
ATOM     33  C   UNL A   1      42.714  22.390  28.067  1.00  0.00     0.010 A 
ATOM     34  C   UNL A   1      42.913  23.340  27.054  1.00  0.00    -0.014 A 
BRANCH  34  35
ATOM     35  C   UNL A   1      43.360  24.713  27.417  1.00  0.00     0.031 A 
ATOM     36  C   UNL A   1      42.390  25.683  28.033  1.00  0.00     0.074 A 
ATOM     37  C   UNL A   1      44.608  25.114  27.106  1.00  0.00     0.049 A 
ATOM     38  N   UNL A   1      42.541  26.957  28.293  1.00  0.00    -0.248 NA
ATOM     39  C   UNL A   1      41.059  25.155  28.367  1.00  0.00     0.031 C 
ATOM     40  C   UNL A   1      45.628  24.278  26.470  1.00  0.00     0.029 A 
ATOM     41  N   UNL A   1      45.224  26.333  27.256  1.00  0.00    -0.354 N 
ATOM     42  C   UNL A   1      41.317  27.391  28.793  1.00  0.00     0.074 A 
ATOM     43  C   UNL A   1      40.423  26.252  28.748  1.00  0.00     0.031 C 
ATOM     44  C   UNL A   1      46.743  25.005  26.293  1.00  0.00     0.029 A 
ATOM     45  C   UNL A   1      46.501  26.371  26.744  1.00  0.00     0.049 A 
ATOM     46  H   UNL A   1      44.794  27.105  27.688  1.00  0.00     0.167 HD
ATOM     47  C   UNL A   1      40.977  28.620  29.257  1.00  0.00     0.034 A 
ATOM     48  C   UNL A   1      47.369  27.396  26.620  1.00  0.00     0.034 A 
ATOM     49  C   UNL A   1      41.888  29.740  29.296  1.00  0.00     0.049 A 
ATOM     50  C   UNL A   1      46.967  28.760  27.119  1.00  0.00     0.074 A 
ATOM     51  C   UNL A   1      41.673  31.007  29.812  1.00  0.00     0.029 A 
ATOM     52  N   UNL A   1      43.180  29.738  28.783  1.00  0.00    -0.354 N 
ATOM     53  N   UNL A   1      45.826  29.143  27.643  1.00  0.00    -0.248 NA
ATOM     54  C   UNL A   1      47.971  29.826  27.018  1.00  0.00     0.031 C 
ATOM     55  C   UNL A   1      42.796  31.792  29.532  1.00  0.00     0.029 A 
ATOM     56  C   UNL A   1      43.756  30.992  28.931  1.00  0.00     0.049 A 
ATOM     57  H   UNL A   1      43.622  28.959  28.374  1.00  0.00     0.167 HD
ATOM     58  C   UNL A   1      45.987  30.490  27.963  1.00  0.00     0.074 A 
ATOM     59  C   UNL A   1      47.337  30.847  27.578  1.00  0.00     0.031 C 
ATOM     60  C   UNL A   1      45.100  31.346  28.531  1.00  0.00     0.034 A 
BRANCH  47  61
ATOM     61  C   UNL A   1      39.546  28.823  29.709  1.00  0.00     0.023 A 
ATOM     62  C   UNL A   1      38.581  29.423  28.881  1.00  0.00     0.031 A 
ATOM     63  C   UNL A   1      39.152  28.450  31.006  1.00  0.00     0.131 A 
ATOM     64  C   UNL A   1      37.308  29.722  29.388  1.00  0.00     0.055 A 
ATOM     65  C   UNL A   1      37.853  28.662  31.474  1.00  0.00     0.041 A 
ATOM     66  F   UNL A   1      40.030  27.891  31.854  1.00  0.00    -0.206 F 
ATOM     67  C   UNL A   1      36.928  29.321  30.671  1.00  0.00     0.022 A 
BRANCH  64  68
ATOM     68  S   UNL A   1      36.221  30.803  28.417  1.00  0.00     0.124 S 
ATOM     69  O   UNL A   1      35.866  29.935  27.296  1.00  0.00    -0.237 OA
ATOM     70  O   UNL A   1      35.148  31.100  29.359  1.00  0.00    -0.237 OA
ATOM     71  O   UNL A   1      37.081  31.933  28.070  1.00  0.00    -0.744 OA
ENDBRANCH  64  68
ENDBRANCH  47  61
BRANCH  48  72
ATOM     72  C   UNL A   1      48.690  27.175  25.963  1.00  0.00     0.023 A 
ATOM     73  C   UNL A   1      48.877  27.424  24.595  1.00  0.00     0.031 A 
ATOM     74  C   UNL A   1      49.790  26.705  26.705  1.00  0.00     0.131 A 
ATOM     75  C   UNL A   1      50.127  27.174  24.003  1.00  0.00     0.055 A 
ATOM     76  C   UNL A   1      51.043  26.508  26.124  1.00  0.00     0.041 A 
ATOM     77  F   UNL A   1      49.665  26.453  28.018  1.00  0.00    -0.206 F 
ATOM     78  C   UNL A   1      51.215  26.734  24.762  1.00  0.00     0.022 A 
BRANCH  75  79
ATOM     79  S   UNL A   1      50.300  27.375  22.209  1.00  0.00     0.124 S 
ATOM     80  O   UNL A   1      49.206  26.549  21.710  1.00  0.00    -0.237 OA
ATOM     81  O   UNL A   1      50.141  28.817  22.047  1.00  0.00    -0.237 OA
ATOM     82  O   UNL A   1      51.642  26.864  21.937  1.00  0.00    -0.744 OA
ENDBRANCH  75  79
ENDBRANCH  48  72
BRANCH  60  83
ATOM     83  C   UNL A   1      45.582  32.748  28.828  1.00  0.00     0.023 A 
ATOM     84  C   UNL A   1      45.377  33.816  27.936  1.00  0.00     0.031 A 
ATOM     85  C   UNL A   1      46.255  33.018  30.034  1.00  0.00     0.131 A 
ATOM     86  C   UNL A   1      45.883  35.090  28.242  1.00  0.00     0.055 A 
ATOM     87  C   UNL A   1      46.696  34.300  30.362  1.00  0.00     0.041 A 
ATOM     88  F   UNL A   1      46.486  32.037  30.922  1.00  0.00    -0.206 F 
ATOM     89  C   UNL A   1      46.521  35.343  29.458  1.00  0.00     0.022 A 
BRANCH  86  90
ATOM     90  S   UNL A   1      45.776  36.398  26.989  1.00  0.00     0.124 S 
ATOM     91  O   UNL A   1      46.624  37.437  27.565  1.00  0.00    -0.237 OA
ATOM     92  O   UNL A   1      46.298  35.736  25.799  1.00  0.00    -0.237 OA
ATOM     93  O   UNL A   1      44.350  36.716  26.946  1.00  0.00    -0.744 OA
ENDBRANCH  86  90
ENDBRANCH  60  83
ENDBRANCH  34  35
ENDBRANCH  26  29
ENDBRANCH  24  25
ENDBRANCH   1  24
TORSDOF 16
ENDMDL
