MODEL 1
REMARK VINA RESULT:     -12.6      0.000      0.000
REMARK SMILES CC(C)C[C@H](C(=O)NCCCNC(=O)c1ccc(-c2c3nc(c(-c4cc(S(=O)(=O)[O-])ccc4F)c4ccc([nH]4)c(-c4cc(S(=O)(=O)[O-])ccc4F)c4nc(c(-c5cc(S(=O)(=O)[O-])ccc5F)c5ccc2[nH]5)C=C4)C=C3)cc1)N1C(=O)/C(=C2\C(=O)Nc3ccc(Br)cc32)SC1=S
REMARK SMILES IDX 10 1 9 2 8 3 6 4 7 5 5 7 4 8 2 9 1 10 3 11 78 12 79 13 94 14
REMARK SMILES IDX 80 15 81 16 93 17 95 18 82 19 83 20 92 21 84 22 85 23 86 24
REMARK SMILES IDX 91 25 87 27 89 28 88 29 90 30 11 31 12 32 13 33 14 35 15 36
REMARK SMILES IDX 16 37 77 38 17 39 76 40 18 41 19 42 20 43 70 44 21 45 75 46
REMARK SMILES IDX 69 47 71 48 22 49 74 50 68 51 67 52 23 54 55 55 35 56 54 57
REMARK SMILES IDX 36 58 39 59 53 60 72 61 37 62 38 63 52 65 73 66 40 67 24 68
REMARK SMILES IDX 25 69 33 70 26 71 32 72 34 73 31 74 27 75 28 76 29 77 30 78
REMARK SMILES IDX 56 79 57 80 65 81 58 82 64 83 66 84 63 85 59 86 60 87 61 88
REMARK SMILES IDX 62 89 41 90 42 91 50 92 43 93 49 94 51 95 48 96 44 97 45 98
REMARK SMILES IDX 46 99 47 100
REMARK H PARENT 8 6 85 26 12 34 71 53 39 64
REMARK Flexibility Score: inf
ROOT
ATOM      1  C   UNL A   1      33.095  27.979  26.873  1.00  0.00     0.042 C 
ENDROOT
BRANCH   1   2
ATOM      2  C   UNL A   1      31.623  28.235  26.582  1.00  0.00     0.117 C 
BRANCH   2   3
ATOM      3  N   UNL A   1      31.411  29.533  25.969  1.00  0.00    -0.354 N 
ATOM      4  C   UNL A   1      30.774  29.875  24.810  1.00  0.00     0.243 C 
ATOM      5  O   UNL A   1      30.658  31.075  24.558  1.00  0.00    -0.273 OA
ATOM      6  H   UNL A   1      31.787  30.291  26.471  1.00  0.00     0.163 HD
BRANCH   4   7
ATOM      7  C   UNL A   1      30.173  28.781  23.902  1.00  0.00     0.181 C 
BRANCH   7   8
ATOM      8  C   UNL A   1      29.578  29.398  22.604  1.00  0.00     0.038 C 
BRANCH   8   9
ATOM      9  C   UNL A   1      28.051  29.601  22.544  1.00  0.00    -0.015 C 
ATOM     10  C   UNL A   1      27.316  28.468  23.267  1.00  0.00     0.007 C 
ATOM     11  C   UNL A   1      27.652  30.930  23.192  1.00  0.00     0.007 C 
ENDBRANCH   8   9
ENDBRANCH   7   8
BRANCH   7  12
ATOM     12  N   UNL A   1      30.996  27.573  23.679  1.00  0.00    -0.280 N 
ATOM     13  C   UNL A   1      30.561  26.335  24.129  1.00  0.00     0.267 C 
ATOM     14  C   UNL A   1      32.270  27.580  23.151  1.00  0.00     0.149 C 
ATOM     15  O   UNL A   1      29.402  25.962  24.165  1.00  0.00    -0.268 OA
ATOM     16  C   UNL A   1      31.742  25.460  24.406  1.00  0.00     0.093 C 
ATOM     17  S   UNL A   1      33.003  25.991  23.354  1.00  0.00    -0.053 SA
ATOM     18  S   UNL A   1      33.118  28.842  22.468  1.00  0.00    -0.052 S 
ATOM     19  C   UNL A   1      31.858  24.571  25.408  1.00  0.00     0.069 C 
ATOM     20  C   UNL A   1      30.759  24.282  26.407  1.00  0.00     0.257 C 
ATOM     21  C   UNL A   1      33.025  23.771  25.856  1.00  0.00     0.013 A 
ATOM     22  O   UNL A   1      29.682  24.830  26.554  1.00  0.00    -0.269 OA
ATOM     23  N   UNL A   1      31.265  23.315  27.251  1.00  0.00    -0.321 N 
ATOM     24  C   UNL A   1      32.588  23.026  26.960  1.00  0.00     0.049 A 
ATOM     25  C   UNL A   1      34.356  23.684  25.475  1.00  0.00     0.026 A 
ATOM     26  H   UNL A   1      30.751  22.884  27.972  1.00  0.00     0.170 HD
ATOM     27  C   UNL A   1      33.406  22.180  27.685  1.00  0.00     0.028 A 
ATOM     28  C   UNL A   1      35.208  22.847  26.210  1.00  0.00     0.018 A 
ATOM     29  C   UNL A   1      34.742  22.094  27.299  1.00  0.00     0.018 A 
ATOM     30  Br  UNL A   1      37.043  22.755  25.747  1.00  0.00    -0.051 Br
ENDBRANCH   7  12
ENDBRANCH   4   7
ENDBRANCH   2   3
ENDBRANCH   1   2
BRANCH   1  31
ATOM     31  C   UNL A   1      34.036  28.946  26.161  1.00  0.00     0.118 C 
BRANCH  31  32
ATOM     32  N   UNL A   1      33.939  30.302  26.683  1.00  0.00    -0.352 N 
ATOM     33  C   UNL A   1      34.695  30.945  27.632  1.00  0.00     0.251 C 
ATOM     34  H   UNL A   1      33.216  30.844  26.294  1.00  0.00     0.163 HD
ATOM     35  O   UNL A   1      34.308  32.032  28.057  1.00  0.00    -0.269 OA
BRANCH  33  36
ATOM     36  C   UNL A   1      35.942  30.342  28.160  1.00  0.00     0.039 A 
ATOM     37  C   UNL A   1      37.091  30.390  27.365  1.00  0.00     0.014 A 
ATOM     38  C   UNL A   1      35.984  29.696  29.399  1.00  0.00     0.014 A 
ATOM     39  C   UNL A   1      38.287  29.840  27.834  1.00  0.00     0.010 A 
ATOM     40  C   UNL A   1      37.195  29.215  29.897  1.00  0.00     0.010 A 
ATOM     41  C   UNL A   1      38.359  29.276  29.119  1.00  0.00    -0.014 A 
BRANCH  41  42
ATOM     42  C   UNL A   1      39.651  28.761  29.644  1.00  0.00     0.031 A 
ATOM     43  C   UNL A   1      40.312  29.408  30.831  1.00  0.00     0.074 A 
ATOM     44  C   UNL A   1      40.244  27.719  29.028  1.00  0.00     0.049 A 
ATOM     45  N   UNL A   1      41.428  29.085  31.436  1.00  0.00    -0.248 NA
ATOM     46  C   UNL A   1      39.645  30.590  31.397  1.00  0.00     0.031 C 
ATOM     47  C   UNL A   1      39.730  27.044  27.833  1.00  0.00     0.029 A 
ATOM     48  N   UNL A   1      41.399  27.039  29.318  1.00  0.00    -0.354 N 
ATOM     49  C   UNL A   1      41.599  30.022  32.450  1.00  0.00     0.074 A 
ATOM     50  C   UNL A   1      40.504  30.964  32.333  1.00  0.00     0.031 C 
ATOM     51  C   UNL A   1      40.546  26.027  27.517  1.00  0.00     0.029 A 
ATOM     52  C   UNL A   1      41.659  25.996  28.460  1.00  0.00     0.049 A 
ATOM     53  H   UNL A   1      41.989  27.276  30.070  1.00  0.00     0.167 HD
ATOM     54  C   UNL A   1      42.561  30.078  33.405  1.00  0.00     0.034 A 
ATOM     55  C   UNL A   1      42.675  25.113  28.436  1.00  0.00     0.034 A 
ATOM     56  C   UNL A   1      43.644  29.128  33.509  1.00  0.00     0.049 A 
ATOM     57  C   UNL A   1      43.733  25.193  29.505  1.00  0.00     0.074 A 
ATOM     58  C   UNL A   1      44.643  29.058  34.464  1.00  0.00     0.029 A 
ATOM     59  N   UNL A   1      43.877  28.084  32.621  1.00  0.00    -0.354 N 
ATOM     60  N   UNL A   1      43.843  26.047  30.497  1.00  0.00    -0.248 NA
ATOM     61  C   UNL A   1      44.791  24.178  29.462  1.00  0.00     0.031 C 
ATOM     62  C   UNL A   1      45.514  28.018  34.118  1.00  0.00     0.029 A 
ATOM     63  C   UNL A   1      45.018  27.386  32.989  1.00  0.00     0.049 A 
ATOM     64  H   UNL A   1      43.313  27.871  31.843  1.00  0.00     0.167 HD
ATOM     65  C   UNL A   1      44.974  25.658  31.208  1.00  0.00     0.074 A 
ATOM     66  C   UNL A   1      45.489  24.475  30.547  1.00  0.00     0.031 C 
ATOM     67  C   UNL A   1      45.538  26.225  32.305  1.00  0.00     0.034 A 
BRANCH  54  68
ATOM     68  C   UNL A   1      42.495  31.220  34.393  1.00  0.00     0.023 A 
ATOM     69  C   UNL A   1      41.521  31.262  35.407  1.00  0.00     0.031 A 
ATOM     70  C   UNL A   1      43.397  32.295  34.307  1.00  0.00     0.131 A 
ATOM     71  C   UNL A   1      41.423  32.386  36.242  1.00  0.00     0.055 A 
ATOM     72  C   UNL A   1      43.347  33.373  35.193  1.00  0.00     0.041 A 
ATOM     73  F   UNL A   1      44.338  32.323  33.350  1.00  0.00    -0.206 F 
ATOM     74  C   UNL A   1      42.346  33.431  36.159  1.00  0.00     0.022 A 
BRANCH  71  75
ATOM     75  S   UNL A   1      39.988  32.528  37.342  1.00  0.00     0.124 S 
ATOM     76  O   UNL A   1      40.610  32.395  38.658  1.00  0.00    -0.237 OA
ATOM     77  O   UNL A   1      39.466  33.849  37.012  1.00  0.00    -0.237 OA
ATOM     78  O   UNL A   1      39.141  31.406  36.947  1.00  0.00    -0.744 OA
ENDBRANCH  71  75
ENDBRANCH  54  68
BRANCH  55  79
ATOM     79  C   UNL A   1      42.745  24.071  27.370  1.00  0.00     0.023 A 
ATOM     80  C   UNL A   1      42.043  22.862  27.491  1.00  0.00     0.031 A 
ATOM     81  C   UNL A   1      43.547  24.258  26.230  1.00  0.00     0.131 A 
ATOM     82  C   UNL A   1      42.191  21.866  26.514  1.00  0.00     0.055 A 
ATOM     83  C   UNL A   1      43.651  23.285  25.235  1.00  0.00     0.041 A 
ATOM     84  F   UNL A   1      44.232  25.400  26.061  1.00  0.00    -0.206 F 
ATOM     85  C   UNL A   1      42.980  22.074  25.380  1.00  0.00     0.022 A 
BRANCH  82  86
ATOM     86  S   UNL A   1      41.398  20.258  26.785  1.00  0.00     0.124 S 
ATOM     87  O   UNL A   1      42.201  19.708  27.871  1.00  0.00    -0.237 OA
ATOM     88  O   UNL A   1      40.034  20.647  27.127  1.00  0.00    -0.237 OA
ATOM     89  O   UNL A   1      41.546  19.584  25.496  1.00  0.00    -0.744 OA
ENDBRANCH  82  86
ENDBRANCH  55  79
BRANCH  67  90
ATOM     90  C   UNL A   1      46.768  25.546  32.861  1.00  0.00     0.023 A 
ATOM     91  C   UNL A   1      48.032  25.711  32.268  1.00  0.00     0.031 A 
ATOM     92  C   UNL A   1      46.665  24.686  33.968  1.00  0.00     0.131 A 
ATOM     93  C   UNL A   1      49.126  24.968  32.734  1.00  0.00     0.055 A 
ATOM     94  C   UNL A   1      47.773  24.002  34.472  1.00  0.00     0.041 A 
ATOM     95  F   UNL A   1      45.484  24.489  34.575  1.00  0.00    -0.206 F 
ATOM     96  C   UNL A   1      49.009  24.127  33.843  1.00  0.00     0.022 A 
BRANCH  93  97
ATOM     97  S   UNL A   1      50.678  25.023  31.795  1.00  0.00     0.124 S 
ATOM     98  O   UNL A   1      51.433  26.042  32.516  1.00  0.00    -0.237 OA
ATOM     99  O   UNL A   1      51.169  23.656  31.925  1.00  0.00    -0.237 OA
ATOM    100  O   UNL A   1      50.252  25.404  30.450  1.00  0.00    -0.744 OA
ENDBRANCH  93  97
ENDBRANCH  67  90
ENDBRANCH  41  42
ENDBRANCH  33  36
ENDBRANCH  31  32
ENDBRANCH   1  31
TORSDOF 16
ENDMDL
MODEL 2
REMARK VINA RESULT:     -12.6      2.347      4.450
REMARK SMILES CC(C)C[C@H](C(=O)NCCCNC(=O)c1ccc(-c2c3nc(c(-c4cc(S(=O)(=O)[O-])ccc4F)c4ccc([nH]4)c(-c4cc(S(=O)(=O)[O-])ccc4F)c4nc(c(-c5cc(S(=O)(=O)[O-])ccc5F)c5ccc2[nH]5)C=C4)C=C3)cc1)N1C(=O)/C(=C2\C(=O)Nc3ccc(Br)cc32)SC1=S
REMARK SMILES IDX 10 1 9 2 8 3 6 4 7 5 5 7 4 8 2 9 1 10 3 11 78 12 79 13 94 14
REMARK SMILES IDX 80 15 81 16 93 17 95 18 82 19 83 20 92 21 84 22 85 23 86 24
REMARK SMILES IDX 91 25 87 27 89 28 88 29 90 30 11 31 12 32 13 33 14 35 15 36
REMARK SMILES IDX 16 37 77 38 17 39 76 40 18 41 19 42 20 43 70 44 21 45 75 46
REMARK SMILES IDX 69 47 71 48 22 49 74 50 68 51 67 52 23 54 55 55 35 56 54 57
REMARK SMILES IDX 36 58 39 59 53 60 72 61 37 62 38 63 52 65 73 66 40 67 24 68
REMARK SMILES IDX 25 69 33 70 26 71 32 72 34 73 31 74 27 75 28 76 29 77 30 78
REMARK SMILES IDX 56 79 57 80 65 81 58 82 64 83 66 84 63 85 59 86 60 87 61 88
REMARK SMILES IDX 62 89 41 90 42 91 50 92 43 93 49 94 51 95 48 96 44 97 45 98
REMARK SMILES IDX 46 99 47 100
REMARK H PARENT 8 6 85 26 12 34 71 53 39 64
REMARK Flexibility Score: inf
ROOT
ATOM      1  C   UNL A   1      33.615  27.645  26.543  1.00  0.00     0.042 C 
ENDROOT
BRANCH   1   2
ATOM      2  C   UNL A   1      33.622  26.372  25.707  1.00  0.00     0.117 C 
BRANCH   2   3
ATOM      3  N   UNL A   1      34.116  25.234  26.460  1.00  0.00    -0.354 N 
ATOM      4  C   UNL A   1      34.471  23.981  26.045  1.00  0.00     0.243 C 
ATOM      5  O   UNL A   1      34.948  23.218  26.886  1.00  0.00    -0.273 OA
ATOM      6  H   UNL A   1      34.212  25.389  27.427  1.00  0.00     0.163 HD
BRANCH   4   7
ATOM      7  C   UNL A   1      34.332  23.586  24.559  1.00  0.00     0.181 C 
BRANCH   7   8
ATOM      8  C   UNL A   1      34.742  22.102  24.336  1.00  0.00     0.038 C 
BRANCH   8   9
ATOM      9  C   UNL A   1      36.163  21.824  23.808  1.00  0.00    -0.015 C 
ATOM     10  C   UNL A   1      36.805  23.102  23.256  1.00  0.00     0.007 C 
ATOM     11  C   UNL A   1      37.059  21.273  24.920  1.00  0.00     0.007 C 
ENDBRANCH   8   9
ENDBRANCH   7   8
BRANCH   7  12
ATOM     12  N   UNL A   1      33.080  23.981  23.879  1.00  0.00    -0.280 N 
ATOM     13  C   UNL A   1      33.093  24.967  22.903  1.00  0.00     0.267 C 
ATOM     14  C   UNL A   1      31.824  23.528  24.226  1.00  0.00     0.149 C 
ATOM     15  O   UNL A   1      33.995  25.166  22.109  1.00  0.00    -0.268 OA
ATOM     16  C   UNL A   1      31.760  25.643  22.857  1.00  0.00     0.093 C 
ATOM     17  S   UNL A   1      30.601  24.478  23.388  1.00  0.00    -0.053 SA
ATOM     18  S   UNL A   1      31.399  22.331  25.305  1.00  0.00    -0.052 S 
ATOM     19  C   UNL A   1      31.535  26.950  22.636  1.00  0.00     0.069 C 
ATOM     20  C   UNL A   1      32.631  27.953  22.347  1.00  0.00     0.257 C 
ATOM     21  C   UNL A   1      30.282  27.740  22.717  1.00  0.00     0.013 A 
ATOM     22  O   UNL A   1      33.839  27.807  22.362  1.00  0.00    -0.269 OA
ATOM     23  N   UNL A   1      31.992  29.164  22.171  1.00  0.00    -0.321 N 
ATOM     24  C   UNL A   1      30.631  29.062  22.408  1.00  0.00     0.049 A 
ATOM     25  C   UNL A   1      28.972  27.462  23.078  1.00  0.00     0.026 A 
ATOM     26  H   UNL A   1      32.447  29.997  21.910  1.00  0.00     0.170 HD
ATOM     27  C   UNL A   1      29.734  30.113  22.415  1.00  0.00     0.028 A 
ATOM     28  C   UNL A   1      28.049  28.518  23.112  1.00  0.00     0.018 A 
ATOM     29  C   UNL A   1      28.418  29.830  22.777  1.00  0.00     0.018 A 
ATOM     30  Br  UNL A   1      26.268  28.176  23.658  1.00  0.00    -0.051 Br
ENDBRANCH   7  12
ENDBRANCH   4   7
ENDBRANCH   2   3
ENDBRANCH   1   2
BRANCH   1  31
ATOM     31  C   UNL A   1      34.099  28.877  25.785  1.00  0.00     0.118 C 
BRANCH  31  32
ATOM     32  N   UNL A   1      33.741  30.118  26.456  1.00  0.00    -0.352 N 
ATOM     33  C   UNL A   1      34.331  30.756  27.519  1.00  0.00     0.251 C 
ATOM     34  H   UNL A   1      32.948  30.573  26.089  1.00  0.00     0.163 HD
ATOM     35  O   UNL A   1      33.740  31.697  28.044  1.00  0.00    -0.269 OA
BRANCH  33  36
ATOM     36  C   UNL A   1      35.644  30.314  28.048  1.00  0.00     0.039 A 
ATOM     37  C   UNL A   1      35.680  29.689  29.298  1.00  0.00     0.014 A 
ATOM     38  C   UNL A   1      36.836  30.547  27.356  1.00  0.00     0.014 A 
ATOM     39  C   UNL A   1      36.898  29.251  29.824  1.00  0.00     0.010 A 
ATOM     40  C   UNL A   1      38.041  30.042  27.847  1.00  0.00     0.010 A 
ATOM     41  C   UNL A   1      38.086  29.394  29.089  1.00  0.00    -0.014 A 
BRANCH  41  42
ATOM     42  C   UNL A   1      39.369  28.858  29.618  1.00  0.00     0.031 A 
ATOM     43  C   UNL A   1      40.036  29.495  30.807  1.00  0.00     0.074 A 
ATOM     44  C   UNL A   1      39.947  27.807  29.003  1.00  0.00     0.049 A 
ATOM     45  N   UNL A   1      41.145  29.154  31.415  1.00  0.00    -0.248 NA
ATOM     46  C   UNL A   1      39.386  30.688  31.370  1.00  0.00     0.031 C 
ATOM     47  C   UNL A   1      39.426  27.140  27.806  1.00  0.00     0.029 A 
ATOM     48  N   UNL A   1      41.091  27.110  29.297  1.00  0.00    -0.354 N 
ATOM     49  C   UNL A   1      41.327  30.089  32.430  1.00  0.00     0.074 A 
ATOM     50  C   UNL A   1      40.248  31.048  32.309  1.00  0.00     0.031 C 
ATOM     51  C   UNL A   1      40.227  26.110  27.493  1.00  0.00     0.029 A 
ATOM     52  C   UNL A   1      41.336  26.062  28.439  1.00  0.00     0.049 A 
ATOM     53  H   UNL A   1      41.682  27.337  30.051  1.00  0.00     0.167 HD
ATOM     54  C   UNL A   1      42.288  30.130  33.387  1.00  0.00     0.034 A 
ATOM     55  C   UNL A   1      42.339  25.163  28.418  1.00  0.00     0.034 A 
ATOM     56  C   UNL A   1      43.355  29.162  33.494  1.00  0.00     0.049 A 
ATOM     57  C   UNL A   1      43.395  25.227  29.491  1.00  0.00     0.074 A 
ATOM     58  C   UNL A   1      44.351  29.077  34.453  1.00  0.00     0.029 A 
ATOM     59  N   UNL A   1      43.574  28.115  32.607  1.00  0.00    -0.354 N 
ATOM     60  N   UNL A   1      43.515  26.079  30.483  1.00  0.00    -0.248 NA
ATOM     61  C   UNL A   1      44.437  24.196  29.451  1.00  0.00     0.031 C 
ATOM     62  C   UNL A   1      45.205  28.023  34.109  1.00  0.00     0.029 A 
ATOM     63  C   UNL A   1      44.703  27.400  32.979  1.00  0.00     0.049 A 
ATOM     64  H   UNL A   1      43.010  27.911  31.827  1.00  0.00     0.167 HD
ATOM     65  C   UNL A   1      44.638  25.673  31.197  1.00  0.00     0.074 A 
ATOM     66  C   UNL A   1      45.136  24.481  30.538  1.00  0.00     0.031 C 
ATOM     67  C   UNL A   1      45.207  26.230  32.296  1.00  0.00     0.034 A 
BRANCH  54  68
ATOM     68  C   UNL A   1      42.236  31.273  34.375  1.00  0.00     0.023 A 
ATOM     69  C   UNL A   1      41.251  31.338  35.377  1.00  0.00     0.031 A 
ATOM     70  C   UNL A   1      43.165  32.325  34.302  1.00  0.00     0.131 A 
ATOM     71  C   UNL A   1      41.170  32.464  36.212  1.00  0.00     0.055 A 
ATOM     72  C   UNL A   1      43.130  33.404  35.188  1.00  0.00     0.041 A 
ATOM     73  F   UNL A   1      44.118  32.331  33.356  1.00  0.00    -0.206 F 
ATOM     74  C   UNL A   1      42.118  33.485  36.141  1.00  0.00     0.022 A 
BRANCH  71  75
ATOM     75  S   UNL A   1      39.724  32.639  37.294  1.00  0.00     0.124 S 
ATOM     76  O   UNL A   1      39.009  31.391  37.034  1.00  0.00    -0.237 OA
ATOM     77  O   UNL A   1      40.331  32.765  38.614  1.00  0.00    -0.237 OA
ATOM     78  O   UNL A   1      39.064  33.842  36.792  1.00  0.00    -0.744 OA
ENDBRANCH  71  75
ENDBRANCH  54  68
BRANCH  55  79
ATOM     79  C   UNL A   1      42.396  24.121  27.353  1.00  0.00     0.023 A 
ATOM     80  C   UNL A   1      41.791  22.867  27.533  1.00  0.00     0.031 A 
ATOM     81  C   UNL A   1      43.089  24.353  26.152  1.00  0.00     0.131 A 
ATOM     82  C   UNL A   1      41.930  21.876  26.549  1.00  0.00     0.055 A 
ATOM     83  C   UNL A   1      43.180  23.382  25.153  1.00  0.00     0.041 A 
ATOM     84  F   UNL A   1      43.678  25.539  25.926  1.00  0.00    -0.206 F 
ATOM     85  C   UNL A   1      42.609  22.129  25.355  1.00  0.00     0.022 A 
BRANCH  82  86
ATOM     86  S   UNL A   1      41.275  20.219  26.886  1.00  0.00     0.124 S 
ATOM     87  O   UNL A   1      40.882  20.332  28.286  1.00  0.00    -0.237 OA
ATOM     88  O   UNL A   1      40.186  20.122  25.919  1.00  0.00    -0.237 OA
ATOM     89  O   UNL A   1      42.415  19.342  26.625  1.00  0.00    -0.744 OA
ENDBRANCH  82  86
ENDBRANCH  55  79
BRANCH  67  90
ATOM     90  C   UNL A   1      46.424  25.532  32.856  1.00  0.00     0.023 A 
ATOM     91  C   UNL A   1      46.315  24.548  33.853  1.00  0.00     0.031 A 
ATOM     92  C   UNL A   1      47.712  25.891  32.421  1.00  0.00     0.131 A 
ATOM     93  C   UNL A   1      47.472  24.011  34.437  1.00  0.00     0.055 A 
ATOM     94  C   UNL A   1      48.859  25.303  32.957  1.00  0.00     0.041 A 
ATOM     95  F   UNL A   1      47.879  26.826  31.472  1.00  0.00    -0.206 F 
ATOM     96  C   UNL A   1      48.744  24.371  33.984  1.00  0.00     0.022 A 
BRANCH  93  97
ATOM     97  S   UNL A   1      47.294  22.928  35.882  1.00  0.00     0.124 S 
ATOM     98  O   UNL A   1      47.857  23.750  36.949  1.00  0.00    -0.237 OA
ATOM     99  O   UNL A   1      45.853  22.714  35.936  1.00  0.00    -0.237 OA
ATOM    100  O   UNL A   1      48.083  21.749  35.527  1.00  0.00    -0.744 OA
ENDBRANCH  93  97
ENDBRANCH  67  90
ENDBRANCH  41  42
ENDBRANCH  33  36
ENDBRANCH  31  32
ENDBRANCH   1  31
TORSDOF 16
ENDMDL
MODEL 3
REMARK VINA RESULT:     -12.5      1.784      2.087
REMARK SMILES CC(C)C[C@H](C(=O)NCCCNC(=O)c1ccc(-c2c3nc(c(-c4cc(S(=O)(=O)[O-])ccc4F)c4ccc([nH]4)c(-c4cc(S(=O)(=O)[O-])ccc4F)c4nc(c(-c5cc(S(=O)(=O)[O-])ccc5F)c5ccc2[nH]5)C=C4)C=C3)cc1)N1C(=O)/C(=C2\C(=O)Nc3ccc(Br)cc32)SC1=S
REMARK SMILES IDX 10 1 9 2 8 3 6 4 7 5 5 7 4 8 2 9 1 10 3 11 78 12 79 13 94 14
REMARK SMILES IDX 80 15 81 16 93 17 95 18 82 19 83 20 92 21 84 22 85 23 86 24
REMARK SMILES IDX 91 25 87 27 89 28 88 29 90 30 11 31 12 32 13 33 14 35 15 36
REMARK SMILES IDX 16 37 77 38 17 39 76 40 18 41 19 42 20 43 70 44 21 45 75 46
REMARK SMILES IDX 69 47 71 48 22 49 74 50 68 51 67 52 23 54 55 55 35 56 54 57
REMARK SMILES IDX 36 58 39 59 53 60 72 61 37 62 38 63 52 65 73 66 40 67 24 68
REMARK SMILES IDX 25 69 33 70 26 71 32 72 34 73 31 74 27 75 28 76 29 77 30 78
REMARK SMILES IDX 56 79 57 80 65 81 58 82 64 83 66 84 63 85 59 86 60 87 61 88
REMARK SMILES IDX 62 89 41 90 42 91 50 92 43 93 49 94 51 95 48 96 44 97 45 98
REMARK SMILES IDX 46 99 47 100
REMARK H PARENT 8 6 85 26 12 34 71 53 39 64
REMARK Flexibility Score: inf
ROOT
ATOM      1  C   UNL A   1      33.081  28.149  26.937  1.00  0.00     0.042 C 
ENDROOT
BRANCH   1   2
ATOM      2  C   UNL A   1      31.632  28.327  26.504  1.00  0.00     0.117 C 
BRANCH   2   3
ATOM      3  N   UNL A   1      31.402  29.633  25.913  1.00  0.00    -0.354 N 
ATOM      4  C   UNL A   1      30.756  29.985  24.762  1.00  0.00     0.243 C 
ATOM      5  O   UNL A   1      30.624  31.187  24.530  1.00  0.00    -0.273 OA
ATOM      6  H   UNL A   1      31.771  30.387  26.425  1.00  0.00     0.163 HD
BRANCH   4   7
ATOM      7  C   UNL A   1      30.163  28.899  23.839  1.00  0.00     0.181 C 
BRANCH   7   8
ATOM      8  C   UNL A   1      29.591  29.526  22.536  1.00  0.00     0.038 C 
BRANCH   8   9
ATOM      9  C   UNL A   1      28.065  29.730  22.451  1.00  0.00    -0.015 C 
ATOM     10  C   UNL A   1      27.317  28.579  23.132  1.00  0.00     0.007 C 
ATOM     11  C   UNL A   1      27.653  31.042  23.123  1.00  0.00     0.007 C 
ENDBRANCH   8   9
ENDBRANCH   7   8
BRANCH   7  12
ATOM     12  N   UNL A   1      30.985  27.689  23.622  1.00  0.00    -0.280 N 
ATOM     13  C   UNL A   1      30.539  26.451  24.063  1.00  0.00     0.267 C 
ATOM     14  C   UNL A   1      32.265  27.692  23.110  1.00  0.00     0.149 C 
ATOM     15  O   UNL A   1      29.378  26.082  24.084  1.00  0.00    -0.268 OA
ATOM     16  C   UNL A   1      31.713  25.570  24.352  1.00  0.00     0.093 C 
ATOM     17  S   UNL A   1      32.989  26.100  23.316  1.00  0.00    -0.053 SA
ATOM     18  S   UNL A   1      33.126  28.953  22.442  1.00  0.00    -0.052 S 
ATOM     19  C   UNL A   1      31.814  24.677  25.351  1.00  0.00     0.069 C 
ATOM     20  C   UNL A   1      30.701  24.390  26.336  1.00  0.00     0.257 C 
ATOM     21  C   UNL A   1      32.972  23.871  25.811  1.00  0.00     0.013 A 
ATOM     22  O   UNL A   1      29.625  24.941  26.472  1.00  0.00    -0.269 OA
ATOM     23  N   UNL A   1      31.194  23.418  27.183  1.00  0.00    -0.321 N 
ATOM     24  C   UNL A   1      32.519  23.124  26.907  1.00  0.00     0.049 A 
ATOM     25  C   UNL A   1      34.307  23.781  25.446  1.00  0.00     0.026 A 
ATOM     26  H   UNL A   1      30.669  22.986  27.896  1.00  0.00     0.170 HD
ATOM     27  C   UNL A   1      33.325  22.273  27.639  1.00  0.00     0.028 A 
ATOM     28  C   UNL A   1      35.147  22.938  26.188  1.00  0.00     0.018 A 
ATOM     29  C   UNL A   1      34.665  22.183  27.269  1.00  0.00     0.018 A 
ATOM     30  Br  UNL A   1      36.987  22.840  25.748  1.00  0.00    -0.051 Br
ENDBRANCH   7  12
ENDBRANCH   4   7
ENDBRANCH   2   3
ENDBRANCH   1   2
BRANCH   1  31
ATOM     31  C   UNL A   1      34.051  29.088  26.228  1.00  0.00     0.118 C 
BRANCH  31  32
ATOM     32  N   UNL A   1      34.001  30.443  26.759  1.00  0.00    -0.352 N 
ATOM     33  C   UNL A   1      34.778  31.054  27.713  1.00  0.00     0.251 C 
ATOM     34  H   UNL A   1      33.297  31.013  26.372  1.00  0.00     0.163 HD
ATOM     35  O   UNL A   1      34.428  32.150  28.144  1.00  0.00    -0.269 OA
BRANCH  33  36
ATOM     36  C   UNL A   1      36.002  30.404  28.238  1.00  0.00     0.039 A 
ATOM     37  C   UNL A   1      37.193  30.554  27.521  1.00  0.00     0.014 A 
ATOM     38  C   UNL A   1      35.984  29.618  29.394  1.00  0.00     0.014 A 
ATOM     39  C   UNL A   1      38.369  29.964  27.991  1.00  0.00     0.010 A 
ATOM     40  C   UNL A   1      37.173  29.093  29.901  1.00  0.00     0.010 A 
ATOM     41  C   UNL A   1      38.378  29.254  29.203  1.00  0.00    -0.014 A 
BRANCH  41  42
ATOM     42  C   UNL A   1      39.646  28.692  29.739  1.00  0.00     0.031 A 
ATOM     43  C   UNL A   1      40.274  29.261  30.983  1.00  0.00     0.074 A 
ATOM     44  C   UNL A   1      40.248  27.681  29.081  1.00  0.00     0.049 A 
ATOM     45  N   UNL A   1      41.366  28.888  31.603  1.00  0.00    -0.248 NA
ATOM     46  C   UNL A   1      39.602  30.416  31.596  1.00  0.00     0.031 C 
ATOM     47  C   UNL A   1      39.766  27.085  27.832  1.00  0.00     0.029 A 
ATOM     48  N   UNL A   1      41.385  26.971  29.367  1.00  0.00    -0.354 N 
ATOM     49  C   UNL A   1      41.513  29.762  32.677  1.00  0.00     0.074 A 
ATOM     50  C   UNL A   1      40.434  30.722  32.579  1.00  0.00     0.031 C 
ATOM     51  C   UNL A   1      40.581  26.077  27.483  1.00  0.00     0.029 A 
ATOM     52  C   UNL A   1      41.662  25.977  28.458  1.00  0.00     0.049 A 
ATOM     53  H   UNL A   1      41.952  27.156  30.151  1.00  0.00     0.167 HD
ATOM     54  C   UNL A   1      42.445  29.749  33.663  1.00  0.00     0.034 A 
ATOM     55  C   UNL A   1      42.669  25.084  28.414  1.00  0.00     0.034 A 
ATOM     56  C   UNL A   1      43.513  28.780  33.745  1.00  0.00     0.049 A 
ATOM     57  C   UNL A   1      43.692  25.087  29.521  1.00  0.00     0.074 A 
ATOM     58  C   UNL A   1      44.479  28.642  34.727  1.00  0.00     0.029 A 
ATOM     59  N   UNL A   1      43.763  27.787  32.805  1.00  0.00    -0.354 N 
ATOM     60  N   UNL A   1      43.778  25.880  30.564  1.00  0.00    -0.248 NA
ATOM     61  C   UNL A   1      44.740  24.064  29.451  1.00  0.00     0.031 C 
ATOM     62  C   UNL A   1      45.349  27.612  34.348  1.00  0.00     0.029 A 
ATOM     63  C   UNL A   1      44.884  27.055  33.168  1.00  0.00     0.049 A 
ATOM     64  H   UNL A   1      43.224  27.628  31.998  1.00  0.00     0.167 HD
ATOM     65  C   UNL A   1      44.881  25.436  31.287  1.00  0.00     0.074 A 
ATOM     66  C   UNL A   1      45.404  24.287  30.574  1.00  0.00     0.031 C 
ATOM     67  C   UNL A   1      45.414  25.929  32.433  1.00  0.00     0.034 A 
BRANCH  54  68
ATOM     68  C   UNL A   1      42.358  30.831  34.714  1.00  0.00     0.023 A 
ATOM     69  C   UNL A   1      42.953  32.092  34.526  1.00  0.00     0.031 A 
ATOM     70  C   UNL A   1      41.695  30.595  35.932  1.00  0.00     0.131 A 
ATOM     71  C   UNL A   1      42.941  33.037  35.565  1.00  0.00     0.055 A 
ATOM     72  C   UNL A   1      41.616  31.569  36.930  1.00  0.00     0.041 A 
ATOM     73  F   UNL A   1      41.123  29.406  36.180  1.00  0.00    -0.206 F 
ATOM     74  C   UNL A   1      42.255  32.794  36.755  1.00  0.00     0.022 A 
BRANCH  71  75
ATOM     75  S   UNL A   1      43.955  34.531  35.390  1.00  0.00     0.124 S 
ATOM     76  O   UNL A   1      43.556  35.004  34.066  1.00  0.00    -0.237 OA
ATOM     77  O   UNL A   1      43.517  35.344  36.519  1.00  0.00    -0.237 OA
ATOM     78  O   UNL A   1      45.324  34.028  35.476  1.00  0.00    -0.744 OA
ENDBRANCH  71  75
ENDBRANCH  54  68
BRANCH  55  79
ATOM     79  C   UNL A   1      42.762  24.106  27.292  1.00  0.00     0.023 A 
ATOM     80  C   UNL A   1      42.066  22.889  27.331  1.00  0.00     0.031 A 
ATOM     81  C   UNL A   1      43.582  24.363  26.178  1.00  0.00     0.131 A 
ATOM     82  C   UNL A   1      42.237  21.952  26.300  1.00  0.00     0.055 A 
ATOM     83  C   UNL A   1      43.708  23.450  25.130  1.00  0.00     0.041 A 
ATOM     84  F   UNL A   1      44.263  25.516  26.086  1.00  0.00    -0.206 F 
ATOM     85  C   UNL A   1      43.043  22.229  25.194  1.00  0.00     0.022 A 
BRANCH  82  86
ATOM     86  S   UNL A   1      41.449  20.326  26.464  1.00  0.00     0.124 S 
ATOM     87  O   UNL A   1      40.040  20.658  26.293  1.00  0.00    -0.237 OA
ATOM     88  O   UNL A   1      42.071  19.578  25.376  1.00  0.00    -0.237 OA
ATOM     89  O   UNL A   1      41.832  19.897  27.808  1.00  0.00    -0.744 OA
ENDBRANCH  82  86
ENDBRANCH  55  79
BRANCH  67  90
ATOM     90  C   UNL A   1      46.617  25.203  32.988  1.00  0.00     0.023 A 
ATOM     91  C   UNL A   1      46.484  24.177  33.939  1.00  0.00     0.031 A 
ATOM     92  C   UNL A   1      47.915  25.576  32.595  1.00  0.00     0.131 A 
ATOM     93  C   UNL A   1      47.627  23.611  34.523  1.00  0.00     0.055 A 
ATOM     94  C   UNL A   1      49.048  24.961  33.130  1.00  0.00     0.041 A 
ATOM     95  F   UNL A   1      48.104  26.550  31.692  1.00  0.00    -0.206 F 
ATOM     96  C   UNL A   1      48.909  23.986  34.113  1.00  0.00     0.022 A 
BRANCH  93  97
ATOM     97  S   UNL A   1      47.416  22.467  35.915  1.00  0.00     0.124 S 
ATOM     98  O   UNL A   1      46.758  23.313  36.906  1.00  0.00    -0.237 OA
ATOM     99  O   UNL A   1      46.594  21.414  35.331  1.00  0.00    -0.237 OA
ATOM    100  O   UNL A   1      48.784  22.074  36.248  1.00  0.00    -0.744 OA
ENDBRANCH  93  97
ENDBRANCH  67  90
ENDBRANCH  41  42
ENDBRANCH  33  36
ENDBRANCH  31  32
ENDBRANCH   1  31
TORSDOF 16
ENDMDL
