MODEL 1
REMARK VINA RESULT:     -10.1      0.000      0.000
REMARK SMILES CCC[C@@H](C[NH2+]C(C)C)C(=O)NCCCNC(=O)c1ccc(-c2c3nc(c(-c4cc(S(=O)(=O)[O-])ccc4F)c4ccc([nH]4)c(-c4cc(S(=O)(=O)[O-])ccc4F)c4nc(c(-c5cc(S(=O)(=O)[O-])ccc5F)c5ccc2[nH]5)C=C4)C=C3)cc1
REMARK SMILES IDX 14 1 13 2 12 3 10 4 11 5 4 7 3 8 2 9 1 10 5 11 6 12 7 15
REMARK SMILES IDX 8 16 9 17 15 18 16 19 17 20 18 22 19 23 20 24 81 25 21 26
REMARK SMILES IDX 80 27 22 28 23 29 24 30 74 31 25 32 79 33 73 34 75 35 26 36
REMARK SMILES IDX 78 37 72 38 71 39 27 41 59 42 39 43 58 44 40 45 43 46 57 47
REMARK SMILES IDX 76 48 41 49 42 50 56 52 77 53 44 54 28 55 29 56 37 57 30 58
REMARK SMILES IDX 36 59 38 60 35 61 31 62 32 63 33 64 34 65 60 66 61 67 69 68
REMARK SMILES IDX 62 69 68 70 70 71 67 72 63 73 64 74 65 75 66 76 45 77 46 78
REMARK SMILES IDX 54 79 47 80 53 81 55 82 52 83 48 84 49 85 50 86 51 87
REMARK H PARENT 12 6 6 13 6 14 16 21 75 40 43 51
REMARK Flexibility Score: inf
ROOT
ATOM      1  C   UNL A   1      31.921  28.765  26.733  1.00  0.00     0.042 C 
ENDROOT
BRANCH   1   2
ATOM      2  C   UNL A   1      31.946  27.361  26.168  1.00  0.00     0.117 C 
BRANCH   2   3
ATOM      3  N   UNL A   1      30.698  26.961  25.548  1.00  0.00    -0.356 N 
ATOM      4  C   UNL A   1      30.282  27.105  24.261  1.00  0.00     0.228 C 
ATOM      5  O   UNL A   1      29.226  26.547  23.940  1.00  0.00    -0.275 OA
ATOM      6  H   UNL A   1      30.055  26.519  26.148  1.00  0.00     0.163 HD
BRANCH   4   7
ATOM      7  C   UNL A   1      31.054  27.931  23.228  1.00  0.00     0.133 C 
BRANCH   7   8
ATOM      8  C   UNL A   1      31.888  27.031  22.293  1.00  0.00     0.019 C 
BRANCH   8   9
ATOM      9  C   UNL A   1      33.400  27.259  22.323  1.00  0.00    -0.002 C 
ATOM     10  C   UNL A   1      33.791  28.645  22.799  1.00  0.00     0.004 C 
ENDBRANCH   8   9
ENDBRANCH   7   8
BRANCH   7  11
ATOM     11  C   UNL A   1      30.190  29.051  22.601  1.00  0.00     0.274 C 
BRANCH  11  12
ATOM     12  N   UNL A   1      30.064  30.248  23.423  1.00  0.00    -0.344 N 
ATOM     13  H   UNL A   1      30.702  30.950  23.049  1.00  0.00     0.346 HD
ATOM     14  H   UNL A   1      30.280  29.948  24.374  1.00  0.00     0.346 HD
BRANCH  12  15
ATOM     15  C   UNL A   1      28.737  30.844  23.494  1.00  0.00     0.176 C 
ATOM     16  C   UNL A   1      28.710  32.159  22.721  1.00  0.00     0.075 C 
ATOM     17  C   UNL A   1      27.761  29.841  22.871  1.00  0.00     0.075 C 
ENDBRANCH  12  15
ENDBRANCH  11  12
ENDBRANCH   7  11
ENDBRANCH   4   7
ENDBRANCH   2   3
ENDBRANCH   1   2
BRANCH   1  18
ATOM     18  C   UNL A   1      33.036  29.642  26.205  1.00  0.00     0.118 C 
BRANCH  18  19
ATOM     19  N   UNL A   1      32.911  31.029  26.640  1.00  0.00    -0.352 N 
ATOM     20  C   UNL A   1      33.677  31.761  27.513  1.00  0.00     0.251 C 
ATOM     21  H   UNL A   1      32.154  31.518  26.243  1.00  0.00     0.163 HD
ATOM     22  O   UNL A   1      33.264  32.852  27.906  1.00  0.00    -0.269 OA
BRANCH  20  23
ATOM     23  C   UNL A   1      34.968  31.232  28.000  1.00  0.00     0.039 A 
ATOM     24  C   UNL A   1      36.081  32.074  28.041  1.00  0.00     0.014 A 
ATOM     25  C   UNL A   1      35.084  29.907  28.425  1.00  0.00     0.014 A 
ATOM     26  C   UNL A   1      37.281  31.606  28.581  1.00  0.00     0.010 A 
ATOM     27  C   UNL A   1      36.231  29.488  29.084  1.00  0.00     0.010 A 
ATOM     28  C   UNL A   1      37.351  30.324  29.152  1.00  0.00    -0.014 A 
BRANCH  28  29
ATOM     29  C   UNL A   1      38.596  29.828  29.797  1.00  0.00     0.031 A 
ATOM     30  C   UNL A   1      39.000  30.349  31.151  1.00  0.00     0.074 A 
ATOM     31  C   UNL A   1      39.383  28.953  29.139  1.00  0.00     0.049 A 
ATOM     32  N   UNL A   1      40.071  30.083  31.854  1.00  0.00    -0.248 NA
ATOM     33  C   UNL A   1      38.101  31.329  31.782  1.00  0.00     0.031 C 
ATOM     34  C   UNL A   1      39.122  28.422  27.799  1.00  0.00     0.029 A 
ATOM     35  N   UNL A   1      40.561  28.354  29.506  1.00  0.00    -0.354 N 
ATOM     36  C   UNL A   1      39.978  30.869  32.998  1.00  0.00     0.074 A 
ATOM     37  C   UNL A   1      38.791  31.683  32.854  1.00  0.00     0.031 C 
ATOM     38  C   UNL A   1      40.083  27.542  27.479  1.00  0.00     0.029 A 
ATOM     39  C   UNL A   1      41.059  27.486  28.562  1.00  0.00     0.049 A 
ATOM     40  H   UNL A   1      41.009  28.529  30.365  1.00  0.00     0.167 HD
ATOM     41  C   UNL A   1      40.788  30.888  34.085  1.00  0.00     0.034 A 
ATOM     42  C   UNL A   1      42.178  26.735  28.567  1.00  0.00     0.034 A 
ATOM     43  C   UNL A   1      41.959  30.057  34.217  1.00  0.00     0.049 A 
ATOM     44  C   UNL A   1      43.075  26.787  29.777  1.00  0.00     0.074 A 
ATOM     45  C   UNL A   1      42.825  29.952  35.291  1.00  0.00     0.029 A 
ATOM     46  N   UNL A   1      42.435  29.193  33.237  1.00  0.00    -0.354 N 
ATOM     47  N   UNL A   1      42.942  27.495  30.877  1.00  0.00    -0.248 NA
ATOM     48  C   UNL A   1      44.266  25.931  29.752  1.00  0.00     0.031 C 
ATOM     49  C   UNL A   1      43.864  29.087  34.932  1.00  0.00     0.029 A 
ATOM     50  C   UNL A   1      43.600  28.578  33.670  1.00  0.00     0.049 A 
ATOM     51  H   UNL A   1      42.008  29.040  32.364  1.00  0.00     0.167 HD
ATOM     52  C   UNL A   1      44.017  27.140  31.688  1.00  0.00     0.074 A 
ATOM     53  C   UNL A   1      44.773  26.142  30.957  1.00  0.00     0.031 C 
ATOM     54  C   UNL A   1      44.351  27.595  32.923  1.00  0.00     0.034 A 
BRANCH  41  55
ATOM     55  C   UNL A   1      40.439  31.849  35.198  1.00  0.00     0.023 A 
ATOM     56  C   UNL A   1      39.460  31.543  36.161  1.00  0.00     0.031 A 
ATOM     57  C   UNL A   1      41.072  33.102  35.283  1.00  0.00     0.131 A 
ATOM     58  C   UNL A   1      39.086  32.505  37.112  1.00  0.00     0.055 A 
ATOM     59  C   UNL A   1      40.759  34.019  36.288  1.00  0.00     0.041 A 
ATOM     60  F   UNL A   1      41.998  33.463  34.381  1.00  0.00    -0.206 F 
ATOM     61  C   UNL A   1      39.749  33.730  37.200  1.00  0.00     0.022 A 
BRANCH  58  62
ATOM     62  S   UNL A   1      37.616  32.190  38.129  1.00  0.00     0.124 S 
ATOM     63  O   UNL A   1      38.092  32.569  39.457  1.00  0.00    -0.237 OA
ATOM     64  O   UNL A   1      36.623  33.073  37.530  1.00  0.00    -0.237 OA
ATOM     65  O   UNL A   1      37.373  30.761  37.946  1.00  0.00    -0.744 OA
ENDBRANCH  58  62
ENDBRANCH  41  55
BRANCH  42  66
ATOM     66  C   UNL A   1      42.519  25.872  27.397  1.00  0.00     0.023 A 
ATOM     67  C   UNL A   1      42.083  24.538  27.330  1.00  0.00     0.031 A 
ATOM     68  C   UNL A   1      43.324  26.353  26.350  1.00  0.00     0.131 A 
ATOM     69  C   UNL A   1      42.498  23.718  26.271  1.00  0.00     0.055 A 
ATOM     70  C   UNL A   1      43.684  25.550  25.265  1.00  0.00     0.041 A 
ATOM     71  F   UNL A   1      43.766  27.621  26.360  1.00  0.00    -0.206 F 
ATOM     72  C   UNL A   1      43.283  24.219  25.230  1.00  0.00     0.022 A 
BRANCH  69  73
ATOM     73  S   UNL A   1      42.080  21.953  26.322  1.00  0.00     0.124 S 
ATOM     74  O   UNL A   1      42.489  21.591  27.675  1.00  0.00    -0.237 OA
ATOM     75  O   UNL A   1      40.643  21.975  26.071  1.00  0.00    -0.237 OA
ATOM     76  O   UNL A   1      42.890  21.380  25.250  1.00  0.00    -0.744 OA
ENDBRANCH  69  73
ENDBRANCH  42  66
BRANCH  54  77
ATOM     77  C   UNL A   1      45.565  26.977  33.574  1.00  0.00     0.023 A 
ATOM     78  C   UNL A   1      45.474  25.815  34.360  1.00  0.00     0.031 A 
ATOM     79  C   UNL A   1      46.829  27.576  33.428  1.00  0.00     0.131 A 
ATOM     80  C   UNL A   1      46.608  25.331  35.027  1.00  0.00     0.055 A 
ATOM     81  C   UNL A   1      47.969  27.047  34.032  1.00  0.00     0.041 A 
ATOM     82  F   UNL A   1      46.977  28.690  32.692  1.00  0.00    -0.206 F 
ATOM     83  C   UNL A   1      47.859  25.928  34.853  1.00  0.00     0.022 A 
BRANCH  80  84
ATOM     84  S   UNL A   1      46.402  23.987  36.228  1.00  0.00     0.124 S 
ATOM     85  O   UNL A   1      47.059  22.874  35.550  1.00  0.00    -0.237 OA
ATOM     86  O   UNL A   1      47.089  24.512  37.404  1.00  0.00    -0.237 OA
ATOM     87  O   UNL A   1      44.952  23.864  36.359  1.00  0.00    -0.744 OA
ENDBRANCH  80  84
ENDBRANCH  54  77
ENDBRANCH  28  29
ENDBRANCH  20  23
ENDBRANCH  18  19
ENDBRANCH   1  18
TORSDOF 18
ENDMDL
MODEL 2
REMARK VINA RESULT:      -9.8      1.608      2.594
REMARK SMILES CCC[C@@H](C[NH2+]C(C)C)C(=O)NCCCNC(=O)c1ccc(-c2c3nc(c(-c4cc(S(=O)(=O)[O-])ccc4F)c4ccc([nH]4)c(-c4cc(S(=O)(=O)[O-])ccc4F)c4nc(c(-c5cc(S(=O)(=O)[O-])ccc5F)c5ccc2[nH]5)C=C4)C=C3)cc1
REMARK SMILES IDX 14 1 13 2 12 3 10 4 11 5 4 7 3 8 2 9 1 10 5 11 6 12 7 15
REMARK SMILES IDX 8 16 9 17 15 18 16 19 17 20 18 22 19 23 20 24 81 25 21 26
REMARK SMILES IDX 80 27 22 28 23 29 24 30 74 31 25 32 79 33 73 34 75 35 26 36
REMARK SMILES IDX 78 37 72 38 71 39 27 41 59 42 39 43 58 44 40 45 43 46 57 47
REMARK SMILES IDX 76 48 41 49 42 50 56 52 77 53 44 54 28 55 29 56 37 57 30 58
REMARK SMILES IDX 36 59 38 60 35 61 31 62 32 63 33 64 34 65 60 66 61 67 69 68
REMARK SMILES IDX 62 69 68 70 70 71 67 72 63 73 64 74 65 75 66 76 45 77 46 78
REMARK SMILES IDX 54 79 47 80 53 81 55 82 52 83 48 84 49 85 50 86 51 87
REMARK H PARENT 12 6 6 13 6 14 16 21 75 40 43 51
REMARK Flexibility Score: inf
ROOT
ATOM      1  C   UNL A   1      32.958  29.651  25.110  1.00  0.00     0.042 C 
ENDROOT
BRANCH   1   2
ATOM      2  C   UNL A   1      31.453  29.808  25.085  1.00  0.00     0.117 C 
BRANCH   2   3
ATOM      3  N   UNL A   1      30.877  29.688  23.760  1.00  0.00    -0.356 N 
ATOM      4  C   UNL A   1      30.504  28.575  23.072  1.00  0.00     0.228 C 
ATOM      5  O   UNL A   1      29.898  28.742  22.008  1.00  0.00    -0.275 OA
ATOM      6  H   UNL A   1      30.734  30.539  23.287  1.00  0.00     0.163 HD
BRANCH   4   7
ATOM      7  C   UNL A   1      30.820  27.157  23.557  1.00  0.00     0.133 C 
BRANCH   7   8
ATOM      8  C   UNL A   1      29.595  26.503  24.230  1.00  0.00     0.019 C 
BRANCH   8   9
ATOM      9  C   UNL A   1      29.871  25.755  25.535  1.00  0.00    -0.002 C 
ATOM     10  C   UNL A   1      31.045  26.317  26.314  1.00  0.00     0.004 C 
ENDBRANCH   8   9
ENDBRANCH   7   8
BRANCH   7  11
ATOM     11  C   UNL A   1      31.616  26.338  22.513  1.00  0.00     0.274 C 
BRANCH  11  12
ATOM     12  N   UNL A   1      33.061  26.515  22.583  1.00  0.00    -0.344 N 
ATOM     13  H   UNL A   1      33.253  27.231  23.284  1.00  0.00     0.346 HD
ATOM     14  H   UNL A   1      33.352  26.763  21.638  1.00  0.00     0.346 HD
BRANCH  12  15
ATOM     15  C   UNL A   1      33.837  25.332  22.932  1.00  0.00     0.176 C 
ATOM     16  C   UNL A   1      34.109  25.305  24.432  1.00  0.00     0.075 C 
ATOM     17  C   UNL A   1      33.007  24.112  22.520  1.00  0.00     0.075 C 
ENDBRANCH  12  15
ENDBRANCH  11  12
ENDBRANCH   7  11
ENDBRANCH   4   7
ENDBRANCH   2   3
ENDBRANCH   1   2
BRANCH   1  18
ATOM     18  C   UNL A   1      33.535  29.637  26.509  1.00  0.00     0.118 C 
BRANCH  18  19
ATOM     19  N   UNL A   1      33.499  30.951  27.142  1.00  0.00    -0.352 N 
ATOM     20  C   UNL A   1      34.330  31.511  28.080  1.00  0.00     0.251 C 
ATOM     21  H   UNL A   1      32.758  31.530  26.849  1.00  0.00     0.163 HD
ATOM     22  O   UNL A   1      33.991  32.552  28.641  1.00  0.00    -0.269 OA
BRANCH  20  23
ATOM     23  C   UNL A   1      35.605  30.853  28.437  1.00  0.00     0.039 A 
ATOM     24  C   UNL A   1      36.802  31.355  27.922  1.00  0.00     0.014 A 
ATOM     25  C   UNL A   1      35.626  29.745  29.285  1.00  0.00     0.014 A 
ATOM     26  C   UNL A   1      38.015  30.793  28.323  1.00  0.00     0.010 A 
ATOM     27  C   UNL A   1      36.832  29.278  29.788  1.00  0.00     0.010 A 
ATOM     28  C   UNL A   1      38.043  29.782  29.298  1.00  0.00    -0.014 A 
BRANCH  28  29
ATOM     29  C   UNL A   1      39.325  29.215  29.794  1.00  0.00     0.031 A 
ATOM     30  C   UNL A   1      40.005  29.830  30.989  1.00  0.00     0.074 A 
ATOM     31  C   UNL A   1      39.897  28.187  29.137  1.00  0.00     0.049 A 
ATOM     32  N   UNL A   1      41.150  29.518  31.541  1.00  0.00    -0.248 NA
ATOM     33  C   UNL A   1      39.329  30.972  31.625  1.00  0.00     0.031 C 
ATOM     34  C   UNL A   1      39.359  27.547  27.933  1.00  0.00     0.029 A 
ATOM     35  N   UNL A   1      41.057  27.497  29.384  1.00  0.00    -0.354 N 
ATOM     36  C   UNL A   1      41.332  30.430  32.576  1.00  0.00     0.074 A 
ATOM     37  C   UNL A   1      40.224  31.358  32.520  1.00  0.00     0.031 C 
ATOM     38  C   UNL A   1      40.160  26.530  27.579  1.00  0.00     0.029 A 
ATOM     39  C   UNL A   1      41.297  26.478  28.492  1.00  0.00     0.049 A 
ATOM     40  H   UNL A   1      41.660  27.711  30.133  1.00  0.00     0.167 HD
ATOM     41  C   UNL A   1      42.315  30.471  33.509  1.00  0.00     0.034 A 
ATOM     42  C   UNL A   1      42.321  25.605  28.414  1.00  0.00     0.034 A 
ATOM     43  C   UNL A   1      43.404  29.527  33.558  1.00  0.00     0.049 A 
ATOM     44  C   UNL A   1      43.414  25.683  29.450  1.00  0.00     0.074 A 
ATOM     45  C   UNL A   1      44.427  29.439  34.485  1.00  0.00     0.029 A 
ATOM     46  N   UNL A   1      43.617  28.511  32.633  1.00  0.00    -0.354 N 
ATOM     47  N   UNL A   1      43.541  26.517  30.458  1.00  0.00    -0.248 NA
ATOM     48  C   UNL A   1      44.493  24.695  29.345  1.00  0.00     0.031 C 
ATOM     49  C   UNL A   1      45.299  28.423  34.079  1.00  0.00     0.029 A 
ATOM     50  C   UNL A   1      44.773  27.814  32.950  1.00  0.00     0.049 A 
ATOM     51  H   UNL A   1      43.033  28.315  31.866  1.00  0.00     0.167 HD
ATOM     52  C   UNL A   1      44.700  26.129  31.126  1.00  0.00     0.074 A 
ATOM     53  C   UNL A   1      45.217  24.975  30.418  1.00  0.00     0.031 C 
ATOM     54  C   UNL A   1      45.284  26.674  32.225  1.00  0.00     0.034 A 
BRANCH  41  55
ATOM     55  C   UNL A   1      42.259  31.582  34.532  1.00  0.00     0.023 A 
ATOM     56  C   UNL A   1      41.368  31.543  35.620  1.00  0.00     0.031 A 
ATOM     57  C   UNL A   1      43.086  32.713  34.403  1.00  0.00     0.131 A 
ATOM     58  C   UNL A   1      41.267  32.644  36.485  1.00  0.00     0.055 A 
ATOM     59  C   UNL A   1      43.044  33.764  35.320  1.00  0.00     0.041 A 
ATOM     60  F   UNL A   1      43.939  32.821  33.373  1.00  0.00    -0.206 F 
ATOM     61  C   UNL A   1      42.120  33.742  36.360  1.00  0.00     0.022 A 
BRANCH  58  62
ATOM     62  S   UNL A   1      39.901  32.683  37.679  1.00  0.00     0.124 S 
ATOM     63  O   UNL A   1      39.342  34.012  37.440  1.00  0.00    -0.237 OA
ATOM     64  O   UNL A   1      39.078  31.558  37.255  1.00  0.00    -0.237 OA
ATOM     65  O   UNL A   1      40.568  32.519  38.968  1.00  0.00    -0.744 OA
ENDBRANCH  58  62
ENDBRANCH  41  55
BRANCH  42  66
ATOM     66  C   UNL A   1      42.369  24.585  27.326  1.00  0.00     0.023 A 
ATOM     67  C   UNL A   1      41.574  23.429  27.380  1.00  0.00     0.031 A 
ATOM     68  C   UNL A   1      43.245  24.729  26.235  1.00  0.00     0.131 A 
ATOM     69  C   UNL A   1      41.709  22.438  26.397  1.00  0.00     0.055 A 
ATOM     70  C   UNL A   1      43.331  23.769  25.225  1.00  0.00     0.041 A 
ATOM     71  F   UNL A   1      44.026  25.817  26.129  1.00  0.00    -0.206 F 
ATOM     72  C   UNL A   1      42.571  22.607  25.311  1.00  0.00     0.022 A 
BRANCH  69  73
ATOM     73  S   UNL A   1      40.813  20.875  26.608  1.00  0.00     0.124 S 
ATOM     74  O   UNL A   1      39.503  21.207  26.061  1.00  0.00    -0.237 OA
ATOM     75  O   UNL A   1      41.624  19.953  25.820  1.00  0.00    -0.237 OA
ATOM     76  O   UNL A   1      40.849  20.655  28.053  1.00  0.00    -0.744 OA
ENDBRANCH  69  73
ENDBRANCH  42  66
BRANCH  54  77
ATOM     77  C   UNL A   1      46.525  25.992  32.748  1.00  0.00     0.023 A 
ATOM     78  C   UNL A   1      46.456  24.919  33.655  1.00  0.00     0.031 A 
ATOM     79  C   UNL A   1      47.799  26.440  32.354  1.00  0.00     0.131 A 
ATOM     80  C   UNL A   1      47.633  24.380  34.192  1.00  0.00     0.055 A 
ATOM     81  C   UNL A   1      48.968  25.849  32.833  1.00  0.00     0.041 A 
ATOM     82  F   UNL A   1      47.928  27.462  31.494  1.00  0.00    -0.206 F 
ATOM     83  C   UNL A   1      48.889  24.824  33.772  1.00  0.00     0.022 A 
BRANCH  80  84
ATOM     84  S   UNL A   1      47.500  23.176  35.542  1.00  0.00     0.124 S 
ATOM     85  O   UNL A   1      48.560  23.615  36.444  1.00  0.00    -0.237 OA
ATOM     86  O   UNL A   1      46.135  23.385  36.013  1.00  0.00    -0.237 OA
ATOM     87  O   UNL A   1      47.739  21.894  34.882  1.00  0.00    -0.744 OA
ENDBRANCH  80  84
ENDBRANCH  54  77
ENDBRANCH  28  29
ENDBRANCH  20  23
ENDBRANCH  18  19
ENDBRANCH   1  18
TORSDOF 18
ENDMDL
MODEL 3
REMARK VINA RESULT:      -9.7      5.299     10.339
REMARK SMILES CCC[C@@H](C[NH2+]C(C)C)C(=O)NCCCNC(=O)c1ccc(-c2c3nc(c(-c4cc(S(=O)(=O)[O-])ccc4F)c4ccc([nH]4)c(-c4cc(S(=O)(=O)[O-])ccc4F)c4nc(c(-c5cc(S(=O)(=O)[O-])ccc5F)c5ccc2[nH]5)C=C4)C=C3)cc1
REMARK SMILES IDX 14 1 13 2 12 3 10 4 11 5 4 7 3 8 2 9 1 10 5 11 6 12 7 15
REMARK SMILES IDX 8 16 9 17 15 18 16 19 17 20 18 22 19 23 20 24 81 25 21 26
REMARK SMILES IDX 80 27 22 28 23 29 24 30 74 31 25 32 79 33 73 34 75 35 26 36
REMARK SMILES IDX 78 37 72 38 71 39 27 41 59 42 39 43 58 44 40 45 43 46 57 47
REMARK SMILES IDX 76 48 41 49 42 50 56 52 77 53 44 54 28 55 29 56 37 57 30 58
REMARK SMILES IDX 36 59 38 60 35 61 31 62 32 63 33 64 34 65 60 66 61 67 69 68
REMARK SMILES IDX 62 69 68 70 70 71 67 72 63 73 64 74 65 75 66 76 45 77 46 78
REMARK SMILES IDX 54 79 47 80 53 81 55 82 52 83 48 84 49 85 50 86 51 87
REMARK H PARENT 12 6 6 13 6 14 16 21 75 40 43 51
REMARK Flexibility Score: inf
ROOT
ATOM      1  C   UNL A   1      35.678  22.286  24.517  1.00  0.00     0.042 C 
ENDROOT
BRANCH   1   2
ATOM      2  C   UNL A   1      34.171  22.410  24.577  1.00  0.00     0.117 C 
BRANCH   2   3
ATOM      3  N   UNL A   1      33.643  22.458  25.926  1.00  0.00    -0.356 N 
ATOM      4  C   UNL A   1      32.714  23.291  26.466  1.00  0.00     0.228 C 
ATOM      5  O   UNL A   1      32.320  23.037  27.610  1.00  0.00    -0.275 OA
ATOM      6  H   UNL A   1      34.012  21.786  26.543  1.00  0.00     0.163 HD
BRANCH   4   7
ATOM      7  C   UNL A   1      32.166  24.513  25.724  1.00  0.00     0.133 C 
BRANCH   7   8
ATOM      8  C   UNL A   1      30.633  24.621  25.863  1.00  0.00     0.019 C 
BRANCH   8   9
ATOM      9  C   UNL A   1      30.041  26.017  25.659  1.00  0.00    -0.002 C 
ATOM     10  C   UNL A   1      29.327  26.179  24.329  1.00  0.00     0.004 C 
ENDBRANCH   8   9
ENDBRANCH   7   8
BRANCH   7  11
ATOM     11  C   UNL A   1      33.022  25.781  25.960  1.00  0.00     0.274 C 
BRANCH  11  12
ATOM     12  N   UNL A   1      34.079  25.986  24.977  1.00  0.00    -0.344 N 
ATOM     13  H   UNL A   1      34.245  25.095  24.509  1.00  0.00     0.346 HD
ATOM     14  H   UNL A   1      34.876  26.340  25.505  1.00  0.00     0.346 HD
BRANCH  12  15
ATOM     15  C   UNL A   1      33.816  26.986  23.950  1.00  0.00     0.176 C 
ATOM     16  C   UNL A   1      32.916  26.402  22.866  1.00  0.00     0.075 C 
ATOM     17  C   UNL A   1      33.122  28.165  24.638  1.00  0.00     0.075 C 
ENDBRANCH  12  15
ENDBRANCH  11  12
ENDBRANCH   7  11
ENDBRANCH   4   7
ENDBRANCH   2   3
ENDBRANCH   1   2
BRANCH   1  18
ATOM     18  C   UNL A   1      36.315  22.070  25.873  1.00  0.00     0.118 C 
BRANCH  18  19
ATOM     19  N   UNL A   1      37.390  21.084  25.837  1.00  0.00    -0.352 N 
ATOM     20  C   UNL A   1      38.744  21.238  25.997  1.00  0.00     0.251 C 
ATOM     21  H   UNL A   1      37.096  20.159  25.670  1.00  0.00     0.163 HD
ATOM     22  O   UNL A   1      39.494  20.305  25.709  1.00  0.00    -0.269 OA
BRANCH  20  23
ATOM     23  C   UNL A   1      39.300  22.520  26.479  1.00  0.00     0.039 A 
ATOM     24  C   UNL A   1      40.366  22.508  27.381  1.00  0.00     0.014 A 
ATOM     25  C   UNL A   1      38.777  23.737  26.039  1.00  0.00     0.014 A 
ATOM     26  C   UNL A   1      40.951  23.713  27.773  1.00  0.00     0.010 A 
ATOM     27  C   UNL A   1      39.444  24.921  26.321  1.00  0.00     0.010 A 
ATOM     28  C   UNL A   1      40.527  24.927  27.208  1.00  0.00    -0.014 A 
BRANCH  28  29
ATOM     29  C   UNL A   1      41.180  26.217  27.555  1.00  0.00     0.031 A 
ATOM     30  C   UNL A   1      42.570  26.513  27.057  1.00  0.00     0.074 A 
ATOM     31  C   UNL A   1      40.543  27.090  28.360  1.00  0.00     0.049 A 
ATOM     32  N   UNL A   1      43.330  27.552  27.292  1.00  0.00    -0.248 NA
ATOM     33  C   UNL A   1      43.206  25.489  26.213  1.00  0.00     0.031 C 
ATOM     34  C   UNL A   1      39.217  26.886  28.950  1.00  0.00     0.029 A 
ATOM     35  N   UNL A   1      40.920  28.325  28.823  1.00  0.00    -0.354 N 
ATOM     36  C   UNL A   1      44.531  27.299  26.637  1.00  0.00     0.074 A 
ATOM     37  C   UNL A   1      44.429  25.974  26.068  1.00  0.00     0.031 C 
ATOM     38  C   UNL A   1      38.874  27.977  29.653  1.00  0.00     0.029 A 
ATOM     39  C   UNL A   1      39.974  28.934  29.614  1.00  0.00     0.049 A 
ATOM     40  H   UNL A   1      41.788  28.738  28.607  1.00  0.00     0.167 HD
ATOM     41  C   UNL A   1      45.608  28.110  26.494  1.00  0.00     0.034 A 
ATOM     42  C   UNL A   1      39.993  30.127  30.241  1.00  0.00     0.034 A 
ATOM     43  C   UNL A   1      45.684  29.436  27.057  1.00  0.00     0.049 A 
ATOM     44  C   UNL A   1      41.210  31.003  30.086  1.00  0.00     0.074 A 
ATOM     45  C   UNL A   1      46.701  30.366  26.935  1.00  0.00     0.029 A 
ATOM     46  N   UNL A   1      44.708  30.017  27.857  1.00  0.00    -0.354 N 
ATOM     47  N   UNL A   1      42.317  30.772  29.415  1.00  0.00    -0.248 NA
ATOM     48  C   UNL A   1      41.176  32.305  30.761  1.00  0.00     0.031 C 
ATOM     49  C   UNL A   1      46.375  31.476  27.722  1.00  0.00     0.029 A 
ATOM     50  C   UNL A   1      45.114  31.280  28.263  1.00  0.00     0.049 A 
ATOM     51  H   UNL A   1      43.853  29.595  28.100  1.00  0.00     0.167 HD
ATOM     52  C   UNL A   1      43.095  31.917  29.562  1.00  0.00     0.074 A 
ATOM     53  C   UNL A   1      42.320  32.842  30.366  1.00  0.00     0.031 C 
ATOM     54  C   UNL A   1      44.336  32.184  29.077  1.00  0.00     0.034 A 
BRANCH  41  55
ATOM     55  C   UNL A   1      46.787  27.572  25.717  1.00  0.00     0.023 A 
ATOM     56  C   UNL A   1      47.066  27.998  24.406  1.00  0.00     0.031 A 
ATOM     57  C   UNL A   1      47.629  26.597  26.282  1.00  0.00     0.131 A 
ATOM     58  C   UNL A   1      48.103  27.394  23.677  1.00  0.00     0.055 A 
ATOM     59  C   UNL A   1      48.715  26.067  25.583  1.00  0.00     0.041 A 
ATOM     60  F   UNL A   1      47.401  26.132  27.520  1.00  0.00    -0.206 F 
ATOM     61  C   UNL A   1      48.947  26.453  24.266  1.00  0.00     0.022 A 
BRANCH  58  62
ATOM     62  S   UNL A   1      48.231  27.746  21.901  1.00  0.00     0.124 S 
ATOM     63  O   UNL A   1      46.933  28.361  21.630  1.00  0.00    -0.237 OA
ATOM     64  O   UNL A   1      49.385  28.634  21.838  1.00  0.00    -0.237 OA
ATOM     65  O   UNL A   1      48.424  26.427  21.304  1.00  0.00    -0.744 OA
ENDBRANCH  58  62
ENDBRANCH  41  55
BRANCH  42  66
ATOM     66  C   UNL A   1      38.834  30.567  31.072  1.00  0.00     0.023 A 
ATOM     67  C   UNL A   1      37.713  31.177  30.485  1.00  0.00     0.031 A 
ATOM     68  C   UNL A   1      38.848  30.427  32.471  1.00  0.00     0.131 A 
ATOM     69  C   UNL A   1      36.680  31.672  31.295  1.00  0.00     0.055 A 
ATOM     70  C   UNL A   1      37.789  30.865  33.269  1.00  0.00     0.041 A 
ATOM     71  F   UNL A   1      39.893  29.847  33.085  1.00  0.00    -0.206 F 
ATOM     72  C   UNL A   1      36.703  31.507  32.682  1.00  0.00     0.022 A 
BRANCH  69  73
ATOM     73  S   UNL A   1      35.347  32.628  30.519  1.00  0.00     0.124 S 
ATOM     74  O   UNL A   1      36.004  33.907  30.274  1.00  0.00    -0.237 OA
ATOM     75  O   UNL A   1      35.048  31.824  29.338  1.00  0.00    -0.237 OA
ATOM     76  O   UNL A   1      34.302  32.647  31.540  1.00  0.00    -0.744 OA
ENDBRANCH  69  73
ENDBRANCH  42  66
BRANCH  54  77
ATOM     77  C   UNL A   1      44.905  33.551  29.371  1.00  0.00     0.023 A 
ATOM     78  C   UNL A   1      44.612  34.666  28.566  1.00  0.00     0.031 A 
ATOM     79  C   UNL A   1      45.777  33.735  30.459  1.00  0.00     0.131 A 
ATOM     80  C   UNL A   1      45.240  35.894  28.816  1.00  0.00     0.055 A 
ATOM     81  C   UNL A   1      46.340  34.978  30.749  1.00  0.00     0.041 A 
ATOM     82  F   UNL A   1      46.097  32.707  31.261  1.00  0.00    -0.206 F 
ATOM     83  C   UNL A   1      46.087  36.063  29.914  1.00  0.00     0.022 A 
BRANCH  80  84
ATOM     84  S   UNL A   1      45.034  37.235  27.612  1.00  0.00     0.124 S 
ATOM     85  O   UNL A   1      43.931  36.741  26.794  1.00  0.00    -0.237 OA
ATOM     86  O   UNL A   1      44.732  38.378  28.467  1.00  0.00    -0.237 OA
ATOM     87  O   UNL A   1      46.329  37.291  26.937  1.00  0.00    -0.744 OA
ENDBRANCH  80  84
ENDBRANCH  54  77
ENDBRANCH  28  29
ENDBRANCH  20  23
ENDBRANCH  18  19
ENDBRANCH   1  18
TORSDOF 18
ENDMDL
