MODEL 1
REMARK VINA RESULT:     -10.5      0.000      0.000
REMARK SMILES C[C@H]1CCC[C@H](C(C)(C)C(=O)NCCCNC(=O)c2ccc(-c3c4nc(c(-c5cc(S(=O)(=O)[O-])ccc5F)c5ccc([nH]5)c(-c5cc(S(=O)(=O)[O-])ccc5F)c5nc(c(-c6cc(S(=O)(=O)[O-])ccc6F)c6ccc3[nH]6)C=C5)C=C4)cc2)C1
REMARK SMILES IDX 15 1 14 2 13 3 12 4 10 5 11 6 7 8 8 9 9 10 6 11 1 12 2 13
REMARK SMILES IDX 3 14 82 15 4 16 5 17 16 18 17 19 18 21 19 22 20 23 81 24
REMARK SMILES IDX 21 25 80 26 22 27 23 28 24 29 74 30 25 31 79 32 73 33 75 34
REMARK SMILES IDX 26 35 78 36 72 37 71 38 27 40 59 41 39 42 58 43 40 44 43 45
REMARK SMILES IDX 57 46 76 47 41 48 42 49 56 51 77 52 44 53 28 54 29 55 37 56
REMARK SMILES IDX 30 57 36 58 38 59 35 60 31 61 32 62 33 63 34 64 60 65 61 66
REMARK SMILES IDX 69 67 62 68 68 69 70 70 67 71 63 72 64 73 65 74 66 75 45 76
REMARK SMILES IDX 46 77 54 78 47 79 53 80 55 81 52 82 48 83 49 84 50 85 51 86
REMARK H PARENT 12 7 16 20 75 39 43 50
REMARK Flexibility Score: inf
ROOT
ATOM      1  C   UNL A   1      41.091  21.533  27.963  1.00  0.00     0.118 C 
ENDROOT
BRANCH   1   2
ATOM      2  C   UNL A   1      42.486  21.812  27.403  1.00  0.00     0.042 C 
BRANCH   2   3
ATOM      3  C   UNL A   1      42.783  21.101  26.086  1.00  0.00     0.117 C 
BRANCH   3   4
ATOM      4  N   UNL A   1      44.181  20.728  25.994  1.00  0.00    -0.356 N 
ATOM      5  C   UNL A   1      45.275  21.250  25.393  1.00  0.00     0.225 C 
ATOM      6  O   UNL A   1      46.233  20.477  25.399  1.00  0.00    -0.275 OA
ATOM      7  H   UNL A   1      44.382  19.899  26.485  1.00  0.00     0.163 HD
BRANCH   5   8
ATOM      8  C   UNL A   1      45.346  22.679  24.807  1.00  0.00     0.046 C 
ATOM      9  C   UNL A   1      44.322  22.753  23.647  1.00  0.00     0.022 C 
ATOM     10  C   UNL A   1      46.760  22.954  24.251  1.00  0.00     0.022 C 
BRANCH   8  11
ATOM     11  C   UNL A   1      44.990  23.854  25.831  1.00  0.00     0.004 C 
ATOM     12  C   UNL A   1      46.047  27.442  24.666  1.00  0.00     0.007 C 
ATOM     13  C   UNL A   1      46.248  26.003  25.150  1.00  0.00    -0.014 C 
ATOM     14  C   UNL A   1      47.015  25.996  26.481  1.00  0.00     0.003 C 
ATOM     15  C   UNL A   1      44.902  25.291  25.276  1.00  0.00     0.008 C 
ATOM     16  C   UNL A   1      47.043  24.660  27.223  1.00  0.00     0.001 C 
ATOM     17  C   UNL A   1      45.732  23.882  27.185  1.00  0.00     0.005 C 
ENDBRANCH   8  11
ENDBRANCH   5   8
ENDBRANCH   3   4
ENDBRANCH   2   3
ENDBRANCH   1   2
BRANCH   1  18
ATOM     18  N   UNL A   1      40.056  21.572  26.937  1.00  0.00    -0.352 N 
ATOM     19  C   UNL A   1      39.280  22.612  26.500  1.00  0.00     0.251 C 
ATOM     20  H   UNL A   1      39.888  20.712  26.485  1.00  0.00     0.163 HD
ATOM     21  O   UNL A   1      38.305  22.374  25.781  1.00  0.00    -0.269 OA
BRANCH  19  22
ATOM     22  C   UNL A   1      39.586  24.000  26.900  1.00  0.00     0.039 A 
ATOM     23  C   UNL A   1      39.271  24.415  28.197  1.00  0.00     0.014 A 
ATOM     24  C   UNL A   1      40.164  24.898  25.999  1.00  0.00     0.014 A 
ATOM     25  C   UNL A   1      39.600  25.708  28.608  1.00  0.00     0.010 A 
ATOM     26  C   UNL A   1      40.568  26.156  26.437  1.00  0.00     0.010 A 
ATOM     27  C   UNL A   1      40.288  26.577  27.745  1.00  0.00    -0.014 A 
BRANCH  27  28
ATOM     28  C   UNL A   1      40.721  27.924  28.198  1.00  0.00     0.031 A 
ATOM     29  C   UNL A   1      42.180  28.295  28.192  1.00  0.00     0.074 A 
ATOM     30  C   UNL A   1      39.802  28.792  28.666  1.00  0.00     0.049 A 
ATOM     31  N   UNL A   1      42.755  29.398  28.598  1.00  0.00    -0.248 NA
ATOM     32  C   UNL A   1      43.117  27.278  27.693  1.00  0.00     0.031 C 
ATOM     33  C   UNL A   1      38.364  28.528  28.766  1.00  0.00     0.029 A 
ATOM     34  N   UNL A   1      39.936  30.069  29.150  1.00  0.00    -0.354 N 
ATOM     35  C   UNL A   1      44.120  29.204  28.415  1.00  0.00     0.074 A 
ATOM     36  C   UNL A   1      44.287  27.852  27.924  1.00  0.00     0.031 C 
ATOM     37  C   UNL A   1      37.748  29.618  29.248  1.00  0.00     0.029 A 
ATOM     38  C   UNL A   1      38.746  30.642  29.538  1.00  0.00     0.049 A 
ATOM     39  H   UNL A   1      40.802  30.533  29.215  1.00  0.00     0.167 HD
ATOM     40  C   UNL A   1      45.137  30.080  28.614  1.00  0.00     0.034 A 
ATOM     41  C   UNL A   1      38.489  31.851  30.074  1.00  0.00     0.034 A 
ATOM     42  C   UNL A   1      44.949  31.428  29.094  1.00  0.00     0.049 A 
ATOM     43  C   UNL A   1      39.636  32.803  30.300  1.00  0.00     0.074 A 
ATOM     44  C   UNL A   1      45.898  32.419  29.278  1.00  0.00     0.029 A 
ATOM     45  N   UNL A   1      43.729  31.974  29.476  1.00  0.00    -0.354 N 
ATOM     46  N   UNL A   1      40.917  32.623  30.066  1.00  0.00    -0.248 NA
ATOM     47  C   UNL A   1      39.302  34.121  30.850  1.00  0.00     0.031 C 
ATOM     48  C   UNL A   1      45.266  33.536  29.835  1.00  0.00     0.029 A 
ATOM     49  C   UNL A   1      43.908  33.274  29.925  1.00  0.00     0.049 A 
ATOM     50  H   UNL A   1      42.864  31.506  29.434  1.00  0.00     0.167 HD
ATOM     51  C   UNL A   1      41.536  33.821  30.416  1.00  0.00     0.074 A 
ATOM     52  C   UNL A   1      40.485  34.717  30.853  1.00  0.00     0.031 C 
ATOM     53  C   UNL A   1      42.852  34.151  30.377  1.00  0.00     0.034 A 
BRANCH  40  54
ATOM     54  C   UNL A   1      46.540  29.592  28.333  1.00  0.00     0.023 A 
ATOM     55  C   UNL A   1      47.275  28.865  29.287  1.00  0.00     0.031 A 
ATOM     56  C   UNL A   1      47.163  29.881  27.106  1.00  0.00     0.131 A 
ATOM     57  C   UNL A   1      48.611  28.521  29.030  1.00  0.00     0.055 A 
ATOM     58  C   UNL A   1      48.466  29.461  26.824  1.00  0.00     0.041 A 
ATOM     59  F   UNL A   1      46.523  30.589  26.163  1.00  0.00    -0.206 F 
ATOM     60  C   UNL A   1      49.203  28.791  27.795  1.00  0.00     0.022 A 
BRANCH  57  61
ATOM     61  S   UNL A   1      49.608  27.849  30.389  1.00  0.00     0.124 S 
ATOM     62  O   UNL A   1      50.458  28.991  30.723  1.00  0.00    -0.237 OA
ATOM     63  O   UNL A   1      48.597  27.496  31.378  1.00  0.00    -0.237 OA
ATOM     64  O   UNL A   1      50.306  26.721  29.777  1.00  0.00    -0.744 OA
ENDBRANCH  57  61
ENDBRANCH  40  54
BRANCH  41  65
ATOM     65  C   UNL A   1      37.095  32.236  30.439  1.00  0.00     0.023 A 
ATOM     66  C   UNL A   1      36.228  32.802  29.491  1.00  0.00     0.031 A 
ATOM     67  C   UNL A   1      36.622  32.081  31.754  1.00  0.00     0.131 A 
ATOM     68  C   UNL A   1      34.952  33.239  29.881  1.00  0.00     0.055 A 
ATOM     69  C   UNL A   1      35.332  32.465  32.125  1.00  0.00     0.041 A 
ATOM     70  F   UNL A   1      37.407  31.539  32.699  1.00  0.00    -0.206 F 
ATOM     71  C   UNL A   1      34.494  33.062  31.188  1.00  0.00     0.022 A 
BRANCH  68  72
ATOM     72  S   UNL A   1      33.929  34.122  28.671  1.00  0.00     0.124 S 
ATOM     73  O   UNL A   1      33.629  33.068  27.710  1.00  0.00    -0.237 OA
ATOM     74  O   UNL A   1      32.814  34.578  29.494  1.00  0.00    -0.237 OA
ATOM     75  O   UNL A   1      34.815  35.177  28.185  1.00  0.00    -0.744 OA
ENDBRANCH  68  72
ENDBRANCH  41  65
BRANCH  53  76
ATOM     76  C   UNL A   1      43.214  35.558  30.788  1.00  0.00     0.023 A 
ATOM     77  C   UNL A   1      43.349  36.593  29.847  1.00  0.00     0.031 A 
ATOM     78  C   UNL A   1      43.453  35.862  32.141  1.00  0.00     0.131 A 
ATOM     79  C   UNL A   1      43.780  37.863  30.259  1.00  0.00     0.055 A 
ATOM     80  C   UNL A   1      43.815  37.144  32.555  1.00  0.00     0.041 A 
ATOM     81  F   UNL A   1      43.341  34.912  33.085  1.00  0.00    -0.206 F 
ATOM     82  C   UNL A   1      43.996  38.150  31.610  1.00  0.00     0.022 A 
BRANCH  79  83
ATOM     83  S   UNL A   1      44.161  39.107  28.995  1.00  0.00     0.124 S 
ATOM     84  O   UNL A   1      45.300  39.803  29.588  1.00  0.00    -0.237 OA
ATOM     85  O   UNL A   1      44.455  38.283  27.827  1.00  0.00    -0.237 OA
ATOM     86  O   UNL A   1      42.932  39.893  28.906  1.00  0.00    -0.744 OA
ENDBRANCH  79  83
ENDBRANCH  53  76
ENDBRANCH  27  28
ENDBRANCH  19  22
ENDBRANCH   1  18
TORSDOF 14
ENDMDL
MODEL 2
REMARK VINA RESULT:     -10.4      4.442     11.906
REMARK SMILES C[C@H]1CCC[C@H](C(C)(C)C(=O)NCCCNC(=O)c2ccc(-c3c4nc(c(-c5cc(S(=O)(=O)[O-])ccc5F)c5ccc([nH]5)c(-c5cc(S(=O)(=O)[O-])ccc5F)c5nc(c(-c6cc(S(=O)(=O)[O-])ccc6F)c6ccc3[nH]6)C=C5)C=C4)cc2)C1
REMARK SMILES IDX 15 1 14 2 13 3 12 4 10 5 11 6 7 8 8 9 9 10 6 11 1 12 2 13
REMARK SMILES IDX 3 14 82 15 4 16 5 17 16 18 17 19 18 21 19 22 20 23 81 24
REMARK SMILES IDX 21 25 80 26 22 27 23 28 24 29 74 30 25 31 79 32 73 33 75 34
REMARK SMILES IDX 26 35 78 36 72 37 71 38 27 40 59 41 39 42 58 43 40 44 43 45
REMARK SMILES IDX 57 46 76 47 41 48 42 49 56 51 77 52 44 53 28 54 29 55 37 56
REMARK SMILES IDX 30 57 36 58 38 59 35 60 31 61 32 62 33 63 34 64 60 65 61 66
REMARK SMILES IDX 69 67 62 68 68 69 70 70 67 71 63 72 64 73 65 74 66 75 45 76
REMARK SMILES IDX 46 77 54 78 47 79 53 80 55 81 52 82 48 83 49 84 50 85 51 86
REMARK H PARENT 12 7 16 20 75 39 43 50
REMARK Flexibility Score: inf
ROOT
ATOM      1  C   UNL A   1      35.387  33.411  28.272  1.00  0.00     0.118 C 
ENDROOT
BRANCH   1   2
ATOM      2  C   UNL A   1      34.709  34.622  28.913  1.00  0.00     0.042 C 
BRANCH   2   3
ATOM      3  C   UNL A   1      34.099  34.343  30.283  1.00  0.00     0.117 C 
BRANCH   3   4
ATOM      4  N   UNL A   1      34.431  35.390  31.229  1.00  0.00    -0.356 N 
ATOM      5  C   UNL A   1      34.757  35.430  32.542  1.00  0.00     0.225 C 
ATOM      6  O   UNL A   1      34.750  36.573  32.997  1.00  0.00    -0.275 OA
ATOM      7  H   UNL A   1      34.416  36.285  30.819  1.00  0.00     0.163 HD
BRANCH   5   8
ATOM      8  C   UNL A   1      35.149  34.190  33.377  1.00  0.00     0.046 C 
ATOM      9  C   UNL A   1      33.966  33.193  33.306  1.00  0.00     0.022 C 
ATOM     10  C   UNL A   1      35.380  34.595  34.850  1.00  0.00     0.022 C 
BRANCH   8  11
ATOM     11  C   UNL A   1      36.454  33.416  32.876  1.00  0.00     0.004 C 
ATOM     12  C   UNL A   1      38.137  31.100  35.552  1.00  0.00     0.007 C 
ATOM     13  C   UNL A   1      37.700  32.419  34.905  1.00  0.00    -0.014 C 
ATOM     14  C   UNL A   1      38.927  33.290  34.602  1.00  0.00     0.003 C 
ATOM     15  C   UNL A   1      36.880  32.147  33.646  1.00  0.00     0.008 C 
ATOM     16  C   UNL A   1      38.675  34.503  33.707  1.00  0.00     0.001 C 
ATOM     17  C   UNL A   1      37.711  34.253  32.551  1.00  0.00     0.005 C 
ENDBRANCH   8  11
ENDBRANCH   5   8
ENDBRANCH   3   4
ENDBRANCH   2   3
ENDBRANCH   1   2
BRANCH   1  18
ATOM     18  N   UNL A   1      34.435  32.390  27.854  1.00  0.00    -0.352 N 
ATOM     19  C   UNL A   1      34.598  31.041  27.687  1.00  0.00     0.251 C 
ATOM     20  H   UNL A   1      33.528  32.725  27.659  1.00  0.00     0.163 HD
ATOM     21  O   UNL A   1      33.721  30.397  27.105  1.00  0.00    -0.269 OA
BRANCH  19  22
ATOM     22  C   UNL A   1      35.816  30.364  28.175  1.00  0.00     0.039 A 
ATOM     23  C   UNL A   1      36.945  30.327  27.352  1.00  0.00     0.014 A 
ATOM     24  C   UNL A   1      35.844  29.749  29.430  1.00  0.00     0.014 A 
ATOM     25  C   UNL A   1      38.121  29.737  27.818  1.00  0.00     0.010 A 
ATOM     26  C   UNL A   1      37.041  29.237  29.924  1.00  0.00     0.010 A 
ATOM     27  C   UNL A   1      38.192  29.222  29.123  1.00  0.00    -0.014 A 
BRANCH  27  28
ATOM     28  C   UNL A   1      39.462  28.669  29.662  1.00  0.00     0.031 A 
ATOM     29  C   UNL A   1      40.094  29.274  30.886  1.00  0.00     0.074 A 
ATOM     30  C   UNL A   1      40.070  27.656  29.014  1.00  0.00     0.049 A 
ATOM     31  N   UNL A   1      41.223  28.966  31.473  1.00  0.00    -0.248 NA
ATOM     32  C   UNL A   1      39.379  30.395  31.514  1.00  0.00     0.031 C 
ATOM     33  C   UNL A   1      39.576  27.019  27.790  1.00  0.00     0.029 A 
ATOM     34  N   UNL A   1      41.235  26.984  29.286  1.00  0.00    -0.354 N 
ATOM     35  C   UNL A   1      41.358  29.860  32.530  1.00  0.00     0.074 A 
ATOM     36  C   UNL A   1      40.229  30.763  32.459  1.00  0.00     0.031 C 
ATOM     37  C   UNL A   1      40.415  26.032  27.437  1.00  0.00     0.029 A 
ATOM     38  C   UNL A   1      41.529  25.994  28.378  1.00  0.00     0.049 A 
ATOM     39  H   UNL A   1      41.808  27.192  30.060  1.00  0.00     0.167 HD
ATOM     40  C   UNL A   1      42.322  29.907  33.484  1.00  0.00     0.034 A 
ATOM     41  C   UNL A   1      42.581  25.155  28.305  1.00  0.00     0.034 A 
ATOM     42  C   UNL A   1      43.435  28.990  33.543  1.00  0.00     0.049 A 
ATOM     43  C   UNL A   1      43.648  25.236  29.368  1.00  0.00     0.074 A 
ATOM     44  C   UNL A   1      44.437  28.910  34.495  1.00  0.00     0.029 A 
ATOM     45  N   UNL A   1      43.701  27.999  32.605  1.00  0.00    -0.354 N 
ATOM     46  N   UNL A   1      43.730  26.051  30.395  1.00  0.00    -0.248 NA
ATOM     47  C   UNL A   1      44.754  24.278  29.268  1.00  0.00     0.031 C 
ATOM     48  C   UNL A   1      45.343  27.920  34.098  1.00  0.00     0.029 A 
ATOM     49  C   UNL A   1      44.867  27.326  32.940  1.00  0.00     0.049 A 
ATOM     50  H   UNL A   1      43.143  27.803  31.819  1.00  0.00     0.167 HD
ATOM     51  C   UNL A   1      44.886  25.681  31.079  1.00  0.00     0.074 A 
ATOM     52  C   UNL A   1      45.450  24.558  30.359  1.00  0.00     0.031 C 
ATOM     53  C   UNL A   1      45.429  26.218  32.201  1.00  0.00     0.034 A 
BRANCH  40  54
ATOM     54  C   UNL A   1      42.220  31.002  34.521  1.00  0.00     0.023 A 
ATOM     55  C   UNL A   1      42.649  32.314  34.256  1.00  0.00     0.031 A 
ATOM     56  C   UNL A   1      41.710  30.724  35.802  1.00  0.00     0.131 A 
ATOM     57  C   UNL A   1      42.636  33.277  35.278  1.00  0.00     0.055 A 
ATOM     58  C   UNL A   1      41.621  31.709  36.790  1.00  0.00     0.041 A 
ATOM     59  F   UNL A   1      41.303  29.487  36.124  1.00  0.00    -0.206 F 
ATOM     60  C   UNL A   1      42.100  32.991  36.535  1.00  0.00     0.022 A 
BRANCH  57  61
ATOM     61  S   UNL A   1      43.467  34.863  34.984  1.00  0.00     0.124 S 
ATOM     62  O   UNL A   1      44.590  34.455  34.141  1.00  0.00    -0.237 OA
ATOM     63  O   UNL A   1      42.428  35.646  34.326  1.00  0.00    -0.237 OA
ATOM     64  O   UNL A   1      43.835  35.311  36.325  1.00  0.00    -0.744 OA
ENDBRANCH  57  61
ENDBRANCH  40  54
BRANCH  41  65
ATOM     65  C   UNL A   1      42.689  24.170  27.191  1.00  0.00     0.023 A 
ATOM     66  C   UNL A   1      42.064  22.915  27.271  1.00  0.00     0.031 A 
ATOM     67  C   UNL A   1      43.451  24.453  26.044  1.00  0.00     0.131 A 
ATOM     68  C   UNL A   1      42.253  21.971  26.250  1.00  0.00     0.055 A 
ATOM     69  C   UNL A   1      43.592  23.532  25.005  1.00  0.00     0.041 A 
ATOM     70  F   UNL A   1      44.064  25.640  25.913  1.00  0.00    -0.206 F 
ATOM     71  C   UNL A   1      43.002  22.276  25.111  1.00  0.00     0.022 A 
BRANCH  68  72
ATOM     72  S   UNL A   1      41.576  20.303  26.471  1.00  0.00     0.124 S 
ATOM     73  O   UNL A   1      40.143  20.548  26.363  1.00  0.00    -0.237 OA
ATOM     74  O   UNL A   1      42.190  19.578  25.365  1.00  0.00    -0.237 OA
ATOM     75  O   UNL A   1      42.046  19.921  27.801  1.00  0.00    -0.744 OA
ENDBRANCH  68  72
ENDBRANCH  41  65
BRANCH  53  76
ATOM     76  C   UNL A   1      46.683  25.565  32.731  1.00  0.00     0.023 A 
ATOM     77  C   UNL A   1      46.638  24.580  33.733  1.00  0.00     0.031 A 
ATOM     78  C   UNL A   1      47.944  25.954  32.244  1.00  0.00     0.131 A 
ATOM     79  C   UNL A   1      47.831  24.067  34.265  1.00  0.00     0.055 A 
ATOM     80  C   UNL A   1      49.126  25.391  32.729  1.00  0.00     0.041 A 
ATOM     81  F   UNL A   1      48.049  26.892  31.289  1.00  0.00    -0.206 F 
ATOM     82  C   UNL A   1      49.074  24.453  33.756  1.00  0.00     0.022 A 
BRANCH  79  83
ATOM     83  S   UNL A   1      47.740  22.970  35.706  1.00  0.00     0.124 S 
ATOM     84  O   UNL A   1      46.300  22.776  35.849  1.00  0.00    -0.237 OA
ATOM     85  O   UNL A   1      48.498  21.805  35.260  1.00  0.00    -0.237 OA
ATOM     86  O   UNL A   1      48.370  23.749  36.770  1.00  0.00    -0.744 OA
ENDBRANCH  79  83
ENDBRANCH  53  76
ENDBRANCH  27  28
ENDBRANCH  19  22
ENDBRANCH   1  18
TORSDOF 14
ENDMDL
MODEL 3
REMARK VINA RESULT:     -10.3      4.516     11.639
REMARK SMILES C[C@H]1CCC[C@H](C(C)(C)C(=O)NCCCNC(=O)c2ccc(-c3c4nc(c(-c5cc(S(=O)(=O)[O-])ccc5F)c5ccc([nH]5)c(-c5cc(S(=O)(=O)[O-])ccc5F)c5nc(c(-c6cc(S(=O)(=O)[O-])ccc6F)c6ccc3[nH]6)C=C5)C=C4)cc2)C1
REMARK SMILES IDX 15 1 14 2 13 3 12 4 10 5 11 6 7 8 8 9 9 10 6 11 1 12 2 13
REMARK SMILES IDX 3 14 82 15 4 16 5 17 16 18 17 19 18 21 19 22 20 23 81 24
REMARK SMILES IDX 21 25 80 26 22 27 23 28 24 29 74 30 25 31 79 32 73 33 75 34
REMARK SMILES IDX 26 35 78 36 72 37 71 38 27 40 59 41 39 42 58 43 40 44 43 45
REMARK SMILES IDX 57 46 76 47 41 48 42 49 56 51 77 52 44 53 28 54 29 55 37 56
REMARK SMILES IDX 30 57 36 58 38 59 35 60 31 61 32 62 33 63 34 64 60 65 61 66
REMARK SMILES IDX 69 67 62 68 68 69 70 70 67 71 63 72 64 73 65 74 66 75 45 76
REMARK SMILES IDX 46 77 54 78 47 79 53 80 55 81 52 82 48 83 49 84 50 85 51 86
REMARK H PARENT 12 7 16 20 75 39 43 50
REMARK Flexibility Score: inf
ROOT
ATOM      1  C   UNL A   1      34.978  33.697  28.077  1.00  0.00     0.118 C 
ENDROOT
BRANCH   1   2
ATOM      2  C   UNL A   1      34.237  34.804  28.825  1.00  0.00     0.042 C 
BRANCH   2   3
ATOM      3  C   UNL A   1      33.882  34.453  30.267  1.00  0.00     0.117 C 
BRANCH   3   4
ATOM      4  N   UNL A   1      34.477  35.392  31.198  1.00  0.00    -0.356 N 
ATOM      5  C   UNL A   1      34.891  35.335  32.485  1.00  0.00     0.225 C 
ATOM      6  O   UNL A   1      35.141  36.446  32.951  1.00  0.00    -0.275 OA
ATOM      7  H   UNL A   1      34.612  36.282  30.800  1.00  0.00     0.163 HD
BRANCH   5   8
ATOM      8  C   UNL A   1      35.087  34.022  33.277  1.00  0.00     0.046 C 
ATOM      9  C   UNL A   1      33.841  33.139  33.021  1.00  0.00     0.022 C 
ATOM     10  C   UNL A   1      35.189  34.326  34.788  1.00  0.00     0.022 C 
BRANCH   8  11
ATOM     11  C   UNL A   1      36.371  33.163  32.867  1.00  0.00     0.004 C 
ATOM     12  C   UNL A   1      39.808  34.702  33.950  1.00  0.00     0.007 C 
ATOM     13  C   UNL A   1      38.498  34.595  33.162  1.00  0.00    -0.014 C 
ATOM     14  C   UNL A   1      38.794  34.498  31.658  1.00  0.00     0.003 C 
ATOM     15  C   UNL A   1      37.679  33.403  33.651  1.00  0.00     0.008 C 
ATOM     16  C   UNL A   1      37.610  34.106  30.774  1.00  0.00     0.001 C 
ATOM     17  C   UNL A   1      36.702  33.031  31.364  1.00  0.00     0.005 C 
ENDBRANCH   8  11
ENDBRANCH   5   8
ENDBRANCH   3   4
ENDBRANCH   2   3
ENDBRANCH   1   2
BRANCH   1  18
ATOM     18  N   UNL A   1      34.140  32.532  27.823  1.00  0.00    -0.352 N 
ATOM     19  C   UNL A   1      34.443  31.197  27.859  1.00  0.00     0.251 C 
ATOM     20  H   UNL A   1      33.205  32.738  27.588  1.00  0.00     0.163 HD
ATOM     21  O   UNL A   1      33.642  30.386  27.386  1.00  0.00    -0.269 OA
BRANCH  19  22
ATOM     22  C   UNL A   1      35.721  30.731  28.433  1.00  0.00     0.039 A 
ATOM     23  C   UNL A   1      35.694  29.839  29.508  1.00  0.00     0.014 A 
ATOM     24  C   UNL A   1      36.944  31.183  27.930  1.00  0.00     0.014 A 
ATOM     25  C   UNL A   1      36.892  29.348  30.030  1.00  0.00     0.010 A 
ATOM     26  C   UNL A   1      38.133  30.628  28.395  1.00  0.00     0.010 A 
ATOM     27  C   UNL A   1      38.121  29.707  29.452  1.00  0.00    -0.014 A 
BRANCH  27  28
ATOM     28  C   UNL A   1      39.398  29.125  29.942  1.00  0.00     0.031 A 
ATOM     29  C   UNL A   1      40.108  29.735  31.119  1.00  0.00     0.074 A 
ATOM     30  C   UNL A   1      39.943  28.079  29.288  1.00  0.00     0.049 A 
ATOM     31  N   UNL A   1      41.254  29.404  31.658  1.00  0.00    -0.248 NA
ATOM     32  C   UNL A   1      39.459  30.891  31.755  1.00  0.00     0.031 C 
ATOM     33  C   UNL A   1      39.371  27.433  28.103  1.00  0.00     0.029 A 
ATOM     34  N   UNL A   1      41.099  27.377  29.519  1.00  0.00    -0.354 N 
ATOM     35  C   UNL A   1      41.468  30.315  32.687  1.00  0.00     0.074 A 
ATOM     36  C   UNL A   1      40.365  31.252  32.650  1.00  0.00     0.031 C 
ATOM     37  C   UNL A   1      40.161  26.412  27.733  1.00  0.00     0.029 A 
ATOM     38  C   UNL A   1      41.318  26.359  28.620  1.00  0.00     0.049 A 
ATOM     39  H   UNL A   1      41.715  27.583  30.259  1.00  0.00     0.167 HD
ATOM     40  C   UNL A   1      42.478  30.353  33.592  1.00  0.00     0.034 A 
ATOM     41  C   UNL A   1      42.339  25.486  28.516  1.00  0.00     0.034 A 
ATOM     42  C   UNL A   1      43.564  29.402  33.618  1.00  0.00     0.049 A 
ATOM     43  C   UNL A   1      43.458  25.555  29.524  1.00  0.00     0.074 A 
ATOM     44  C   UNL A   1      44.608  29.310  34.523  1.00  0.00     0.029 A 
ATOM     45  N   UNL A   1      43.753  28.384  32.692  1.00  0.00    -0.354 N 
ATOM     46  N   UNL A   1      43.615  26.389  30.528  1.00  0.00    -0.248 NA
ATOM     47  C   UNL A   1      44.528  24.561  29.393  1.00  0.00     0.031 C 
ATOM     48  C   UNL A   1      45.463  28.284  34.105  1.00  0.00     0.029 A 
ATOM     49  C   UNL A   1      44.913  27.681  32.985  1.00  0.00     0.049 A 
ATOM     50  H   UNL A   1      43.152  28.189  31.938  1.00  0.00     0.167 HD
ATOM     51  C   UNL A   1      44.791  25.997  31.164  1.00  0.00     0.074 A 
ATOM     52  C   UNL A   1      45.285  24.842  30.443  1.00  0.00     0.031 C 
ATOM     53  C   UNL A   1      45.404  26.541  32.246  1.00  0.00     0.034 A 
BRANCH  40  54
ATOM     54  C   UNL A   1      42.460  31.472  34.608  1.00  0.00     0.023 A 
ATOM     55  C   UNL A   1      41.550  31.482  35.680  1.00  0.00     0.031 A 
ATOM     56  C   UNL A   1      43.347  32.556  34.489  1.00  0.00     0.131 A 
ATOM     57  C   UNL A   1      41.493  32.590  36.542  1.00  0.00     0.055 A 
ATOM     58  C   UNL A   1      43.342  33.616  35.401  1.00  0.00     0.041 A 
ATOM     59  F   UNL A   1      44.225  32.615  33.477  1.00  0.00    -0.206 F 
ATOM     60  C   UNL A   1      42.400  33.644  36.425  1.00  0.00     0.022 A 
BRANCH  57  61
ATOM     61  S   UNL A   1      40.119  32.698  37.722  1.00  0.00     0.124 S 
ATOM     62  O   UNL A   1      39.184  31.716  37.176  1.00  0.00    -0.237 OA
ATOM     63  O   UNL A   1      40.757  32.340  38.982  1.00  0.00    -0.237 OA
ATOM     64  O   UNL A   1      39.684  34.089  37.613  1.00  0.00    -0.744 OA
ENDBRANCH  57  61
ENDBRANCH  40  54
BRANCH  41  65
ATOM     65  C   UNL A   1      42.362  24.474  27.421  1.00  0.00     0.023 A 
ATOM     66  C   UNL A   1      41.577  23.312  27.493  1.00  0.00     0.031 A 
ATOM     67  C   UNL A   1      43.198  24.636  26.302  1.00  0.00     0.131 A 
ATOM     68  C   UNL A   1      41.683  22.332  26.492  1.00  0.00     0.055 A 
ATOM     69  C   UNL A   1      43.259  23.685  25.282  1.00  0.00     0.041 A 
ATOM     70  F   UNL A   1      43.964  25.732  26.180  1.00  0.00    -0.206 F 
ATOM     71  C   UNL A   1      42.509  22.517  25.381  1.00  0.00     0.022 A 
BRANCH  68  72
ATOM     72  S   UNL A   1      40.788  20.769  26.709  1.00  0.00     0.124 S 
ATOM     73  O   UNL A   1      40.797  20.621  28.159  1.00  0.00    -0.237 OA
ATOM     74  O   UNL A   1      39.497  21.074  26.102  1.00  0.00    -0.237 OA
ATOM     75  O   UNL A   1      41.608  19.806  25.977  1.00  0.00    -0.744 OA
ENDBRANCH  68  72
ENDBRANCH  41  65
BRANCH  53  76
ATOM     76  C   UNL A   1      46.662  25.859  32.729  1.00  0.00     0.023 A 
ATOM     77  C   UNL A   1      47.900  26.049  32.090  1.00  0.00     0.031 A 
ATOM     78  C   UNL A   1      46.615  24.984  33.830  1.00  0.00     0.131 A 
ATOM     79  C   UNL A   1      49.024  25.324  32.512  1.00  0.00     0.055 A 
ATOM     80  C   UNL A   1      47.752  24.317  34.288  1.00  0.00     0.041 A 
ATOM     81  F   UNL A   1      45.460  24.761  34.477  1.00  0.00    -0.206 F 
ATOM     82  C   UNL A   1      48.962  24.473  33.619  1.00  0.00     0.022 A 
BRANCH  79  83
ATOM     83  S   UNL A   1      50.544  25.423  31.527  1.00  0.00     0.124 S 
ATOM     84  O   UNL A   1      50.062  26.025  30.287  1.00  0.00    -0.237 OA
ATOM     85  O   UNL A   1      51.398  26.268  32.355  1.00  0.00    -0.237 OA
ATOM     86  O   UNL A   1      50.971  24.030  31.414  1.00  0.00    -0.744 OA
ENDBRANCH  79  83
ENDBRANCH  53  76
ENDBRANCH  27  28
ENDBRANCH  19  22
ENDBRANCH   1  18
TORSDOF 14
ENDMDL
