MODEL 1
REMARK VINA RESULT:     -14.5      0.000      0.000
REMARK SMILES Cc1c(NC(=O)c2ccc(-c3cccc(Cl)c3)o2)cccc1C(=O)NCCCNC(=O)c1ccc(-c2c3nc(c(-c4cc(S(=O)(=O)[O-])ccc4F)c4ccc([nH]4)c(-c4cc(S(=O)(=O)[O-])ccc4F)c4nc(c(-c5cc(S(=O)(=O)[O-])ccc5F)c5ccc2[nH]5)C=C4)C=C3)cc1
REMARK SMILES IDX 27 1 26 2 25 3 23 4 24 5 22 7 1 8 2 9 3 10 19 11 21 12 20 13
REMARK SMILES IDX 4 14 5 15 6 17 7 18 8 19 18 20 9 21 10 22 11 23 12 24 17 25
REMARK SMILES IDX 13 26 15 27 14 28 16 29 28 30 29 31 30 32 31 34 32 35 33 36
REMARK SMILES IDX 94 37 34 38 93 39 35 40 36 41 37 42 87 43 38 44 92 45 86 46
REMARK SMILES IDX 88 47 39 48 91 49 85 50 84 51 40 53 72 54 52 55 71 56 53 57
REMARK SMILES IDX 56 58 70 59 89 60 54 61 55 62 69 64 90 65 57 66 41 67 42 68
REMARK SMILES IDX 50 69 43 70 49 71 51 72 48 73 44 74 45 75 46 76 47 77 73 78
REMARK SMILES IDX 74 79 82 80 75 81 81 82 83 83 80 84 76 85 77 86 78 87 79 88
REMARK SMILES IDX 58 89 59 90 67 91 60 92 66 93 68 94 65 95 61 96 62 97 63 98
REMARK SMILES IDX 64 99
REMARK H PARENT 25 6 4 16 29 33 88 52 56 63
REMARK Flexibility Score: inf
ROOT
ATOM      1  C   UNL A   1      33.263  31.306  27.541  1.00  0.00     0.042 C 
ENDROOT
BRANCH   1   2
ATOM      2  C   UNL A   1      32.323  30.469  26.662  1.00  0.00     0.118 C 
BRANCH   2   3
ATOM      3  N   UNL A   1      32.938  30.147  25.375  1.00  0.00    -0.352 N 
ATOM      4  C   UNL A   1      32.654  29.212  24.413  1.00  0.00     0.251 C 
ATOM      5  O   UNL A   1      33.313  29.235  23.370  1.00  0.00    -0.269 OA
ATOM      6  H   UNL A   1      33.711  30.716  25.154  1.00  0.00     0.163 HD
BRANCH   4   7
ATOM      7  C   UNL A   1      31.568  28.193  24.519  1.00  0.00     0.044 A 
ATOM      8  C   UNL A   1      32.672  26.759  26.316  1.00  0.00     0.047 C 
ATOM      9  C   UNL A   1      31.527  27.108  25.416  1.00  0.00    -0.015 A 
ATOM     10  C   UNL A   1      30.427  26.221  25.392  1.00  0.00     0.045 A 
ATOM     11  C   UNL A   1      29.463  26.324  24.385  1.00  0.00     0.026 A 
ATOM     12  C   UNL A   1      30.591  28.264  23.508  1.00  0.00     0.014 A 
ATOM     13  C   UNL A   1      29.563  27.325  23.425  1.00  0.00     0.003 A 
BRANCH  10  14
ATOM     14  N   UNL A   1      30.321  25.278  26.437  1.00  0.00    -0.319 N 
ATOM     15  C   UNL A   1      30.692  23.956  26.488  1.00  0.00     0.291 C 
ATOM     16  H   UNL A   1      29.916  25.625  27.264  1.00  0.00     0.170 HD
ATOM     17  O   UNL A   1      30.271  23.257  27.414  1.00  0.00    -0.265 OA
BRANCH  15  18
ATOM     18  C   UNL A   1      31.646  23.482  25.521  1.00  0.00     0.192 A 
ATOM     19  C   UNL A   1      31.504  22.980  24.239  1.00  0.00     0.057 A 
ATOM     20  O   UNL A   1      32.960  23.467  25.877  1.00  0.00    -0.451 OA
ATOM     21  C   UNL A   1      32.803  22.622  23.802  1.00  0.00     0.052 A 
ATOM     22  C   UNL A   1      33.654  22.910  24.849  1.00  0.00     0.135 A 
BRANCH  22  23
ATOM     23  C   UNL A   1      35.074  22.745  25.092  1.00  0.00     0.019 A 
ATOM     24  C   UNL A   1      35.856  23.822  25.525  1.00  0.00     0.012 A 
ATOM     25  C   UNL A   1      35.678  21.496  24.886  1.00  0.00     0.032 A 
ATOM     26  C   UNL A   1      37.222  23.650  25.760  1.00  0.00     0.002 A 
ATOM     27  C   UNL A   1      37.041  21.334  25.110  1.00  0.00     0.041 A 
ATOM     28  C   UNL A   1      37.815  22.405  25.549  1.00  0.00     0.020 A 
ATOM     29  Cl  UNL A   1      37.777  19.802  24.838  1.00  0.00    -0.084 Cl
ENDBRANCH  22  23
ENDBRANCH  15  18
ENDBRANCH  10  14
ENDBRANCH   4   7
ENDBRANCH   2   3
ENDBRANCH   1   2
BRANCH   1  30
ATOM     30  C   UNL A   1      34.583  30.653  27.912  1.00  0.00     0.118 C 
BRANCH  30  31
ATOM     31  N   UNL A   1      35.278  31.359  29.000  1.00  0.00    -0.352 N 
ATOM     32  C   UNL A   1      36.344  30.920  29.766  1.00  0.00     0.251 C 
ATOM     33  H   UNL A   1      34.943  32.260  29.209  1.00  0.00     0.163 HD
ATOM     34  O   UNL A   1      36.902  31.625  30.597  1.00  0.00    -0.269 OA
BRANCH  32  35
ATOM     35  C   UNL A   1      36.881  29.582  29.443  1.00  0.00     0.039 A 
ATOM     36  C   UNL A   1      37.343  28.841  30.534  1.00  0.00     0.014 A 
ATOM     37  C   UNL A   1      37.353  29.358  28.153  1.00  0.00     0.014 A 
ATOM     38  C   UNL A   1      38.504  28.097  30.385  1.00  0.00     0.010 A 
ATOM     39  C   UNL A   1      38.555  28.684  28.026  1.00  0.00     0.010 A 
ATOM     40  C   UNL A   1      39.173  28.138  29.160  1.00  0.00    -0.014 A 
BRANCH  40  41
ATOM     41  C   UNL A   1      40.567  27.730  29.033  1.00  0.00     0.031 A 
ATOM     42  C   UNL A   1      40.877  26.377  28.545  1.00  0.00     0.074 A 
ATOM     43  C   UNL A   1      41.586  28.528  29.426  1.00  0.00     0.049 A 
ATOM     44  N   UNL A   1      41.880  25.675  28.950  1.00  0.00    -0.248 NA
ATOM     45  C   UNL A   1      40.025  25.685  27.589  1.00  0.00     0.031 C 
ATOM     46  C   UNL A   1      43.016  28.284  29.247  1.00  0.00     0.029 A 
ATOM     47  N   UNL A   1      41.529  29.613  30.295  1.00  0.00    -0.354 N 
ATOM     48  C   UNL A   1      41.969  24.576  28.132  1.00  0.00     0.074 A 
ATOM     49  C   UNL A   1      40.754  24.593  27.347  1.00  0.00     0.031 C 
ATOM     50  C   UNL A   1      43.695  28.993  30.162  1.00  0.00     0.029 A 
ATOM     51  C   UNL A   1      42.731  29.643  31.028  1.00  0.00     0.049 A 
ATOM     52  H   UNL A   1      40.781  30.247  30.384  1.00  0.00     0.167 HD
ATOM     53  C   UNL A   1      43.116  23.840  28.107  1.00  0.00     0.034 A 
ATOM     54  C   UNL A   1      42.714  29.581  32.391  1.00  0.00     0.034 A 
ATOM     55  C   UNL A   1      44.122  24.351  29.042  1.00  0.00     0.049 A 
ATOM     56  C   UNL A   1      43.329  28.310  32.955  1.00  0.00     0.074 A 
ATOM     57  C   UNL A   1      45.278  25.104  28.901  1.00  0.00     0.029 A 
ATOM     58  N   UNL A   1      43.853  24.328  30.402  1.00  0.00    -0.354 N 
ATOM     59  N   UNL A   1      43.916  27.378  32.253  1.00  0.00    -0.248 NA
ATOM     60  C   UNL A   1      43.220  27.951  34.368  1.00  0.00     0.031 C 
ATOM     61  C   UNL A   1      45.692  25.535  30.196  1.00  0.00     0.029 A 
ATOM     62  C   UNL A   1      44.804  25.026  31.126  1.00  0.00     0.049 A 
ATOM     63  H   UNL A   1      43.079  23.871  30.803  1.00  0.00     0.167 HD
ATOM     64  C   UNL A   1      44.164  26.287  33.055  1.00  0.00     0.074 A 
ATOM     65  C   UNL A   1      43.714  26.703  34.373  1.00  0.00     0.031 C 
ATOM     66  C   UNL A   1      44.662  25.105  32.574  1.00  0.00     0.034 A 
BRANCH  53  67
ATOM     67  C   UNL A   1      43.407  22.840  27.014  1.00  0.00     0.023 A 
ATOM     68  C   UNL A   1      42.843  21.552  27.080  1.00  0.00     0.031 A 
ATOM     69  C   UNL A   1      44.259  23.069  25.916  1.00  0.00     0.131 A 
ATOM     70  C   UNL A   1      43.231  20.539  26.184  1.00  0.00     0.055 A 
ATOM     71  C   UNL A   1      44.712  22.044  25.076  1.00  0.00     0.041 A 
ATOM     72  F   UNL A   1      44.650  24.308  25.579  1.00  0.00    -0.206 F 
ATOM     73  C   UNL A   1      44.210  20.762  25.221  1.00  0.00     0.022 A 
BRANCH  70  74
ATOM     74  S   UNL A   1      42.419  18.922  26.282  1.00  0.00     0.124 S 
ATOM     75  O   UNL A   1      42.523  18.605  27.703  1.00  0.00    -0.237 OA
ATOM     76  O   UNL A   1      41.081  19.222  25.784  1.00  0.00    -0.237 OA
ATOM     77  O   UNL A   1      43.229  18.081  25.401  1.00  0.00    -0.744 OA
ENDBRANCH  70  74
ENDBRANCH  53  67
BRANCH  54  78
ATOM     78  C   UNL A   1      41.549  30.315  32.970  1.00  0.00     0.023 A 
ATOM     79  C   UNL A   1      41.579  31.728  32.934  1.00  0.00     0.031 A 
ATOM     80  C   UNL A   1      40.308  29.688  33.149  1.00  0.00     0.131 A 
ATOM     81  C   UNL A   1      40.381  32.456  32.919  1.00  0.00     0.055 A 
ATOM     82  C   UNL A   1      39.121  30.424  33.181  1.00  0.00     0.041 A 
ATOM     83  F   UNL A   1      40.212  28.350  33.157  1.00  0.00    -0.206 F 
ATOM     84  C   UNL A   1      39.148  31.807  33.016  1.00  0.00     0.022 A 
BRANCH  81  85
ATOM     85  S   UNL A   1      40.392  34.234  32.538  1.00  0.00     0.124 S 
ATOM     86  O   UNL A   1      41.179  34.282  31.313  1.00  0.00    -0.237 OA
ATOM     87  O   UNL A   1      38.976  34.560  32.399  1.00  0.00    -0.237 OA
ATOM     88  O   UNL A   1      41.024  34.811  33.726  1.00  0.00    -0.744 OA
ENDBRANCH  81  85
ENDBRANCH  54  78
BRANCH  66  89
ATOM     89  C   UNL A   1      44.996  23.893  33.431  1.00  0.00     0.023 A 
ATOM     90  C   UNL A   1      46.314  23.477  33.682  1.00  0.00     0.031 A 
ATOM     91  C   UNL A   1      43.988  23.062  33.981  1.00  0.00     0.131 A 
ATOM     92  C   UNL A   1      46.591  22.392  34.537  1.00  0.00     0.055 A 
ATOM     93  C   UNL A   1      44.264  21.939  34.770  1.00  0.00     0.041 A 
ATOM     94  F   UNL A   1      42.684  23.302  33.794  1.00  0.00    -0.206 F 
ATOM     95  C   UNL A   1      45.573  21.612  35.075  1.00  0.00     0.022 A 
BRANCH  92  96
ATOM     96  S   UNL A   1      48.316  22.060  34.980  1.00  0.00     0.124 S 
ATOM     97  O   UNL A   1      49.010  23.229  34.451  1.00  0.00    -0.237 OA
ATOM     98  O   UNL A   1      48.237  21.973  36.436  1.00  0.00    -0.237 OA
ATOM     99  O   UNL A   1      48.611  20.801  34.300  1.00  0.00    -0.744 OA
ENDBRANCH  92  96
ENDBRANCH  66  89
ENDBRANCH  40  41
ENDBRANCH  32  35
ENDBRANCH  30  31
ENDBRANCH   1  30
TORSDOF 16
ENDMDL
MODEL 2
REMARK VINA RESULT:     -14.1      4.217     10.601
REMARK SMILES Cc1c(NC(=O)c2ccc(-c3cccc(Cl)c3)o2)cccc1C(=O)NCCCNC(=O)c1ccc(-c2c3nc(c(-c4cc(S(=O)(=O)[O-])ccc4F)c4ccc([nH]4)c(-c4cc(S(=O)(=O)[O-])ccc4F)c4nc(c(-c5cc(S(=O)(=O)[O-])ccc5F)c5ccc2[nH]5)C=C4)C=C3)cc1
REMARK SMILES IDX 27 1 26 2 25 3 23 4 24 5 22 7 1 8 2 9 3 10 19 11 21 12 20 13
REMARK SMILES IDX 4 14 5 15 6 17 7 18 8 19 18 20 9 21 10 22 11 23 12 24 17 25
REMARK SMILES IDX 13 26 15 27 14 28 16 29 28 30 29 31 30 32 31 34 32 35 33 36
REMARK SMILES IDX 94 37 34 38 93 39 35 40 36 41 37 42 87 43 38 44 92 45 86 46
REMARK SMILES IDX 88 47 39 48 91 49 85 50 84 51 40 53 72 54 52 55 71 56 53 57
REMARK SMILES IDX 56 58 70 59 89 60 54 61 55 62 69 64 90 65 57 66 41 67 42 68
REMARK SMILES IDX 50 69 43 70 49 71 51 72 48 73 44 74 45 75 46 76 47 77 73 78
REMARK SMILES IDX 74 79 82 80 75 81 81 82 83 83 80 84 76 85 77 86 78 87 79 88
REMARK SMILES IDX 58 89 59 90 67 91 60 92 66 93 68 94 65 95 61 96 62 97 63 98
REMARK SMILES IDX 64 99
REMARK H PARENT 25 6 4 16 29 33 88 52 56 63
REMARK Flexibility Score: inf
ROOT
ATOM      1  C   UNL A   1      38.755  21.575  25.690  1.00  0.00     0.042 C 
ENDROOT
BRANCH   1   2
ATOM      2  C   UNL A   1      37.329  21.353  25.165  1.00  0.00     0.118 C 
BRANCH   2   3
ATOM      3  N   UNL A   1      36.341  21.450  26.239  1.00  0.00    -0.352 N 
ATOM      4  C   UNL A   1      34.981  21.620  26.242  1.00  0.00     0.251 C 
ATOM      5  O   UNL A   1      34.395  21.578  27.327  1.00  0.00    -0.269 OA
ATOM      6  H   UNL A   1      36.731  21.377  27.140  1.00  0.00     0.163 HD
BRANCH   4   7
ATOM      7  C   UNL A   1      34.149  21.808  25.017  1.00  0.00     0.044 A 
ATOM      8  C   UNL A   1      35.034  24.118  24.400  1.00  0.00     0.047 C 
ATOM      9  C   UNL A   1      34.200  22.904  24.133  1.00  0.00    -0.015 A 
ATOM     10  C   UNL A   1      33.340  22.939  23.013  1.00  0.00     0.045 A 
ATOM     11  C   UNL A   1      32.338  21.976  22.863  1.00  0.00     0.026 A 
ATOM     12  C   UNL A   1      33.122  20.859  24.850  1.00  0.00     0.014 A 
ATOM     13  C   UNL A   1      32.210  20.955  23.799  1.00  0.00     0.003 A 
BRANCH  10  14
ATOM     14  N   UNL A   1      33.565  23.942  22.045  1.00  0.00    -0.319 N 
ATOM     15  C   UNL A   1      32.943  25.151  21.849  1.00  0.00     0.291 C 
ATOM     16  H   UNL A   1      34.286  23.742  21.405  1.00  0.00     0.170 HD
ATOM     17  O   UNL A   1      33.130  25.750  20.787  1.00  0.00    -0.265 OA
BRANCH  15  18
ATOM     18  C   UNL A   1      32.194  25.712  22.943  1.00  0.00     0.192 A 
ATOM     19  C   UNL A   1      30.892  25.528  23.373  1.00  0.00     0.057 A 
ATOM     20  O   UNL A   1      32.813  26.632  23.733  1.00  0.00    -0.451 OA
ATOM     21  C   UNL A   1      30.706  26.401  24.473  1.00  0.00     0.052 A 
ATOM     22  C   UNL A   1      31.899  27.076  24.635  1.00  0.00     0.135 A 
BRANCH  22  23
ATOM     23  C   UNL A   1      32.371  28.126  25.516  1.00  0.00     0.019 A 
ATOM     24  C   UNL A   1      33.498  27.931  26.323  1.00  0.00     0.012 A 
ATOM     25  C   UNL A   1      31.692  29.353  25.569  1.00  0.00     0.032 A 
ATOM     26  C   UNL A   1      33.947  28.951  27.164  1.00  0.00     0.002 A 
ATOM     27  C   UNL A   1      32.137  30.361  26.418  1.00  0.00     0.041 A 
ATOM     28  C   UNL A   1      33.263  30.166  27.214  1.00  0.00     0.020 A 
ATOM     29  Cl  UNL A   1      31.288  31.856  26.490  1.00  0.00    -0.084 Cl
ENDBRANCH  22  23
ENDBRANCH  15  18
ENDBRANCH  10  14
ENDBRANCH   4   7
ENDBRANCH   2   3
ENDBRANCH   1   2
BRANCH   1  30
ATOM     30  C   UNL A   1      39.063  22.969  26.206  1.00  0.00     0.118 C 
BRANCH  30  31
ATOM     31  N   UNL A   1      40.508  23.224  26.321  1.00  0.00    -0.352 N 
ATOM     32  C   UNL A   1      41.156  24.431  26.514  1.00  0.00     0.251 C 
ATOM     33  H   UNL A   1      41.090  22.432  26.253  1.00  0.00     0.163 HD
ATOM     34  O   UNL A   1      42.366  24.520  26.678  1.00  0.00    -0.269 OA
BRANCH  32  35
ATOM     35  C   UNL A   1      40.297  25.625  26.651  1.00  0.00     0.039 A 
ATOM     36  C   UNL A   1      40.852  26.821  26.190  1.00  0.00     0.014 A 
ATOM     37  C   UNL A   1      39.298  25.608  27.621  1.00  0.00     0.014 A 
ATOM     38  C   UNL A   1      40.637  27.978  26.924  1.00  0.00     0.010 A 
ATOM     39  C   UNL A   1      39.150  26.743  28.399  1.00  0.00     0.010 A 
ATOM     40  C   UNL A   1      39.893  27.894  28.103  1.00  0.00    -0.014 A 
BRANCH  40  41
ATOM     41  C   UNL A   1      39.948  28.936  29.122  1.00  0.00     0.031 A 
ATOM     42  C   UNL A   1      38.888  29.955  29.163  1.00  0.00     0.074 A 
ATOM     43  C   UNL A   1      40.988  29.044  29.980  1.00  0.00     0.049 A 
ATOM     44  N   UNL A   1      39.082  31.185  29.498  1.00  0.00    -0.248 NA
ATOM     45  C   UNL A   1      37.518  29.664  28.767  1.00  0.00     0.031 C 
ATOM     46  C   UNL A   1      41.107  29.965  31.109  1.00  0.00     0.029 A 
ATOM     47  N   UNL A   1      42.262  28.501  29.845  1.00  0.00    -0.354 N 
ATOM     48  C   UNL A   1      37.849  31.775  29.627  1.00  0.00     0.074 A 
ATOM     49  C   UNL A   1      36.913  30.808  29.095  1.00  0.00     0.031 C 
ATOM     50  C   UNL A   1      42.405  30.132  31.398  1.00  0.00     0.029 A 
ATOM     51  C   UNL A   1      43.180  29.408  30.410  1.00  0.00     0.049 A 
ATOM     52  H   UNL A   1      42.483  27.637  29.428  1.00  0.00     0.167 HD
ATOM     53  C   UNL A   1      37.729  32.961  30.288  1.00  0.00     0.034 A 
ATOM     54  C   UNL A   1      44.197  29.921  29.660  1.00  0.00     0.034 A 
ATOM     55  C   UNL A   1      39.022  33.467  30.755  1.00  0.00     0.049 A 
ATOM     56  C   UNL A   1      44.084  31.417  29.415  1.00  0.00     0.074 A 
ATOM     57  C   UNL A   1      39.660  33.498  31.986  1.00  0.00     0.029 A 
ATOM     58  N   UNL A   1      39.990  33.809  29.824  1.00  0.00    -0.354 N 
ATOM     59  N   UNL A   1      43.173  32.200  29.929  1.00  0.00    -0.248 NA
ATOM     60  C   UNL A   1      44.947  32.121  28.467  1.00  0.00     0.031 C 
ATOM     61  C   UNL A   1      41.024  33.860  31.775  1.00  0.00     0.029 A 
ATOM     62  C   UNL A   1      41.211  34.070  30.422  1.00  0.00     0.049 A 
ATOM     63  H   UNL A   1      39.828  33.860  28.854  1.00  0.00     0.167 HD
ATOM     64  C   UNL A   1      43.246  33.440  29.334  1.00  0.00     0.074 A 
ATOM     65  C   UNL A   1      44.379  33.337  28.430  1.00  0.00     0.031 C 
ATOM     66  C   UNL A   1      42.339  34.439  29.576  1.00  0.00     0.034 A 
BRANCH  53  67
ATOM     67  C   UNL A   1      36.394  33.493  30.752  1.00  0.00     0.023 A 
ATOM     68  C   UNL A   1      35.560  34.170  29.843  1.00  0.00     0.031 A 
ATOM     69  C   UNL A   1      35.908  33.412  32.072  1.00  0.00     0.131 A 
ATOM     70  C   UNL A   1      34.398  34.835  30.275  1.00  0.00     0.055 A 
ATOM     71  C   UNL A   1      34.801  34.142  32.521  1.00  0.00     0.041 A 
ATOM     72  F   UNL A   1      36.457  32.581  32.971  1.00  0.00    -0.206 F 
ATOM     73  C   UNL A   1      34.047  34.877  31.621  1.00  0.00     0.022 A 
BRANCH  70  74
ATOM     74  S   UNL A   1      33.332  35.631  29.044  1.00  0.00     0.124 S 
ATOM     75  O   UNL A   1      32.551  36.556  29.858  1.00  0.00    -0.237 OA
ATOM     76  O   UNL A   1      34.307  36.231  28.140  1.00  0.00    -0.237 OA
ATOM     77  O   UNL A   1      32.574  34.515  28.479  1.00  0.00    -0.744 OA
ENDBRANCH  70  74
ENDBRANCH  53  67
BRANCH  54  78
ATOM     78  C   UNL A   1      44.740  28.921  28.692  1.00  0.00     0.023 A 
ATOM     79  C   UNL A   1      45.521  27.862  29.212  1.00  0.00     0.031 A 
ATOM     80  C   UNL A   1      44.181  28.761  27.417  1.00  0.00     0.131 A 
ATOM     81  C   UNL A   1      45.591  26.639  28.528  1.00  0.00     0.055 A 
ATOM     82  C   UNL A   1      44.295  27.555  26.720  1.00  0.00     0.041 A 
ATOM     83  F   UNL A   1      43.403  29.716  26.886  1.00  0.00    -0.206 F 
ATOM     84  C   UNL A   1      44.957  26.473  27.295  1.00  0.00     0.022 A 
BRANCH  81  85
ATOM     85  S   UNL A   1      46.304  25.176  29.336  1.00  0.00     0.124 S 
ATOM     86  O   UNL A   1      47.724  25.500  29.366  1.00  0.00    -0.237 OA
ATOM     87  O   UNL A   1      45.631  25.140  30.630  1.00  0.00    -0.237 OA
ATOM     88  O   UNL A   1      45.915  24.092  28.432  1.00  0.00    -0.744 OA
ENDBRANCH  81  85
ENDBRANCH  54  78
BRANCH  66  89
ATOM     89  C   UNL A   1      42.410  35.836  28.979  1.00  0.00     0.023 A 
ATOM     90  C   UNL A   1      43.120  36.887  29.581  1.00  0.00     0.031 A 
ATOM     91  C   UNL A   1      41.702  36.185  27.802  1.00  0.00     0.131 A 
ATOM     92  C   UNL A   1      43.223  38.150  28.965  1.00  0.00     0.055 A 
ATOM     93  C   UNL A   1      41.744  37.462  27.230  1.00  0.00     0.041 A 
ATOM     94  F   UNL A   1      40.944  35.304  27.137  1.00  0.00    -0.206 F 
ATOM     95  C   UNL A   1      42.530  38.449  27.798  1.00  0.00     0.022 A 
BRANCH  92  96
ATOM     96  S   UNL A   1      44.336  39.379  29.696  1.00  0.00     0.124 S 
ATOM     97  O   UNL A   1      45.632  39.002  29.144  1.00  0.00    -0.237 OA
ATOM     98  O   UNL A   1      43.770  40.628  29.191  1.00  0.00    -0.237 OA
ATOM     99  O   UNL A   1      44.187  39.169  31.134  1.00  0.00    -0.744 OA
ENDBRANCH  92  96
ENDBRANCH  66  89
ENDBRANCH  40  41
ENDBRANCH  32  35
ENDBRANCH  30  31
ENDBRANCH   1  30
TORSDOF 16
ENDMDL
MODEL 3
REMARK VINA RESULT:     -14.0      1.681      2.051
REMARK SMILES Cc1c(NC(=O)c2ccc(-c3cccc(Cl)c3)o2)cccc1C(=O)NCCCNC(=O)c1ccc(-c2c3nc(c(-c4cc(S(=O)(=O)[O-])ccc4F)c4ccc([nH]4)c(-c4cc(S(=O)(=O)[O-])ccc4F)c4nc(c(-c5cc(S(=O)(=O)[O-])ccc5F)c5ccc2[nH]5)C=C4)C=C3)cc1
REMARK SMILES IDX 27 1 26 2 25 3 23 4 24 5 22 7 1 8 2 9 3 10 19 11 21 12 20 13
REMARK SMILES IDX 4 14 5 15 6 17 7 18 8 19 18 20 9 21 10 22 11 23 12 24 17 25
REMARK SMILES IDX 13 26 15 27 14 28 16 29 28 30 29 31 30 32 31 34 32 35 33 36
REMARK SMILES IDX 94 37 34 38 93 39 35 40 36 41 37 42 87 43 38 44 92 45 86 46
REMARK SMILES IDX 88 47 39 48 91 49 85 50 84 51 40 53 72 54 52 55 71 56 53 57
REMARK SMILES IDX 56 58 70 59 89 60 54 61 55 62 69 64 90 65 57 66 41 67 42 68
REMARK SMILES IDX 50 69 43 70 49 71 51 72 48 73 44 74 45 75 46 76 47 77 73 78
REMARK SMILES IDX 74 79 82 80 75 81 81 82 83 83 80 84 76 85 77 86 78 87 79 88
REMARK SMILES IDX 58 89 59 90 67 91 60 92 66 93 68 94 65 95 61 96 62 97 63 98
REMARK SMILES IDX 64 99
REMARK H PARENT 25 6 4 16 29 33 88 52 56 63
REMARK Flexibility Score: inf
ROOT
ATOM      1  C   UNL A   1      32.783  31.508  27.413  1.00  0.00     0.042 C 
ENDROOT
BRANCH   1   2
ATOM      2  C   UNL A   1      31.881  30.777  26.408  1.00  0.00     0.118 C 
BRANCH   2   3
ATOM      3  N   UNL A   1      32.639  30.315  25.245  1.00  0.00    -0.352 N 
ATOM      4  C   UNL A   1      32.484  29.251  24.395  1.00  0.00     0.251 C 
ATOM      5  O   UNL A   1      33.250  29.165  23.430  1.00  0.00    -0.269 OA
ATOM      6  H   UNL A   1      33.414  30.883  25.029  1.00  0.00     0.163 HD
BRANCH   4   7
ATOM      7  C   UNL A   1      31.422  28.210  24.526  1.00  0.00     0.044 A 
ATOM      8  C   UNL A   1      32.593  26.805  26.304  1.00  0.00     0.047 C 
ATOM      9  C   UNL A   1      31.422  27.127  25.427  1.00  0.00    -0.015 A 
ATOM     10  C   UNL A   1      30.341  26.218  25.428  1.00  0.00     0.045 A 
ATOM     11  C   UNL A   1      29.354  26.297  24.441  1.00  0.00     0.026 A 
ATOM     12  C   UNL A   1      30.423  28.257  23.534  1.00  0.00     0.014 A 
ATOM     13  C   UNL A   1      29.414  27.297  23.476  1.00  0.00     0.003 A 
BRANCH  10  14
ATOM     14  N   UNL A   1      30.276  25.277  26.478  1.00  0.00    -0.319 N 
ATOM     15  C   UNL A   1      30.663  23.959  26.522  1.00  0.00     0.291 C 
ATOM     16  H   UNL A   1      29.891  25.621  27.316  1.00  0.00     0.170 HD
ATOM     17  O   UNL A   1      30.277  23.257  27.461  1.00  0.00    -0.265 OA
BRANCH  15  18
ATOM     18  C   UNL A   1      31.594  23.493  25.529  1.00  0.00     0.192 A 
ATOM     19  C   UNL A   1      31.424  23.016  24.241  1.00  0.00     0.057 A 
ATOM     20  O   UNL A   1      32.914  23.460  25.859  1.00  0.00    -0.451 OA
ATOM     21  C   UNL A   1      32.711  22.654  23.774  1.00  0.00     0.052 A 
ATOM     22  C   UNL A   1      33.584  22.915  24.809  1.00  0.00     0.135 A 
BRANCH  22  23
ATOM     23  C   UNL A   1      35.007  22.733  25.022  1.00  0.00     0.019 A 
ATOM     24  C   UNL A   1      35.823  23.813  25.373  1.00  0.00     0.012 A 
ATOM     25  C   UNL A   1      35.579  21.461  24.870  1.00  0.00     0.032 A 
ATOM     26  C   UNL A   1      37.191  23.625  25.580  1.00  0.00     0.002 A 
ATOM     27  C   UNL A   1      36.944  21.281  25.065  1.00  0.00     0.041 A 
ATOM     28  C   UNL A   1      37.752  22.358  25.423  1.00  0.00     0.020 A 
ATOM     29  Cl  UNL A   1      37.641  19.721  24.859  1.00  0.00    -0.084 Cl
ENDBRANCH  22  23
ENDBRANCH  15  18
ENDBRANCH  10  14
ENDBRANCH   4   7
ENDBRANCH   2   3
ENDBRANCH   1   2
BRANCH   1  30
ATOM     30  C   UNL A   1      34.074  30.800  27.784  1.00  0.00     0.118 C 
BRANCH  30  31
ATOM     31  N   UNL A   1      35.023  31.682  28.481  1.00  0.00    -0.352 N 
ATOM     32  C   UNL A   1      36.261  31.364  29.013  1.00  0.00     0.251 C 
ATOM     33  H   UNL A   1      34.743  32.620  28.582  1.00  0.00     0.163 HD
ATOM     34  O   UNL A   1      37.009  32.198  29.505  1.00  0.00    -0.269 OA
BRANCH  32  35
ATOM     35  C   UNL A   1      36.712  29.968  28.842  1.00  0.00     0.039 A 
ATOM     36  C   UNL A   1      37.162  29.335  30.005  1.00  0.00     0.014 A 
ATOM     37  C   UNL A   1      37.135  29.564  27.579  1.00  0.00     0.014 A 
ATOM     38  C   UNL A   1      38.274  28.511  29.922  1.00  0.00     0.010 A 
ATOM     39  C   UNL A   1      38.292  28.809  27.509  1.00  0.00     0.010 A 
ATOM     40  C   UNL A   1      38.910  28.366  28.687  1.00  0.00    -0.014 A 
BRANCH  40  41
ATOM     41  C   UNL A   1      40.275  27.864  28.580  1.00  0.00     0.031 A 
ATOM     42  C   UNL A   1      40.495  26.421  28.392  1.00  0.00     0.074 A 
ATOM     43  C   UNL A   1      41.349  28.672  28.730  1.00  0.00     0.049 A 
ATOM     44  N   UNL A   1      41.492  25.772  28.889  1.00  0.00    -0.248 NA
ATOM     45  C   UNL A   1      39.556  25.583  27.661  1.00  0.00     0.031 C 
ATOM     46  C   UNL A   1      42.753  28.316  28.535  1.00  0.00     0.029 A 
ATOM     47  N   UNL A   1      41.394  29.923  29.337  1.00  0.00    -0.354 N 
ATOM     48  C   UNL A   1      41.483  24.517  28.335  1.00  0.00     0.074 A 
ATOM     49  C   UNL A   1      40.222  24.427  27.632  1.00  0.00     0.031 C 
ATOM     50  C   UNL A   1      43.519  29.170  29.230  1.00  0.00     0.029 A 
ATOM     51  C   UNL A   1      42.641  30.048  29.979  1.00  0.00     0.049 A 
ATOM     52  H   UNL A   1      40.680  30.601  29.321  1.00  0.00     0.167 HD
ATOM     53  C   UNL A   1      42.593  23.731  28.414  1.00  0.00     0.034 A 
ATOM     54  C   UNL A   1      42.708  30.290  31.320  1.00  0.00     0.034 A 
ATOM     55  C   UNL A   1      43.678  24.380  29.156  1.00  0.00     0.049 A 
ATOM     56  C   UNL A   1      43.304  29.143  32.121  1.00  0.00     0.074 A 
ATOM     57  C   UNL A   1      44.853  25.018  28.789  1.00  0.00     0.029 A 
ATOM     58  N   UNL A   1      43.496  24.673  30.499  1.00  0.00    -0.354 N 
ATOM     59  N   UNL A   1      43.806  28.048  31.615  1.00  0.00    -0.248 NA
ATOM     60  C   UNL A   1      43.271  29.111  33.582  1.00  0.00     0.031 C 
ATOM     61  C   UNL A   1      45.367  25.701  29.931  1.00  0.00     0.029 A 
ATOM     62  C   UNL A   1      44.520  25.460  30.997  1.00  0.00     0.049 A 
ATOM     63  H   UNL A   1      42.731  24.359  31.033  1.00  0.00     0.167 HD
ATOM     64  C   UNL A   1      44.059  27.149  32.627  1.00  0.00     0.074 A 
ATOM     65  C   UNL A   1      43.711  27.869  33.840  1.00  0.00     0.031 C 
ATOM     66  C   UNL A   1      44.475  25.864  32.396  1.00  0.00     0.034 A 
BRANCH  53  67
ATOM     67  C   UNL A   1      42.772  22.500  27.558  1.00  0.00     0.023 A 
ATOM     68  C   UNL A   1      43.800  22.461  26.598  1.00  0.00     0.031 A 
ATOM     69  C   UNL A   1      41.943  21.361  27.602  1.00  0.00     0.131 A 
ATOM     70  C   UNL A   1      43.886  21.413  25.664  1.00  0.00     0.055 A 
ATOM     71  C   UNL A   1      41.973  20.360  26.622  1.00  0.00     0.041 A 
ATOM     72  F   UNL A   1      41.104  21.143  28.625  1.00  0.00    -0.206 F 
ATOM     73  C   UNL A   1      42.940  20.393  25.631  1.00  0.00     0.022 A 
BRANCH  70  74
ATOM     74  S   UNL A   1      45.274  21.389  24.498  1.00  0.00     0.124 S 
ATOM     75  O   UNL A   1      45.149  20.068  23.890  1.00  0.00    -0.237 OA
ATOM     76  O   UNL A   1      44.969  22.527  23.638  1.00  0.00    -0.237 OA
ATOM     77  O   UNL A   1      46.444  21.564  25.359  1.00  0.00    -0.744 OA
ENDBRANCH  70  74
ENDBRANCH  53  67
BRANCH  54  78
ATOM     78  C   UNL A   1      41.614  31.196  31.781  1.00  0.00     0.023 A 
ATOM     79  C   UNL A   1      40.459  30.599  32.338  1.00  0.00     0.031 A 
ATOM     80  C   UNL A   1      41.855  32.548  32.060  1.00  0.00     0.131 A 
ATOM     81  C   UNL A   1      39.679  31.307  33.263  1.00  0.00     0.055 A 
ATOM     82  C   UNL A   1      41.045  33.262  32.948  1.00  0.00     0.041 A 
ATOM     83  F   UNL A   1      42.952  33.159  31.589  1.00  0.00    -0.206 F 
ATOM     84  C   UNL A   1      39.983  32.630  33.592  1.00  0.00     0.022 A 
BRANCH  81  85
ATOM     85  S   UNL A   1      38.400  30.451  34.231  1.00  0.00     0.124 S 
ATOM     86  O   UNL A   1      38.156  29.257  33.433  1.00  0.00    -0.237 OA
ATOM     87  O   UNL A   1      39.042  30.233  35.524  1.00  0.00    -0.237 OA
ATOM     88  O   UNL A   1      37.314  31.431  34.262  1.00  0.00    -0.744 OA
ENDBRANCH  81  85
ENDBRANCH  54  78
BRANCH  66  89
ATOM     89  C   UNL A   1      44.812  24.855  33.484  1.00  0.00     0.023 A 
ATOM     90  C   UNL A   1      46.097  24.312  33.648  1.00  0.00     0.031 A 
ATOM     91  C   UNL A   1      43.827  24.345  34.366  1.00  0.00     0.131 A 
ATOM     92  C   UNL A   1      46.392  23.433  34.708  1.00  0.00     0.055 A 
ATOM     93  C   UNL A   1      44.105  23.414  35.373  1.00  0.00     0.041 A 
ATOM     94  F   UNL A   1      42.546  24.732  34.306  1.00  0.00    -0.206 F 
ATOM     95  C   UNL A   1      45.402  22.971  35.567  1.00  0.00     0.022 A 
BRANCH  92  96
ATOM     96  S   UNL A   1      48.119  22.953  34.977  1.00  0.00     0.124 S 
ATOM     97  O   UNL A   1      48.091  21.517  34.724  1.00  0.00    -0.237 OA
ATOM     98  O   UNL A   1      48.811  23.761  33.976  1.00  0.00    -0.237 OA
ATOM     99  O   UNL A   1      48.372  23.336  36.364  1.00  0.00    -0.744 OA
ENDBRANCH  92  96
ENDBRANCH  66  89
ENDBRANCH  40  41
ENDBRANCH  32  35
ENDBRANCH  30  31
ENDBRANCH   1  30
TORSDOF 16
ENDMDL
