MODEL 1
REMARK VINA RESULT:     -12.7      0.000      0.000
REMARK SMILES O=C(NCCCNC(=O)[C@H]1CCCN1C(=O)CN1C(=O)[C@@H]2[C@H](C1=O)[C@@H]1C=C[C@H]2C1)c1ccc(-c2c3nc(c(-c4cc(S(=O)(=O)[O-])ccc4F)c4ccc([nH]4)c(-c4cc(S(=O)(=O)[O-])ccc4F)c4nc(c(-c5cc(S(=O)(=O)[O-])ccc5F)c5ccc2[nH]5)C=C4)C=C3)cc1
REMARK SMILES IDX 5 1 4 2 3 3 1 4 2 5 30 7 31 8 92 9 32 10 91 11 33 12 34 13
REMARK SMILES IDX 35 14 85 15 36 16 90 17 84 18 86 19 37 20 89 21 83 22 82 23
REMARK SMILES IDX 38 25 70 26 50 27 69 28 51 29 54 30 68 31 87 32 52 33 53 34
REMARK SMILES IDX 67 36 88 37 55 38 39 39 40 40 48 41 41 42 47 43 49 44 46 45
REMARK SMILES IDX 42 46 43 47 44 48 45 49 71 50 72 51 80 52 73 53 79 54 81 55
REMARK SMILES IDX 78 56 74 57 75 58 76 59 77 60 56 61 57 62 65 63 58 64 64 65
REMARK SMILES IDX 66 66 63 67 59 68 60 69 61 70 62 71 6 72 7 73 8 74 9 76
REMARK SMILES IDX 10 77 11 78 14 79 12 80 13 81 15 82 16 83 17 84 18 85 19 86
REMARK SMILES IDX 23 87 21 88 20 89 22 90 24 91 28 92 25 93 27 94 29 95 26 96
REMARK H PARENT 3 6 86 24 54 35 7 75
REMARK Flexibility Score: inf
ROOT
ATOM      1  C   UNL A   1      31.420  31.840  26.395  1.00  0.00     0.042 C 
ENDROOT
BRANCH   1   2
ATOM      2  C   UNL A   1      32.661  32.487  26.994  1.00  0.00     0.118 C 
BRANCH   2   3
ATOM      3  N   UNL A   1      32.483  33.792  27.612  1.00  0.00    -0.352 N 
ATOM      4  O   UNL A   1      32.977  35.526  28.974  1.00  0.00    -0.269 OA
ATOM      5  C   UNL A   1      33.269  34.407  28.563  1.00  0.00     0.251 C 
ATOM      6  H   UNL A   1      31.698  34.303  27.310  1.00  0.00     0.163 HD
BRANCH   5   7
ATOM      7  C   UNL A   1      34.435  33.686  29.116  1.00  0.00     0.039 A 
ATOM      8  C   UNL A   1      34.256  32.585  29.955  1.00  0.00     0.014 A 
ATOM      9  C   UNL A   1      35.720  34.162  28.843  1.00  0.00     0.014 A 
ATOM     10  C   UNL A   1      35.341  32.077  30.660  1.00  0.00     0.010 A 
ATOM     11  C   UNL A   1      36.823  33.579  29.476  1.00  0.00     0.010 A 
ATOM     12  C   UNL A   1      36.640  32.556  30.419  1.00  0.00    -0.014 A 
BRANCH  12  13
ATOM     13  C   UNL A   1      37.792  31.926  31.120  1.00  0.00     0.031 A 
ATOM     14  C   UNL A   1      38.593  30.822  30.481  1.00  0.00     0.074 A 
ATOM     15  C   UNL A   1      38.125  32.379  32.346  1.00  0.00     0.049 A 
ATOM     16  N   UNL A   1      39.608  30.154  30.967  1.00  0.00    -0.248 NA
ATOM     17  C   UNL A   1      38.200  30.409  29.126  1.00  0.00     0.031 C 
ATOM     18  C   UNL A   1      37.422  33.449  33.063  1.00  0.00     0.029 A 
ATOM     19  N   UNL A   1      39.133  32.017  33.200  1.00  0.00    -0.354 N 
ATOM     20  C   UNL A   1      39.968  29.232  29.990  1.00  0.00     0.074 A 
ATOM     21  C   UNL A   1      39.038  29.407  28.893  1.00  0.00     0.031 C 
ATOM     22  C   UNL A   1      38.047  33.683  34.224  1.00  0.00     0.029 A 
ATOM     23  C   UNL A   1      39.135  32.728  34.379  1.00  0.00     0.049 A 
ATOM     24  H   UNL A   1      39.792  31.316  32.992  1.00  0.00     0.167 HD
ATOM     25  C   UNL A   1      40.983  28.329  30.009  1.00  0.00     0.034 A 
ATOM     26  C   UNL A   1      39.900  32.603  35.481  1.00  0.00     0.034 A 
ATOM     27  C   UNL A   1      41.898  28.170  31.115  1.00  0.00     0.049 A 
ATOM     28  C   UNL A   1      40.974  31.549  35.498  1.00  0.00     0.074 A 
ATOM     29  C   UNL A   1      42.978  27.308  31.222  1.00  0.00     0.029 A 
ATOM     30  N   UNL A   1      41.840  28.874  32.311  1.00  0.00    -0.354 N 
ATOM     31  N   UNL A   1      41.310  30.698  34.556  1.00  0.00    -0.248 NA
ATOM     32  C   UNL A   1      41.774  31.440  36.723  1.00  0.00     0.031 C 
ATOM     33  C   UNL A   1      43.515  27.431  32.507  1.00  0.00     0.029 A 
ATOM     34  C   UNL A   1      42.836  28.438  33.173  1.00  0.00     0.049 A 
ATOM     35  H   UNL A   1      41.185  29.580  32.519  1.00  0.00     0.167 HD
ATOM     36  C   UNL A   1      42.384  29.975  35.068  1.00  0.00     0.074 A 
ATOM     37  C   UNL A   1      42.649  30.504  36.389  1.00  0.00     0.031 C 
ATOM     38  C   UNL A   1      43.088  28.966  34.494  1.00  0.00     0.034 A 
BRANCH  25  39
ATOM     39  C   UNL A   1      41.131  27.408  28.818  1.00  0.00     0.023 A 
ATOM     40  C   UNL A   1      42.170  27.561  27.883  1.00  0.00     0.031 A 
ATOM     41  C   UNL A   1      40.224  26.350  28.624  1.00  0.00     0.131 A 
ATOM     42  C   UNL A   1      42.243  26.706  26.770  1.00  0.00     0.055 A 
ATOM     43  C   UNL A   1      40.348  25.456  27.558  1.00  0.00     0.041 A 
ATOM     44  F   UNL A   1      39.198  26.166  29.471  1.00  0.00    -0.206 F 
ATOM     45  C   UNL A   1      41.356  25.638  26.617  1.00  0.00     0.022 A 
BRANCH  42  46
ATOM     46  S   UNL A   1      43.435  27.090  25.458  1.00  0.00     0.124 S 
ATOM     47  O   UNL A   1      44.445  27.853  26.189  1.00  0.00    -0.237 OA
ATOM     48  O   UNL A   1      43.842  25.766  25.004  1.00  0.00    -0.237 OA
ATOM     49  O   UNL A   1      42.653  27.867  24.499  1.00  0.00    -0.744 OA
ENDBRANCH  42  46
ENDBRANCH  25  39
BRANCH  26  50
ATOM     50  C   UNL A   1      39.649  33.463  36.673  1.00  0.00     0.023 A 
ATOM     51  C   UNL A   1      39.040  32.944  37.824  1.00  0.00     0.031 A 
ATOM     52  C   UNL A   1      39.974  34.833  36.658  1.00  0.00     0.131 A 
ATOM     53  C   UNL A   1      38.721  33.799  38.890  1.00  0.00     0.055 A 
ATOM     54  C   UNL A   1      39.720  35.664  37.749  1.00  0.00     0.041 A 
ATOM     55  F   UNL A   1      40.559  35.381  35.582  1.00  0.00    -0.206 F 
ATOM     56  C   UNL A   1      39.073  35.151  38.868  1.00  0.00     0.022 A 
BRANCH  53  57
ATOM     57  S   UNL A   1      37.734  33.139  40.260  1.00  0.00     0.124 S 
ATOM     58  O   UNL A   1      37.938  34.155  41.286  1.00  0.00    -0.237 OA
ATOM     59  O   UNL A   1      36.401  33.079  39.671  1.00  0.00    -0.237 OA
ATOM     60  O   UNL A   1      38.354  31.843  40.530  1.00  0.00    -0.744 OA
ENDBRANCH  53  57
ENDBRANCH  26  50
BRANCH  38  61
ATOM     61  C   UNL A   1      44.250  28.409  35.282  1.00  0.00     0.023 A 
ATOM     62  C   UNL A   1      44.087  27.367  36.213  1.00  0.00     0.031 A 
ATOM     63  C   UNL A   1      45.539  28.947  35.112  1.00  0.00     0.131 A 
ATOM     64  C   UNL A   1      45.180  26.942  36.982  1.00  0.00     0.055 A 
ATOM     65  C   UNL A   1      46.635  28.471  35.830  1.00  0.00     0.041 A 
ATOM     66  F   UNL A   1      45.752  29.948  34.243  1.00  0.00    -0.206 F 
ATOM     67  C   UNL A   1      46.457  27.473  36.783  1.00  0.00     0.022 A 
BRANCH  64  68
ATOM     68  S   UNL A   1      44.890  25.759  38.327  1.00  0.00     0.124 S 
ATOM     69  O   UNL A   1      44.305  24.628  37.615  1.00  0.00    -0.237 OA
ATOM     70  O   UNL A   1      46.235  25.552  38.855  1.00  0.00    -0.237 OA
ATOM     71  O   UNL A   1      43.977  26.471  39.219  1.00  0.00    -0.744 OA
ENDBRANCH  64  68
ENDBRANCH  38  61
ENDBRANCH  12  13
ENDBRANCH   5   7
ENDBRANCH   2   3
ENDBRANCH   1   2
BRANCH   1  72
ATOM     72  C   UNL A   1      31.514  30.412  25.891  1.00  0.00     0.117 C 
BRANCH  72  73
ATOM     73  N   UNL A   1      30.818  30.145  24.650  1.00  0.00    -0.354 N 
ATOM     74  C   UNL A   1      30.720  28.983  23.938  1.00  0.00     0.242 C 
ATOM     75  H   UNL A   1      30.344  30.916  24.260  1.00  0.00     0.163 HD
ATOM     76  O   UNL A   1      29.885  28.940  23.031  1.00  0.00    -0.273 OA
BRANCH  74  77
ATOM     77  C   UNL A   1      31.572  27.751  24.313  1.00  0.00     0.174 C 
ATOM     78  C   UNL A   1      31.007  27.090  25.573  1.00  0.00     0.037 C 
ATOM     79  N   UNL A   1      31.388  26.673  23.328  1.00  0.00    -0.329 N 
ATOM     80  C   UNL A   1      29.783  26.349  25.038  1.00  0.00     0.024 C 
ATOM     81  C   UNL A   1      30.237  25.854  23.674  1.00  0.00     0.120 C 
BRANCH  79  82
ATOM     82  C   UNL A   1      32.142  26.341  22.230  1.00  0.00     0.243 C 
ATOM     83  O   UNL A   1      31.602  26.121  21.139  1.00  0.00    -0.273 OA
BRANCH  82  84
ATOM     84  C   UNL A   1      33.645  26.140  22.377  1.00  0.00     0.228 C 
BRANCH  84  85
ATOM     85  N   UNL A   1      34.035  25.035  23.231  1.00  0.00    -0.273 N 
ATOM     86  C   UNL A   1      33.952  23.732  22.828  1.00  0.00     0.234 C 
ATOM     87  C   UNL A   1      34.244  25.170  24.579  1.00  0.00     0.234 C 
ATOM     88  C   UNL A   1      34.121  22.839  24.016  1.00  0.00     0.099 C 
ATOM     89  O   UNL A   1      33.686  23.322  21.705  1.00  0.00    -0.274 OA
ATOM     90  C   UNL A   1      34.146  23.804  25.223  1.00  0.00     0.099 C 
ATOM     91  O   UNL A   1      34.409  26.217  25.181  1.00  0.00    -0.274 OA
ATOM     92  C   UNL A   1      35.411  22.021  24.193  1.00  0.00     0.025 C 
ATOM     93  C   UNL A   1      35.343  23.294  26.047  1.00  0.00     0.025 C 
ATOM     94  C   UNL A   1      36.653  22.874  24.213  1.00  0.00    -0.027 C 
ATOM     95  C   UNL A   1      35.321  21.790  25.713  1.00  0.00     0.017 C 
ATOM     96  C   UNL A   1      36.624  23.608  25.332  1.00  0.00    -0.027 C 
ENDBRANCH  84  85
ENDBRANCH  82  84
ENDBRANCH  79  82
ENDBRANCH  74  77
ENDBRANCH  72  73
ENDBRANCH   1  72
TORSDOF 16
ENDMDL
MODEL 2
REMARK VINA RESULT:     -12.6      1.561      2.039
REMARK SMILES O=C(NCCCNC(=O)[C@H]1CCCN1C(=O)CN1C(=O)[C@@H]2[C@H](C1=O)[C@@H]1C=C[C@H]2C1)c1ccc(-c2c3nc(c(-c4cc(S(=O)(=O)[O-])ccc4F)c4ccc([nH]4)c(-c4cc(S(=O)(=O)[O-])ccc4F)c4nc(c(-c5cc(S(=O)(=O)[O-])ccc5F)c5ccc2[nH]5)C=C4)C=C3)cc1
REMARK SMILES IDX 5 1 4 2 3 3 1 4 2 5 30 7 31 8 92 9 32 10 91 11 33 12 34 13
REMARK SMILES IDX 35 14 85 15 36 16 90 17 84 18 86 19 37 20 89 21 83 22 82 23
REMARK SMILES IDX 38 25 70 26 50 27 69 28 51 29 54 30 68 31 87 32 52 33 53 34
REMARK SMILES IDX 67 36 88 37 55 38 39 39 40 40 48 41 41 42 47 43 49 44 46 45
REMARK SMILES IDX 42 46 43 47 44 48 45 49 71 50 72 51 80 52 73 53 79 54 81 55
REMARK SMILES IDX 78 56 74 57 75 58 76 59 77 60 56 61 57 62 65 63 58 64 64 65
REMARK SMILES IDX 66 66 63 67 59 68 60 69 61 70 62 71 6 72 7 73 8 74 9 76
REMARK SMILES IDX 10 77 11 78 14 79 12 80 13 81 15 82 16 83 17 84 18 85 19 86
REMARK SMILES IDX 23 87 21 88 20 89 22 90 24 91 28 92 25 93 27 94 29 95 26 96
REMARK H PARENT 3 6 86 24 54 35 7 75
REMARK Flexibility Score: inf
ROOT
ATOM      1  C   UNL A   1      31.908  31.346  26.570  1.00  0.00     0.042 C 
ENDROOT
BRANCH   1   2
ATOM      2  C   UNL A   1      32.945  32.121  27.371  1.00  0.00     0.118 C 
BRANCH   2   3
ATOM      3  N   UNL A   1      32.639  33.513  27.661  1.00  0.00    -0.352 N 
ATOM      4  O   UNL A   1      32.901  35.533  28.639  1.00  0.00    -0.269 OA
ATOM      5  C   UNL A   1      33.288  34.375  28.519  1.00  0.00     0.251 C 
ATOM      6  H   UNL A   1      31.866  33.889  27.181  1.00  0.00     0.163 HD
BRANCH   5   7
ATOM      7  C   UNL A   1      34.423  33.877  29.325  1.00  0.00     0.039 A 
ATOM      8  C   UNL A   1      35.733  34.242  29.009  1.00  0.00     0.014 A 
ATOM      9  C   UNL A   1      34.174  32.981  30.368  1.00  0.00     0.014 A 
ATOM     10  C   UNL A   1      36.794  33.575  29.611  1.00  0.00     0.010 A 
ATOM     11  C   UNL A   1      35.247  32.389  31.043  1.00  0.00     0.010 A 
ATOM     12  C   UNL A   1      36.567  32.652  30.646  1.00  0.00    -0.014 A 
BRANCH  12  13
ATOM     13  C   UNL A   1      37.728  32.027  31.335  1.00  0.00     0.031 A 
ATOM     14  C   UNL A   1      38.553  30.957  30.671  1.00  0.00     0.074 A 
ATOM     15  C   UNL A   1      38.046  32.454  32.575  1.00  0.00     0.049 A 
ATOM     16  N   UNL A   1      39.580  30.297  31.145  1.00  0.00    -0.248 NA
ATOM     17  C   UNL A   1      38.176  30.572  29.304  1.00  0.00     0.031 C 
ATOM     18  C   UNL A   1      37.318  33.490  33.316  1.00  0.00     0.029 A 
ATOM     19  N   UNL A   1      39.057  32.090  33.424  1.00  0.00    -0.354 N 
ATOM     20  C   UNL A   1      39.963  29.408  30.146  1.00  0.00     0.074 A 
ATOM     21  C   UNL A   1      39.035  29.594  29.049  1.00  0.00     0.031 C 
ATOM     22  C   UNL A   1      37.933  33.706  34.486  1.00  0.00     0.029 A 
ATOM     23  C   UNL A   1      39.039  32.769  34.621  1.00  0.00     0.049 A 
ATOM     24  H   UNL A   1      39.731  31.408  33.201  1.00  0.00     0.167 HD
ATOM     25  C   UNL A   1      40.996  28.526  30.146  1.00  0.00     0.034 A 
ATOM     26  C   UNL A   1      39.801  32.630  35.723  1.00  0.00     0.034 A 
ATOM     27  C   UNL A   1      41.909  28.356  31.252  1.00  0.00     0.049 A 
ATOM     28  C   UNL A   1      40.896  31.598  35.718  1.00  0.00     0.074 A 
ATOM     29  C   UNL A   1      43.005  27.514  31.342  1.00  0.00     0.029 A 
ATOM     30  N   UNL A   1      41.831  29.027  32.466  1.00  0.00    -0.354 N 
ATOM     31  N   UNL A   1      41.254  30.779  34.755  1.00  0.00    -0.248 NA
ATOM     32  C   UNL A   1      41.693  31.473  36.944  1.00  0.00     0.031 C 
ATOM     33  C   UNL A   1      43.534  27.612  32.632  1.00  0.00     0.029 A 
ATOM     34  C   UNL A   1      42.832  28.588  33.321  1.00  0.00     0.049 A 
ATOM     35  H   UNL A   1      41.161  29.714  32.689  1.00  0.00     0.167 HD
ATOM     36  C   UNL A   1      42.340  30.064  35.254  1.00  0.00     0.074 A 
ATOM     37  C   UNL A   1      42.588  30.563  36.590  1.00  0.00     0.031 C 
ATOM     38  C   UNL A   1      43.067  29.085  34.657  1.00  0.00     0.034 A 
BRANCH  25  39
ATOM     39  C   UNL A   1      41.168  27.641  28.932  1.00  0.00     0.023 A 
ATOM     40  C   UNL A   1      42.160  27.885  27.966  1.00  0.00     0.031 A 
ATOM     41  C   UNL A   1      40.333  26.523  28.746  1.00  0.00     0.131 A 
ATOM     42  C   UNL A   1      42.255  27.059  26.834  1.00  0.00     0.055 A 
ATOM     43  C   UNL A   1      40.484  25.660  27.658  1.00  0.00     0.041 A 
ATOM     44  F   UNL A   1      39.354  26.249  29.622  1.00  0.00    -0.206 F 
ATOM     45  C   UNL A   1      41.442  25.932  26.687  1.00  0.00     0.022 A 
BRANCH  42  46
ATOM     46  S   UNL A   1      43.370  27.552  25.491  1.00  0.00     0.124 S 
ATOM     47  O   UNL A   1      42.423  27.941  24.447  1.00  0.00    -0.237 OA
ATOM     48  O   UNL A   1      44.133  28.637  26.096  1.00  0.00    -0.237 OA
ATOM     49  O   UNL A   1      44.129  26.336  25.209  1.00  0.00    -0.744 OA
ENDBRANCH  42  46
ENDBRANCH  25  39
BRANCH  26  50
ATOM     50  C   UNL A   1      39.528  33.453  36.937  1.00  0.00     0.023 A 
ATOM     51  C   UNL A   1      40.250  34.627  37.193  1.00  0.00     0.031 A 
ATOM     52  C   UNL A   1      38.568  33.048  37.884  1.00  0.00     0.131 A 
ATOM     53  C   UNL A   1      40.046  35.323  38.393  1.00  0.00     0.055 A 
ATOM     54  C   UNL A   1      38.317  33.784  39.041  1.00  0.00     0.041 A 
ATOM     55  F   UNL A   1      37.847  31.933  37.688  1.00  0.00    -0.206 F 
ATOM     56  C   UNL A   1      39.071  34.922  39.311  1.00  0.00     0.022 A 
BRANCH  53  57
ATOM     57  S   UNL A   1      41.153  36.702  38.790  1.00  0.00     0.124 S 
ATOM     58  O   UNL A   1      41.810  36.932  37.508  1.00  0.00    -0.237 OA
ATOM     59  O   UNL A   1      40.214  37.730  39.224  1.00  0.00    -0.237 OA
ATOM     60  O   UNL A   1      42.009  36.158  39.843  1.00  0.00    -0.744 OA
ENDBRANCH  53  57
ENDBRANCH  26  50
BRANCH  38  61
ATOM     61  C   UNL A   1      44.237  28.531  35.436  1.00  0.00     0.023 A 
ATOM     62  C   UNL A   1      44.089  27.465  36.342  1.00  0.00     0.031 A 
ATOM     63  C   UNL A   1      45.515  29.096  35.283  1.00  0.00     0.131 A 
ATOM     64  C   UNL A   1      45.187  27.042  37.105  1.00  0.00     0.055 A 
ATOM     65  C   UNL A   1      46.618  28.623  35.994  1.00  0.00     0.041 A 
ATOM     66  F   UNL A   1      45.714  30.120  34.437  1.00  0.00    -0.206 F 
ATOM     67  C   UNL A   1      46.455  27.600  36.922  1.00  0.00     0.022 A 
BRANCH  64  68
ATOM     68  S   UNL A   1      44.914  25.823  38.421  1.00  0.00     0.124 S 
ATOM     69  O   UNL A   1      46.273  25.376  38.706  1.00  0.00    -0.237 OA
ATOM     70  O   UNL A   1      44.276  26.624  39.460  1.00  0.00    -0.237 OA
ATOM     71  O   UNL A   1      44.052  24.825  37.791  1.00  0.00    -0.744 OA
ENDBRANCH  64  68
ENDBRANCH  38  61
ENDBRANCH  12  13
ENDBRANCH   5   7
ENDBRANCH   2   3
ENDBRANCH   1   2
BRANCH   1  72
ATOM     72  C   UNL A   1      32.256  29.953  26.081  1.00  0.00     0.117 C 
BRANCH  72  73
ATOM     73  N   UNL A   1      32.996  29.898  24.839  1.00  0.00    -0.354 N 
ATOM     74  C   UNL A   1      33.046  28.911  23.896  1.00  0.00     0.242 C 
ATOM     75  H   UNL A   1      33.548  30.690  24.644  1.00  0.00     0.163 HD
ATOM     76  O   UNL A   1      33.567  29.184  22.812  1.00  0.00    -0.273 OA
BRANCH  74  77
ATOM     77  C   UNL A   1      32.400  27.532  24.159  1.00  0.00     0.174 C 
ATOM     78  C   UNL A   1      30.975  27.716  24.688  1.00  0.00     0.037 C 
ATOM     79  N   UNL A   1      32.136  26.832  22.891  1.00  0.00    -0.329 N 
ATOM     80  C   UNL A   1      30.196  28.080  23.426  1.00  0.00     0.024 C 
ATOM     81  C   UNL A   1      30.842  27.220  22.351  1.00  0.00     0.120 C 
BRANCH  79  82
ATOM     82  C   UNL A   1      32.884  25.892  22.229  1.00  0.00     0.243 C 
ATOM     83  O   UNL A   1      33.711  26.232  21.374  1.00  0.00    -0.273 OA
BRANCH  82  84
ATOM     84  C   UNL A   1      32.624  24.410  22.471  1.00  0.00     0.228 C 
BRANCH  84  85
ATOM     85  N   UNL A   1      33.076  23.911  23.756  1.00  0.00    -0.273 N 
ATOM     86  C   UNL A   1      32.269  23.887  24.858  1.00  0.00     0.234 C 
ATOM     87  C   UNL A   1      34.397  23.693  24.050  1.00  0.00     0.234 C 
ATOM     88  C   UNL A   1      33.103  23.622  26.071  1.00  0.00     0.099 C 
ATOM     89  O   UNL A   1      31.070  24.134  24.901  1.00  0.00    -0.274 OA
ATOM     90  C   UNL A   1      34.558  23.661  25.555  1.00  0.00     0.099 C 
ATOM     91  O   UNL A   1      35.310  23.611  23.246  1.00  0.00    -0.274 OA
ATOM     92  C   UNL A   1      33.020  22.262  26.785  1.00  0.00     0.025 C 
ATOM     93  C   UNL A   1      35.186  22.411  26.199  1.00  0.00     0.025 C 
ATOM     94  C   UNL A   1      33.333  21.099  25.880  1.00  0.00    -0.027 C 
ATOM     95  C   UNL A   1      34.380  22.307  27.507  1.00  0.00     0.017 C 
ATOM     96  C   UNL A   1      34.631  21.175  25.557  1.00  0.00    -0.027 C 
ENDBRANCH  84  85
ENDBRANCH  82  84
ENDBRANCH  79  82
ENDBRANCH  74  77
ENDBRANCH  72  73
ENDBRANCH   1  72
TORSDOF 16
ENDMDL
MODEL 3
REMARK VINA RESULT:     -12.5      1.578      1.989
REMARK SMILES O=C(NCCCNC(=O)[C@H]1CCCN1C(=O)CN1C(=O)[C@@H]2[C@H](C1=O)[C@@H]1C=C[C@H]2C1)c1ccc(-c2c3nc(c(-c4cc(S(=O)(=O)[O-])ccc4F)c4ccc([nH]4)c(-c4cc(S(=O)(=O)[O-])ccc4F)c4nc(c(-c5cc(S(=O)(=O)[O-])ccc5F)c5ccc2[nH]5)C=C4)C=C3)cc1
REMARK SMILES IDX 5 1 4 2 3 3 1 4 2 5 30 7 31 8 92 9 32 10 91 11 33 12 34 13
REMARK SMILES IDX 35 14 85 15 36 16 90 17 84 18 86 19 37 20 89 21 83 22 82 23
REMARK SMILES IDX 38 25 70 26 50 27 69 28 51 29 54 30 68 31 87 32 52 33 53 34
REMARK SMILES IDX 67 36 88 37 55 38 39 39 40 40 48 41 41 42 47 43 49 44 46 45
REMARK SMILES IDX 42 46 43 47 44 48 45 49 71 50 72 51 80 52 73 53 79 54 81 55
REMARK SMILES IDX 78 56 74 57 75 58 76 59 77 60 56 61 57 62 65 63 58 64 64 65
REMARK SMILES IDX 66 66 63 67 59 68 60 69 61 70 62 71 6 72 7 73 8 74 9 76
REMARK SMILES IDX 10 77 11 78 14 79 12 80 13 81 15 82 16 83 17 84 18 85 19 86
REMARK SMILES IDX 23 87 21 88 20 89 22 90 24 91 28 92 25 93 27 94 29 95 26 96
REMARK H PARENT 3 6 86 24 54 35 7 75
REMARK Flexibility Score: inf
ROOT
ATOM      1  C   UNL A   1      31.785  31.089  26.792  1.00  0.00     0.042 C 
ENDROOT
BRANCH   1   2
ATOM      2  C   UNL A   1      32.908  32.113  26.876  1.00  0.00     0.118 C 
BRANCH   2   3
ATOM      3  N   UNL A   1      32.541  33.450  27.316  1.00  0.00    -0.352 N 
ATOM      4  O   UNL A   1      32.708  35.356  28.519  1.00  0.00    -0.269 OA
ATOM      5  C   UNL A   1      33.145  34.236  28.275  1.00  0.00     0.251 C 
ATOM      6  H   UNL A   1      31.758  33.846  26.870  1.00  0.00     0.163 HD
BRANCH   5   7
ATOM      7  C   UNL A   1      34.291  33.696  29.037  1.00  0.00     0.039 A 
ATOM      8  C   UNL A   1      35.591  34.121  28.760  1.00  0.00     0.014 A 
ATOM      9  C   UNL A   1      34.064  32.703  29.995  1.00  0.00     0.014 A 
ATOM     10  C   UNL A   1      36.669  33.430  29.303  1.00  0.00     0.010 A 
ATOM     11  C   UNL A   1      35.151  32.081  30.618  1.00  0.00     0.010 A 
ATOM     12  C   UNL A   1      36.464  32.412  30.250  1.00  0.00    -0.014 A 
BRANCH  12  13
ATOM     13  C   UNL A   1      37.640  31.758  30.884  1.00  0.00     0.031 A 
ATOM     14  C   UNL A   1      38.469  30.741  30.143  1.00  0.00     0.074 A 
ATOM     15  C   UNL A   1      37.969  32.108  32.145  1.00  0.00     0.049 A 
ATOM     16  N   UNL A   1      39.508  30.064  30.562  1.00  0.00    -0.248 NA
ATOM     17  C   UNL A   1      38.078  30.440  28.759  1.00  0.00     0.031 C 
ATOM     18  C   UNL A   1      37.240  33.087  32.959  1.00  0.00     0.029 A 
ATOM     19  N   UNL A   1      38.995  31.702  32.957  1.00  0.00    -0.354 N 
ATOM     20  C   UNL A   1      39.888  29.245  29.503  1.00  0.00     0.074 A 
ATOM     21  C   UNL A   1      38.944  29.490  28.432  1.00  0.00     0.031 C 
ATOM     22  C   UNL A   1      37.867  33.234  34.134  1.00  0.00     0.029 A 
ATOM     23  C   UNL A   1      38.984  32.302  34.195  1.00  0.00     0.049 A 
ATOM     24  H   UNL A   1      39.673  31.043  32.683  1.00  0.00     0.167 HD
ATOM     25  C   UNL A   1      40.929  28.376  29.435  1.00  0.00     0.034 A 
ATOM     26  C   UNL A   1      39.762  32.102  35.277  1.00  0.00     0.034 A 
ATOM     27  C   UNL A   1      41.858  28.146  30.518  1.00  0.00     0.049 A 
ATOM     28  C   UNL A   1      40.867  31.085  35.193  1.00  0.00     0.074 A 
ATOM     29  C   UNL A   1      42.964  27.312  30.540  1.00  0.00     0.029 A 
ATOM     30  N   UNL A   1      41.788  28.737  31.773  1.00  0.00    -0.354 N 
ATOM     31  N   UNL A   1      41.222  30.333  34.176  1.00  0.00    -0.248 NA
ATOM     32  C   UNL A   1      41.680  30.891  36.399  1.00  0.00     0.031 C 
ATOM     33  C   UNL A   1      43.508  27.334  31.828  1.00  0.00     0.029 A 
ATOM     34  C   UNL A   1      42.804  28.256  32.586  1.00  0.00     0.049 A 
ATOM     35  H   UNL A   1      41.114  29.401  32.047  1.00  0.00     0.167 HD
ATOM     36  C   UNL A   1      42.321  29.600  34.615  1.00  0.00     0.074 A 
ATOM     37  C   UNL A   1      42.580  30.015  35.977  1.00  0.00     0.031 C 
ATOM     38  C   UNL A   1      43.050  28.669  33.948  1.00  0.00     0.034 A 
BRANCH  25  39
ATOM     39  C   UNL A   1      41.096  27.572  28.165  1.00  0.00     0.023 A 
ATOM     40  C   UNL A   1      40.736  26.216  28.089  1.00  0.00     0.031 A 
ATOM     41  C   UNL A   1      41.612  28.180  27.005  1.00  0.00     0.131 A 
ATOM     42  C   UNL A   1      40.948  25.499  26.899  1.00  0.00     0.055 A 
ATOM     43  C   UNL A   1      41.747  27.482  25.802  1.00  0.00     0.041 A 
ATOM     44  F   UNL A   1      41.994  29.467  27.020  1.00  0.00    -0.206 F 
ATOM     45  C   UNL A   1      41.425  26.130  25.747  1.00  0.00     0.022 A 
BRANCH  42  46
ATOM     46  S   UNL A   1      40.714  23.700  26.916  1.00  0.00     0.124 S 
ATOM     47  O   UNL A   1      41.053  23.370  28.299  1.00  0.00    -0.237 OA
ATOM     48  O   UNL A   1      39.308  23.562  26.554  1.00  0.00    -0.237 OA
ATOM     49  O   UNL A   1      41.666  23.220  25.918  1.00  0.00    -0.744 OA
ENDBRANCH  42  46
ENDBRANCH  25  39
BRANCH  26  50
ATOM     50  C   UNL A   1      39.495  32.843  36.544  1.00  0.00     0.023 A 
ATOM     51  C   UNL A   1      38.615  32.332  37.509  1.00  0.00     0.031 A 
ATOM     52  C   UNL A   1      40.082  34.099  36.785  1.00  0.00     0.131 A 
ATOM     53  C   UNL A   1      38.301  33.099  38.641  1.00  0.00     0.055 A 
ATOM     54  C   UNL A   1      39.823  34.825  37.947  1.00  0.00     0.041 A 
ATOM     55  F   UNL A   1      40.933  34.635  35.895  1.00  0.00    -0.206 F 
ATOM     56  C   UNL A   1      38.913  34.333  38.877  1.00  0.00     0.022 A 
BRANCH  53  57
ATOM     57  S   UNL A   1      36.993  32.507  39.748  1.00  0.00     0.124 S 
ATOM     58  O   UNL A   1      37.092  33.453  40.854  1.00  0.00    -0.237 OA
ATOM     59  O   UNL A   1      35.808  32.626  38.906  1.00  0.00    -0.237 OA
ATOM     60  O   UNL A   1      37.403  31.138  40.056  1.00  0.00    -0.744 OA
ENDBRANCH  53  57
ENDBRANCH  26  50
BRANCH  38  61
ATOM     61  C   UNL A   1      44.235  28.080  34.676  1.00  0.00     0.023 A 
ATOM     62  C   UNL A   1      44.132  26.898  35.432  1.00  0.00     0.031 A 
ATOM     63  C   UNL A   1      45.484  28.726  34.628  1.00  0.00     0.131 A 
ATOM     64  C   UNL A   1      45.238  26.436  36.160  1.00  0.00     0.055 A 
ATOM     65  C   UNL A   1      46.598  28.222  35.298  1.00  0.00     0.041 A 
ATOM     66  F   UNL A   1      45.640  29.861  33.929  1.00  0.00    -0.206 F 
ATOM     67  C   UNL A   1      46.476  27.079  36.082  1.00  0.00     0.022 A 
BRANCH  64  68
ATOM     68  S   UNL A   1      45.010  25.043  37.299  1.00  0.00     0.124 S 
ATOM     69  O   UNL A   1      44.239  25.655  38.375  1.00  0.00    -0.237 OA
ATOM     70  O   UNL A   1      44.295  24.077  36.471  1.00  0.00    -0.237 OA
ATOM     71  O   UNL A   1      46.377  24.663  37.654  1.00  0.00    -0.744 OA
ENDBRANCH  64  68
ENDBRANCH  38  61
ENDBRANCH  12  13
ENDBRANCH   5   7
ENDBRANCH   2   3
ENDBRANCH   1   2
BRANCH   1  72
ATOM     72  C   UNL A   1      32.077  29.735  26.174  1.00  0.00     0.117 C 
BRANCH  72  73
ATOM     73  N   UNL A   1      32.807  29.767  24.925  1.00  0.00    -0.354 N 
ATOM     74  C   UNL A   1      32.903  28.818  23.946  1.00  0.00     0.242 C 
ATOM     75  H   UNL A   1      33.309  30.597  24.753  1.00  0.00     0.163 HD
ATOM     76  O   UNL A   1      33.396  29.159  22.869  1.00  0.00    -0.273 OA
BRANCH  74  77
ATOM     77  C   UNL A   1      32.342  27.396  24.165  1.00  0.00     0.174 C 
ATOM     78  C   UNL A   1      30.920  27.477  24.728  1.00  0.00     0.037 C 
ATOM     79  N   UNL A   1      32.092  26.732  22.875  1.00  0.00    -0.329 N 
ATOM     80  C   UNL A   1      30.097  27.846  23.497  1.00  0.00     0.024 C 
ATOM     81  C   UNL A   1      30.768  27.066  22.376  1.00  0.00     0.120 C 
BRANCH  79  82
ATOM     82  C   UNL A   1      32.878  25.862  22.162  1.00  0.00     0.243 C 
ATOM     83  O   UNL A   1      33.653  26.281  21.294  1.00  0.00    -0.273 OA
BRANCH  82  84
ATOM     84  C   UNL A   1      32.723  24.361  22.367  1.00  0.00     0.228 C 
BRANCH  84  85
ATOM     85  N   UNL A   1      33.056  23.886  23.696  1.00  0.00    -0.273 N 
ATOM     86  C   UNL A   1      32.127  23.779  24.692  1.00  0.00     0.234 C 
ATOM     87  C   UNL A   1      34.346  23.777  24.149  1.00  0.00     0.234 C 
ATOM     88  C   UNL A   1      32.827  23.570  25.997  1.00  0.00     0.099 C 
ATOM     89  O   UNL A   1      30.914  23.923  24.588  1.00  0.00    -0.274 OA
ATOM     90  C   UNL A   1      34.326  23.740  25.662  1.00  0.00     0.099 C 
ATOM     91  O   UNL A   1      35.353  23.783  23.462  1.00  0.00    -0.274 OA
ATOM     92  C   UNL A   1      32.775  22.200  26.692  1.00  0.00     0.025 C 
ATOM     93  C   UNL A   1      34.976  22.540  26.375  1.00  0.00     0.025 C 
ATOM     94  C   UNL A   1      33.295  21.079  25.830  1.00  0.00    -0.027 C 
ATOM     95  C   UNL A   1      34.029  22.351  27.575  1.00  0.00     0.017 C 
ATOM     96  C   UNL A   1      34.611  21.269  25.668  1.00  0.00    -0.027 C 
ENDBRANCH  84  85
ENDBRANCH  82  84
ENDBRANCH  79  82
ENDBRANCH  74  77
ENDBRANCH  72  73
ENDBRANCH   1  72
TORSDOF 16
ENDMDL
