MODEL 1
REMARK VINA RESULT:     -13.3      0.000      0.000
REMARK SMILES C[N@@H+]1CCN(C(=O)c2cnn3c2CCCC3)C[C@@H]1C(=O)NCCCNC(=O)c1ccc(-c2c3nc(c(-c4cc(S(=O)(=O)[O-])ccc4F)c4ccc([nH]4)c(-c4cc(S(=O)(=O)[O-])ccc4F)c4nc(c(-c5cc(S(=O)(=O)[O-])ccc5F)c5ccc2[nH]5)C=C4)C=C3)cc1
REMARK SMILES IDX 23 1 22 2 21 3 19 4 20 5 18 7 1 8 2 9 3 10 4 12 17 13 5 14
REMARK SMILES IDX 6 15 7 16 8 17 9 18 12 19 10 20 11 21 13 22 16 23 14 24
REMARK SMILES IDX 15 25 24 26 25 27 26 28 27 30 28 31 29 32 90 33 30 34 89 35
REMARK SMILES IDX 31 36 32 37 33 38 83 39 34 40 88 41 82 42 84 43 35 44 87 45
REMARK SMILES IDX 81 46 80 47 36 49 68 50 48 51 67 52 49 53 52 54 66 55 85 56
REMARK SMILES IDX 50 57 51 58 65 60 86 61 53 62 37 63 38 64 46 65 39 66 45 67
REMARK SMILES IDX 47 68 44 69 40 70 41 71 42 72 43 73 69 74 70 75 78 76 71 77
REMARK SMILES IDX 77 78 79 79 76 80 72 81 73 82 74 83 75 84 54 85 55 86 63 87
REMARK SMILES IDX 56 88 62 89 64 90 61 91 57 92 58 93 59 94 60 95
REMARK H PARENT 21 6 2 11 25 29 84 48 52 59
REMARK Flexibility Score: inf
ROOT
ATOM      1  C   UNL A   1      34.439  28.864  27.271  1.00  0.00     0.042 C 
ENDROOT
BRANCH   1   2
ATOM      2  C   UNL A   1      33.011  29.420  27.278  1.00  0.00     0.118 C 
BRANCH   2   3
ATOM      3  N   UNL A   1      31.983  28.393  27.235  1.00  0.00    -0.351 N 
ATOM      4  C   UNL A   1      31.613  27.520  26.251  1.00  0.00     0.280 C 
ATOM      5  O   UNL A   1      30.781  26.665  26.565  1.00  0.00    -0.268 OA
ATOM      6  H   UNL A   1      31.457  28.312  28.063  1.00  0.00     0.163 HD
BRANCH   4   7
ATOM      7  C   UNL A   1      32.210  27.613  24.827  1.00  0.00     0.293 C 
ATOM      8  C   UNL A   1      30.523  29.211  23.983  1.00  0.00     0.333 C 
ATOM      9  N   UNL A   1      31.204  27.945  23.773  1.00  0.00    -0.324 N 
ATOM     10  C   UNL A   1      30.228  26.851  23.597  1.00  0.00     0.284 C 
ATOM     11  H   UNL A   1      31.741  28.055  22.914  1.00  0.00     0.348 HD
ATOM     12  C   UNL A   1      30.914  25.525  23.237  1.00  0.00     0.181 C 
ATOM     13  C   UNL A   1      32.912  26.271  24.484  1.00  0.00     0.195 C 
ATOM     14  N   UNL A   1      31.975  25.180  24.177  1.00  0.00    -0.326 N 
BRANCH  14  15
ATOM     15  C   UNL A   1      32.094  23.854  24.579  1.00  0.00     0.257 C 
ATOM     16  O   UNL A   1      31.287  22.993  24.230  1.00  0.00    -0.269 OA
BRANCH  15  17
ATOM     17  C   UNL A   1      33.275  23.474  25.326  1.00  0.00     0.081 A 
ATOM     18  C   UNL A   1      33.479  23.298  26.714  1.00  0.00     0.149 A 
ATOM     19  C   UNL A   1      34.487  23.123  24.762  1.00  0.00     0.051 A 
ATOM     20  N   UNL A   1      34.739  22.950  27.011  1.00  0.00    -0.180 NA
ATOM     21  N   UNL A   1      35.307  22.796  25.804  1.00  0.00    -0.269 N 
ATOM     22  C   UNL A   1      34.926  23.022  23.345  1.00  0.00     0.057 C 
ATOM     23  C   UNL A   1      36.694  22.392  25.678  1.00  0.00     0.144 C 
ATOM     24  C   UNL A   1      36.451  22.958  23.231  1.00  0.00     0.008 C 
ATOM     25  C   UNL A   1      37.034  21.971  24.246  1.00  0.00     0.024 C 
ENDBRANCH  15  17
ENDBRANCH  14  15
ENDBRANCH   4   7
ENDBRANCH   2   3
ENDBRANCH   1   2
BRANCH   1  26
ATOM     26  C   UNL A   1      35.492  29.878  27.679  1.00  0.00     0.118 C 
BRANCH  26  27
ATOM     27  N   UNL A   1      35.518  30.136  29.116  1.00  0.00    -0.352 N 
ATOM     28  C   UNL A   1      36.410  29.617  30.044  1.00  0.00     0.251 C 
ATOM     29  H   UNL A   1      34.828  30.745  29.464  1.00  0.00     0.163 HD
ATOM     30  O   UNL A   1      36.125  29.592  31.227  1.00  0.00    -0.269 OA
BRANCH  28  31
ATOM     31  C   UNL A   1      37.703  29.095  29.552  1.00  0.00     0.039 A 
ATOM     32  C   UNL A   1      38.328  29.626  28.421  1.00  0.00     0.014 A 
ATOM     33  C   UNL A   1      38.305  28.075  30.282  1.00  0.00     0.014 A 
ATOM     34  C   UNL A   1      39.602  29.170  28.081  1.00  0.00     0.010 A 
ATOM     35  C   UNL A   1      39.616  27.752  30.049  1.00  0.00     0.010 A 
ATOM     36  C   UNL A   1      40.248  28.241  28.913  1.00  0.00    -0.014 A 
BRANCH  36  37
ATOM     37  C   UNL A   1      41.632  27.834  28.679  1.00  0.00     0.031 A 
ATOM     38  C   UNL A   1      41.784  26.559  27.927  1.00  0.00     0.074 A 
ATOM     39  C   UNL A   1      42.676  28.670  28.884  1.00  0.00     0.049 A 
ATOM     40  N   UNL A   1      42.262  25.436  28.350  1.00  0.00    -0.248 NA
ATOM     41  C   UNL A   1      41.189  26.472  26.582  1.00  0.00     0.031 C 
ATOM     42  C   UNL A   1      42.640  30.079  29.298  1.00  0.00     0.029 A 
ATOM     43  N   UNL A   1      43.998  28.475  28.634  1.00  0.00    -0.354 N 
ATOM     44  C   UNL A   1      42.256  24.574  27.254  1.00  0.00     0.074 A 
ATOM     45  C   UNL A   1      41.392  25.187  26.284  1.00  0.00     0.031 C 
ATOM     46  C   UNL A   1      43.828  30.665  29.029  1.00  0.00     0.029 A 
ATOM     47  C   UNL A   1      44.763  29.640  28.603  1.00  0.00     0.049 A 
ATOM     48  H   UNL A   1      44.385  27.582  28.488  1.00  0.00     0.167 HD
ATOM     49  C   UNL A   1      43.158  23.555  27.152  1.00  0.00     0.034 A 
ATOM     50  C   UNL A   1      46.063  29.767  28.229  1.00  0.00     0.034 A 
ATOM     51  C   UNL A   1      43.803  23.320  28.427  1.00  0.00     0.049 A 
ATOM     52  C   UNL A   1      46.664  28.413  28.331  1.00  0.00     0.074 A 
ATOM     53  C   UNL A   1      43.352  22.982  29.689  1.00  0.00     0.029 A 
ATOM     54  N   UNL A   1      45.071  23.829  28.611  1.00  0.00    -0.354 N 
ATOM     55  N   UNL A   1      46.792  27.771  29.461  1.00  0.00    -0.248 NA
ATOM     56  C   UNL A   1      46.651  27.574  27.142  1.00  0.00     0.031 C 
ATOM     57  C   UNL A   1      44.136  23.777  30.578  1.00  0.00     0.029 A 
ATOM     58  C   UNL A   1      45.083  24.474  29.824  1.00  0.00     0.049 A 
ATOM     59  H   UNL A   1      45.828  23.745  27.988  1.00  0.00     0.167 HD
ATOM     60  C   UNL A   1      46.439  26.461  29.173  1.00  0.00     0.074 A 
ATOM     61  C   UNL A   1      46.457  26.380  27.712  1.00  0.00     0.031 C 
ATOM     62  C   UNL A   1      45.887  25.647  30.121  1.00  0.00     0.034 A 
BRANCH  49  63
ATOM     63  C   UNL A   1      43.741  23.016  25.858  1.00  0.00     0.023 A 
ATOM     64  C   UNL A   1      43.734  21.615  25.691  1.00  0.00     0.031 A 
ATOM     65  C   UNL A   1      44.537  23.731  24.936  1.00  0.00     0.131 A 
ATOM     66  C   UNL A   1      44.575  20.988  24.756  1.00  0.00     0.055 A 
ATOM     67  C   UNL A   1      45.322  23.104  23.961  1.00  0.00     0.041 A 
ATOM     68  F   UNL A   1      44.676  25.059  24.969  1.00  0.00    -0.206 F 
ATOM     69  C   UNL A   1      45.374  21.724  23.890  1.00  0.00     0.022 A 
BRANCH  66  70
ATOM     70  S   UNL A   1      44.745  19.186  24.827  1.00  0.00     0.124 S 
ATOM     71  O   UNL A   1      43.473  18.796  25.427  1.00  0.00    -0.237 OA
ATOM     72  O   UNL A   1      44.927  18.846  23.420  1.00  0.00    -0.237 OA
ATOM     73  O   UNL A   1      45.919  18.991  25.674  1.00  0.00    -0.744 OA
ENDBRANCH  66  70
ENDBRANCH  49  63
BRANCH  50  74
ATOM     74  C   UNL A   1      46.683  30.904  27.488  1.00  0.00     0.023 A 
ATOM     75  C   UNL A   1      45.942  31.969  26.930  1.00  0.00     0.031 A 
ATOM     76  C   UNL A   1      48.087  31.064  27.524  1.00  0.00     0.131 A 
ATOM     77  C   UNL A   1      46.607  33.121  26.437  1.00  0.00     0.055 A 
ATOM     78  C   UNL A   1      48.738  32.199  27.034  1.00  0.00     0.041 A 
ATOM     79  F   UNL A   1      48.873  30.148  28.115  1.00  0.00    -0.206 F 
ATOM     80  C   UNL A   1      47.998  33.238  26.494  1.00  0.00     0.022 A 
BRANCH  77  81
ATOM     81  S   UNL A   1      45.659  34.530  25.770  1.00  0.00     0.124 S 
ATOM     82  O   UNL A   1      45.177  34.010  24.496  1.00  0.00    -0.237 OA
ATOM     83  O   UNL A   1      44.654  34.746  26.805  1.00  0.00    -0.237 OA
ATOM     84  O   UNL A   1      46.657  35.595  25.659  1.00  0.00    -0.744 OA
ENDBRANCH  77  81
ENDBRANCH  50  74
BRANCH  62  85
ATOM     85  C   UNL A   1      45.933  26.075  31.574  1.00  0.00     0.023 A 
ATOM     86  C   UNL A   1      44.838  26.579  32.314  1.00  0.00     0.031 A 
ATOM     87  C   UNL A   1      47.121  25.798  32.273  1.00  0.00     0.131 A 
ATOM     88  C   UNL A   1      44.964  26.779  33.705  1.00  0.00     0.055 A 
ATOM     89  C   UNL A   1      47.234  25.975  33.650  1.00  0.00     0.041 A 
ATOM     90  F   UNL A   1      48.187  25.294  31.629  1.00  0.00    -0.206 F 
ATOM     91  C   UNL A   1      46.155  26.468  34.372  1.00  0.00     0.022 A 
BRANCH  88  92
ATOM     92  S   UNL A   1      43.580  27.447  34.688  1.00  0.00     0.124 S 
ATOM     93  O   UNL A   1      42.540  27.680  33.694  1.00  0.00    -0.237 OA
ATOM     94  O   UNL A   1      43.323  26.376  35.646  1.00  0.00    -0.237 OA
ATOM     95  O   UNL A   1      44.138  28.666  35.279  1.00  0.00    -0.744 OA
ENDBRANCH  88  92
ENDBRANCH  62  85
ENDBRANCH  36  37
ENDBRANCH  28  31
ENDBRANCH  26  27
ENDBRANCH   1  26
TORSDOF 15
ENDMDL
MODEL 2
REMARK VINA RESULT:     -13.1      2.519      6.980
REMARK SMILES C[N@@H+]1CCN(C(=O)c2cnn3c2CCCC3)C[C@@H]1C(=O)NCCCNC(=O)c1ccc(-c2c3nc(c(-c4cc(S(=O)(=O)[O-])ccc4F)c4ccc([nH]4)c(-c4cc(S(=O)(=O)[O-])ccc4F)c4nc(c(-c5cc(S(=O)(=O)[O-])ccc5F)c5ccc2[nH]5)C=C4)C=C3)cc1
REMARK SMILES IDX 23 1 22 2 21 3 19 4 20 5 18 7 1 8 2 9 3 10 4 12 17 13 5 14
REMARK SMILES IDX 6 15 7 16 8 17 9 18 12 19 10 20 11 21 13 22 16 23 14 24
REMARK SMILES IDX 15 25 24 26 25 27 26 28 27 30 28 31 29 32 90 33 30 34 89 35
REMARK SMILES IDX 31 36 32 37 33 38 83 39 34 40 88 41 82 42 84 43 35 44 87 45
REMARK SMILES IDX 81 46 80 47 36 49 68 50 48 51 67 52 49 53 52 54 66 55 85 56
REMARK SMILES IDX 50 57 51 58 65 60 86 61 53 62 37 63 38 64 46 65 39 66 45 67
REMARK SMILES IDX 47 68 44 69 40 70 41 71 42 72 43 73 69 74 70 75 78 76 71 77
REMARK SMILES IDX 77 78 79 79 76 80 72 81 73 82 74 83 75 84 54 85 55 86 63 87
REMARK SMILES IDX 56 88 62 89 64 90 61 91 57 92 58 93 59 94 60 95
REMARK H PARENT 21 6 2 11 25 29 84 48 52 59
REMARK Flexibility Score: inf
ROOT
ATOM      1  C   UNL A   1      34.426  30.305  27.498  1.00  0.00     0.042 C 
ENDROOT
BRANCH   1   2
ATOM      2  C   UNL A   1      32.976  30.435  27.022  1.00  0.00     0.118 C 
BRANCH   2   3
ATOM      3  N   UNL A   1      32.114  29.351  27.466  1.00  0.00    -0.351 N 
ATOM      4  C   UNL A   1      31.859  28.118  26.934  1.00  0.00     0.280 C 
ATOM      5  O   UNL A   1      31.173  27.358  27.623  1.00  0.00    -0.268 OA
ATOM      6  H   UNL A   1      31.626  29.538  28.300  1.00  0.00     0.163 HD
BRANCH   4   7
ATOM      7  C   UNL A   1      32.402  27.715  25.543  1.00  0.00     0.293 C 
ATOM      8  C   UNL A   1      30.710  28.985  24.266  1.00  0.00     0.333 C 
ATOM      9  N   UNL A   1      31.362  27.704  24.470  1.00  0.00    -0.324 N 
ATOM     10  C   UNL A   1      30.363  26.641  24.700  1.00  0.00     0.284 C 
ATOM     11  H   UNL A   1      31.868  27.506  23.608  1.00  0.00     0.348 HD
ATOM     12  C   UNL A   1      31.014  25.253  24.784  1.00  0.00     0.181 C 
ATOM     13  C   UNL A   1      33.069  26.317  25.647  1.00  0.00     0.195 C 
ATOM     14  N   UNL A   1      32.105  25.211  25.751  1.00  0.00    -0.326 N 
BRANCH  14  15
ATOM     15  C   UNL A   1      32.217  24.093  26.569  1.00  0.00     0.257 C 
ATOM     16  O   UNL A   1      31.379  23.826  27.428  1.00  0.00    -0.269 OA
BRANCH  15  17
ATOM     17  C   UNL A   1      33.296  23.163  26.302  1.00  0.00     0.081 A 
ATOM     18  C   UNL A   1      34.637  23.141  26.750  1.00  0.00     0.149 A 
ATOM     19  C   UNL A   1      33.173  22.003  25.559  1.00  0.00     0.051 A 
ATOM     20  N   UNL A   1      35.329  22.104  26.261  1.00  0.00    -0.180 NA
ATOM     21  N   UNL A   1      34.399  21.404  25.591  1.00  0.00    -0.269 N 
ATOM     22  C   UNL A   1      32.007  21.390  24.869  1.00  0.00     0.057 C 
ATOM     23  C   UNL A   1      34.739  20.167  24.916  1.00  0.00     0.144 C 
ATOM     24  C   UNL A   1      32.445  20.311  23.876  1.00  0.00     0.008 C 
ATOM     25  C   UNL A   1      33.490  19.384  24.502  1.00  0.00     0.024 C 
ENDBRANCH  15  17
ENDBRANCH  14  15
ENDBRANCH   4   7
ENDBRANCH   2   3
ENDBRANCH   1   2
BRANCH   1  26
ATOM     26  C   UNL A   1      35.147  31.634  27.634  1.00  0.00     0.118 C 
BRANCH  26  27
ATOM     27  N   UNL A   1      34.998  32.238  28.956  1.00  0.00    -0.352 N 
ATOM     28  C   UNL A   1      35.686  31.900  30.113  1.00  0.00     0.251 C 
ATOM     29  H   UNL A   1      34.339  32.964  29.034  1.00  0.00     0.163 HD
ATOM     30  O   UNL A   1      35.236  32.191  31.206  1.00  0.00    -0.269 OA
BRANCH  28  31
ATOM     31  C   UNL A   1      36.968  31.177  29.975  1.00  0.00     0.039 A 
ATOM     32  C   UNL A   1      38.186  31.853  29.868  1.00  0.00     0.014 A 
ATOM     33  C   UNL A   1      36.929  29.786  29.999  1.00  0.00     0.014 A 
ATOM     34  C   UNL A   1      39.368  31.112  29.863  1.00  0.00     0.010 A 
ATOM     35  C   UNL A   1      38.087  29.074  30.165  1.00  0.00     0.010 A 
ATOM     36  C   UNL A   1      39.310  29.718  30.029  1.00  0.00    -0.014 A 
BRANCH  36  37
ATOM     37  C   UNL A   1      40.521  28.912  30.168  1.00  0.00     0.031 A 
ATOM     38  C   UNL A   1      40.915  28.624  31.574  1.00  0.00     0.074 A 
ATOM     39  C   UNL A   1      41.078  28.258  29.123  1.00  0.00     0.049 A 
ATOM     40  N   UNL A   1      41.959  29.039  32.210  1.00  0.00    -0.248 NA
ATOM     41  C   UNL A   1      39.951  27.913  32.432  1.00  0.00     0.031 C 
ATOM     42  C   UNL A   1      40.589  28.177  27.740  1.00  0.00     0.029 A 
ATOM     43  N   UNL A   1      42.140  27.409  29.105  1.00  0.00    -0.354 N 
ATOM     44  C   UNL A   1      41.912  28.440  33.468  1.00  0.00     0.074 A 
ATOM     45  C   UNL A   1      40.566  27.958  33.616  1.00  0.00     0.031 C 
ATOM     46  C   UNL A   1      41.191  27.148  27.102  1.00  0.00     0.029 A 
ATOM     47  C   UNL A   1      42.235  26.620  27.960  1.00  0.00     0.049 A 
ATOM     48  H   UNL A   1      42.790  27.355  29.842  1.00  0.00     0.167 HD
ATOM     49  C   UNL A   1      43.052  28.182  34.172  1.00  0.00     0.034 A 
ATOM     50  C   UNL A   1      43.089  25.587  27.734  1.00  0.00     0.034 A 
ATOM     51  C   UNL A   1      44.170  28.909  33.609  1.00  0.00     0.049 A 
ATOM     52  C   UNL A   1      44.211  25.753  28.692  1.00  0.00     0.074 A 
ATOM     53  C   UNL A   1      44.440  30.247  33.390  1.00  0.00     0.029 A 
ATOM     54  N   UNL A   1      45.045  28.217  32.798  1.00  0.00    -0.354 N 
ATOM     55  N   UNL A   1      45.034  26.767  28.661  1.00  0.00    -0.248 NA
ATOM     56  C   UNL A   1      44.111  25.079  29.978  1.00  0.00     0.031 C 
ATOM     57  C   UNL A   1      45.069  30.283  32.109  1.00  0.00     0.029 A 
ATOM     58  C   UNL A   1      45.239  28.969  31.666  1.00  0.00     0.049 A 
ATOM     59  H   UNL A   1      45.455  27.345  32.996  1.00  0.00     0.167 HD
ATOM     60  C   UNL A   1      45.213  27.126  29.988  1.00  0.00     0.074 A 
ATOM     61  C   UNL A   1      44.700  25.992  30.757  1.00  0.00     0.031 C 
ATOM     62  C   UNL A   1      45.489  28.416  30.346  1.00  0.00     0.034 A 
BRANCH  49  63
ATOM     63  C   UNL A   1      43.262  27.014  35.118  1.00  0.00     0.023 A 
ATOM     64  C   UNL A   1      44.040  25.938  34.639  1.00  0.00     0.031 A 
ATOM     65  C   UNL A   1      42.544  26.758  36.306  1.00  0.00     0.131 A 
ATOM     66  C   UNL A   1      43.978  24.669  35.240  1.00  0.00     0.055 A 
ATOM     67  C   UNL A   1      42.540  25.511  36.941  1.00  0.00     0.041 A 
ATOM     68  F   UNL A   1      41.740  27.658  36.881  1.00  0.00    -0.206 F 
ATOM     69  C   UNL A   1      43.229  24.446  36.389  1.00  0.00     0.022 A 
BRANCH  66  70
ATOM     70  S   UNL A   1      44.746  23.273  34.379  1.00  0.00     0.124 S 
ATOM     71  O   UNL A   1      43.915  23.176  33.183  1.00  0.00    -0.237 OA
ATOM     72  O   UNL A   1      46.109  23.756  34.182  1.00  0.00    -0.237 OA
ATOM     73  O   UNL A   1      44.604  22.172  35.328  1.00  0.00    -0.744 OA
ENDBRANCH  66  70
ENDBRANCH  49  63
BRANCH  50  74
ATOM     74  C   UNL A   1      42.805  24.327  26.988  1.00  0.00     0.023 A 
ATOM     75  C   UNL A   1      43.729  23.709  26.116  1.00  0.00     0.031 A 
ATOM     76  C   UNL A   1      41.653  23.577  27.319  1.00  0.00     0.131 A 
ATOM     77  C   UNL A   1      43.479  22.407  25.615  1.00  0.00     0.055 A 
ATOM     78  C   UNL A   1      41.408  22.295  26.820  1.00  0.00     0.041 A 
ATOM     79  F   UNL A   1      40.759  24.039  28.208  1.00  0.00    -0.206 F 
ATOM     80  C   UNL A   1      42.327  21.700  25.970  1.00  0.00     0.022 A 
BRANCH  77  81
ATOM     81  S   UNL A   1      44.693  21.573  24.539  1.00  0.00     0.124 S 
ATOM     82  O   UNL A   1      45.952  21.835  25.225  1.00  0.00    -0.237 OA
ATOM     83  O   UNL A   1      44.223  20.192  24.550  1.00  0.00    -0.237 OA
ATOM     84  O   UNL A   1      44.542  22.258  23.253  1.00  0.00    -0.744 OA
ENDBRANCH  77  81
ENDBRANCH  50  74
BRANCH  62  85
ATOM     85  C   UNL A   1      45.899  29.404  29.273  1.00  0.00     0.023 A 
ATOM     86  C   UNL A   1      45.011  30.116  28.434  1.00  0.00     0.031 A 
ATOM     87  C   UNL A   1      47.261  29.750  29.224  1.00  0.00     0.131 A 
ATOM     88  C   UNL A   1      45.506  31.136  27.593  1.00  0.00     0.055 A 
ATOM     89  C   UNL A   1      47.742  30.773  28.411  1.00  0.00     0.041 A 
ATOM     90  F   UNL A   1      48.150  29.127  30.018  1.00  0.00    -0.206 F 
ATOM     91  C   UNL A   1      46.865  31.469  27.590  1.00  0.00     0.022 A 
BRANCH  88  92
ATOM     92  S   UNL A   1      44.393  32.059  26.481  1.00  0.00     0.124 S 
ATOM     93  O   UNL A   1      43.939  33.174  27.303  1.00  0.00    -0.237 OA
ATOM     94  O   UNL A   1      45.270  32.401  25.364  1.00  0.00    -0.237 OA
ATOM     95  O   UNL A   1      43.351  31.083  26.153  1.00  0.00    -0.744 OA
ENDBRANCH  88  92
ENDBRANCH  62  85
ENDBRANCH  36  37
ENDBRANCH  28  31
ENDBRANCH  26  27
ENDBRANCH   1  26
TORSDOF 15
ENDMDL
MODEL 3
REMARK VINA RESULT:     -13.1      2.394      7.483
REMARK SMILES C[N@@H+]1CCN(C(=O)c2cnn3c2CCCC3)C[C@@H]1C(=O)NCCCNC(=O)c1ccc(-c2c3nc(c(-c4cc(S(=O)(=O)[O-])ccc4F)c4ccc([nH]4)c(-c4cc(S(=O)(=O)[O-])ccc4F)c4nc(c(-c5cc(S(=O)(=O)[O-])ccc5F)c5ccc2[nH]5)C=C4)C=C3)cc1
REMARK SMILES IDX 23 1 22 2 21 3 19 4 20 5 18 7 1 8 2 9 3 10 4 12 17 13 5 14
REMARK SMILES IDX 6 15 7 16 8 17 9 18 12 19 10 20 11 21 13 22 16 23 14 24
REMARK SMILES IDX 15 25 24 26 25 27 26 28 27 30 28 31 29 32 90 33 30 34 89 35
REMARK SMILES IDX 31 36 32 37 33 38 83 39 34 40 88 41 82 42 84 43 35 44 87 45
REMARK SMILES IDX 81 46 80 47 36 49 68 50 48 51 67 52 49 53 52 54 66 55 85 56
REMARK SMILES IDX 50 57 51 58 65 60 86 61 53 62 37 63 38 64 46 65 39 66 45 67
REMARK SMILES IDX 47 68 44 69 40 70 41 71 42 72 43 73 69 74 70 75 78 76 71 77
REMARK SMILES IDX 77 78 79 79 76 80 72 81 73 82 74 83 75 84 54 85 55 86 63 87
REMARK SMILES IDX 56 88 62 89 64 90 61 91 57 92 58 93 59 94 60 95
REMARK H PARENT 21 6 2 11 25 29 84 48 52 59
REMARK Flexibility Score: inf
ROOT
ATOM      1  C   UNL A   1      34.560  30.125  27.637  1.00  0.00     0.042 C 
ENDROOT
BRANCH   1   2
ATOM      2  C   UNL A   1      33.195  30.288  26.961  1.00  0.00     0.118 C 
BRANCH   2   3
ATOM      3  N   UNL A   1      32.213  29.300  27.378  1.00  0.00    -0.351 N 
ATOM      4  C   UNL A   1      31.819  28.119  26.815  1.00  0.00     0.280 C 
ATOM      5  O   UNL A   1      31.049  27.426  27.485  1.00  0.00    -0.268 OA
ATOM      6  H   UNL A   1      31.748  29.521  28.217  1.00  0.00     0.163 HD
BRANCH   4   7
ATOM      7  C   UNL A   1      32.315  27.690  25.414  1.00  0.00     0.293 C 
ATOM      8  C   UNL A   1      30.609  28.977  24.171  1.00  0.00     0.333 C 
ATOM      9  N   UNL A   1      31.245  27.686  24.372  1.00  0.00    -0.324 N 
ATOM     10  C   UNL A   1      30.235  26.644  24.642  1.00  0.00     0.284 C 
ATOM     11  H   UNL A   1      31.722  27.469  23.497  1.00  0.00     0.348 HD
ATOM     12  C   UNL A   1      30.863  25.245  24.723  1.00  0.00     0.181 C 
ATOM     13  C   UNL A   1      32.960  26.282  25.515  1.00  0.00     0.195 C 
ATOM     14  N   UNL A   1      31.980  25.195  25.660  1.00  0.00    -0.326 N 
BRANCH  14  15
ATOM     15  C   UNL A   1      32.097  24.084  26.487  1.00  0.00     0.257 C 
ATOM     16  O   UNL A   1      31.239  23.799  27.321  1.00  0.00    -0.269 OA
BRANCH  15  17
ATOM     17  C   UNL A   1      33.207  23.181  26.258  1.00  0.00     0.081 A 
ATOM     18  C   UNL A   1      34.551  23.232  26.697  1.00  0.00     0.149 A 
ATOM     19  C   UNL A   1      33.123  21.982  25.576  1.00  0.00     0.051 A 
ATOM     20  N   UNL A   1      35.278  22.197  26.255  1.00  0.00    -0.180 NA
ATOM     21  N   UNL A   1      34.371  21.430  25.628  1.00  0.00    -0.269 N 
ATOM     22  C   UNL A   1      31.977  21.293  24.925  1.00  0.00     0.057 C 
ATOM     23  C   UNL A   1      34.753  20.174  25.013  1.00  0.00     0.144 C 
ATOM     24  C   UNL A   1      32.448  20.183  23.984  1.00  0.00     0.008 C 
ATOM     25  C   UNL A   1      33.531  19.327  24.648  1.00  0.00     0.024 C 
ENDBRANCH  15  17
ENDBRANCH  14  15
ENDBRANCH   4   7
ENDBRANCH   2   3
ENDBRANCH   1   2
BRANCH   1  26
ATOM     26  C   UNL A   1      35.315  31.431  27.814  1.00  0.00     0.118 C 
BRANCH  26  27
ATOM     27  N   UNL A   1      35.154  32.014  29.143  1.00  0.00    -0.352 N 
ATOM     28  C   UNL A   1      35.833  31.661  30.300  1.00  0.00     0.251 C 
ATOM     29  H   UNL A   1      34.493  32.737  29.227  1.00  0.00     0.163 HD
ATOM     30  O   UNL A   1      35.374  31.934  31.394  1.00  0.00    -0.269 OA
BRANCH  28  31
ATOM     31  C   UNL A   1      37.119  30.942  30.162  1.00  0.00     0.039 A 
ATOM     32  C   UNL A   1      38.331  31.624  30.025  1.00  0.00     0.014 A 
ATOM     33  C   UNL A   1      37.088  29.552  30.217  1.00  0.00     0.014 A 
ATOM     34  C   UNL A   1      39.517  30.889  30.021  1.00  0.00     0.010 A 
ATOM     35  C   UNL A   1      38.253  28.851  30.384  1.00  0.00     0.010 A 
ATOM     36  C   UNL A   1      39.470  29.499  30.218  1.00  0.00    -0.014 A 
BRANCH  36  37
ATOM     37  C   UNL A   1      40.688  28.704  30.359  1.00  0.00     0.031 A 
ATOM     38  C   UNL A   1      41.103  28.452  31.767  1.00  0.00     0.074 A 
ATOM     39  C   UNL A   1      41.234  28.027  29.323  1.00  0.00     0.049 A 
ATOM     40  N   UNL A   1      42.154  28.888  32.378  1.00  0.00    -0.248 NA
ATOM     41  C   UNL A   1      40.156  27.757  32.655  1.00  0.00     0.031 C 
ATOM     42  C   UNL A   1      40.727  27.910  27.950  1.00  0.00     0.029 A 
ATOM     43  N   UNL A   1      42.301  27.184  29.311  1.00  0.00    -0.354 N 
ATOM     44  C   UNL A   1      42.127  28.320  33.650  1.00  0.00     0.074 A 
ATOM     45  C   UNL A   1      40.787  27.834  33.829  1.00  0.00     0.031 C 
ATOM     46  C   UNL A   1      41.325  26.870  27.329  1.00  0.00     0.029 A 
ATOM     47  C   UNL A   1      42.385  26.368  28.183  1.00  0.00     0.049 A 
ATOM     48  H   UNL A   1      42.962  27.153  30.039  1.00  0.00     0.167 HD
ATOM     49  C   UNL A   1      43.279  28.086  34.344  1.00  0.00     0.034 A 
ATOM     50  C   UNL A   1      43.242  25.335  27.971  1.00  0.00     0.034 A 
ATOM     51  C   UNL A   1      44.384  28.805  33.748  1.00  0.00     0.049 A 
ATOM     52  C   UNL A   1      44.376  25.531  28.908  1.00  0.00     0.074 A 
ATOM     53  C   UNL A   1      44.644  30.139  33.492  1.00  0.00     0.029 A 
ATOM     54  N   UNL A   1      45.252  28.099  32.942  1.00  0.00    -0.354 N 
ATOM     55  N   UNL A   1      45.193  26.549  28.841  1.00  0.00    -0.248 NA
ATOM     56  C   UNL A   1      44.298  24.888  30.212  1.00  0.00     0.031 C 
ATOM     57  C   UNL A   1      45.254  30.148  32.203  1.00  0.00     0.029 A 
ATOM     58  C   UNL A   1      45.426  28.825  31.789  1.00  0.00     0.049 A 
ATOM     59  H   UNL A   1      45.671  27.234  33.155  1.00  0.00     0.167 HD
ATOM     60  C   UNL A   1      45.388  26.941  30.157  1.00  0.00     0.074 A 
ATOM     61  C   UNL A   1      44.892  25.823  30.960  1.00  0.00     0.031 C 
ATOM     62  C   UNL A   1      45.661  28.240  30.480  1.00  0.00     0.034 A 
BRANCH  49  63
ATOM     63  C   UNL A   1      43.510  26.942  35.315  1.00  0.00     0.023 A 
ATOM     64  C   UNL A   1      43.876  27.289  36.633  1.00  0.00     0.031 A 
ATOM     65  C   UNL A   1      43.673  25.580  34.981  1.00  0.00     0.131 A 
ATOM     66  C   UNL A   1      44.487  26.357  37.489  1.00  0.00     0.055 A 
ATOM     67  C   UNL A   1      44.220  24.640  35.861  1.00  0.00     0.041 A 
ATOM     68  F   UNL A   1      43.399  25.088  33.769  1.00  0.00    -0.206 F 
ATOM     69  C   UNL A   1      44.666  25.032  37.110  1.00  0.00     0.022 A 
BRANCH  66  70
ATOM     70  S   UNL A   1      45.217  26.960  39.033  1.00  0.00     0.124 S 
ATOM     71  O   UNL A   1      46.372  26.079  39.173  1.00  0.00    -0.237 OA
ATOM     72  O   UNL A   1      45.502  28.352  38.705  1.00  0.00    -0.237 OA
ATOM     73  O   UNL A   1      44.153  26.753  40.012  1.00  0.00    -0.744 OA
ENDBRANCH  66  70
ENDBRANCH  49  63
BRANCH  50  74
ATOM     74  C   UNL A   1      42.955  24.056  27.259  1.00  0.00     0.023 A 
ATOM     75  C   UNL A   1      43.836  23.466  26.326  1.00  0.00     0.031 A 
ATOM     76  C   UNL A   1      41.863  23.264  27.683  1.00  0.00     0.131 A 
ATOM     77  C   UNL A   1      43.603  22.149  25.857  1.00  0.00     0.055 A 
ATOM     78  C   UNL A   1      41.635  21.968  27.215  1.00  0.00     0.041 A 
ATOM     79  F   UNL A   1      41.020  23.700  28.633  1.00  0.00    -0.206 F 
ATOM     80  C   UNL A   1      42.511  21.400  26.304  1.00  0.00     0.022 A 
BRANCH  77  81
ATOM     81  S   UNL A   1      44.766  21.352  24.699  1.00  0.00     0.124 S 
ATOM     82  O   UNL A   1      46.034  21.451  25.411  1.00  0.00    -0.237 OA
ATOM     83  O   UNL A   1      44.201  20.015  24.562  1.00  0.00    -0.237 OA
ATOM     84  O   UNL A   1      44.674  22.180  23.494  1.00  0.00    -0.744 OA
ENDBRANCH  77  81
ENDBRANCH  50  74
BRANCH  62  85
ATOM     85  C   UNL A   1      46.050  29.205  29.377  1.00  0.00     0.023 A 
ATOM     86  C   UNL A   1      45.145  29.922  28.561  1.00  0.00     0.031 A 
ATOM     87  C   UNL A   1      47.416  29.523  29.273  1.00  0.00     0.131 A 
ATOM     88  C   UNL A   1      45.628  30.920  27.687  1.00  0.00     0.055 A 
ATOM     89  C   UNL A   1      47.886  30.524  28.427  1.00  0.00     0.041 A 
ATOM     90  F   UNL A   1      48.321  28.893  30.042  1.00  0.00    -0.206 F 
ATOM     91  C   UNL A   1      46.993  31.226  27.628  1.00  0.00     0.022 A 
BRANCH  88  92
ATOM     92  S   UNL A   1      44.492  31.849  26.603  1.00  0.00     0.124 S 
ATOM     93  O   UNL A   1      45.312  32.161  25.439  1.00  0.00    -0.237 OA
ATOM     94  O   UNL A   1      43.407  30.896  26.387  1.00  0.00    -0.237 OA
ATOM     95  O   UNL A   1      44.122  33.012  27.414  1.00  0.00    -0.744 OA
ENDBRANCH  88  92
ENDBRANCH  62  85
ENDBRANCH  36  37
ENDBRANCH  28  31
ENDBRANCH  26  27
ENDBRANCH   1  26
TORSDOF 15
ENDMDL
