MODEL 1
REMARK VINA RESULT:     -13.2      0.000      0.000
REMARK SMILES O=C(NCCCNC(=O)C1(C/C=C/c2ccccc2)Cc2ccccc2C1)c1ccc(-c2c3nc(c(-c4cc(S(=O)(=O)[O-])ccc4F)c4ccc([nH]4)c(-c4cc(S(=O)(=O)[O-])ccc4F)c4nc(c(-c5cc(S(=O)(=O)[O-])ccc5F)c5ccc2[nH]5)C=C4)C=C3)cc1
REMARK SMILES IDX 5 1 4 2 3 3 1 4 2 5 28 7 29 8 90 9 30 10 89 11 31 12 32 13
REMARK SMILES IDX 33 14 83 15 34 16 88 17 82 18 84 19 35 20 87 21 81 22 80 23
REMARK SMILES IDX 36 25 68 26 48 27 67 28 49 29 52 30 66 31 85 32 50 33 51 34
REMARK SMILES IDX 65 36 86 37 53 38 37 39 38 40 46 41 39 42 45 43 47 44 44 45
REMARK SMILES IDX 40 46 41 47 42 48 43 49 69 50 70 51 78 52 71 53 77 54 79 55
REMARK SMILES IDX 76 56 72 57 73 58 74 59 75 60 54 61 55 62 63 63 56 64 62 65
REMARK SMILES IDX 64 66 61 67 57 68 58 69 59 70 60 71 6 72 7 73 8 74 9 76
REMARK SMILES IDX 10 77 20 78 27 79 21 80 26 81 22 82 25 83 23 84 24 85 11 86
REMARK SMILES IDX 12 87 13 88 14 89 15 90 19 91 16 92 18 93 17 94
REMARK H PARENT 3 6 84 24 52 35 7 75
REMARK Flexibility Score: inf
ROOT
ATOM      1  C   UNL A   1      32.679  27.853  25.552  1.00  0.00     0.042 C 
ENDROOT
BRANCH   1   2
ATOM      2  C   UNL A   1      33.171  29.236  25.157  1.00  0.00     0.118 C 
BRANCH   2   3
ATOM      3  N   UNL A   1      32.531  30.372  25.794  1.00  0.00    -0.352 N 
ATOM      4  O   UNL A   1      32.315  32.143  27.159  1.00  0.00    -0.269 OA
ATOM      5  C   UNL A   1      32.988  31.168  26.823  1.00  0.00     0.251 C 
ATOM      6  H   UNL A   1      31.643  30.608  25.441  1.00  0.00     0.163 HD
BRANCH   5   7
ATOM      7  C   UNL A   1      34.240  30.846  27.558  1.00  0.00     0.039 A 
ATOM      8  C   UNL A   1      34.528  29.566  28.032  1.00  0.00     0.014 A 
ATOM      9  C   UNL A   1      35.164  31.876  27.786  1.00  0.00     0.014 A 
ATOM     10  C   UNL A   1      35.614  29.354  28.872  1.00  0.00     0.010 A 
ATOM     11  C   UNL A   1      36.313  31.645  28.551  1.00  0.00     0.010 A 
ATOM     12  C   UNL A   1      36.527  30.386  29.125  1.00  0.00    -0.014 A 
BRANCH  12  13
ATOM     13  C   UNL A   1      37.757  30.065  29.886  1.00  0.00     0.031 A 
ATOM     14  C   UNL A   1      37.938  30.505  31.308  1.00  0.00     0.074 A 
ATOM     15  C   UNL A   1      38.684  29.304  29.274  1.00  0.00     0.049 A 
ATOM     16  N   UNL A   1      38.916  30.232  32.132  1.00  0.00    -0.248 NA
ATOM     17  C   UNL A   1      36.891  31.365  31.879  1.00  0.00     0.031 C 
ATOM     18  C   UNL A   1      38.594  28.829  27.890  1.00  0.00     0.029 A 
ATOM     19  N   UNL A   1      39.862  28.774  29.729  1.00  0.00    -0.354 N 
ATOM     20  C   UNL A   1      38.609  30.882  33.322  1.00  0.00     0.074 A 
ATOM     21  C   UNL A   1      37.365  31.591  33.099  1.00  0.00     0.031 C 
ATOM     22  C   UNL A   1      39.644  28.042  27.624  1.00  0.00     0.029 A 
ATOM     23  C   UNL A   1      40.515  28.008  28.792  1.00  0.00     0.049 A 
ATOM     24  H   UNL A   1      40.208  28.927  30.638  1.00  0.00     0.167 HD
ATOM     25  C   UNL A   1      39.304  30.878  34.487  1.00  0.00     0.034 A 
ATOM     26  C   UNL A   1      41.694  27.364  28.858  1.00  0.00     0.034 A 
ATOM     27  C   UNL A   1      40.551  30.171  34.674  1.00  0.00     0.049 A 
ATOM     28  C   UNL A   1      42.461  27.414  30.147  1.00  0.00     0.074 A 
ATOM     29  C   UNL A   1      41.325  30.072  35.819  1.00  0.00     0.029 A 
ATOM     30  N   UNL A   1      41.218  29.455  33.687  1.00  0.00    -0.354 N 
ATOM     31  N   UNL A   1      42.142  28.011  31.274  1.00  0.00    -0.248 NA
ATOM     32  C   UNL A   1      43.741  26.700  30.179  1.00  0.00     0.031 C 
ATOM     33  C   UNL A   1      42.488  29.358  35.504  1.00  0.00     0.029 A 
ATOM     34  C   UNL A   1      42.409  28.945  34.184  1.00  0.00     0.049 A 
ATOM     35  H   UNL A   1      40.892  29.327  32.766  1.00  0.00     0.167 HD
ATOM     36  C   UNL A   1      43.182  27.736  32.153  1.00  0.00     0.074 A 
ATOM     37  C   UNL A   1      44.120  26.895  31.434  1.00  0.00     0.031 C 
ATOM     38  C   UNL A   1      43.348  28.139  33.439  1.00  0.00     0.034 A 
BRANCH  25  39
ATOM     39  C   UNL A   1      38.757  31.696  35.634  1.00  0.00     0.023 A 
ATOM     40  C   UNL A   1      38.153  31.098  36.754  1.00  0.00     0.031 A 
ATOM     41  C   UNL A   1      38.846  33.100  35.607  1.00  0.00     0.131 A 
ATOM     42  C   UNL A   1      37.619  31.900  37.775  1.00  0.00     0.055 A 
ATOM     43  C   UNL A   1      38.371  33.889  36.657  1.00  0.00     0.041 A 
ATOM     44  F   UNL A   1      39.393  33.730  34.556  1.00  0.00    -0.206 F 
ATOM     45  C   UNL A   1      37.744  33.291  37.746  1.00  0.00     0.022 A 
BRANCH  42  46
ATOM     46  S   UNL A   1      36.658  31.105  39.093  1.00  0.00     0.124 S 
ATOM     47  O   UNL A   1      36.366  29.800  38.503  1.00  0.00    -0.237 OA
ATOM     48  O   UNL A   1      37.594  31.105  40.211  1.00  0.00    -0.237 OA
ATOM     49  O   UNL A   1      35.499  31.982  39.250  1.00  0.00    -0.744 OA
ENDBRANCH  42  46
ENDBRANCH  25  39
BRANCH  26  50
ATOM     50  C   UNL A   1      42.220  26.653  27.661  1.00  0.00     0.023 A 
ATOM     51  C   UNL A   1      42.009  25.279  27.477  1.00  0.00     0.031 A 
ATOM     52  C   UNL A   1      42.948  27.349  26.677  1.00  0.00     0.131 A 
ATOM     53  C   UNL A   1      42.544  24.637  26.350  1.00  0.00     0.055 A 
ATOM     54  C   UNL A   1      43.434  26.716  25.534  1.00  0.00     0.041 A 
ATOM     55  F   UNL A   1      43.171  28.667  26.803  1.00  0.00    -0.206 F 
ATOM     56  C   UNL A   1      43.243  25.348  25.371  1.00  0.00     0.022 A 
BRANCH  53  57
ATOM     57  S   UNL A   1      42.371  22.837  26.214  1.00  0.00     0.124 S 
ATOM     58  O   UNL A   1      43.379  22.368  27.158  1.00  0.00    -0.237 OA
ATOM     59  O   UNL A   1      40.981  22.637  26.606  1.00  0.00    -0.237 OA
ATOM     60  O   UNL A   1      42.664  22.574  24.807  1.00  0.00    -0.744 OA
ENDBRANCH  53  57
ENDBRANCH  26  50
BRANCH  38  61
ATOM     61  C   UNL A   1      44.592  27.651  34.134  1.00  0.00     0.023 A 
ATOM     62  C   UNL A   1      44.604  26.441  34.851  1.00  0.00     0.031 A 
ATOM     63  C   UNL A   1      45.765  28.426  34.119  1.00  0.00     0.131 A 
ATOM     64  C   UNL A   1      45.745  26.075  35.582  1.00  0.00     0.055 A 
ATOM     65  C   UNL A   1      46.917  28.025  34.798  1.00  0.00     0.041 A 
ATOM     66  F   UNL A   1      45.807  29.590  33.452  1.00  0.00    -0.206 F 
ATOM     67  C   UNL A   1      46.905  26.852  35.547  1.00  0.00     0.022 A 
BRANCH  64  68
ATOM     68  S   UNL A   1      45.652  24.623  36.664  1.00  0.00     0.124 S 
ATOM     69  O   UNL A   1      46.823  24.803  37.514  1.00  0.00    -0.237 OA
ATOM     70  O   UNL A   1      44.358  24.800  37.316  1.00  0.00    -0.237 OA
ATOM     71  O   UNL A   1      45.727  23.498  35.735  1.00  0.00    -0.744 OA
ENDBRANCH  64  68
ENDBRANCH  38  61
ENDBRANCH  12  13
ENDBRANCH   5   7
ENDBRANCH   2   3
ENDBRANCH   1   2
BRANCH   1  72
ATOM     72  C   UNL A   1      31.765  27.190  24.538  1.00  0.00     0.117 C 
BRANCH  72  73
ATOM     73  N   UNL A   1      32.491  26.783  23.359  1.00  0.00    -0.356 N 
ATOM     74  C   UNL A   1      33.269  25.744  23.011  1.00  0.00     0.227 C 
ATOM     75  H   UNL A   1      32.391  27.430  22.623  1.00  0.00     0.163 HD
ATOM     76  O   UNL A   1      33.775  25.895  21.887  1.00  0.00    -0.274 OA
BRANCH  74  77
ATOM     77  C   UNL A   1      33.637  24.507  23.863  1.00  0.00     0.061 C 
ATOM     78  C   UNL A   1      34.635  23.682  22.943  1.00  0.00     0.053 C 
ATOM     79  C   UNL A   1      34.539  24.975  25.049  1.00  0.00     0.053 C 
ATOM     80  C   UNL A   1      35.681  23.217  23.904  1.00  0.00    -0.044 A 
ATOM     81  C   UNL A   1      35.614  23.929  25.101  1.00  0.00    -0.044 A 
ATOM     82  C   UNL A   1      36.658  22.261  23.683  1.00  0.00     0.004 A 
ATOM     83  C   UNL A   1      36.517  23.679  26.121  1.00  0.00     0.004 A 
ATOM     84  C   UNL A   1      37.570  22.000  24.705  1.00  0.00     0.000 A 
ATOM     85  C   UNL A   1      37.494  22.701  25.919  1.00  0.00     0.000 A 
BRANCH  77  86
ATOM     86  C   UNL A   1      32.521  23.489  24.279  1.00  0.00     0.045 C 
BRANCH  86  87
ATOM     87  C   UNL A   1      32.598  22.048  23.827  1.00  0.00    -0.025 C 
ATOM     88  C   UNL A   1      32.958  21.033  24.635  1.00  0.00     0.004 C 
BRANCH  88  89
ATOM     89  C   UNL A   1      33.222  19.635  24.231  1.00  0.00    -0.026 A 
ATOM     90  C   UNL A   1      34.399  19.026  24.694  1.00  0.00     0.008 A 
ATOM     91  C   UNL A   1      32.428  18.922  23.320  1.00  0.00     0.008 A 
ATOM     92  C   UNL A   1      34.777  17.755  24.251  1.00  0.00     0.001 A 
ATOM     93  C   UNL A   1      32.807  17.652  22.873  1.00  0.00     0.001 A 
ATOM     94  C   UNL A   1      33.981  17.070  23.339  1.00  0.00     0.000 A 
ENDBRANCH  88  89
ENDBRANCH  86  87
ENDBRANCH  77  86
ENDBRANCH  74  77
ENDBRANCH  72  73
ENDBRANCH   1  72
TORSDOF 16
ENDMDL
MODEL 2
REMARK VINA RESULT:     -13.1      1.526      1.715
REMARK SMILES O=C(NCCCNC(=O)C1(C/C=C/c2ccccc2)Cc2ccccc2C1)c1ccc(-c2c3nc(c(-c4cc(S(=O)(=O)[O-])ccc4F)c4ccc([nH]4)c(-c4cc(S(=O)(=O)[O-])ccc4F)c4nc(c(-c5cc(S(=O)(=O)[O-])ccc5F)c5ccc2[nH]5)C=C4)C=C3)cc1
REMARK SMILES IDX 5 1 4 2 3 3 1 4 2 5 28 7 29 8 90 9 30 10 89 11 31 12 32 13
REMARK SMILES IDX 33 14 83 15 34 16 88 17 82 18 84 19 35 20 87 21 81 22 80 23
REMARK SMILES IDX 36 25 68 26 48 27 67 28 49 29 52 30 66 31 85 32 50 33 51 34
REMARK SMILES IDX 65 36 86 37 53 38 37 39 38 40 46 41 39 42 45 43 47 44 44 45
REMARK SMILES IDX 40 46 41 47 42 48 43 49 69 50 70 51 78 52 71 53 77 54 79 55
REMARK SMILES IDX 76 56 72 57 73 58 74 59 75 60 54 61 55 62 63 63 56 64 62 65
REMARK SMILES IDX 64 66 61 67 57 68 58 69 59 70 60 71 6 72 7 73 8 74 9 76
REMARK SMILES IDX 10 77 20 78 27 79 21 80 26 81 22 82 25 83 23 84 24 85 11 86
REMARK SMILES IDX 12 87 13 88 14 89 15 90 19 91 16 92 18 93 17 94
REMARK H PARENT 3 6 84 24 52 35 7 75
REMARK Flexibility Score: inf
ROOT
ATOM      1  C   UNL A   1      32.425  27.937  25.737  1.00  0.00     0.042 C 
ENDROOT
BRANCH   1   2
ATOM      2  C   UNL A   1      33.100  29.258  25.404  1.00  0.00     0.118 C 
BRANCH   2   3
ATOM      3  N   UNL A   1      32.532  30.457  25.992  1.00  0.00    -0.352 N 
ATOM      4  O   UNL A   1      32.448  32.328  27.233  1.00  0.00    -0.269 OA
ATOM      5  C   UNL A   1      33.072  31.310  26.932  1.00  0.00     0.251 C 
ATOM      6  H   UNL A   1      31.631  30.696  25.675  1.00  0.00     0.163 HD
BRANCH   5   7
ATOM      7  C   UNL A   1      34.357  31.001  27.615  1.00  0.00     0.039 A 
ATOM      8  C   UNL A   1      34.643  29.743  28.148  1.00  0.00     0.014 A 
ATOM      9  C   UNL A   1      35.314  32.019  27.729  1.00  0.00     0.014 A 
ATOM     10  C   UNL A   1      35.770  29.554  28.939  1.00  0.00     0.010 A 
ATOM     11  C   UNL A   1      36.499  31.804  28.443  1.00  0.00     0.010 A 
ATOM     12  C   UNL A   1      36.718  30.576  29.079  1.00  0.00    -0.014 A 
BRANCH  12  13
ATOM     13  C   UNL A   1      37.981  30.270  29.789  1.00  0.00     0.031 A 
ATOM     14  C   UNL A   1      38.245  30.777  31.176  1.00  0.00     0.074 A 
ATOM     15  C   UNL A   1      38.862  29.462  29.168  1.00  0.00     0.049 A 
ATOM     16  N   UNL A   1      39.262  30.526  31.960  1.00  0.00    -0.248 NA
ATOM     17  C   UNL A   1      37.245  31.683  31.757  1.00  0.00     0.031 C 
ATOM     18  C   UNL A   1      38.689  28.921  27.816  1.00  0.00     0.029 A 
ATOM     19  N   UNL A   1      40.053  28.933  29.586  1.00  0.00    -0.354 N 
ATOM     20  C   UNL A   1      39.030  31.239  33.130  1.00  0.00     0.074 A 
ATOM     21  C   UNL A   1      37.787  31.960  32.937  1.00  0.00     0.031 C 
ATOM     22  C   UNL A   1      39.711  28.101  27.536  1.00  0.00     0.029 A 
ATOM     23  C   UNL A   1      40.642  28.110  28.656  1.00  0.00     0.049 A 
ATOM     24  H   UNL A   1      40.450  29.124  30.467  1.00  0.00     0.167 HD
ATOM     25  C   UNL A   1      39.786  31.280  34.255  1.00  0.00     0.034 A 
ATOM     26  C   UNL A   1      41.812  27.447  28.692  1.00  0.00     0.034 A 
ATOM     27  C   UNL A   1      41.030  30.560  34.411  1.00  0.00     0.049 A 
ATOM     28  C   UNL A   1      42.649  27.546  29.935  1.00  0.00     0.074 A 
ATOM     29  C   UNL A   1      41.862  30.503  35.517  1.00  0.00     0.029 A 
ATOM     30  N   UNL A   1      41.630  29.783  33.428  1.00  0.00    -0.354 N 
ATOM     31  N   UNL A   1      42.400  28.204  31.045  1.00  0.00    -0.248 NA
ATOM     32  C   UNL A   1      43.917  26.810  29.935  1.00  0.00     0.031 C 
ATOM     33  C   UNL A   1      42.995  29.752  35.178  1.00  0.00     0.029 A 
ATOM     34  C   UNL A   1      42.838  29.276  33.886  1.00  0.00     0.049 A 
ATOM     35  H   UNL A   1      41.254  29.616  32.533  1.00  0.00     0.167 HD
ATOM     36  C   UNL A   1      43.481  27.953  31.881  1.00  0.00     0.074 A 
ATOM     37  C   UNL A   1      44.365  27.060  31.156  1.00  0.00     0.031 C 
ATOM     38  C   UNL A   1      43.723  28.416  33.135  1.00  0.00     0.034 A 
BRANCH  25  39
ATOM     39  C   UNL A   1      39.315  32.164  35.386  1.00  0.00     0.023 A 
ATOM     40  C   UNL A   1      39.725  33.504  35.504  1.00  0.00     0.031 A 
ATOM     41  C   UNL A   1      38.435  31.658  36.361  1.00  0.00     0.131 A 
ATOM     42  C   UNL A   1      39.296  34.275  36.597  1.00  0.00     0.055 A 
ATOM     43  C   UNL A   1      37.961  32.450  37.409  1.00  0.00     0.041 A 
ATOM     44  F   UNL A   1      38.024  30.381  36.313  1.00  0.00    -0.206 F 
ATOM     45  C   UNL A   1      38.399  33.765  37.538  1.00  0.00     0.022 A 
BRANCH  42  46
ATOM     46  S   UNL A   1      40.017  35.923  36.834  1.00  0.00     0.124 S 
ATOM     47  O   UNL A   1      39.247  36.424  37.970  1.00  0.00    -0.237 OA
ATOM     48  O   UNL A   1      41.419  35.620  37.097  1.00  0.00    -0.237 OA
ATOM     49  O   UNL A   1      39.752  36.600  35.566  1.00  0.00    -0.744 OA
ENDBRANCH  42  46
ENDBRANCH  25  39
BRANCH  26  50
ATOM     50  C   UNL A   1      42.262  26.667  27.507  1.00  0.00     0.023 A 
ATOM     51  C   UNL A   1      41.998  25.295  27.393  1.00  0.00     0.031 A 
ATOM     52  C   UNL A   1      42.968  27.295  26.463  1.00  0.00     0.131 A 
ATOM     53  C   UNL A   1      42.462  24.587  26.273  1.00  0.00     0.055 A 
ATOM     54  C   UNL A   1      43.382  26.597  25.329  1.00  0.00     0.041 A 
ATOM     55  F   UNL A   1      43.238  28.609  26.520  1.00  0.00    -0.206 F 
ATOM     56  C   UNL A   1      43.139  25.232  25.235  1.00  0.00     0.022 A 
BRANCH  53  57
ATOM     57  S   UNL A   1      42.225  22.790  26.225  1.00  0.00     0.124 S 
ATOM     58  O   UNL A   1      42.775  22.451  24.917  1.00  0.00    -0.237 OA
ATOM     59  O   UNL A   1      42.999  22.352  27.380  1.00  0.00    -0.237 OA
ATOM     60  O   UNL A   1      40.778  22.636  26.351  1.00  0.00    -0.744 OA
ENDBRANCH  53  57
ENDBRANCH  26  50
BRANCH  38  61
ATOM     61  C   UNL A   1      44.994  27.939  33.787  1.00  0.00     0.023 A 
ATOM     62  C   UNL A   1      45.026  26.765  34.560  1.00  0.00     0.031 A 
ATOM     63  C   UNL A   1      46.177  28.691  33.673  1.00  0.00     0.131 A 
ATOM     64  C   UNL A   1      46.197  26.413  35.247  1.00  0.00     0.055 A 
ATOM     65  C   UNL A   1      47.357  28.303  34.310  1.00  0.00     0.041 A 
ATOM     66  F   UNL A   1      46.201  29.822  32.950  1.00  0.00    -0.206 F 
ATOM     67  C   UNL A   1      47.366  27.167  35.114  1.00  0.00     0.022 A 
BRANCH  64  68
ATOM     68  S   UNL A   1      46.139  25.016  36.401  1.00  0.00     0.124 S 
ATOM     69  O   UNL A   1      46.520  25.647  37.660  1.00  0.00    -0.237 OA
ATOM     70  O   UNL A   1      44.749  24.583  36.300  1.00  0.00    -0.237 OA
ATOM     71  O   UNL A   1      47.120  24.080  35.855  1.00  0.00    -0.744 OA
ENDBRANCH  64  68
ENDBRANCH  38  61
ENDBRANCH  12  13
ENDBRANCH   5   7
ENDBRANCH   2   3
ENDBRANCH   1   2
BRANCH   1  72
ATOM     72  C   UNL A   1      31.619  27.333  24.602  1.00  0.00     0.117 C 
BRANCH  72  73
ATOM     73  N   UNL A   1      32.451  27.048  23.457  1.00  0.00    -0.356 N 
ATOM     74  C   UNL A   1      33.264  26.050  23.074  1.00  0.00     0.227 C 
ATOM     75  H   UNL A   1      32.412  27.769  22.786  1.00  0.00     0.163 HD
ATOM     76  O   UNL A   1      33.867  26.316  22.022  1.00  0.00    -0.274 OA
BRANCH  74  77
ATOM     77  C   UNL A   1      33.565  24.731  23.823  1.00  0.00     0.061 C 
ATOM     78  C   UNL A   1      34.561  23.953  22.861  1.00  0.00     0.053 C 
ATOM     79  C   UNL A   1      34.446  25.060  25.069  1.00  0.00     0.053 C 
ATOM     80  C   UNL A   1      35.561  23.368  23.805  1.00  0.00    -0.044 A 
ATOM     81  C   UNL A   1      35.483  23.975  25.057  1.00  0.00    -0.044 A 
ATOM     82  C   UNL A   1      36.511  22.401  23.526  1.00  0.00     0.004 A 
ATOM     83  C   UNL A   1      36.346  23.604  26.075  1.00  0.00     0.004 A 
ATOM     84  C   UNL A   1      37.383  22.018  24.545  1.00  0.00     0.000 A 
ATOM     85  C   UNL A   1      37.295  22.612  25.814  1.00  0.00     0.000 A 
BRANCH  77  86
ATOM     86  C   UNL A   1      32.403  23.721  24.118  1.00  0.00     0.045 C 
BRANCH  86  87
ATOM     87  C   UNL A   1      32.513  22.282  23.668  1.00  0.00    -0.025 C 
ATOM     88  C   UNL A   1      32.714  21.252  24.512  1.00  0.00     0.004 C 
BRANCH  88  89
ATOM     89  C   UNL A   1      33.002  19.850  24.140  1.00  0.00    -0.026 A 
ATOM     90  C   UNL A   1      34.141  19.242  24.692  1.00  0.00     0.008 A 
ATOM     91  C   UNL A   1      32.273  19.132  23.181  1.00  0.00     0.008 A 
ATOM     92  C   UNL A   1      34.546  17.967  24.288  1.00  0.00     0.001 A 
ATOM     93  C   UNL A   1      32.680  17.857  22.773  1.00  0.00     0.001 A 
ATOM     94  C   UNL A   1      33.815  17.275  23.327  1.00  0.00     0.000 A 
ENDBRANCH  88  89
ENDBRANCH  86  87
ENDBRANCH  77  86
ENDBRANCH  74  77
ENDBRANCH  72  73
ENDBRANCH   1  72
TORSDOF 16
ENDMDL
MODEL 3
REMARK VINA RESULT:     -12.9      5.075     10.521
REMARK SMILES O=C(NCCCNC(=O)C1(C/C=C/c2ccccc2)Cc2ccccc2C1)c1ccc(-c2c3nc(c(-c4cc(S(=O)(=O)[O-])ccc4F)c4ccc([nH]4)c(-c4cc(S(=O)(=O)[O-])ccc4F)c4nc(c(-c5cc(S(=O)(=O)[O-])ccc5F)c5ccc2[nH]5)C=C4)C=C3)cc1
REMARK SMILES IDX 5 1 4 2 3 3 1 4 2 5 28 7 29 8 90 9 30 10 89 11 31 12 32 13
REMARK SMILES IDX 33 14 83 15 34 16 88 17 82 18 84 19 35 20 87 21 81 22 80 23
REMARK SMILES IDX 36 25 68 26 48 27 67 28 49 29 52 30 66 31 85 32 50 33 51 34
REMARK SMILES IDX 65 36 86 37 53 38 37 39 38 40 46 41 39 42 45 43 47 44 44 45
REMARK SMILES IDX 40 46 41 47 42 48 43 49 69 50 70 51 78 52 71 53 77 54 79 55
REMARK SMILES IDX 76 56 72 57 73 58 74 59 75 60 54 61 55 62 63 63 56 64 62 65
REMARK SMILES IDX 64 66 61 67 57 68 58 69 59 70 60 71 6 72 7 73 8 74 9 76
REMARK SMILES IDX 10 77 20 78 27 79 21 80 26 81 22 82 25 83 23 84 24 85 11 86
REMARK SMILES IDX 12 87 13 88 14 89 15 90 19 91 16 92 18 93 17 94
REMARK H PARENT 3 6 84 24 52 35 7 75
REMARK Flexibility Score: inf
ROOT
ATOM      1  C   UNL A   1      35.848  22.728  24.057  1.00  0.00     0.042 C 
ENDROOT
BRANCH   1   2
ATOM      2  C   UNL A   1      36.314  22.184  25.398  1.00  0.00     0.118 C 
BRANCH   2   3
ATOM      3  N   UNL A   1      37.295  21.115  25.372  1.00  0.00    -0.352 N 
ATOM      4  O   UNL A   1      39.243  20.069  25.767  1.00  0.00    -0.269 OA
ATOM      5  C   UNL A   1      38.605  21.121  25.804  1.00  0.00     0.251 C 
ATOM      6  H   UNL A   1      36.981  20.263  24.992  1.00  0.00     0.163 HD
BRANCH   5   7
ATOM      7  C   UNL A   1      39.266  22.372  26.262  1.00  0.00     0.039 A 
ATOM      8  C   UNL A   1      38.834  23.640  25.871  1.00  0.00     0.014 A 
ATOM      9  C   UNL A   1      40.372  22.268  27.117  1.00  0.00     0.014 A 
ATOM     10  C   UNL A   1      39.593  24.765  26.168  1.00  0.00     0.010 A 
ATOM     11  C   UNL A   1      41.084  23.410  27.502  1.00  0.00     0.010 A 
ATOM     12  C   UNL A   1      40.714  24.665  27.002  1.00  0.00    -0.014 A 
BRANCH  12  13
ATOM     13  C   UNL A   1      41.388  25.913  27.428  1.00  0.00     0.031 A 
ATOM     14  C   UNL A   1      42.775  26.253  26.970  1.00  0.00     0.074 A 
ATOM     15  C   UNL A   1      40.683  26.768  28.193  1.00  0.00     0.049 A 
ATOM     16  N   UNL A   1      43.465  27.342  27.186  1.00  0.00    -0.248 NA
ATOM     17  C   UNL A   1      43.480  25.241  26.171  1.00  0.00     0.031 C 
ATOM     18  C   UNL A   1      39.325  26.522  28.688  1.00  0.00     0.029 A 
ATOM     19  N   UNL A   1      40.985  28.017  28.666  1.00  0.00    -0.354 N 
ATOM     20  C   UNL A   1      44.688  27.155  26.551  1.00  0.00     0.074 A 
ATOM     21  C   UNL A   1      44.654  25.828  25.968  1.00  0.00     0.031 C 
ATOM     22  C   UNL A   1      38.895  27.601  29.353  1.00  0.00     0.029 A 
ATOM     23  C   UNL A   1      39.966  28.589  29.390  1.00  0.00     0.049 A 
ATOM     24  H   UNL A   1      41.849  28.462  28.504  1.00  0.00     0.167 HD
ATOM     25  C   UNL A   1      45.732  28.016  26.465  1.00  0.00     0.034 A 
ATOM     26  C   UNL A   1      39.905  29.770  30.030  1.00  0.00     0.034 A 
ATOM     27  C   UNL A   1      45.741  29.329  27.071  1.00  0.00     0.049 A 
ATOM     28  C   UNL A   1      41.093  30.684  29.954  1.00  0.00     0.074 A 
ATOM     29  C   UNL A   1      46.731  30.296  27.022  1.00  0.00     0.029 A 
ATOM     30  N   UNL A   1      44.717  29.854  27.850  1.00  0.00    -0.354 N 
ATOM     31  N   UNL A   1      42.233  30.502  29.324  1.00  0.00    -0.248 NA
ATOM     32  C   UNL A   1      40.989  31.962  30.664  1.00  0.00     0.031 C 
ATOM     33  C   UNL A   1      46.336  31.372  27.827  1.00  0.00     0.029 A 
ATOM     34  C   UNL A   1      45.067  31.113  28.319  1.00  0.00     0.049 A 
ATOM     35  H   UNL A   1      43.865  29.399  28.043  1.00  0.00     0.167 HD
ATOM     36  C   UNL A   1      42.979  31.651  29.557  1.00  0.00     0.074 A 
ATOM     37  C   UNL A   1      42.147  32.529  30.359  1.00  0.00     0.031 C 
ATOM     38  C   UNL A   1      44.237  31.956  29.147  1.00  0.00     0.034 A 
BRANCH  25  39
ATOM     39  C   UNL A   1      46.967  27.550  25.729  1.00  0.00     0.023 A 
ATOM     40  C   UNL A   1      47.188  27.859  24.376  1.00  0.00     0.031 A 
ATOM     41  C   UNL A   1      47.943  26.788  26.397  1.00  0.00     0.131 A 
ATOM     42  C   UNL A   1      48.329  27.368  23.721  1.00  0.00     0.055 A 
ATOM     43  C   UNL A   1      49.107  26.357  25.757  1.00  0.00     0.041 A 
ATOM     44  F   UNL A   1      47.779  26.444  27.684  1.00  0.00    -0.206 F 
ATOM     45  C   UNL A   1      49.302  26.637  24.408  1.00  0.00     0.022 A 
BRANCH  42  46
ATOM     46  S   UNL A   1      48.471  27.600  21.927  1.00  0.00     0.124 S 
ATOM     47  O   UNL A   1      49.612  28.508  21.834  1.00  0.00    -0.237 OA
ATOM     48  O   UNL A   1      48.696  26.240  21.449  1.00  0.00    -0.237 OA
ATOM     49  O   UNL A   1      47.186  28.187  21.554  1.00  0.00    -0.744 OA
ENDBRANCH  42  46
ENDBRANCH  25  39
BRANCH  26  50
ATOM     50  C   UNL A   1      38.692  30.129  30.815  1.00  0.00     0.023 A 
ATOM     51  C   UNL A   1      37.668  30.909  30.259  1.00  0.00     0.031 A 
ATOM     52  C   UNL A   1      38.544  29.690  32.144  1.00  0.00     0.131 A 
ATOM     53  C   UNL A   1      36.552  31.250  31.039  1.00  0.00     0.055 A 
ATOM     54  C   UNL A   1      37.409  29.989  32.897  1.00  0.00     0.041 A 
ATOM     55  F   UNL A   1      39.493  28.933  32.719  1.00  0.00    -0.206 F 
ATOM     56  C   UNL A   1      36.409  30.784  32.349  1.00  0.00     0.022 A 
BRANCH  53  57
ATOM     57  S   UNL A   1      35.314  32.373  30.336  1.00  0.00     0.124 S 
ATOM     58  O   UNL A   1      34.382  32.525  31.447  1.00  0.00    -0.237 OA
ATOM     59  O   UNL A   1      36.120  33.544  30.009  1.00  0.00    -0.237 OA
ATOM     60  O   UNL A   1      34.799  31.633  29.186  1.00  0.00    -0.744 OA
ENDBRANCH  53  57
ENDBRANCH  26  50
BRANCH  38  61
ATOM     61  C   UNL A   1      44.762  33.307  29.559  1.00  0.00     0.023 A 
ATOM     62  C   UNL A   1      44.524  34.454  28.781  1.00  0.00     0.031 A 
ATOM     63  C   UNL A   1      45.550  33.440  30.716  1.00  0.00     0.131 A 
ATOM     64  C   UNL A   1      45.124  35.672  29.133  1.00  0.00     0.055 A 
ATOM     65  C   UNL A   1      46.094  34.669  31.094  1.00  0.00     0.041 A 
ATOM     66  F   UNL A   1      45.810  32.377  31.491  1.00  0.00    -0.206 F 
ATOM     67  C   UNL A   1      45.896  35.789  30.292  1.00  0.00     0.022 A 
BRANCH  64  68
ATOM     68  S   UNL A   1      44.971  37.076  27.995  1.00  0.00     0.124 S 
ATOM     69  O   UNL A   1      44.062  37.956  28.720  1.00  0.00    -0.237 OA
ATOM     70  O   UNL A   1      46.351  37.538  27.880  1.00  0.00    -0.237 OA
ATOM     71  O   UNL A   1      44.417  36.475  26.783  1.00  0.00    -0.744 OA
ENDBRANCH  64  68
ENDBRANCH  38  61
ENDBRANCH  12  13
ENDBRANCH   5   7
ENDBRANCH   2   3
ENDBRANCH   1   2
BRANCH   1  72
ATOM     72  C   UNL A   1      34.353  22.626  23.814  1.00  0.00     0.117 C 
BRANCH  72  73
ATOM     73  N   UNL A   1      33.612  22.690  25.051  1.00  0.00    -0.356 N 
ATOM     74  C   UNL A   1      32.872  23.610  25.691  1.00  0.00     0.227 C 
ATOM     75  H   UNL A   1      33.661  21.844  25.553  1.00  0.00     0.163 HD
ATOM     76  O   UNL A   1      32.518  23.225  26.817  1.00  0.00    -0.274 OA
BRANCH  74  77
ATOM     77  C   UNL A   1      32.524  25.042  25.221  1.00  0.00     0.061 C 
ATOM     78  C   UNL A   1      31.631  25.633  26.394  1.00  0.00     0.053 C 
ATOM     79  C   UNL A   1      33.820  25.910  25.278  1.00  0.00     0.053 C 
ATOM     80  C   UNL A   1      32.123  27.037  26.523  1.00  0.00    -0.044 A 
ATOM     81  C   UNL A   1      33.346  27.202  25.875  1.00  0.00    -0.044 A 
ATOM     82  C   UNL A   1      31.532  28.071  27.229  1.00  0.00     0.004 A 
ATOM     83  C   UNL A   1      33.997  28.424  25.899  1.00  0.00     0.004 A 
ATOM     84  C   UNL A   1      32.178  29.307  27.257  1.00  0.00     0.000 A 
ATOM     85  C   UNL A   1      33.400  29.483  26.590  1.00  0.00     0.000 A 
BRANCH  77  86
ATOM     86  C   UNL A   1      31.680  25.248  23.916  1.00  0.00     0.045 C 
BRANCH  86  87
ATOM     87  C   UNL A   1      30.547  26.249  23.893  1.00  0.00    -0.025 C 
ATOM     88  C   UNL A   1      30.631  27.455  23.300  1.00  0.00     0.004 C 
BRANCH  88  89
ATOM     89  C   UNL A   1      29.639  28.549  23.380  1.00  0.00    -0.026 A 
ATOM     90  C   UNL A   1      28.296  28.242  23.111  1.00  0.00     0.008 A 
ATOM     91  C   UNL A   1      29.977  29.894  23.595  1.00  0.00     0.008 A 
ATOM     92  C   UNL A   1      27.326  29.246  23.042  1.00  0.00     0.001 A 
ATOM     93  C   UNL A   1      29.007  30.900  23.522  1.00  0.00     0.001 A 
ATOM     94  C   UNL A   1      27.683  30.575  23.246  1.00  0.00     0.000 A 
ENDBRANCH  88  89
ENDBRANCH  86  87
ENDBRANCH  77  86
ENDBRANCH  74  77
ENDBRANCH  72  73
ENDBRANCH   1  72
TORSDOF 16
ENDMDL
